# primitive CIF file created by Jmol 14.29.28  2018-10-31 18:38
data_primitive
_cell_length_a 10.1547
_cell_length_b 10.3853
_cell_length_c 14.1353
_cell_angle_alpha 78.723
_cell_angle_beta 82.09
_cell_angle_gamma 69.285

_symmetry_space_group_name_H-M 'P 1'
loop_
_space_group_symop_operation_xyz
'x,y,z'

loop_
_atom_site_label
_atom_site_fract_x
_atom_site_fract_y
_atom_site_fract_z
Si	0.12884   	0.83514   	0.18986   
C	0.41913   	0.57109   	0.41753   
C	0.49574   	0.37020   	0.54737   
S	0.49440   	0.21780   	0.61560   
C	0.41721   	0.44031   	0.46594   
C	0.34570   	0.33600   	0.46760   
C	0.38276   	0.21480   	0.53159   
C	0.33666   	0.09431   	0.54891   
S	0.23300   	0.08390   	0.46370   
C	0.35500   	-0.01760  	0.61990   
C	0.28098   	-0.10800  	0.61000   
C	0.28000   	-0.23000  	0.67200   
C	0.20900   	-0.30800  	0.64600   
S	0.19070   	-0.46310  	0.70830   
C	0.10798   	-0.48300  	0.61700   
C	0.07100   	-0.36800  	0.55100   
C	0.13000   	-0.26400  	0.56200   
C	0.13300   	-0.14400  	0.50100   
C	0.21800   	-0.07500  	0.52100   
C	0.33397   	0.64768   	0.33872   
C	0.25807   	0.71988   	0.27641   
C	0.08051   	1.02024   	0.20926   
C	0.20458   	1.07240   	0.20200   
C	0.16200   	1.22360   	0.21850   
C	0.09560   	1.32290   	0.13380   
C	0.20963   	0.81413   	0.06409   
C	0.24530   	0.66678   	0.04125   
C	0.31080   	0.64980   	-0.06137  
C	0.34750   	0.50240   	-0.08112  
C	-0.03032  	0.77935   	0.21349   
C	-0.14772  	0.86131   	0.14530   
C	-0.26698  	0.80171   	0.15964   
C	-0.39180  	0.88950   	0.10024   
Si	0.87116   	0.16486   	0.81014   
C	0.58087   	0.42891   	0.58247   
C	0.50426   	0.62980   	0.45263   
S	0.50560   	0.78220   	0.38440   
C	0.58279   	0.55969   	0.53406   
C	0.65430   	0.66400   	0.53240   
C	0.61725   	0.78518   	0.46841   
C	0.66334   	0.90569   	0.45109   
S	0.76700   	0.91610   	0.53630   
C	0.64500   	1.01760   	0.38010   
C	0.71900   	1.10800   	0.39000   
C	0.72000   	1.23000   	0.32800   
C	0.79100   	1.30800   	0.35400   
S	0.80930   	1.46310   	0.29170   
C	0.89200   	1.48300   	0.38300   
C	0.92900   	1.36800   	0.44900   
C	0.87000   	1.26400   	0.43800   
C	0.86700   	1.14400   	0.49900   
C	0.78202   	1.07500   	0.47900   
C	0.66603   	0.35232   	0.66128   
C	0.74195   	0.28012   	0.72359   
C	0.91949   	-0.02023  	0.79074   
C	0.79540   	-0.07240  	0.79800   
C	0.83800   	-0.22360  	0.78150   
C	0.90440   	-0.32290  	0.86620   
C	0.79037   	0.18587   	0.93591   
C	0.75472   	0.33322   	0.95875   
C	0.68920   	0.35020   	1.06137   
C	0.65250   	0.49760   	1.08112   
C	1.03032   	0.22065   	0.78651   
C	1.14772   	0.13869   	0.85470   
C	1.26698   	0.19829   	0.84036   
C	1.39180   	0.11050   	0.89976   
