data_m19181 
 
_audit_creation_method            'SHELXL-2018/3' 
# CIF edited on-the-fly by script CIFFIX (S. Parkin, 2000-2017). 
# CIFFIX: https://xray.uky.edu/Resources/scripts/ciffix 
_audit_update_record              ? 
 
_shelx_SHELXL_version_number      '2018/3' 
 
_publ_section_exptl_refinement 
; 
H atoms were found in difference Fourier maps, but subsequently included 
in the refinement using riding models, with constrained distances set to 
0.95 \%A (C~sp2~H), 0.98 \%A (RCH~3~) and 0.99 \%A (R~2~CH~2~).  U~iso~(H) 
parameters were set to values of either 1.2U~eq~ or 1.5U~eq~ (RCH~3~ only) 
of the attached atom. 
; 
 
_publ_section_references 
; 
Bruker-AXS (2016). 
  <i>APEX3</i> Bruker-AXS Inc., Madison, WI, USA. 
 
Hope, H. (1994). 
  <i>Prog. Inorg. Chem.</i> <b>41</b>, 1--19. 
 
Krause, L., Herbst-Irmer, R., Sheldrick, G.M. & Stalke, D. (2015). 
  <i>J. Appl. Cryst.</i> <b>48</b>, 3--10. 
 
Parkin, S. & Hope, H. (1998). 
  <i>J. Appl. Cryst.</i> <b>31</b>, 945--953. 
 
Parkin, S. (2000). 
  <i>Acta Cryst.</i> A<b>56</b>, 157--162. 
 
Parkin, S. (2013). 
  <i>CIFFIX</i>, https://xray.uky.edu/Resources/scripts/ciffix 
 
Sheldrick, G.M. (2008). 
  <i>Acta Cryst.</i> A<b>64</b>, 112--122. 
 
Sheldrick, G.M. (2015a). 
  <i>Acta Cryst.</i> A<b>71</b>, 3--8. 
 
Sheldrick, G.M. (2015b). 
  <i>Acta Cryst.</i> C<b>71</b>, 3--8. 
 
Spek, A.L. (2009). 
  <i>Acta Cryst.</i> D<b>65</b>, 148--155. 
; 
 
_publ_section_acknowledgements 
; 
The D8 Venture diffractometer was funded by the NSF (MRI CHE1625732), 
and by the University of Kentucky. 
; 
 
_chemical_name_systematic         ? 
_chemical_name_common             ? 
_chemical_melting_point           ? 
_chemical_formula_moiety          'C17 H19 N O2 S, Cl O4' 
_chemical_formula_sum             'C17 H19 Cl N O6 S' 
_chemical_formula_weight          400.84 
 
loop_ 
 _atom_type_symbol 
 _atom_type_description 
 _atom_type_scat_dispersion_real 
 _atom_type_scat_dispersion_imag 
 _atom_type_scat_source 
 'C'  'C'   0.0033   0.0016 
 'International Tables Vol C Tables 4.2.6.8 and 6.1.1.4' 
 'H'  'H'   0.0000   0.0000 
 'International Tables Vol C Tables 4.2.6.8 and 6.1.1.4' 
 'Cl'  'Cl'   0.1484   0.1585 
 'International Tables Vol C Tables 4.2.6.8 and 6.1.1.4' 
 'N'  'N'   0.0061   0.0033 
 'International Tables Vol C Tables 4.2.6.8 and 6.1.1.4' 
 'O'  'O'   0.0106   0.0060 
 'International Tables Vol C Tables 4.2.6.8 and 6.1.1.4' 
 'S'  'S'   0.1246   0.1234 
 'International Tables Vol C Tables 4.2.6.8 and 6.1.1.4' 
 
_space_group_crystal_system       monoclinic 
_space_group_IT_number            14 
_space_group_name_H-M_alt         'P 21/c' 
_space_group_name_Hall            '-P 2ybc' 
 
_shelx_space_group_comment 
; 
The symmetry employed for this shelxl refinement is uniquely defined 
by the following loop, which should always be used as a source of 
symmetry information in preference to the above space-group names. 
They are only intended as comments. 
; 
 
loop_ 
 _space_group_symop_operation_xyz 
 'x, y, z' 
 '-x, y+1/2, -z+1/2' 
 '-x, -y, -z' 
 'x, -y-1/2, z-1/2' 
 
_cell_length_a                    7.0156(5) 
_cell_length_b                    12.6773(8) 
_cell_length_c                    19.2635(9) 
_cell_angle_alpha                 90 
_cell_angle_beta                  96.856(2) 
_cell_angle_gamma                 90 
_cell_volume                      1701.02(18) 
_cell_formula_units_Z             4 
_cell_measurement_temperature     90.0(2) 
_cell_measurement_reflns_used     9793 
_cell_measurement_theta_min       2.67 
_cell_measurement_theta_max       27.49 
 
_exptl_crystal_description        block 
_exptl_crystal_colour             'dark green' 
_exptl_crystal_density_meas       ? 
_exptl_crystal_density_method     ? 
_exptl_crystal_density_diffrn     1.565 
_exptl_crystal_F_000              836 
_exptl_transmission_factor_min    ? 
_exptl_transmission_factor_max    ? 
_exptl_crystal_size_max           0.320 
_exptl_crystal_size_mid           0.160 
_exptl_crystal_size_min           0.130 
_exptl_absorpt_coefficient_mu     0.384 
_shelx_estimated_absorpt_T_min    0.887 
_shelx_estimated_absorpt_T_max    0.952 
_exptl_absorpt_correction_type    multi-scan 
_exptl_absorpt_correction_T_min   0.853 
_exptl_absorpt_correction_T_max   0.971 
_exptl_absorpt_process_details    '<i>SADABS</i> (Krause et al., 2015)' 
_exptl_absorpt_special_details 
; 
In addition to absorption, multi-scan techniques also correct other slowly 
varying changes in scale factor over reciprocal space, such as those caused 
by X-ray beam inhomogeneity, goniometer imperfection, crystal decomposition, 
crystal longer than the X-ray beam cross section, absorption by the crystal 
mount etc.  These account, by and large, for much of the difference between 
estimated values of Tmin and Tmax and the _exptl_absorpt_correction_ values. 
; 
 
_exptl_special_details 
; 
The crystal was mounted using polyisobutene oil on the tip of a fine glass 
fibre, which was fastened in a copper mounting pin with electrical solder. 
It was placed directly into the cold gas stream of a liquid-nitrogen based 
cryostat (Hope, 1994; Parkin & Hope, 1998). 
 
Diffraction data were collected with the crystal at 90K, which is standard 
practice in this laboratory for the majority of flash-cooled crystals. 
; 
 
_diffrn_ambient_temperature       90.0(2) 
_diffrn_radiation_wavelength      0.71073 
_diffrn_radiation_type            MoK\a 
_diffrn_source                    'microsource' 
_diffrn_measurement_device_type   'Bruker D8 Venture dual source' 
_diffrn_measurement_method        '\f and \w scans' 
_diffrn_detector_area_resol_mean  7.41 
_diffrn_reflns_number             26027 
_diffrn_reflns_av_unetI/netI      0.0273 
_diffrn_reflns_av_R_equivalents   0.0425 
_diffrn_reflns_limit_h_min        -9 
_diffrn_reflns_limit_h_max        9 
_diffrn_reflns_limit_k_min        -16 
_diffrn_reflns_limit_k_max        16 
_diffrn_reflns_limit_l_min        -25 
_diffrn_reflns_limit_l_max        22 
_diffrn_reflns_theta_min          2.668 
_diffrn_reflns_theta_max          27.520 
_diffrn_reflns_theta_full         25.242 
_diffrn_measured_fraction_theta_max                0.998 
_diffrn_measured_fraction_theta_full               0.999 
_diffrn_reflns_Laue_measured_fraction_max          0.998 
_diffrn_reflns_Laue_measured_fraction_full         0.999 
_diffrn_reflns_point_group_measured_fraction_max   0.998 
_diffrn_reflns_point_group_measured_fraction_full  0.999 
 
_reflns_number_total              3902 
_reflns_number_gt                 3495 
_reflns_threshold_expression      'I > 2\s(I)' 
_reflns_Friedel_coverage          0.000 
_reflns_Friedel_fraction_max      . 
_reflns_Friedel_fraction_full     . 
_reflns_special_details 
; 
Reflections were merged by SHELXL according to the crystal 
class for the calculation of statistics and refinement. 
 
_reflns_Friedel_fraction is defined as the number of unique 
Friedel pairs measured divided by the number that would be 
possible theoretically, ignoring centric projections and 
systematic absences. 
; 
 
_computing_data_collection        '<i>APEX3</i> (Bruker-AXS, 2016)' 
_computing_cell_refinement        '<i>APEX3</i> (Bruker-AXS, 2016)' 
_computing_data_reduction         '<i>APEX3</i> (Bruker-AXS, 2016)' 
_computing_structure_solution     '<i>SHELXT</i> (Sheldrick, 2015a)' 
_computing_structure_refinement   '<i>SHELXL-2018/3</i> (Sheldrick, 2015b)' 
_computing_molecular_graphics     '<i>XP in SHELXTL</i> (Sheldrick, 2008)' 
_computing_publication_material 
'<i>SHELX</i> (Sheldrick, 2008) and <i>CIFFIX</i> (Parkin, 2013)' 
 
_refine_special_details 
; 
Refinement progress was checked using <i>Platon</i> (Spek, 2009) and by 
an <i>R</i>-tensor (Parkin, 2000). The final model was further checked 
with the IUCr utility <i>checkCIF</i>. 
; 
_refine_ls_structure_factor_coef  Fsqd 
_refine_ls_matrix_type            full 
_refine_ls_weighting_scheme       calc 
_refine_ls_weighting_details 
'w=1/[\s^2^(Fo^2^)+(0.0288P)^2^+1.0963P] where P=(Fo^2^+2Fc^2^)/3' 
_atom_sites_solution_primary      direct 
_atom_sites_solution_secondary    difmap 
_atom_sites_solution_hydrogens    difmap 
_refine_ls_hydrogen_treatment     constr 
_refine_ls_extinction_method      'SHELXL-2018/3 (Sheldrick 2018)' 
_refine_ls_extinction_coef        0.0054(8) 
_refine_ls_extinction_expression 
 'Fc^*^=kFc[1+0.001xFc^2^\l^3^/sin(2\q)]^-1/4^' 
_refine_ls_number_reflns          3902 
_refine_ls_number_parameters      237 
_refine_ls_number_restraints      0 
_refine_ls_R_factor_all           0.0360 
_refine_ls_R_factor_gt            0.0306 
_refine_ls_wR_factor_ref          0.0773 
_refine_ls_wR_factor_gt           0.0738 
_refine_ls_goodness_of_fit_ref    1.075 
_refine_ls_restrained_S_all       1.075 
_refine_ls_shift/su_max           0.000 
_refine_ls_shift/su_mean          0.000 
 
loop_ 
 _atom_site_label 
 _atom_site_type_symbol 
 _atom_site_fract_x 
 _atom_site_fract_y 
 _atom_site_fract_z 
 _atom_site_U_iso_or_equiv 
 _atom_site_adp_type 
 _atom_site_occupancy 
 _atom_site_site_symmetry_order 
 _atom_site_calc_flag 
 _atom_site_refinement_flags_posn 
 _atom_site_refinement_flags_adp 
 _atom_site_refinement_flags_occupancy 
 _atom_site_disorder_assembly 
 _atom_site_disorder_group 
S1 S 0.28144(5) 0.52808(3) 0.56820(2) 0.01584(10) Uani 1 1 d . . . . . 
O1 O 0.47758(14) 0.26418(8) 0.35093(5) 0.0181(2) Uani 1 1 d . . . . . 
O2 O 0.83818(14) 0.16347(8) 0.39700(5) 0.0184(2) Uani 1 1 d . . . . . 
N1 N 0.22850(16) 0.39969(9) 0.42796(6) 0.0141(2) Uani 1 1 d . . . . . 
C1 C 0.20480(19) 0.50871(11) 0.42384(7) 0.0140(3) Uani 1 1 d . . . . . 
C2 C 0.1520(2) 0.55862(11) 0.35874(7) 0.0161(3) Uani 1 1 d . . . . . 
H2 H 0.134332 0.517268 0.317344 0.019 Uiso 1 1 calc R U . . . 
C3 C 0.1259(2) 0.66599(11) 0.35437(7) 0.0174(3) Uani 1 1 d . . . . . 
H3 H 0.088932 0.697469 0.310048 0.021 Uiso 1 1 calc R U . . . 
C4 C 0.1528(2) 0.72978(12) 0.41408(8) 0.0188(3) Uani 1 1 d . . . . . 
H4 H 0.135998 0.804004 0.410304 0.023 Uiso 1 1 calc R U . . . 
C5 C 0.2039(2) 0.68381(12) 0.47821(8) 0.0177(3) Uani 1 1 d . . . . . 
H5 H 0.221866 0.726466 0.519010 0.021 Uiso 1 1 calc R U . . . 
C6 C 0.22969(19) 0.57440(11) 0.48378(7) 0.0147(3) Uani 1 1 d . . . . . 
C7 C 0.31231(19) 0.39493(11) 0.55565(7) 0.0156(3) Uani 1 1 d . . . . . 
C8 C 0.3623(2) 0.33625(12) 0.61697(7) 0.0187(3) Uani 1 1 d . . . . . 
H8 H 0.372103 0.370424 0.661138 0.022 Uiso 1 1 calc R U . . . 
C9 C 0.3972(2) 0.23012(12) 0.61363(8) 0.0204(3) Uani 1 1 d . . . . . 
H9 H 0.431248 0.190595 0.655157 0.024 Uiso 1 1 calc R U . . . 
C10 C 0.3820(2) 0.18065(12) 0.54815(8) 0.0189(3) Uani 1 1 d . . . . . 
H10 H 0.409817 0.107502 0.545644 0.023 Uiso 1 1 calc R U . . . 
C11 C 0.3278(2) 0.23548(12) 0.48749(7) 0.0170(3) Uani 1 1 d . . . . . 
H11 H 0.316746 0.199663 0.443876 0.020 Uiso 1 1 calc R U . . . 
C12 C 0.28841(19) 0.34485(11) 0.48938(7) 0.0144(3) Uani 1 1 d . . . . . 
C13 C 0.1712(2) 0.33784(11) 0.36302(7) 0.0152(3) Uani 1 1 d . . . . . 
H13A H 0.058819 0.372168 0.336258 0.018 Uiso 1 1 calc R U . . . 
H13B H 0.131562 0.266306 0.376103 0.018 Uiso 1 1 calc R U . . . 
C14 C 0.3299(2) 0.32799(11) 0.31648(7) 0.0167(3) Uani 1 1 d . . . . . 
H14A H 0.279060 0.295586 0.271271 0.020 Uiso 1 1 calc R U . . . 
H14B H 0.381056 0.398670 0.307071 0.020 Uiso 1 1 calc R U . . . 
C15 C 0.6052(2) 0.22303(12) 0.30525(7) 0.0194(3) Uani 1 1 d . . . . . 
H15A H 0.700082 0.277473 0.295930 0.023 Uiso 1 1 calc R U . . . 
H15B H 0.532254 0.202228 0.260147 0.023 Uiso 1 1 calc R U . . . 
C16 C 0.7059(2) 0.12918(12) 0.33941(8) 0.0197(3) Uani 1 1 d . . . . . 
H16A H 0.611038 0.080316 0.356014 0.024 Uiso 1 1 calc R U . . . 
H16B H 0.775418 0.091132 0.305240 0.024 Uiso 1 1 calc R U . . . 
C17 C 0.8938(2) 0.07844(12) 0.44245(8) 0.0223(3) Uani 1 1 d . . . . . 
H17A H 0.940728 0.020208 0.415640 0.033 Uiso 1 1 calc R U . . . 
H17B H 0.783209 0.054602 0.464874 0.033 Uiso 1 1 calc R U . . . 
H17C H 0.996150 0.101575 0.478321 0.033 Uiso 1 1 calc R U . . . 
Cl1 Cl 0.21584(5) -0.00472(3) 0.30104(2) 0.01685(10) Uani 1 1 d . . . . . 
O3 O 0.14466(17) 0.10043(9) 0.28872(6) 0.0271(3) Uani 1 1 d . . . . . 
O4 O 0.06030(17) -0.07898(9) 0.28608(6) 0.0280(3) Uani 1 1 d . . . . . 
O5 O 0.29657(17) -0.01552(10) 0.37283(6) 0.0303(3) Uani 1 1 d . . . . . 
O6 O 0.36136(19) -0.02515(10) 0.25632(7) 0.0364(3) Uani 1 1 d . . . . . 
 
loop_ 
 _atom_site_aniso_label 
 _atom_site_aniso_U_11 
 _atom_site_aniso_U_22 
 _atom_site_aniso_U_33 
 _atom_site_aniso_U_23 
 _atom_site_aniso_U_13 
 _atom_site_aniso_U_12 
S1 0.01792(18) 0.01784(18) 0.01163(17) -0.00119(13) 0.00123(12) 0.00068(13) 
O1 0.0194(5) 0.0222(5) 0.0124(5) -0.0004(4) 0.0014(4) 0.0047(4) 
O2 0.0201(5) 0.0179(5) 0.0162(5) 0.0006(4) -0.0018(4) -0.0012(4) 
N1 0.0146(5) 0.0156(6) 0.0120(5) -0.0004(4) 0.0012(4) -0.0006(4) 
C1 0.0107(6) 0.0163(7) 0.0150(6) 0.0002(5) 0.0022(5) -0.0001(5) 
C2 0.0163(6) 0.0182(7) 0.0139(6) -0.0003(5) 0.0017(5) -0.0002(5) 
C3 0.0166(7) 0.0187(7) 0.0165(7) 0.0037(6) 0.0009(5) 0.0004(5) 
C4 0.0188(7) 0.0157(7) 0.0219(7) 0.0000(6) 0.0021(6) 0.0008(5) 
C5 0.0174(7) 0.0181(7) 0.0178(7) -0.0026(6) 0.0026(5) -0.0007(5) 
C6 0.0123(6) 0.0181(7) 0.0138(6) -0.0001(5) 0.0017(5) -0.0002(5) 
C7 0.0133(6) 0.0187(7) 0.0150(6) 0.0008(5) 0.0025(5) -0.0005(5) 
C8 0.0186(7) 0.0244(8) 0.0129(6) 0.0006(6) 0.0006(5) -0.0005(6) 
C9 0.0208(7) 0.0241(8) 0.0159(7) 0.0056(6) 0.0002(5) -0.0005(6) 
C10 0.0191(7) 0.0172(7) 0.0203(7) 0.0032(6) 0.0018(6) -0.0007(5) 
C11 0.0165(7) 0.0186(7) 0.0159(7) 0.0003(5) 0.0017(5) -0.0016(5) 
C12 0.0118(6) 0.0180(7) 0.0135(6) 0.0021(5) 0.0014(5) -0.0010(5) 
C13 0.0179(7) 0.0146(7) 0.0126(6) -0.0014(5) -0.0006(5) -0.0015(5) 
C14 0.0199(7) 0.0168(7) 0.0133(6) -0.0001(5) 0.0013(5) 0.0019(5) 
C15 0.0227(7) 0.0224(8) 0.0134(6) -0.0014(6) 0.0038(5) 0.0033(6) 
C16 0.0201(7) 0.0204(7) 0.0179(7) -0.0051(6) -0.0006(6) 0.0010(6) 
C17 0.0262(8) 0.0188(7) 0.0214(7) 0.0029(6) 0.0014(6) 0.0017(6) 
Cl1 0.01872(18) 0.01560(18) 0.01579(17) -0.00001(12) 0.00026(13) 0.00092(12) 
O3 0.0296(6) 0.0164(5) 0.0336(6) 0.0012(5) -0.0027(5) 0.0039(5) 
O4 0.0317(6) 0.0225(6) 0.0275(6) 0.0022(5) -0.0057(5) -0.0099(5) 
O5 0.0309(6) 0.0370(7) 0.0203(6) 0.0073(5) -0.0076(5) -0.0065(5) 
O6 0.0362(7) 0.0377(7) 0.0387(7) -0.0106(6) 0.0189(6) 0.0028(6) 
 
_geom_special_details 
; 
 All esds (except the esd in the dihedral angle between two l.s. planes) 
 are estimated using the full covariance matrix.  The cell esds are taken 
 into account individually in the estimation of esds in distances, angles 
 and torsion angles; correlations between esds in cell parameters are only 
 used when they are defined by crystal symmetry.  An approximate (isotropic) 
 treatment of cell esds is used for estimating esds involving l.s. planes. 
; 
 
loop_ 
 _geom_bond_atom_site_label_1 
 _geom_bond_atom_site_label_2 
 _geom_bond_distance 
 _geom_bond_site_symmetry_2 
 _geom_bond_publ_flag 
S1 C7 1.7225(15) . ? 
S1 C6 1.7263(14) . ? 
O1 C14 1.4158(17) . ? 
O1 C15 1.4270(17) . ? 
O2 C17 1.4140(18) . ? 
O2 C16 1.4266(17) . ? 
N1 C12 1.3931(17) . ? 
N1 C1 1.3932(18) . ? 
N1 C13 1.4905(17) . ? 
C1 C2 1.4139(19) . ? 
C1 C6 1.4173(19) . ? 
C2 C3 1.375(2) . ? 
C2 H2 0.9500 . ? 
C3 C4 1.400(2) . ? 
C3 H3 0.9500 . ? 
C4 C5 1.374(2) . ? 
C4 H4 0.9500 . ? 
C5 C6 1.401(2) . ? 
C5 H5 0.9500 . ? 
C7 C8 1.4047(19) . ? 
C7 C12 1.4176(19) . ? 
C8 C9 1.370(2) . ? 
C8 H8 0.9500 . ? 
C9 C10 1.401(2) . ? 
C9 H9 0.9500 . ? 
C10 C11 1.374(2) . ? 
C10 H10 0.9500 . ? 
C11 C12 1.415(2) . ? 
C11 H11 0.9500 . ? 
C13 C14 1.5153(19) . ? 
C13 H13A 0.9900 . ? 
C13 H13B 0.9900 . ? 
C14 H14A 0.9900 . ? 
C14 H14B 0.9900 . ? 
C15 C16 1.496(2) . ? 
C15 H15A 0.9900 . ? 
C15 H15B 0.9900 . ? 
C16 H16A 0.9900 . ? 
C16 H16B 0.9900 . ? 
C17 H17A 0.9800 . ? 
C17 H17B 0.9800 . ? 
C17 H17C 0.9800 . ? 
Cl1 O3 1.4334(11) . ? 
Cl1 O6 1.4358(12) . ? 
Cl1 O5 1.4370(12) . ? 
Cl1 O4 1.4439(11) . ? 
 
loop_ 
 _geom_angle_atom_site_label_1 
 _geom_angle_atom_site_label_2 
 _geom_angle_atom_site_label_3 
 _geom_angle 
 _geom_angle_site_symmetry_1 
 _geom_angle_site_symmetry_3 
 _geom_angle_publ_flag 
C7 S1 C6 102.53(7) . . ? 
C14 O1 C15 113.44(10) . . ? 
C17 O2 C16 110.80(11) . . ? 
C12 N1 C1 124.42(12) . . ? 
C12 N1 C13 118.30(11) . . ? 
C1 N1 C13 117.11(11) . . ? 
N1 C1 C2 120.75(12) . . ? 
N1 C1 C6 122.29(12) . . ? 
C2 C1 C6 116.96(13) . . ? 
C3 C2 C1 121.09(13) . . ? 
C3 C2 H2 119.5 . . ? 
C1 C2 H2 119.5 . . ? 
C2 C3 C4 121.17(13) . . ? 
C2 C3 H3 119.4 . . ? 
C4 C3 H3 119.4 . . ? 
C5 C4 C3 119.25(13) . . ? 
C5 C4 H4 120.4 . . ? 
C3 C4 H4 120.4 . . ? 
C4 C5 C6 120.41(13) . . ? 
C4 C5 H5 119.8 . . ? 
C6 C5 H5 119.8 . . ? 
C5 C6 C1 121.13(13) . . ? 
C5 C6 S1 114.81(11) . . ? 
C1 C6 S1 123.99(11) . . ? 
C8 C7 C12 120.72(13) . . ? 
C8 C7 S1 115.09(11) . . ? 
C12 C7 S1 124.19(11) . . ? 
C9 C8 C7 120.57(14) . . ? 
C9 C8 H8 119.7 . . ? 
C7 C8 H8 119.7 . . ? 
C8 C9 C10 119.13(14) . . ? 
C8 C9 H9 120.4 . . ? 
C10 C9 H9 120.4 . . ? 
C11 C10 C9 121.52(14) . . ? 
C11 C10 H10 119.2 . . ? 
C9 C10 H10 119.2 . . ? 
C10 C11 C12 120.60(13) . . ? 
C10 C11 H11 119.7 . . ? 
C12 C11 H11 119.7 . . ? 
N1 C12 C11 120.47(12) . . ? 
N1 C12 C7 122.17(13) . . ? 
C11 C12 C7 117.36(13) . . ? 
N1 C13 C14 113.36(11) . . ? 
N1 C13 H13A 108.9 . . ? 
C14 C13 H13A 108.9 . . ? 
N1 C13 H13B 108.9 . . ? 
C14 C13 H13B 108.9 . . ? 
H13A C13 H13B 107.7 . . ? 
O1 C14 C13 108.54(11) . . ? 
O1 C14 H14A 110.0 . . ? 
C13 C14 H14A 110.0 . . ? 
O1 C14 H14B 110.0 . . ? 
C13 C14 H14B 110.0 . . ? 
H14A C14 H14B 108.4 . . ? 
O1 C15 C16 108.53(12) . . ? 
O1 C15 H15A 110.0 . . ? 
C16 C15 H15A 110.0 . . ? 
O1 C15 H15B 110.0 . . ? 
C16 C15 H15B 110.0 . . ? 
H15A C15 H15B 108.4 . . ? 
O2 C16 C15 109.21(12) . . ? 
O2 C16 H16A 109.8 . . ? 
C15 C16 H16A 109.8 . . ? 
O2 C16 H16B 109.8 . . ? 
C15 C16 H16B 109.8 . . ? 
H16A C16 H16B 108.3 . . ? 
O2 C17 H17A 109.5 . . ? 
O2 C17 H17B 109.5 . . ? 
H17A C17 H17B 109.5 . . ? 
O2 C17 H17C 109.5 . . ? 
H17A C17 H17C 109.5 . . ? 
H17B C17 H17C 109.5 . . ? 
O3 Cl1 O6 109.09(8) . . ? 
O3 Cl1 O5 109.72(7) . . ? 
O6 Cl1 O5 109.48(8) . . ? 
O3 Cl1 O4 109.47(7) . . ? 
O6 Cl1 O4 109.71(8) . . ? 
O5 Cl1 O4 109.37(7) . . ? 
 
loop_ 
 _geom_torsion_atom_site_label_1 
 _geom_torsion_atom_site_label_2 
 _geom_torsion_atom_site_label_3 
 _geom_torsion_atom_site_label_4 
 _geom_torsion 
 _geom_torsion_site_symmetry_1 
 _geom_torsion_site_symmetry_2 
 _geom_torsion_site_symmetry_3 
 _geom_torsion_site_symmetry_4 
 _geom_torsion_publ_flag 
C12 N1 C1 C2 177.02(12) . . . . ? 
C13 N1 C1 C2 -7.83(18) . . . . ? 
C12 N1 C1 C6 -3.7(2) . . . . ? 
C13 N1 C1 C6 171.44(12) . . . . ? 
N1 C1 C2 C3 179.14(13) . . . . ? 
C6 C1 C2 C3 -0.2(2) . . . . ? 
C1 C2 C3 C4 0.8(2) . . . . ? 
C2 C3 C4 C5 -0.8(2) . . . . ? 
C3 C4 C5 C6 0.3(2) . . . . ? 
C4 C5 C6 C1 0.3(2) . . . . ? 
C4 C5 C6 S1 -176.80(11) . . . . ? 
N1 C1 C6 C5 -179.64(13) . . . . ? 
C2 C1 C6 C5 -0.34(19) . . . . ? 
N1 C1 C6 S1 -2.84(19) . . . . ? 
C2 C1 C6 S1 176.46(10) . . . . ? 
C7 S1 C6 C5 -177.84(11) . . . . ? 
C7 S1 C6 C1 5.18(13) . . . . ? 
C6 S1 C7 C8 178.27(11) . . . . ? 
C6 S1 C7 C12 -2.40(13) . . . . ? 
C12 C7 C8 C9 2.9(2) . . . . ? 
S1 C7 C8 C9 -177.78(12) . . . . ? 
C7 C8 C9 C10 -0.1(2) . . . . ? 
C8 C9 C10 C11 -1.8(2) . . . . ? 
C9 C10 C11 C12 1.0(2) . . . . ? 
C1 N1 C12 C11 -173.36(13) . . . . ? 
C13 N1 C12 C11 11.54(18) . . . . ? 
C1 N1 C12 C7 6.7(2) . . . . ? 
C13 N1 C12 C7 -168.42(12) . . . . ? 
C10 C11 C12 N1 -178.27(13) . . . . ? 
C10 C11 C12 C7 1.7(2) . . . . ? 
C8 C7 C12 N1 176.36(12) . . . . ? 
S1 C7 C12 N1 -2.94(19) . . . . ? 
C8 C7 C12 C11 -3.6(2) . . . . ? 
S1 C7 C12 C11 177.1(1) . . . . ? 
C12 N1 C13 C14 -97.46(14) . . . . ? 
C1 N1 C13 C14 87.08(14) . . . . ? 
C15 O1 C14 C13 162.09(12) . . . . ? 
N1 C13 C14 O1 67.88(15) . . . . ? 
C14 O1 C15 C16 -159.59(12) . . . . ? 
C17 O2 C16 C15 162.76(12) . . . . ? 
O1 C15 C16 O2 -70.57(15) . . . . ? 
 
_refine_diff_density_max    0.328 
_refine_diff_density_min   -0.502 
_refine_diff_density_rms    0.056 
 
_shelx_res_file 
; 
TITL m19181 : space group P21/c 
    m19181.res 
    created by SHELXL-2018/3 at 10:18:12 on 26-Jul-2019 
CELL  0.71073   7.0156  12.6773  19.2635   90.000   96.856   90.000 
ZERR        4   0.0005   0.0008   0.0009    0.000    0.002    0.000 
LATT  1 
SYMM -X, 1/2+Y, 1/2-Z 
SFAC C H CL N O S 
UNIT 68 76 4 4 24 4 
TEMP -183 
SIZE 0.32 0.16 0.13 
REM FORM block 
REM COLR dark green 
L.S. 10 
BOND $H 
LIST 6 
ACTA 
CONF 
HTAB 
FMAP 2 
PLAN 5 
WGHT    0.028800    1.096300 
EXTI    0.005380 
FVAR       0.47425 
S1    6    0.281437    0.528083    0.568196    11.00000    0.01792    0.01784 = 
         0.01163   -0.00119    0.00123    0.00068 
O1    5    0.477582    0.264182    0.350927    11.00000    0.01942    0.02220 = 
         0.01245   -0.00044    0.00142    0.00472 
O2    5    0.838179    0.163473    0.397001    11.00000    0.02014    0.01786 = 
         0.01616    0.00059   -0.00184   -0.00123 
N1    4    0.228503    0.399686    0.427964    11.00000    0.01462    0.01562 = 
         0.01197   -0.00040    0.00125   -0.00060 
C1    1    0.204796    0.508711    0.423844    11.00000    0.01075    0.01629 = 
         0.01498    0.00023    0.00216   -0.00014 
C2    1    0.152027    0.558617    0.358742    11.00000    0.01632    0.01821 = 
         0.01387   -0.00032    0.00173   -0.00016 
AFIX  43 
H2    2    0.134332    0.517268    0.317344    11.00000   -1.20000 
AFIX   0 
C3    1    0.125908    0.665989    0.354365    11.00000    0.01658    0.01871 = 
         0.01651    0.00371    0.00091    0.00038 
AFIX  43 
H3    2    0.088932    0.697469    0.310048    11.00000   -1.20000 
AFIX   0 
C4    1    0.152845    0.729785    0.414083    11.00000    0.01877    0.01566 = 
         0.02192    0.00005    0.00210    0.00078 
AFIX  43 
H4    2    0.135998    0.804004    0.410304    11.00000   -1.20000 
AFIX   0 
C5    1    0.203920    0.683811    0.478205    11.00000    0.01742    0.01807 = 
         0.01784   -0.00260    0.00261   -0.00067 
AFIX  43 
H5    2    0.221866    0.726466    0.519010    11.00000   -1.20000 
AFIX   0 
C6    1    0.229694    0.574404    0.483776    11.00000    0.01233    0.01812 = 
         0.01381   -0.00013    0.00168   -0.00023 
C7    1    0.312311    0.394934    0.555647    11.00000    0.01326    0.01871 = 
         0.01501    0.00085    0.00246   -0.00053 
C8    1    0.362349    0.336247    0.616968    11.00000    0.01857    0.02435 = 
         0.01293    0.00059    0.00064   -0.00053 
AFIX  43 
H8    2    0.372103    0.370424    0.661138    11.00000   -1.20000 
AFIX   0 
C9    1    0.397217    0.230115    0.613625    11.00000    0.02079    0.02407 = 
         0.01585    0.00559    0.00016   -0.00049 
AFIX  43 
H9    2    0.431248    0.190595    0.655157    11.00000   -1.20000 
AFIX   0 
C10   1    0.382015    0.180649    0.548146    11.00000    0.01907    0.01724 = 
         0.02035    0.00321    0.00181   -0.00074 
AFIX  43 
H10   2    0.409817    0.107502    0.545644    11.00000   -1.20000 
AFIX   0 
C11   1    0.327840    0.235485    0.487488    11.00000    0.01654    0.01861 = 
         0.01587    0.00032    0.00171   -0.00163 
AFIX  43 
H11   2    0.316746    0.199663    0.443876    11.00000   -1.20000 
AFIX   0 
C12   1    0.288407    0.344851    0.489379    11.00000    0.01176    0.01802 = 
         0.01353    0.00213    0.00144   -0.00096 
C13   1    0.171239    0.337836    0.363016    11.00000    0.01792    0.01458 = 
         0.01257   -0.00138   -0.00062   -0.00149 
AFIX  23 
H13A  2    0.058819    0.372168    0.336258    11.00000   -1.20000 
H13B  2    0.131562    0.266306    0.376103    11.00000   -1.20000 
AFIX   0 
C14   1    0.329878    0.327992    0.316478    11.00000    0.01987    0.01682 = 
         0.01334   -0.00010    0.00129    0.00193 
AFIX  23 
H14A  2    0.279060    0.295586    0.271271    11.00000   -1.20000 
H14B  2    0.381056    0.398670    0.307071    11.00000   -1.20000 
AFIX   0 
C15   1    0.605209    0.223029    0.305246    11.00000    0.02266    0.02244 = 
         0.01338   -0.00139    0.00378    0.00327 
AFIX  23 
H15A  2    0.700082    0.277473    0.295930    11.00000   -1.20000 
H15B  2    0.532254    0.202228    0.260147    11.00000   -1.20000 
AFIX   0 
C16   1    0.705928    0.129179    0.339406    11.00000    0.02010    0.02037 = 
         0.01793   -0.00511   -0.00065    0.00098 
AFIX  23 
H16A  2    0.611038    0.080316    0.356014    11.00000   -1.20000 
H16B  2    0.775418    0.091132    0.305240    11.00000   -1.20000 
AFIX   0 
C17   1    0.893837    0.078440    0.442446    11.00000    0.02616    0.01883 = 
         0.02142    0.00290    0.00140    0.00166 
AFIX 137 
H17A  2    0.940728    0.020208    0.415640    11.00000   -1.50000 
H17B  2    0.783209    0.054602    0.464874    11.00000   -1.50000 
H17C  2    0.996150    0.101575    0.478321    11.00000   -1.50000 
AFIX   0 
CL1   3    0.215840   -0.004724    0.301039    11.00000    0.01872    0.01560 = 
         0.01579   -0.00001    0.00026    0.00092 
O3    5    0.144656    0.100434    0.288725    11.00000    0.02962    0.01639 = 
         0.03362    0.00122   -0.00265    0.00389 
O4    5    0.060303   -0.078984    0.286078    11.00000    0.03167    0.02254 = 
         0.02753    0.00224   -0.00570   -0.00990 
O5    5    0.296573   -0.015522    0.372826    11.00000    0.03093    0.03703 = 
         0.02029    0.00729   -0.00763   -0.00650 
O6    5    0.361361   -0.025147    0.256317    11.00000    0.03617    0.03769 = 
         0.03872   -0.01063    0.01887    0.00278 
HKLF 4 
 
 
 
 
REM  m19181 : space group P21/c 
REM wR2 = 0.0773, GooF = S = 1.075, Restrained GooF = 1.075 for all data 
REM R1 = 0.0306 for 3495 Fo > 4sig(Fo) and 0.0360 for all 3902 data 
REM 237 parameters refined using 0 restraints 
 
END 
 
WGHT      0.0288      1.0963 
 
REM Instructions for potential hydrogen bonds 
EQIV $1 -x, y+1/2, -z+1/2 
HTAB C2 O4_$1 
EQIV $2 -x+1, -y+1, -z+1 
HTAB C5 O2_$2 
HTAB C11 O1 
HTAB C13 O4_$1 
EQIV $3 x-1, y, z 
HTAB C13 O2_$3 
EQIV $4 -x+1, y+1/2, -z+1/2 
HTAB C14 O6_$4 
HTAB C16 O5 
EQIV $5 x+1, y, z 
HTAB C16 O3_$5 
 
REM Highest difference peak  0.328,  deepest hole -0.502,  1-sigma level  0.056 
Q1    1   0.2912  0.4548  0.5615  11.00000  0.05    0.33 
Q2    1   0.1639  0.5326  0.3915  11.00000  0.05    0.32 
Q3    1   0.2225  0.5392  0.4566  11.00000  0.05    0.32 
Q4    1   0.2521  0.3423  0.3442  11.00000  0.05    0.31 
Q5    1   0.2300  0.4582  0.4273  11.00000  0.05    0.31 
; 
_shelx_res_checksum   98007 
 
_shelx_hkl_file
;
   1   0   0 21.0667 1.39650   4
   1   0   0 19.4941 1.30082   5
  -1   0   0 16.8651 1.28430   4
   3   0   0 66.4334 4.51752   4
  -3   0   0 70.1717 4.36305   5
  -3   0   0 66.0315 5.14783   6
   3   0   0 66.1691 4.24685   5
   4   0   0 37.4127 3.57550   4
  -4   0   0 29.1812 3.14109   4
  -4   0   0 30.2460 3.13283   5
   4   0   0 35.7823 3.29572   5
   4   0   0 34.9245 4.06323   6
  -4   0   0 39.6180 4.20837   6
  -5   0   0 3.24093 1.38617   4
  -5   0   0 4.86481 2.19932   6
   5   0   0 1.38976 1.17509   4
   5   0   0 2.99033 1.49521   5
   5   0   0 -1.0868 1.58723   6
  -6   0   0 54.6565 5.86172   4
  -6   0   0 61.6537 6.79703   6
   6   0   0 63.7164 5.70607   4
   6   0   0 54.7802 5.35510   5
   6   0   0 57.1851 6.38135   6
  -7   0   0 2.43327 2.10649   6
   7   0   0 3.94084 1.96959   5
   7   0   0 -1.2374 1.56079   4
  -8   0   0 1.88462 3.52683   6
   8   0   0 1.99201 2.19466   5
   8   0   0 0.89245 1.76927   4
  -1  -1   0 8.88079 0.86996   5
  -1  -1   0 9.71250 0.98915   4
   1  -1   0 8.15042 0.87059   5
  -1  -1   0 9.86407 1.13873   6
   1  -1   0 10.3251 1.15278   6
   1  -1   0 8.69332 0.82086   4
  -1   1   0 11.5657 1.23766   6
   1   1   0 11.0719 1.11209   6
  -1   1   0 10.5507 0.94848   5
   1   1   0 10.3306 1.06132   4
   1   1   0 13.3048 1.05424   5
  -1   1   0 9.80340 0.87742   4
  -2   1   0 3188.82 118.209   6
  -3  -1   0 10.6682 1.90165   4
   3  -1   0 10.9803 2.36798   6
  -3  -1   0 13.8483 1.76495   5
  -3  -1   0 11.0784 2.17861   6
   3  -1   0 11.9451 1.89817   4
   3  -1   0 11.8342 1.89866   5
   3   1   0 14.1483 1.89391   4
  -3   1   0 11.3846 2.22341   6
   3   1   0 11.8428 1.65939   5
  -3   1   0 11.0230 1.75207   5
  -3   1   0 11.5058 1.70390   4
   4  -1   0 64.4286 5.69644   6
  -4  -1   0 63.0254 4.64535   5
  -4  -1   0 67.6739 5.08839   4
   4  -1   0 60.1870 4.54400   5
   4  -1   0 64.2770 4.75470   4
  -4  -1   0 67.0228 5.79073   6
  -4   1   0 62.5000 4.62363   5
  -4   1   0 61.4571 4.72718   4
   4   1   0 57.6340 4.41514   5
   4   1   0 55.0743 4.74041   4
   4   1   0 65.9139 5.52849   6
  -4   1   0 69.6137 5.91531   6
   5  -1   0 7.22585 1.88134   5
   5  -1   0 2.46539 1.84269   6
   5  -1   0 5.97302 1.78099   4
  -5  -1   0 6.89826 2.29476   6
  -5  -1   0 9.68843 2.24654   4
  -5   1   0 2.22091 1.61440   4
   5   1   0 5.15325 2.05369   6
  -5   1   0 8.65024 2.64811   6
   5   1   0 4.59242 1.65857   5
   5   1   0 5.96074 1.93438   4
   6  -1   0 3.89214 1.54936   5
   6  -1   0 2.19008 1.62467   4
   6  -1   0 4.20578 2.78295   6
  -6  -1   0 3.34692 2.13238   6
  -6   1   0 1.84626 2.08557   6
   6   1   0 4.92665 2.04719   4
  -6   1   0 -1.7980 1.81916   4
   6   1   0 0.77738 1.54966   6
   6   1   0 2.28712 1.64078   5
   7  -1   0 22.6871 4.00115   5
  -7  -1   0 25.8134 5.77493   6
   7  -1   0 26.9862 5.22394   4
   7   1   0 20.9636 4.26794   4
   7   1   0 19.0276 3.55491   5
  -7   1   0 19.8261 4.69309   6
   8  -1   0 28.8161 5.03133   4
   8  -1   0 41.8020 5.12745   5
  -8  -1   0 33.7253 6.91958   6
   8   1   0 39.3191 5.18432   5
   8   1   0 27.2625 5.15237   4
  -8   1   0 33.9601 6.45225   6
   9  -1   0 -0.7961 2.11232   4
   9  -1   0 0.74669 2.52608   5
   9   1   0 1.41430 2.62472   4
   0  -2   0 807.837 29.3312   5
   0  -2   0 786.907 29.2324   5
   0  -2   0 791.647 29.3605   3
   0   2   0 763.313 29.3440   3
   0   2   0 807.488 29.2604   5
   0   2   0 771.239 29.1918   5
  -1  -2   0 1350.22 51.7010   6
   1  -2   0 1413.49 52.0391   6
   1  -2   0 1407.64 51.2916   5
  -1   2   0 1453.60 52.0006   6
  -1   2   0 1304.38 50.9386   3
   2  -2   0 3084.57 115.922   6
  -2   2   0 3155.41 115.902   6
  -3  -2   0 51.0824 4.49258   6
   3  -2   0 47.3435 4.41494   6
  -3  -2   0 52.4658 3.69485   5
  -3  -2   0 51.3229 3.92753   4
   3  -2   0 50.4793 3.56921   4
   3  -2   0 54.7439 3.74946   5
  -3   2   0 56.1378 4.65741   6
  -3   2   0 50.6519 3.66394   5
  -3   2   0 49.3964 3.63586   4
   3   2   0 45.4463 3.49910   5
   3   2   0 39.7743 3.81714   6
   3   2   0 52.8375 4.04773   4
   4  -2   0 954.190 40.4083   6
  -4  -2   0 988.471 40.5419   6
  -4  -2   0 994.790 38.4026   5
  -4  -2   0 997.822 39.0939   4
   4  -2   0 940.399 38.2563   5
  -4   2   0 923.200 38.3807   4
   4   2   0 1026.71 39.3598   4
   4   2   0 1011.55 39.9408   6
  -4   2   0 1013.56 40.6357   6
   4   2   0 957.106 38.2814   5
  -4   2   0 846.851 37.9594   5
   5  -2   0 0.74986 0.89164   4
  -5  -2   0 -1.6556 1.00794   6
   5  -2   0 1.31760 1.62923   6
  -5  -2   0 1.13754 1.13647   5
   5  -2   0 -0.2879 0.92835   5
  -5   2   0 0.06705 1.30572   6
   5   2   0 0.87392 1.02058   5
   5   2   0 5.41282 1.93904   6
  -5   2   0 1.19485 0.86616   4
   5   2   0 0.02228 1.13604   4
   6  -2   0 215.496 11.9629   4
  -6  -2   0 182.619 11.4773   3
  -6  -2   0 221.384 14.1789   6
   6  -2   0 209.447 11.7774   5
   6   2   0 187.534 13.0755   6
   6   2   0 211.491 12.5460   4
  -6   2   0 195.905 13.5802   6
   6   2   0 198.331 11.5176   5
  -6   2   0 213.506 12.0987   4
  -7  -2   0 9.21704 3.60330   6
   7  -2   0 15.4400 3.28212   5
   7   2   0 13.2165 2.98460   5
   7   2   0 14.2015 3.48784   4
  -7   2   0 14.2830 3.99891   6
   8  -2   0 6.93577 2.91569   5
  -8  -2   0 11.6489 4.53987   6
   8  -2   0 10.4731 2.95662   4
   8   2   0 7.58508 2.86991   5
  -8   2   0 5.37717 2.15767   3
   8   2   0 9.20099 3.01800   4
  -8   2   0 10.6584 4.05032   6
   0  -3   0 -0.1405 0.40960   3
   0  -3   0 0.12148 0.37213   5
   0  -3   0 -0.1171 0.25705   5
   0   3   0 0.17422 0.36792   5
   0   3   0 -0.1596 0.24716   5
   0   3   0 0.72982 0.46913   3
   1  -3   0 754.587 28.4509   6
  -1  -3   0 728.628 27.4046   5
  -1  -3   0 744.276 27.7996   3
   1  -3   0 756.365 27.2367   3
   1  -3   0 726.506 27.4937   5
  -1   3   0 754.746 27.4606   5
  -1   3   0 654.130 26.9349   4
   1   3   0 714.109 27.6750   4
  -1   3   0 713.542 28.1584   6
   1   3   0 703.091 27.7405   3
  -1   3   0 712.563 27.1734   3
  -1   3   0 694.394 27.2679   5
   1   3   0 707.331 27.3540   5
  -2  -3   0 155.832 7.59316   5
  -2  -3   0 157.764 8.37096   6
   2  -3   0 170.040 8.82574   6
  -2  -3   0 162.404 7.96491   3
  -2  -3   0 159.868 7.94006   4
   2  -3   0 156.491 7.21864   4
   2  -3   0 170.096 7.77145   5
  -2   3   0 167.373 8.64906   6
  -2   3   0 171.171 7.74296   5
   2   3   0 163.357 8.09620   4
   2   3   0 159.044 7.60502   5
  -2   3   0 154.638 7.34233   4
  -2   3   0 174.101 7.36083   3
  -3  -3   0 28.2852 3.22482   6
   3  -3   0 28.1486 3.13674   5
  -3  -3   0 29.3544 2.94759   3
  -3  -3   0 27.3335 2.65793   5
   3  -3   0 20.9734 2.19696   4
  -3  -3   0 25.6247 2.73882   4
   3  -3   0 28.0087 3.34283   6
   3   3   0 26.2123 2.96684   6
  -3   3   0 31.6911 3.55477   6
  -3   3   0 28.3281 2.62779   4
  -3   3   0 27.6638 2.45292   3
   3   3   0 27.7720 2.63755   5
  -3   3   0 26.0207 2.62506   5
   3   3   0 24.5987 2.90150   4
   4  -3   0 245.154 13.6807   6
   4  -3   0 224.471 12.3027   4
  -4  -3   0 249.585 12.2040   3
   4  -3   0 215.604 11.5382   5
  -4  -3   0 265.311 13.8728   6
  -4  -3   0 236.686 11.7269   5
  -4  -3   0 229.853 12.1890   4
  -4   3   0 228.586 11.6706   5
   4   3   0 228.968 12.6043   6
   4   3   0 263.066 12.8297   4
  -4   3   0 242.071 11.4175   3
  -4   3   0 272.266 13.9727   6
   4   3   0 230.463 11.6322   5
  -4   3   0 256.509 11.9860   4
   5  -3   0 117.203 7.67136   5
  -5  -3   0 116.848 7.49190   5
   5  -3   0 99.7112 7.07306   4
  -5  -3   0 122.667 8.21202   4
  -5  -3   0 118.820 9.39501   6
   5   3   0 117.991 8.28508   4
  -5   3   0 117.625 9.35593   6
   5   3   0 136.389 9.12132   6
  -5   3   0 123.513 7.92219   5
  -5   3   0 118.661 7.27778   3
  -5   3   0 114.610 7.71352   4
   5   3   0 128.353 7.77367   5
  -6  -3   0 11.8884 4.14489   6
   6  -3   0 9.72620 2.93089   5
   6  -3   0 12.8739 3.23751   4
   6   3   0 8.99649 2.97201   5
  -6   3   0 19.6013 5.21333   6
   6   3   0 16.6806 3.83731   4
  -6   3   0 15.0265 3.17253   3
  -6   3   0 13.3492 3.20565   4
  -7  -3   0 -0.2148 2.59264   6
   7  -3   0 -2.3207 1.61208   4
   7  -3   0 1.87243 1.71820   5
   7   3   0 1.05599 1.63325   4
  -7   3   0 -3.8627 2.49064   6
   7   3   0 1.89145 1.73888   5
  -7   3   0 1.61214 1.61993   3
   8  -3   0 2.03507 2.33475   5
  -8  -3   0 6.34978 3.78096   6
   8  -3   0 -1.6005 1.92847   4
  -8   3   0 3.22514 2.14342   3
   8   3   0 -3.8716 1.94496   4
   8   3   0 1.95326 1.95387   5
  -8   3   0 2.27792 2.85340   6
   0  -4   0 1190.93 45.0200   5
   0  -4   0 1206.35 44.8679   5
   0  -4   0 1213.32 45.0933   3
   0   4   0 1170.61 44.7112   5
   0   4   0 1221.96 44.8539   5
   0   4   0 1193.19 45.1053   3
  -1  -4   0 994.258 37.3886   5
  -1  -4   0 1011.41 37.8887   3
   1  -4   0 1006.54 37.5724   5
   1  -4   0 1038.21 38.6975   6
   1  -4   0 1010.69 37.2543   3
  -1   4   0 1027.71 37.4476   5
   1   4   0 967.685 37.3066   5
  -1   4   0 888.080 36.8096   4
   1   4   0 997.124 37.4543   5
  -1   4   0 980.595 37.2296   3
  -1   4   0 1011.45 37.2885   5
   1   4   0 936.450 37.7660   3
   1   4   0 975.238 37.6678   4
  -2  -4   0 250.699 11.4088   5
   2  -4   0 221.376 9.89887   3
  -2  -4   0 207.260 10.5548   3
   2  -4   0 218.248 9.69509   4
  -2  -4   0 236.159 11.2979   6
   2  -4   0 244.938 11.8009   6
   2  -4   0 203.219 10.2029   5
  -2   4   0 207.633 10.8869   5
  -2   4   0 255.617 11.6539   6
  -2   4   0 251.821 10.0273   3
   2   4   0 239.281 10.3625   5
  -2   4   0 218.027 9.84808   4
   2   4   0 243.115 10.9508   4
   3  -4   0 0.41494 0.93579   6
  -3  -4   0 5.71859 1.56033   4
   3  -4   0 -0.0988 0.50760   4
  -3  -4   0 0.03401 0.83758   3
   3  -4   0 0.81864 0.69133   5
  -3  -4   0 0.95702 0.83456   5
   3   4   0 1.39926 0.91925   4
  -3   4   0 0.75923 0.58207   3
  -3   4   0 0.70466 1.04581   6
  -3   4   0 0.02578 0.48677   4
   3   4   0 1.12040 0.80328   5
  -3   4   0 1.01382 0.74168   5
  -4  -4   0 351.321 15.6331   5
  -4  -4   0 345.277 16.0438   3
   4  -4   0 341.074 15.6048   5
  -4  -4   0 363.488 17.7354   6
   4  -4   0 331.725 17.5768   6
  -4  -4   0 333.332 16.0615   4
   4  -4   0 325.373 15.1307   4
   4   4   0 361.838 16.6854   4
   4   4   0 351.352 16.7194   6
  -4   4   0 297.405 15.0353   4
  -4   4   0 338.366 17.2922   6
   4   4   0 336.291 15.4460   5
  -4   4   0 301.762 15.1387   5
  -4   4   0 339.899 14.9245   3
  -5  -4   0 69.1867 6.03871   3
  -5  -4   0 72.3975 5.66346   5
   5  -4   0 71.2771 5.61859   5
   5  -4   0 79.9348 7.41361   6
   5  -4   0 64.3739 5.05219   4
  -5  -4   0 62.3252 6.67711   6
  -5  -4   0 58.3708 5.52576   4
  -5   4   0 63.4789 5.20590   4
  -5   4   0 69.4778 5.52155   5
  -5   4   0 72.8498 5.13780   3
   5   4   0 73.7934 6.33817   6
   5   4   0 67.3916 5.42407   5
   5   4   0 59.2675 5.77584   4
  -5   4   0 69.1905 7.01218   6
  -6  -4   0 27.0130 5.20743   6
   6  -4   0 23.1909 4.27970   5
   6  -4   0 25.0486 3.57276   4
  -6   4   0 22.7226 3.26425   3
  -6   4   0 18.5213 3.49427   4
  -6   4   0 21.0215 4.62459   6
   6   4   0 24.0163 5.01373   4
   6   4   0 20.9230 3.49850   5
   7  -4   0 49.6778 5.59744   5
   7  -4   0 54.8399 5.56610   4
  -7  -4   0 51.5649 7.49914   6
  -7   4   0 42.5538 7.43232   6
  -7   4   0 53.1762 5.27274   3
   7   4   0 62.9084 6.65604   4
   7   4   0 60.3044 5.85181   5
   8  -4   0 -2.3225 1.31741   4
  -8  -4   0 4.36508 3.46649   6
   8  -4   0 -0.0712 2.26579   5
  -8   4   0 0.85224 1.74685   3
   8   4   0 5.43316 2.81479   4
   8   4   0 0.94144 2.47068   5
  -8   4   0 2.94840 3.72121   6
   0  -5   0 -0.1655 0.57381   5
   0  -5   0 0.13804 0.67667   3
   0  -5   0 0.32587 0.50662   5
   0   5   0 -0.1619 0.47726   5
   0   5   0 -0.6045 0.45737   3
   0   5   0 0.42026 0.61232   5
   1  -5   0 2143.18 83.6479   5
  -1  -5   0 2266.08 83.5913   5
   1  -5   0 2271.37 83.4185   3
   1  -5   0 2380.80 85.1951   6
   1   5   0 2226.60 84.0992   3
   1   5   0 2337.01 83.5708   5
  -1   5   0 2289.47 83.3927   5
   1   5   0 2260.80 83.4476   5
  -1   5   0 2029.59 83.3198   5
  -1   5   0 2364.02 83.6066   3
   1   5   0 2223.37 83.8516   4
   2  -5   0 88.9396 5.33657   5
   2  -5   0 89.4432 4.92669   3
   2  -5   0 89.5761 6.39906   6
  -2  -5   0 91.4420 5.31000   5
  -2  -5   0 96.4951 5.82332   3
   2   5   0 92.3788 5.22820   5
  -2   5   0 92.7810 4.98206   3
  -2   5   0 82.2490 4.70464   4
  -2   5   0 87.4005 6.06577   6
   2   5   0 92.2301 5.79637   3
  -2   5   0 99.6001 5.25615   5
   2   5   0 85.5808 5.58896   4
  -2   5   0 98.1826 5.33583   5
   3  -5   0 97.5977 5.51302   4
  -3  -5   0 114.791 7.57145   6
  -3  -5   0 114.260 6.91029   3
   3  -5   0 90.7583 6.03989   5
   3  -5   0 102.753 7.55826   6
  -3  -5   0 107.313 6.26602   5
  -3   5   0 103.523 7.34893   6
  -3   5   0 109.316 5.81539   3
  -3   5   0 104.161 6.16756   5
  -3   5   0 101.575 5.87173   4
   3   5   0 98.6253 6.68421   4
   3   5   0 107.979 7.22972   5
  -4  -5   0 200.674 12.0463   6
   4  -5   0 172.870 10.2438   4
   4  -5   0 186.868 10.1726   5
  -4  -5   0 197.818 10.7566   3
   4  -5   0 187.924 11.9917   6
  -4  -5   0 200.124 10.8281   4
  -4  -5   0 197.086 10.1427   5
   4   5   0 187.710 10.9668   4
  -4   5   0 192.147 9.44779   3
  -4   5   0 196.059 10.1570   5
  -4   5   0 176.583 11.4121   6
  -4   5   0 175.397 9.66195   4
   4   5   0 198.555 10.1465   5
  -5  -5   0 4.24324 2.10232   3
   5  -5   0 0.66089 1.12144   4
  -5  -5   0 -0.8463 1.29365   5
   5  -5   0 1.86097 1.47112   5
  -5  -5   0 -0.2665 1.37814   4
  -5  -5   0 2.85479 2.03756   6
   5  -5   0 2.54994 1.79335   6
   5   5   0 1.80083 1.39614   5
  -5   5   0 1.42996 1.17879   4
   5   5   0 0.03677 1.25627   4
  -5   5   0 3.45422 2.45067   6
  -5   5   0 0.21818 1.29718   5
  -5   5   0 1.32783 1.10968   3
  -6  -5   0 3.30361 2.29220   6
   6  -5   0 1.16425 1.33187   4
   6  -5   0 5.77795 2.20952   5
  -6   5   0 -0.3338 1.24650   3
   6   5   0 3.14022 1.79033   5
  -6   5   0 6.25075 2.98326   6
  -6   5   0 2.20004 1.79782   4
   6   5   0 3.55673 2.08790   4
  -7  -5   0 11.2425 3.98372   6
   7  -5   0 8.76930 2.75689   5
   7  -5   0 8.61131 2.67951   4
   7   5   0 5.13832 2.77585   4
  -7   5   0 5.84999 3.50029   6
  -7   5   0 9.31545 2.41000   3
   7   5   0 9.91764 2.70893   5
  -8  -5   0 34.0313 7.65764   6
   8  -5   0 56.7717 6.04581   4
   8  -5   0 55.4562 6.47914   5
  -8   5   0 50.1797 8.69065   6
  -8   5   0 53.2301 5.68099   3
   8   5   0 54.7919 7.28964   4
   8   5   0 58.1772 6.25172   5
   0  -6   0 646.261 25.6956   5
   0  -6   0 541.218 28.9550   3
   0  -6   0 661.630 25.4670   5
   0   6   0 673.489 25.8398   3
   0   6   0 657.552 25.1573   5
  -1  -6   0 20.2801 2.31208   5
   1  -6   0 20.2425 2.70211   6
   1  -6   0 18.9766 2.09227   3
   1  -6   0 15.5851 2.03888   5
  -1  -6   0 18.5819 2.61060   3
  -1   6   0 21.6798 2.32918   5
  -1   6   0 18.3446 2.21619   3
   1   6   0 19.6188 2.28432   4
   1   6   0 18.5987 2.36251   3
   1   6   0 16.8981 2.00404   5
   1   6   0 18.2644 1.99129   5
  -1   6   0 16.5307 1.91390   5
   2  -6   0 1730.46 70.8114   5
  -2  -6   0 1922.12 70.8573   5
  -2  -6   0 1888.73 71.5642   3
   2  -6   0 1976.41 73.2143   6
   2  -6   0 1797.77 70.2238   3
   2   6   0 1873.54 71.6266   3
   2   6   0 2008.25 73.6209   4
  -2   6   0 1873.29 70.0499   4
  -2   6   0 1674.41 70.4001   5
  -2   6   0 1981.56 70.6095   5
   2   6   0 1883.58 70.6739   5
  -2   6   0 1965.24 70.4842   3
  -3  -6   0 8.99148 2.12494   5
  -3  -6   0 7.34594 2.12567   3
   3  -6   0 6.61433 1.54432   4
  -3  -6   0 7.98382 2.39367   6
   3  -6   0 7.24480 1.94194   5
   3  -6   0 5.62053 2.29480   6
   3  -6   0 5.89793 1.64318   3
  -3   6   0 7.42803 1.70706   3
   3   6   0 9.26427 2.07935   5
  -3   6   0 5.26930 2.33235   6
  -3   6   0 8.76770 2.06856   5
   3   6   0 3.64466 2.08157   4
  -4  -6   0 46.5576 4.55582   3
  -4  -6   0 39.7336 4.94702   6
   4  -6   0 48.1576 6.84397   6
  -4  -6   0 46.8857 4.26473   5
   4  -6   0 45.0989 4.18076   5
  -4   6   0 43.2169 4.96003   6
   4   6   0 48.1031 4.85955   4
  -4   6   0 49.3044 4.30000   5
  -4   6   0 39.5951 3.70421   4
   4   6   0 49.7642 4.28032   5
  -4   6   0 41.3311 6.45052   3
  -5  -6   0 111.886 9.52474   6
   5  -6   0 112.711 7.81392   5
   5  -6   0 107.347 6.82818   4
  -5   6   0 105.209 9.06523   6
  -5   6   0 105.682 7.25019   4
  -5   6   0 122.023 7.85834   5
   5   6   0 115.796 7.61705   5
  -5   6   0 118.202 7.01669   3
   5   6   0 105.182 8.35829   4
   6  -6   0 7.31520 2.71723   4
   6  -6   0 10.7894 3.22027   5
  -6   6   0 14.8932 4.68919   6
   6   6   0 14.2149 3.95839   4
   6   6   0 11.9908 3.29186   5
  -6   6   0 15.1543 3.16204   3
  -6   6   0 11.0854 3.24752   4
   7  -6   0 8.06258 2.61359   5
  -7  -6   0 17.5416 4.91861   6
   7  -6   0 3.34304 1.98591   4
   7   6   0 15.8065 3.20566   5
  -7   6   0 9.21892 2.42624   3
   7   6   0 10.5098 3.83504   4
  -7   6   0 5.74389 3.72979   6
   8  -6   0 7.16376 2.42216   4
  -8  -6   0 13.6539 4.87812   6
   8   6   0 9.21158 3.08347   5
   8   6   0 21.1265 5.75125   4
  -8   6   0 14.3153 4.75314   6
   0  -7   0 0.24539 0.50367   5
   0  -7   0 0.29862 0.69071   5
   0  -7   0 0.96592 0.88428   3
   0   7   0 -0.4922 0.57698   5
   0   7   0 2.37935 0.99313   5
  -1  -7   0 1780.57 67.9363   3
   1  -7   0 1805.60 67.2012   3
   1  -7   0 1790.26 69.1795   6
   1  -7   0 1833.72 67.6838   5
  -1  -7   0 1800.26 67.3226   5
  -1   7   0 1756.03 66.8458   5
   1   7   0 1782.31 67.9967   3
   1   7   0 1781.57 67.0250   5
  -1   7   0 1794.74 67.0887   5
  -1   7   0 1788.69 67.3968   3
   1   7   0 1725.85 66.9357   5
   1   7   0 1760.44 67.5459   4
   2  -7   0 55.5599 3.91011   3
   2  -7   0 52.9823 4.19819   5
  -2  -7   0 51.8366 4.48478   3
  -2  -7   0 60.5074 4.36571   5
   2  -7   0 62.3544 5.58653   6
   2   7   0 55.1693 4.52156   4
   2   7   0 59.1133 4.13832   5
   2   7   0 46.2802 4.45061   5
  -2   7   0 54.1849 4.65367   5
  -2   7   0 50.8711 3.94713   5
  -2   7   0 50.6962 3.54015   4
   2   7   0 55.7069 4.67088   3
  -2   7   0 53.9380 4.00678   3
  -3  -7   0 259.205 12.9681   3
  -3  -7   0 238.916 11.9083   5
   3  -7   0 211.960 11.7275   5
  -3  -7   0 248.582 13.6187   6
   3  -7   0 240.295 14.1017   6
   3  -7   0 222.848 11.1855   3
   3   7   0 247.900 11.8674   5
  -3   7   0 240.550 11.3545   3
  -3   7   0 248.660 11.8918   5
   3   7   0 237.476 12.6488   4
  -3   7   0 238.641 11.2369   4
  -3   7   0 263.588 11.7781   5
   4  -7   0 8.76390 1.77387   4
   4  -7   0 10.1271 3.33486   6
  -4  -7   0 13.9673 2.87573   3
  -4  -7   0 10.2264 2.95345   6
  -4  -7   0 10.7595 2.25152   5
   4  -7   0 9.27566 2.32512   5
   4   7   0 9.91181 2.24326   5
   4   7   0 10.2166 2.65749   4
  -4   7   0 10.8182 2.06489   3
  -4   7   0 8.92017 1.94278   4
  -4   7   0 16.1482 3.95037   5
  -4   7   0 10.9054 3.36308   6
   5  -7   0 14.0645 2.96526   5
  -5  -7   0 14.9272 3.64394   6
   5  -7   0 15.7797 2.54524   4
   5   7   0 17.4074 3.91269   4
  -5   7   0 18.3755 3.12855   5
  -5   7   0 15.4551 2.72308   4
   5   7   0 18.1490 3.18835   5
  -5   7   0 9.55479 2.13159   3
  -5   7   0 14.8675 3.84559   6
   6  -7   0 97.0803 6.73637   4
  -6  -7   0 101.457 9.75912   6
   6  -7   0 101.576 7.86498   5
   6   7   0 106.658 7.65803   5
  -6   7   0 94.5806 7.38109   4
   6   7   0 98.9987 8.74392   4
  -6   7   0 97.8547 6.92149   3
  -6   7   0 89.7271 9.14534   6
  -7  -7   0 8.64835 3.77011   6
   7  -7   0 5.57353 2.34000   4
   7  -7   0 6.05501 2.73316   5
   7   7   0 5.36731 3.13612   4
   7   7   0 4.71779 2.41353   5
  -7   7   0 9.79964 3.97693   6
  -7   7   0 4.85109 2.10662   3
   8  -7   0 5.23604 2.18973   4
   8  -7   0 3.89980 2.56252   5
  -8  -7   0 6.70592 3.89304   6
  -8   7   0 1.20326 2.31795   3
   8   7   0 5.89441 2.72226   5
   8   7   0 8.77600 3.40847   4
   0  -8   0 303.425 14.1490   5
   0  -8   0 291.148 13.6564   5
   0  -8   0 292.392 13.8223   3
   0   8   0 309.515 14.1670   3
   0   8   0 302.436 13.3313   5
   0   8   0 303.421 13.3017   5
  -1  -8   0 148.840 8.21284   5
   1  -8   0 147.275 9.42288   6
   1  -8   0 149.098 8.03568   3
  -1  -8   0 146.353 8.63999   3
   1  -8   0 156.589 8.52269   5
  -1   8   0 148.159 7.87173   5
   1   8   0 151.588 8.70693   3
   1   8   0 156.368 7.88066   5
   1   8   0 161.083 8.51514   4
   1   8   0 147.149 8.03919   5
  -1   8   0 160.627 8.14835   5
  -2  -8   0 315.322 14.5399   5
   2  -8   0 317.341 14.0642   3
   2  -8   0 288.342 14.4529   5
  -2  -8   0 310.094 15.1809   3
   2  -8   0 328.331 16.8005   6
   2   8   0 323.767 15.3987   3
  -2   8   0 329.802 14.0980   5
  -2   8   0 303.376 13.6313   4
  -2   8   0 314.248 14.1882   5
   2   8   0 322.739 15.1077   4
  -2   8   0 247.579 17.0658   3
   2   8   0 321.892 14.1951   5
   2   8   0 320.845 14.2277   5
  -3  -8   0 0.28371 1.55315   3
   3  -8   0 2.90110 2.02634   6
   3  -8   0 -0.6259 0.95815   3
  -3  -8   0 2.74250 1.43947   5
   3  -8   0 1.08702 1.27944   5
  -3  -8   0 0.97747 1.32651   6
  -3   8   0 0.91993 1.20798   5
   3   8   0 1.41465 1.09913   5
   3   8   0 1.31855 0.99995   5
  -3   8   0 0.99067 1.21440   3
  -3   8   0 1.19679 0.79422   4
  -3   8   0 1.44651 1.41510   5
   3   8   0 0.18703 1.22485   4
   4  -8   0 298.542 14.6554   5
  -4  -8   0 280.448 16.3625   6
  -4   8   0 265.529 13.7526   5
   4   8   0 292.753 15.5111   4
  -4   8   0 252.883 15.5922   6
  -4   8   0 265.424 13.3324   4
   4   8   0 291.511 14.1005   5
  -4   8   0 292.753 13.4537   3
  -4   8   0 294.215 13.8177   5
   5  -8   0 1.14811 1.14111   4
   5  -8   0 0.53096 1.08126   5
  -5  -8   0 1.90501 1.96676   6
  -5   8   0 4.68671 1.77078   4
  -5   8   0 1.85249 1.28154   3
   5   8   0 1.28113 1.44224   5
  -5   8   0 -4.1787 1.95279   6
   5   8   0 4.68392 2.05589   4
  -6  -8   0 0.48439 1.84880   6
   6  -8   0 0.85121 1.27138   4
   6  -8   0 1.73830 1.43268   5
   6   8   0 -1.7999 1.28742   5
  -6   8   0 1.12405 1.25984   3
  -6   8   0 0.05773 2.18867   6
  -6   8   0 7.24610 2.19430   4
   6   8   0 3.87115 2.30440   4
   7  -8   0 7.52415 2.83637   5
   7  -8   0 11.3308 2.84545   4
  -7  -8   0 11.0431 4.61061   6
   7   8   0 11.1448 3.43618   4
  -7   8   0 9.86822 3.53619   6
   7   8   0 3.97394 2.67307   5
  -7   8   0 12.7013 2.85506   3
   0  -9   0 -1.4035 1.01555   5
   0  -9   0 1.75943 1.14662   5
   0  -9   0 0.80446 1.05764   3
   0   9   0 -0.3718 0.97948   3
   0   9   0 0.47152 0.84181   5
   0   9   0 -0.1978 0.83895   5
   1  -9   0 471.696 20.4812   5
  -1  -9   0 446.720 20.5663   3
  -1  -9   0 463.956 20.0867   5
   1  -9   0 430.911 24.0017   6
   1  -9   0 457.349 19.8700   3
  -1   9   0 476.002 20.2870   3
  -1   9   0 449.718 19.5149   5
  -1   9   0 467.872 19.4760   5
   1   9   0 454.747 19.5235   5
   1   9   0 469.865 20.2642   4
   1   9   0 463.807 19.5575   5
   1   9   0 458.141 20.7422   3
  -2  -9   0 147.873 8.57361   5
   2  -9   0 140.068 8.03940   3
   2  -9   0 156.842 8.92057   5
  -2  -9   0 144.487 9.27791   3
   2  -9   0 145.850 10.3427   6
   2   9   0 152.194 8.23781   5
  -2   9   0 147.065 8.03122   5
   2   9   0 149.315 9.01019   4
   2   9   0 142.605 9.17216   3
  -2   9   0 143.610 7.62006   4
  -2   9   0 153.732 8.54280   3
   2   9   0 152.438 8.15281   5
  -2   9   0 143.399 8.11143   5
   3  -9   0 267.093 13.8755   3
   3  -9   0 321.987 15.4078   5
  -3  -9   0 308.686 16.9674   6
  -3  -9   0 306.322 14.9993   5
  -3  -9   0 304.538 17.7158   3
   3   9   0 303.956 15.6859   5
  -3   9   0 302.329 14.3886   3
   3   9   0 311.691 15.9058   4
  -3   9   0 297.368 14.2386   5
  -3   9   0 292.946 13.8416   4
  -3   9   0 324.854 14.7705   5
   3   9   0 312.504 14.6202   5
  -4  -9   0 29.1806 5.15169   6
   4  -9   0 24.9432 4.67744   5
   4   9   0 36.0885 3.96180   5
  -4   9   0 33.1331 3.95224   5
  -4   9   0 33.5533 3.61850   3
  -4   9   0 31.8301 3.83134   5
   4   9   0 39.8638 4.98778   4
   4   9   0 29.2508 3.62588   5
  -4   9   0 34.7659 3.53171   4
   5  -9   0 3.45163 1.92333   5
  -5  -9   0 5.02934 2.73454   6
   5   9   0 4.72719 2.00461   5
  -5   9   0 8.00711 2.17551   4
  -5   9   0 4.09199 2.25776   5
  -5   9   0 3.93703 1.68219   3
   5   9   0 1.43499 1.69953   4
  -6  -9   0 54.7196 7.36621   6
   6  -9   0 51.0441 5.54495   5
  -6   9   0 48.1284 5.18142   4
  -6   9   0 52.1488 4.97015   3
  -6   9   0 50.7921 5.54736   5
   6   9   0 47.9565 6.43699   4
  -6   9   0 41.1718 6.68325   6
  -7  -9   0 4.38630 3.08753   6
   7  -9   0 4.84826 2.02370   4
  -7   9   0 -1.9938 1.95112   3
  -7   9   0 -0.9426 2.50072   5
   7   9   0 4.96864 2.66753   5
  -7   9   0 3.17995 3.31147   6
   0 -10   0 128.826 7.92996   5
   0 -10   0 124.087 7.91506   3
   0  10   0 122.133 7.14933   5
   0  10   0 130.530 7.38491   5
   0  10   0 138.005 8.43453   3
  -1 -10   0 43.6259 4.26284   5
   1 -10   0 49.4066 4.63510   5
  -1 -10   0 51.9695 4.80930   3
   1 -10   0 43.6971 5.22599   6
   1 -10   0 54.1033 4.40730   3
   1  10   0 46.3024 4.45630   4
  -1  10   0 48.5520 4.69326   3
   1  10   0 44.0013 4.88335   3
   1  10   0 51.2110 4.20272   5
  -1  10   0 46.2964 4.03970   5
  -1  10   0 48.6360 3.94609   5
   1  10   0 46.0952 4.04186   5
   2 -10   0 167.666 9.29639   3
  -2 -10   0 168.768 10.3218   3
  -2 -10   0 172.628 9.79860   5
   2 -10   0 180.188 10.1474   5
   2  10   0 162.824 9.09246   5
  -2  10   0 168.476 9.09113   5
  -2  10   0 171.655 9.20900   5
  -2  10   0 175.555 9.72086   3
   2  10   0 164.578 9.02177   5
   2  10   0 156.044 10.1714   3
  -2  10   0 162.897 8.64366   4
   2  10   0 176.299 10.3056   4
   3 -10   0 45.8228 4.22288   3
   3 -10   0 46.4433 4.79386   5
  -3 -10   0 51.2516 5.85622   6
   3  10   0 51.5674 4.51571   5
  -3  10   0 45.5411 4.62743   3
  -3  10   0 50.5874 4.10514   4
  -3  10   0 46.7450 4.33530   5
   3  10   0 47.3889 5.21278   4
  -3  10   0 53.6636 4.65853   5
   3  10   0 50.0649 4.40387   5
   4 -10   0 95.8856 6.47845   3
   4 -10   0 91.1280 7.18875   5
  -4 -10   0 88.4184 8.53980   6
  -4  10   0 105.882 6.92419   5
  -4  10   0 96.1441 6.81068   3
  -4  10   0 89.7283 7.77181   5
   4  10   0 85.4940 6.64846   5
  -4  10   0 91.6987 6.40650   4
   5 -10   0 168.513 10.8735   5
  -5 -10   0 171.610 13.1538   6
  -5  10   0 160.189 9.51947   3
   5  10   0 163.425 11.8833   4
  -5  10   0 162.306 9.95711   5
  -5  10   0 158.947 9.65803   4
   5  10   0 166.670 10.1088   5
  -6 -10   0 77.0151 9.30080   6
   6 -10   0 79.5553 7.35209   5
   6  10   0 60.8474 7.70289   5
  -6  10   0 74.4059 6.53573   4
  -6  10   0 71.7118 6.29093   3
   6  10   0 78.5522 8.03140   4
   7 -10   0 185.978 12.6288   5
   7  10   0 182.852 13.7291   4
  -7  10   0 167.112 10.8434   3
   0 -11   0 -1.6030 1.45943   3
   0  11   0 -0.5319 1.08273   5
   0  11   0 0.11277 1.33001   5
   0  11   0 -0.6630 1.26363   3
   1 -11   0 189.689 11.4149   5
  -1 -11   0 196.645 11.5399   3
   1  11   0 213.339 11.4539   4
   1  11   0 210.761 11.9066   3
   1  11   0 215.065 10.6897   5
   1  11   0 207.664 10.5805   5
  -1  11   0 200.960 11.4313   3
  -1  11   0 208.288 10.5120   5
  -1  11   0 199.286 10.4532   5
   2 -11   0 479.318 21.3020   3
   2 -11   0 452.073 22.3962   5
   2  11   0 492.246 22.5270   4
  -2  11   0 465.338 20.4437   4
   2  11   0 500.213 21.3364   5
  -2  11   0 481.619 21.6919   3
  -2  11   0 477.521 20.8033   5
   2  11   0 469.284 20.9541   5
  -2  11   0 497.680 22.6658   5
   2  11   0 486.689 22.9783   3
   3 -11   0 188.789 11.1715   5
  -3 -11   0 180.482 12.6848   6
   3 -11   0 172.953 9.95064   3
   3  11   0 173.985 10.0216   5
   3  11   0 182.765 10.0549   5
  -3  11   0 188.968 9.96255   5
  -3  11   0 183.890 9.64195   4
  -3  11   0 182.963 10.5104   3
  -3  11   0 177.044 10.0608   5
   3  11   0 162.509 11.0408   4
   4 -11   0 67.7350 6.78491   3
  -4 -11   0 77.0077 7.96561   6
   4 -11   0 65.0771 6.19073   5
  -4  11   0 59.4961 5.27798   4
  -4  11   0 68.3099 5.75197   5
   4  11   0 72.3776 5.92369   5
  -4  11   0 67.2894 5.80685   3
   4  11   0 71.8306 7.26533   4
  -5 -11   0 20.2360 5.14430   6
   5 -11   0 23.9417 4.15145   5
   5  11   0 20.6964 4.53148   4
  -5  11   0 18.2868 3.45532   5
   5  11   0 17.8680 3.62055   5
  -5  11   0 17.5204 3.34650   3
  -5  11   0 20.8211 3.58519   4
  -6 -11   0 5.50781 3.00718   6
  -6  11   0 4.32914 2.96258   4
  -6  11   0 6.73890 2.43664   3
   6  11   0 4.82899 2.70721   4
   6  11   0 13.5499 3.25415   5
   0  12   0 843.050 34.0382   4
   0  12   0 812.527 34.7519   5
   0  12   0 785.183 34.7533   3
   0  12   0 816.634 33.1529   5
   1 -12   0 86.0603 6.49777   3
   1 -12   0 95.5440 7.37399   5
   1  12   0 91.2703 6.25528   5
  -1  12   0 90.7905 6.16201   5
   1  12   0 86.0659 7.29642   3
  -1  12   0 81.5374 6.88130   3
   1  12   0 84.3840 6.59654   4
  -1  12   0 92.5143 6.18658   5
   1  12   0 88.3045 6.11154   5
   2 -12   0 86.4686 6.58096   3
   2 -12   0 87.8709 7.14127   5
   2  12   0 96.5412 6.49392   5
   2  12   0 86.0154 6.16966   5
  -2  12   0 84.3632 5.97209   5
  -2  12   0 83.3975 6.17124   5
   2  12   0 81.0818 7.48995   3
  -2  12   0 95.5445 6.98614   3
   2  12   0 97.7258 7.68653   4
  -2  12   0 84.1195 5.95907   4
   3 -12   0 209.260 12.4706   5
   3 -12   0 188.902 10.9824   3
   3  12   0 198.707 11.0853   5
  -3  12   0 202.397 10.7025   4
  -3  12   0 201.995 11.6007   3
   3  12   0 203.894 13.1245   4
  -3  12   0 197.502 10.8667   5
  -4 -12   0 8.50254 2.83537   6
   4 -12   0 7.70833 2.30273   3
   4 -12   0 2.60226 1.83833   5
  -4  12   0 3.95872 2.02354   5
  -4  12   0 3.99231 2.33293   3
  -4  12   0 6.85745 2.13574   4
   4  12   0 4.95722 1.88013   5
   4  12   0 2.26159 2.34091   4
  -5 -12   0 92.2891 10.1120   6
   5 -12   0 102.420 8.53389   5
  -5  12   0 110.709 7.80768   5
   5  12   0 97.1880 7.78712   5
  -5  12   0 106.287 7.77615   3
   5  12   0 105.692 9.50163   4
   6 -12   0 -0.2898 2.43923   5
  -6  12   0 3.60368 2.87059   5
  -6  12   0 5.42194 2.94055   3
   6  12   0 5.03383 2.99108   5
   6  12   0 5.83792 3.31188   4
   0  13   0 1.94513 1.55768   5
   0  13   0 0.52220 1.26250   4
   0  13   0 -0.2015 1.34211   3
   0  13   0 0.28481 1.53238   5
   1 -13   0 5.76506 2.03441   5
   1  13   0 4.84570 2.25197   4
  -1  13   0 9.59148 2.52172   3
   1  13   0 6.05038 2.01641   5
  -1  13   0 7.58926 1.88142   4
   1  13   0 12.0809 2.32728   5
  -1  13   0 8.04631 2.16099   5
  -1  13   0 5.55996 2.09216   5
   1  13   0 9.51942 2.78565   3
   2 -13   0 20.1482 3.72836   5
  -2  13   0 17.5615 3.56699   3
   2  13   0 14.8995 2.98005   5
  -2  13   0 16.6437 2.94252   5
   2  13   0 17.0579 3.94204   3
  -2  13   0 23.6625 3.36262   4
   2  13   0 15.1177 3.33243   5
   2  13   0 17.2566 3.60335   4
  -2  13   0 25.8752 3.75687   5
   3 -13   0 56.0864 5.95057   5
   3  13   0 61.3868 6.72418   4
  -3  13   0 54.8755 5.64741   3
   3  13   0 57.2901 5.32820   5
  -3  13   0 63.0945 5.39273   5
  -3  13   0 62.0568 5.30483   4
  -4 -13   0 -0.2211 2.37034   6
   4 -13   0 2.07141 1.77650   5
  -4  13   0 2.41895 2.31649   3
   4  13   0 -0.0945 2.02544   5
   4  13   0 4.69540 2.74745   4
  -4  13   0 -0.2602 2.03247   5
  -4  13   0 6.34441 2.11374   4
   5 -13   0 45.0817 5.89845   5
  -5 -13   0 38.8142 7.30399   6
   5  13   0 40.2310 5.07695   5
  -5  13   0 43.1774 5.82367   3
   5  13   0 36.1818 6.67337   4
  -5  13   0 47.1184 5.42963   5
   0  14   0 4.36486 2.06873   5
   0  14   0 9.71630 2.41851   3
   0  14   0 6.81249 2.14655   4
   0  14   0 5.27332 2.84322   5
  -1  14   0 45.9735 4.66617   5
  -1  14   0 52.9278 7.02473   3
   1  14   0 45.1617 5.38806   4
   1  14   0 40.8689 5.95859   3
  -1  14   0 56.4977 4.89156   4
   1  14   0 48.1979 4.63862   5
   2 -14   0 -0.3632 1.48571   5
  -2  14   0 2.00268 1.87384   5
   2  14   0 6.10762 2.41418   4
   2  14   0 4.33148 1.81054   5
  -2  14   0 4.47251 1.95281   3
  -3 -14   0 74.8299 8.74213   6
   3 -14   0 81.0475 7.24279   5
  -3  14   0 70.2707 6.96316   3
  -3  14   0 77.3706 6.17828   5
   3  14   0 76.6611 7.79635   4
   3  14   0 77.6191 6.24049   5
  -3  14   0 75.1897 6.20957   4
   4 -14   0 20.6494 4.36466   5
  -4 -14   0 18.9005 5.49950   6
   4  14   0 24.3619 5.23484   4
   4  14   0 15.0497 3.40331   5
  -4  14   0 16.2513 3.37955   5
  -4  14   0 20.2821 4.71826   3
   0  15   0 2.55851 2.28597   3
   0  15   0 -1.8951 1.64552   5
   0  15   0 0.43093 2.02629   4
   1  15   0 133.226 8.64949   5
  -1  15   0 142.674 9.40053   4
  -1  15   0 145.122 9.43416   4
   1  15   0 131.852 10.3551   3
  -1  15   0 146.189 10.4633   3
   1  15   0 151.785 10.3044   4
   2 -15   0 0.47649 2.21929   5
  -2  15   0 2.55440 2.39681   4
   2  15   0 0.56077 2.33524   4
   2  15   0 5.12768 2.11409   5
  -2  15   0 5.58327 2.13940   5
  -2  15   0 3.90300 2.20654   3
  -3 -15   0 -3.2155 3.01774   6
   3 -15   0 -3.1545 1.80103   5
   3  15   0 4.19632 2.61731   4
  -3  15   0 0.99978 2.21784   5
   3  15   0 0.90281 2.70524   5
  -3  15   0 0.31777 2.19227   3
   0  16   0 28.3345 4.31265   5
   0  16   0 32.4810 5.50958   3
   0  16   0 36.9128 5.39863   4
  -1  16   0 3.43047 2.32259   4
   1  16   0 12.4572 3.51255   4
  -1  16   0 3.49085 2.58716   5
   1  16   0 10.6768 2.90398   5
   1  16   0 3.90827 2.45729   3
  -1  16   0 5.16573 2.81704   3
  -2  16   0 4.44650 3.30765   3
  -2  16   0 -0.0852 2.23707   5
  -2  16   0 -4.5074 2.07644   4
   2  16   0 -2.4448 2.33103   5
   2  16   0 -0.8919 1.89954   4
  -9   0   1 -0.9866 3.20019   6
   9   0  -1 -3.2041 1.93114   4
   9   0  -1 3.36378 2.49560   5
   8   0  -1 2.56916 2.07469   4
   8   0  -1 -0.8492 1.89980   5
  -8   0   1 5.38797 3.19259   6
   7   0  -1 1.52979 1.59132   5
   7   0  -1 0.52336 1.31272   4
   6   0  -1 0.01537 1.33571   5
  -6   0   1 0.97161 2.16230   6
   6   0  -1 1.30874 1.76783   6
  -6   0   1 -2.4422 1.29095   4
   6   0  -1 -0.1715 1.27437   4
   5   0  -1 -0.1321 1.07265   4
   5   0  -1 -0.5759 1.06978   5
  -5   0   1 1.80780 1.22790   5
  -5   0   1 1.10615 1.69177   6
   5   0  -1 -0.3650 1.21853   6
  -5   0   1 0.69824 0.97537   4
   4   0  -1 1.19059 0.90535   5
   4   0  -1 1.31784 1.34273   6
   4   0  -1 -1.3825 0.73853   4
  -4   0   1 0.58782 1.13330   6
  -4   0   1 0.70092 0.90624   5
  -4   0   1 3.34603 1.31061   4
   3   0  -1 0.33898 0.69102   6
  -3   0   1 0.41764 0.51052   4
   3   0  -1 1.34097 0.72662   5
   3   0  -1 -0.1808 0.61223   4
  -3   0   1 -0.3240 0.51698   6
  -3   0   1 0.32174 0.46100   5
  -2   0   1 0.95191 0.79977   6
  -2   0   1 -0.1853 0.39757   5
   2   0  -1 -0.0476 0.40587   4
  -2   0   1 -0.0350 0.42112   4
   1   0  -1 -0.0195 0.18273   5
  -1   0   1 0.08444 0.21747   6
  -1   0   1 0.11958 0.16529   5
   1   0  -1 0.03046 0.21947   6
   1   0  -1 0.11156 0.17647   4
  -1   0   1 0.20499 0.21118   4
   1   0   1 -0.2121 0.32304   6
  -1   0  -1 -0.0808 0.31230   6
  -1   0  -1 0.19349 0.19461   5
  -1   0  -1 -0.2735 0.19646   4
   1   0   1 0.22418 0.24323   4
   1   0   1 -0.0057 0.20972   5
   2   0   1 0.89189 0.53263   5
  -2   0  -1 0.03210 0.64496   6
   2   0   1 0.69610 0.69330   6
   2   0   1 0.26585 0.42724   4
  -2   0  -1 0.49843 0.50189   5
  -3   0  -1 -0.0052 0.59965   4
   3   0   1 0.80686 0.62847   5
   3   0   1 0.00759 0.48376   4
  -3   0  -1 3.87702 1.16446   5
   3   0   1 -0.0744 0.80095   6
  -3   0  -1 1.13370 0.95362   6
  -4   0  -1 0.80650 0.82661   4
   4   0   1 -0.1864 0.52025   4
   4   0   1 0.30566 0.82736   5
  -4   0  -1 -1.4876 1.06532   6
  -4   0  -1 -0.5832 0.60604   5
   4   0   1 0.01941 0.98272   6
   5   0   1 0.71027 0.95102   5
  -5   0  -1 -1.2733 0.92740   6
  -5   0  -1 0.06532 1.19969   4
   5   0   1 0.36810 1.20834   6
  -5   0  -1 0.96404 1.11870   5
   6   0   1 -1.7029 0.75365   4
   6   0   1 0.06747 1.18134   5
  -6   0  -1 1.40099 1.89032   6
   7   0   1 0.56728 1.43417   4
   7   0   1 3.39175 1.76701   5
  -7   0  -1 4.36439 2.65196   6
  -8   0  -1 -0.7117 2.56177   6
   8   0   1 -1.4212 1.73579   5
   8   0   1 1.39128 2.03852   4
  -9   0  -1 5.68388 4.20771   6
  -9  -1   1 27.6331 6.64445   6
   9  -1  -1 18.3905 4.16374   5
   9  -1  -1 25.3673 5.02635   4
  -9   1   1 15.1215 6.23408   6
   8  -1  -1 22.4702 4.45882   5
   8  -1  -1 24.7616 4.68082   4
  -8  -1   1 26.1382 5.78270   6
   8   1  -1 18.3921 4.17547   4
  -8   1   1 28.4707 6.37773   6
   8   1  -1 17.7491 3.64943   5
   7  -1  -1 26.6994 5.08853   4
   7  -1  -1 26.0605 3.93553   5
   7   1  -1 32.0115 4.38229   5
   7   1  -1 28.9287 4.86456   4
   6  -1  -1 48.7782 6.10332   6
   6  -1  -1 54.2620 5.17771   4
  -6  -1   1 45.1182 6.13011   4
   6  -1  -1 55.0939 5.19642   5
  -6  -1   1 51.3776 6.29975   6
  -6   1   1 48.9543 6.39354   6
   6   1  -1 60.2622 5.70473   4
  -6   1   1 54.0386 5.26329   4
   6   1  -1 53.1615 5.13572   5
   6   1  -1 38.0729 5.24939   6
   5  -1  -1 18.6918 3.08245   5
   5  -1  -1 18.3847 3.60026   6
  -5  -1   1 11.4813 3.01053   6
  -5  -1   1 14.4982 2.83339   4
   5  -1  -1 13.5724 2.60918   4
  -5  -1   1 18.2983 3.22740   5
  -5   1   1 15.8820 2.73421   4
  -5   1   1 16.1232 2.65269   5
   5   1  -1 12.7728 2.83019   6
  -5   1   1 17.2408 3.59201   6
   5   1  -1 17.2723 2.82497   5
   5   1  -1 13.8475 2.91299   4
  -4  -1   1 747.395 31.5599   6
   4  -1  -1 747.262 31.1273   6
  -4  -1   1 733.417 29.6628   4
   4  -1  -1 716.695 29.2290   5
  -4  -1   1 733.853 29.1280   5
  -4   1   1 640.831 28.7430   5
  -4   1   1 765.297 31.2372   6
   4   1  -1 722.539 29.2812   5
  -4   1   1 630.409 28.9293   4
   4   1  -1 760.869 30.8340   6
   4   1  -1 711.851 29.6954   4
  -3  -1   1 102.271 5.85798   4
  -3  -1   1 99.8665 6.41755   6
   3  -1  -1 93.7523 5.50866   4
  -3  -1   1 105.160 5.61329   5
   3  -1  -1 82.1561 5.29299   5
   3  -1  -1 99.7318 6.49616   6
  -3   1   1 104.071 5.57352   5
  -3   1   1 100.474 5.65193   4
   3   1  -1 95.1748 6.18651   6
  -3   1   1 106.975 6.62922   6
   3   1  -1 97.5158 5.60643   5
   3   1  -1 104.153 5.98553   4
   2  -1  -1 2425.12 95.3549   5
   2  -1  -1 2698.04 96.4979   6
  -2   1   1 2656.79 96.4138   6
  -1  -1   1 587.113 20.9653   5
  -1  -1   1 567.076 21.1849   6
   1  -1  -1 567.782 20.8888   5
   1  -1  -1 603.424 21.4492   6
  -1  -1   1 504.961 21.0270   4
  -1  -1   1 588.656 21.0915   3
   1  -1  -1 570.926 20.7281   4
  -1   1   1 509.130 20.6666   4
   1   1  -1 547.199 21.0492   3
  -1   1   1 587.148 21.3732   6
   1   1  -1 526.559 21.0905   4
   1   1  -1 490.090 20.8685   5
   1   1  -1 586.470 21.1525   6
  -1   1   1 534.089 20.7774   5
   1  -1   1 1223.33 48.8209   5
  -1  -1  -1 1358.64 49.5550   6
   1  -1   1 1429.49 49.7692   6
  -1   1  -1 1286.89 49.5774   6
   2  -1   1 709.511 26.7047   5
   2  -1   1 732.419 28.0673   6
  -2  -1  -1 678.069 27.8075   6
  -2  -1  -1 725.250 27.1763   4
   2  -1   1 670.077 26.7217   4
  -2  -1  -1 648.845 26.5685   5
  -2   1  -1 701.828 26.7441   5
  -2   1  -1 729.313 28.0814   6
   2   1   1 711.023 27.7262   6
   2   1   1 685.588 26.5479   5
  -2   1  -1 686.313 26.8566   4
   2   1   1 609.523 26.8431   4
  -3  -1  -1 186.857 8.82913   5
   3  -1   1 185.247 10.1690   6
  -3  -1  -1 189.087 10.2287   6
   3  -1   1 183.151 8.71856   5
  -3  -1  -1 157.555 8.87493   4
   3  -1   1 180.450 8.88887   4
   3   1   1 184.401 9.22307   4
  -3   1  -1 172.033 9.95844   6
   3   1   1 185.058 8.68875   5
  -3   1  -1 184.012 9.92000   4
   3   1   1 183.530 9.91895   6
  -3   1  -1 171.495 8.72359   5
   4  -1   1 49.7439 4.13513   4
  -4  -1  -1 52.1892 5.28005   6
   4  -1   1 54.4651 5.35731   6
   4  -1   1 48.3450 4.00117   5
  -4  -1  -1 51.5850 4.14125   5
  -4  -1  -1 66.0875 4.83122   4
  -4   1  -1 53.0616 5.29014   6
   4   1   1 50.9269 4.39449   4
  -4   1  -1 44.2740 4.15410   4
  -4   1  -1 52.4464 4.18866   5
   4   1   1 48.9309 4.83560   6
   4   1   1 42.4970 3.71797   5
  -5  -1  -1 220.703 13.3184   4
   5  -1   1 203.968 11.2886   4
   5  -1   1 207.558 10.9934   5
  -5  -1  -1 192.198 11.0824   5
  -5  -1  -1 217.926 13.3299   6
   5  -1   1 208.858 13.0314   6
   5   1   1 216.331 11.0657   5
  -5   1  -1 219.467 13.3741   6
  -5   1  -1 192.868 11.2456   4
   5   1   1 210.627 11.6591   4
  -5   1  -1 182.147 10.9581   5
   5   1   1 212.223 12.7792   6
   6  -1   1 91.3969 7.09665   4
   6  -1   1 88.0243 6.85804   5
  -6  -1  -1 97.3090 8.90147   6
  -6   1  -1 88.7365 8.70502   6
   6   1   1 90.0058 7.31020   4
  -6   1  -1 86.1635 7.17282   4
   6   1   1 91.2739 6.84034   5
  -7  -1  -1 49.7346 6.85242   6
   7  -1   1 44.2851 5.60357   4
   7  -1   1 49.2145 5.19000   5
   7   1   1 48.1272 5.27202   5
  -7   1  -1 36.4246 7.25560   6
   7   1   1 57.7775 6.20003   4
   8  -1   1 13.6722 3.23560   5
  -8  -1  -1 19.5799 5.00224   6
   8  -1   1 14.3269 3.77460   4
  -8   1  -1 13.0892 4.50446   6
   8   1   1 15.6720 4.06371   4
   8   1   1 12.8321 3.31211   5
   9  -2  -1 6.57341 2.45546   4
  -9  -2   1 12.7818 4.82796   6
   9  -2  -1 6.99625 2.93869   5
  -9   2   1 2.43408 2.37622   3
   9   2  -1 9.66148 3.28411   4
   8  -2  -1 21.8863 4.20729   5
  -8  -2   1 25.4341 5.90735   6
   8  -2  -1 20.9166 4.00966   4
  -8   2   1 28.4181 6.31713   6
   8   2  -1 16.5537 3.59320   5
   8   2  -1 24.2092 4.61666   4
   7  -2  -1 4.49463 2.44937   4
  -7  -2   1 12.6574 4.73777   6
   7  -2  -1 8.68935 2.61737   5
   7   2  -1 11.5356 3.33025   4
  -7   2   1 5.67260 3.29331   6
   7   2  -1 5.06740 2.22752   5
   6  -2  -1 67.5122 5.94588   5
   6  -2  -1 73.4211 7.74592   6
   6  -2  -1 74.8209 6.12041   4
  -6  -2   1 84.8383 8.15713   6
  -6  -2   1 78.1356 6.32034   3
   6   2  -1 67.0808 6.42388   4
   6   2  -1 76.8537 6.35413   5
   6   2  -1 83.0473 7.49367   6
  -6   2   1 71.2641 6.14527   4
  -6   2   1 72.7703 7.58379   6
  -5  -2   1 -0.0946 1.07993   4
   5  -2  -1 1.70656 1.45739   6
   5  -2  -1 1.28263 1.07958   4
  -5  -2   1 2.12535 1.22501   5
  -5  -2   1 1.75289 1.19596   3
   5  -2  -1 0.40284 0.89762   5
  -5  -2   1 -0.8271 0.87228   6
   5   2  -1 1.59633 1.02361   4
   5   2  -1 -0.4488 1.02664   5
  -5   2   1 -1.3226 0.85060   5
  -5   2   1 -0.0505 1.31419   6
  -5   2   1 1.88308 1.16898   4
   4  -2  -1 632.310 25.5500   5
  -4  -2   1 642.838 26.0693   4
  -4  -2   1 579.412 26.9351   6
  -4  -2   1 630.564 25.6385   3
   4  -2  -1 616.717 27.3186   6
   4  -2  -1 642.755 25.4512   4
  -4  -2   1 550.032 25.0179   5
  -4   2   1 670.335 27.5844   6
   4   2  -1 564.674 25.8526   4
  -4   2   1 586.018 25.3055   4
   4   2  -1 652.472 26.8048   6
   4   2  -1 567.782 25.2600   5
  -4   2   1 643.604 25.4185   5
  -3  -2   1 251.637 11.6467   3
   3  -2  -1 276.041 13.3121   6
  -3  -2   1 251.985 11.4363   5
   3  -2  -1 257.542 11.5387   5
  -3  -2   1 233.964 11.6606   4
  -3  -2   1 258.938 12.6650   6
   3  -2  -1 248.492 11.2682   4
  -3   2   1 267.904 11.5046   5
   3   2  -1 239.057 11.8852   4
  -3   2   1 259.833 11.4382   4
  -3   2   1 261.935 12.7532   6
   3   2  -1 243.323 11.4804   5
  -2  -2   1 29.4488 2.26352   5
  -2  -2   1 24.5938 2.44049   6
   2  -2  -1 27.7080 2.01221   4
   2  -2  -1 30.8771 2.90397   6
  -2  -2   1 32.1646 2.51306   4
  -2  -2   1 27.5102 2.32937   3
   2  -2  -1 30.9616 2.30230   5
  -2   2   1 25.7486 1.99892   4
   2   2  -1 31.6019 2.59364   6
  -2   2   1 26.7177 1.90722   3
   2   2  -1 27.6134 2.42835   4
  -2   2   1 30.1103 2.21878   5
   2   2  -1 26.8813 2.22664   5
  -2   2   1 29.4452 2.82993   6
   1  -2  -1 89.3892 3.99260   5
   1  -2  -1 92.2605 4.59466   6
   1  -2  -1 82.0909 3.56272   4
  -1  -2   1 78.4249 4.16436   3
   1  -2  -1 82.2256 3.61036   3
  -1  -2   1 82.1380 3.99910   5
  -1   2   1 83.1830 3.60405   3
   1   2  -1 81.3209 4.03049   5
  -1   2   1 90.2353 4.49281   6
  -1   2   1 84.4168 3.62040   4
   1   2  -1 83.5840 4.25254   3
  -1   2   1 91.6161 3.94019   5
   1   2  -1 81.2840 4.22441   4
   0  -2  -1 128.447 5.11572   5
   0  -2   1 130.852 5.50492   3
   0  -2   1 112.846 5.38622   5
   0  -2  -1 126.820 5.29877   3
   0  -2   1 127.820 5.38721   5
   0  -2  -1 133.114 5.17668   5
   0   2   1 123.635 5.28446   3
   0   2  -1 124.903 5.51319   3
   0   2  -1 128.897 5.39519   5
   0   2  -1 132.682 5.46964   5
   0   2   1 121.518 5.01650   5
   0   2   1 132.106 5.06846   5
   0   2   1 123.386 5.11234   4
   1  -2   1 792.737 32.2796   5
   1  -2   1 832.998 32.1303   4
  -1  -2  -1 872.492 32.2032   5
   1  -2   1 929.908 32.3563   3
  -1  -2  -1 898.940 32.5825   4
  -1  -2  -1 812.899 32.8208   6
   1  -2   1 890.593 33.2211   6
  -1   2  -1 903.644 32.4450   5
   1   2   1 845.037 32.5223   4
  -1   2  -1 899.682 33.1857   6
   1   2   1 833.411 32.0762   5
  -1   2  -1 883.226 32.2694   3
  -1   2  -1 797.709 32.1343   4
  -2  -2  -1 125.100 6.40623   4
   2  -2   1 119.672 5.93297   4
   2  -2   1 115.311 5.98345   5
  -2  -2  -1 125.338 6.93746   6
  -2  -2  -1 125.312 6.04837   5
   2  -2   1 123.021 7.01591   6
  -2   2  -1 121.156 6.05884   4
  -2   2  -1 110.087 5.95111   5
   2   2   1 130.547 6.81184   6
   2   2   1 127.743 6.49310   4
  -2   2  -1 119.036 5.92514   3
   2   2   1 122.143 5.91563   5
  -2   2  -1 134.599 7.21345   6
   3  -2   1 389.416 16.9817   4
   3  -2   1 377.464 16.9258   5
  -3  -2  -1 393.418 18.5598   6
  -3  -2  -1 407.500 17.6415   4
   3  -2   1 415.362 18.8464   6
  -3  -2  -1 416.064 17.1614   5
   3   2   1 391.443 18.0808   6
   3   2   1 412.575 17.7303   4
  -3   2  -1 432.627 17.3301   5
   3   2   1 381.245 16.8206   5
  -3   2  -1 430.291 18.9181   6
  -4  -2  -1 14.3159 2.59230   4
  -4  -2  -1 18.4990 2.52186   5
  -4  -2  -1 20.2437 3.54344   6
   4  -2   1 18.7847 2.52528   4
   4  -2   1 18.4570 3.42806   6
   4  -2   1 13.2126 2.36287   5
   4   2   1 19.5212 2.77122   4
   4   2   1 15.6330 2.23203   5
   4   2   1 18.5162 2.89066   6
  -4   2  -1 15.3535 2.54886   4
  -4   2  -1 14.2202 2.33870   5
  -4   2  -1 20.5439 3.70222   6
  -5  -2  -1 21.3579 3.12679   5
   5  -2   1 19.2887 3.18275   4
   5  -2   1 22.1980 2.98117   5
  -5  -2  -1 21.3628 3.50685   4
  -5  -2  -1 21.6671 4.22784   6
   5   2   1 24.1886 3.74465   6
  -5   2  -1 16.4265 3.13709   4
  -5   2  -1 25.4306 3.39513   5
  -5   2  -1 19.6226 4.05419   6
   5   2   1 22.8030 2.97741   5
   5   2   1 23.0718 3.31724   4
  -6  -2  -1 5.96450 3.20035   6
   6  -2   1 6.36458 1.98265   4
   6  -2   1 6.42765 1.95260   5
   6   2   1 4.00757 1.87491   5
  -6   2  -1 9.65749 3.26768   6
  -6   2  -1 10.0401 2.44836   4
   6   2   1 4.06240 2.25626   4
  -7  -2  -1 190.710 14.9850   6
   7  -2   1 205.895 12.4134   5
   7  -2   1 214.973 12.7888   4
   7   2   1 227.048 13.7968   4
   7   2   1 212.330 12.2583   5
  -7   2  -1 195.840 14.7533   6
   8  -2   1 10.7526 3.26168   5
  -8  -2  -1 6.01922 3.71990   6
   8  -2   1 14.6387 3.33361   4
  -8   2  -1 3.24651 3.77409   6
   8   2   1 7.44749 2.62484   5
   8   2   1 9.28880 3.09530   4
  -8   2  -1 5.86015 2.42320   3
   8  -3  -1 1.10594 1.96905   4
   8  -3  -1 3.49164 2.19579   5
  -8  -3   1 0.15587 2.31145   6
   8   3  -1 1.24373 2.23556   5
   8   3  -1 -0.9412 1.98343   4
  -8   3   1 -2.7397 2.69221   6
  -8   3   1 -1.4083 1.49976   3
   7  -3  -1 93.7098 7.59691   4
  -7  -3   1 98.0664 9.76604   6
   7  -3  -1 101.916 7.95777   5
  -7   3   1 96.0937 7.32868   3
   7   3  -1 104.420 8.78541   4
   7   3  -1 96.2722 7.86691   5
  -7   3   1 99.0697 9.77732   6
  -6  -3   1 2.42511 1.79355   6
   6  -3  -1 2.51446 1.35409   4
   6  -3  -1 0.26429 1.35653   5
   6   3  -1 -0.4604 1.42509   5
  -6   3   1 0.32757 1.17802   3
  -6   3   1 3.46031 1.76043   4
  -6   3   1 0.96909 1.82975   6
   6   3  -1 6.68636 2.40950   6
   6   3  -1 -0.9778 1.08943   4
  -5  -3   1 3.87861 1.76222   3
   5  -3  -1 4.49216 2.05345   6
  -5  -3   1 5.07960 1.53036   5
   5  -3  -1 5.83686 1.76351   4
   5  -3  -1 5.74237 1.74408   5
  -5  -3   1 3.59843 2.08820   6
   5   3  -1 2.82789 1.66655   6
  -5   3   1 2.37945 1.41889   5
   5   3  -1 3.90118 1.70621   4
  -5   3   1 2.96905 1.16446   3
  -5   3   1 4.97727 1.66620   4
   5   3  -1 4.54898 1.87779   5
  -5   3   1 4.99281 2.29228   6
  -4  -3   1 29.7829 3.95194   6
   4  -3  -1 29.8771 3.08079   5
   4  -3  -1 26.2490 3.74908   6
  -4  -3   1 30.0747 3.26993   4
   4  -3  -1 25.1069 2.66225   4
  -4  -3   1 25.1155 2.96882   5
  -4  -3   1 34.4015 3.44606   3
  -4   3   1 29.0911 2.76988   3
  -4   3   1 28.1012 2.98370   4
  -4   3   1 33.3209 4.10218   6
   4   3  -1 32.7535 3.32480   5
  -4   3   1 30.8601 3.11819   5
   4   3  -1 27.6280 3.44550   4
   4   3  -1 28.1853 3.42360   6
   3  -3  -1 141.597 8.58351   6
  -3  -3   1 150.802 7.45564   5
   3  -3  -1 122.518 6.72481   4
  -3  -3   1 134.342 7.59490   4
   3  -3  -1 141.836 7.38588   5
  -3  -3   1 144.272 7.64003   3
  -3  -3   1 112.716 7.78117   6
  -3   3   1 142.908 7.24407   5
   3   3  -1 144.125 8.11847   4
   3   3  -1 154.252 8.11339   6
   3   3  -1 139.442 7.38383   5
  -3   3   1 144.914 7.15943   4
  -3   3   1 150.648 6.91217   3
  -3   3   1 145.007 8.47133   6
  -2  -3   1 7.05143 1.39981   3
   2  -3  -1 5.25883 0.89294   4
  -2  -3   1 8.61343 1.40402   5
   2  -3  -1 8.44134 1.81304   6
  -2  -3   1 5.56834 1.32801   6
   2  -3  -1 9.57033 1.29000   5
   2   3  -1 7.00496 1.30575   5
  -2   3   1 6.78010 1.18255   5
   2   3  -1 6.84125 1.42844   4
  -2   3   1 8.24972 1.73829   6
  -2   3   1 7.50802 0.94963   3
  -2   3   1 7.06184 1.08584   4
   1  -3  -1 4082.45 155.295   2
  -1  -3   1 4154.02 158.769   2
   1   3  -1 3338.86 155.459   2
   0  -3   1 51.2644 2.90030   5
   0  -3   1 53.4302 3.01311   5
   0  -3  -1 52.8626 2.76594   5
   0  -3   1 52.1986 3.01414   3
   0  -3  -1 55.1280 2.92583   3
   0  -3  -1 53.1468 2.71752   5
   0   3   1 50.7021 2.58239   5
   0   3  -1 52.1816 3.07018   3
   0   3   1 51.1048 2.86977   3
   0   3  -1 50.3165 2.87577   5
   0   3   1 54.5954 2.64621   5
   0   3  -1 50.2573 2.90445   5
  -1  -3  -1 4415.11 201.760   2
   1  -3   1 5312.73 193.533   2
  -1   3  -1 4728.42 192.297   2
   1   3   1 4812.61 191.712   2
  -2  -3  -1 101.694 5.61016   4
   2  -3   1 91.7138 5.05404   3
  -2  -3  -1 104.318 6.15111   6
   2  -3   1 95.6787 5.29986   5
  -2  -3  -1 97.1917 5.19453   5
   2  -3   1 96.2662 6.22081   6
  -2  -3  -1 103.275 5.63718   3
   2  -3   1 94.9899 5.00511   4
   2   3   1 103.778 5.72335   4
   2   3   1 99.5933 5.14176   5
  -2   3  -1 95.6605 5.13080   4
  -2   3  -1 99.5520 5.33509   5
  -2   3  -1 103.247 5.15023   3
  -2   3  -1 101.188 6.23131   6
  -3  -3  -1 341.138 15.2656   4
   3  -3   1 335.040 14.4493   4
   3  -3   1 342.448 16.4793   6
  -3  -3  -1 309.600 14.4876   5
  -3  -3  -1 342.550 16.2864   6
   3   3   1 320.070 14.4189   5
   3   3   1 344.914 15.7739   6
  -3   3  -1 320.740 14.6647   5
  -3   3  -1 370.091 17.1072   6
  -3   3  -1 336.798 14.4589   3
   4  -3   1 1.97576 1.00371   5
   4  -3   1 2.05143 1.04859   4
   4  -3   1 -0.5670 1.46969   6
  -4  -3  -1 1.30243 1.11939   5
  -4  -3  -1 1.00966 1.00690   4
  -4  -3  -1 2.07604 1.20609   6
   4   3   1 3.12657 1.31070   4
   4   3   1 0.69722 0.99580   5
  -4   3  -1 3.60284 1.37447   4
  -4   3  -1 2.04167 1.13693   5
   4   3   1 3.98446 1.46414   6
  -4   3  -1 2.09359 1.46234   6
  -4   3  -1 1.85943 1.07501   3
  -5  -3  -1 18.8696 2.77885   5
  -5  -3  -1 16.5839 3.64622   6
   5  -3   1 14.7313 2.80394   4
  -5  -3  -1 21.3875 3.46745   4
   5  -3   1 17.7798 3.02516   5
   5   3   1 16.6649 3.42677   4
  -5   3  -1 17.1024 2.87226   5
  -5   3  -1 18.8983 4.01758   6
  -5   3  -1 20.3464 3.32485   4
   5   3   1 14.5010 2.62202   5
   5   3   1 18.7499 3.53472   6
  -5   3  -1 14.3716 2.55232   3
  -6  -3  -1 45.8265 6.33756   6
   6  -3   1 44.8273 4.71827   5
   6  -3   1 43.6408 4.66218   4
   6   3   1 50.7140 5.49842   4
  -6   3  -1 57.9821 5.15420   3
  -6   3  -1 47.4023 6.74591   6
  -6   3  -1 46.1447 4.93825   4
   6   3   1 49.4453 4.86067   5
  -7  -3  -1 58.4945 8.02652   6
   7  -3   1 50.4173 6.93214   4
   7  -3   1 55.0001 5.61280   5
   7   3   1 71.2967 7.04526   4
   7   3   1 59.9148 5.81122   5
  -7   3  -1 60.1923 7.58781   6
  -7   3  -1 68.3278 6.07070   3
  -8  -3  -1 10.6081 4.70696   6
   8  -3   1 8.09885 2.38600   4
   8  -3   1 10.8258 2.92286   5
  -8   3  -1 9.09930 4.87478   6
  -8   3  -1 6.89839 2.40579   3
   8   3   1 7.13065 2.75339   4
   8   3   1 4.21198 2.27437   5
   8  -4  -1 52.9790 6.29882   5
  -8  -4   1 46.6172 8.70873   6
   8  -4  -1 63.7486 6.29319   4
   8   4  -1 56.2353 7.06551   4
   8   4  -1 57.0955 6.48426   5
  -8   4   1 52.6678 8.05088   6
   7  -4  -1 32.2425 4.27477   4
   7  -4  -1 32.2706 4.32061   5
  -7  -4   1 34.5760 6.46171   6
  -7   4   1 35.9299 4.18554   3
   7   4  -1 32.8425 4.84337   4
  -7   4   1 23.5998 5.87126   6
   7   4  -1 33.6793 4.73201   5
   6  -4  -1 7.28624 2.65266   5
  -6  -4   1 7.22863 3.08434   6
   6  -4  -1 5.31300 1.91330   4
  -6   4   1 3.99183 1.64933   3
   6   4  -1 5.25501 2.48461   4
   6   4  -1 8.17349 2.27592   5
  -6   4   1 3.14340 1.82893   4
  -6   4   1 12.7543 3.67771   6
  -5  -4   1 1.08511 1.30182   5
   5  -4  -1 0.62097 2.14733   6
  -5  -4   1 1.61742 1.60949   6
  -5  -4   1 -0.4316 1.13448   4
   5  -4  -1 1.38291 1.22421   4
   5  -4  -1 0.19437 1.12682   5
  -5  -4   1 2.69556 1.62411   3
  -5   4   1 2.38747 1.08886   3
  -5   4   1 1.22827 1.10507   4
  -5   4   1 1.33716 1.79579   6
   5   4  -1 1.06119 1.33466   6
   5   4  -1 1.89771 1.24253   5
   5   4  -1 3.87295 1.75564   4
   4  -4  -1 1.09038 0.95146   5
  -4  -4   1 1.74005 1.19477   5
  -4  -4   1 1.03142 1.17279   6
   4  -4  -1 3.10376 1.02591   4
  -4  -4   1 2.10905 1.15090   3
  -4  -4   1 2.11391 1.22911   4
   4   4  -1 3.47717 1.48700   4
  -4   4   1 1.36928 1.52170   6
  -4   4   1 3.55199 1.21038   5
  -4   4   1 2.15691 1.01082   4
   4   4  -1 4.77318 1.55437   5
  -4   4   1 2.45651 0.92453   3
   3  -4  -1 705.288 28.6057   4
  -3  -4   1 746.231 30.0307   3
  -3  -4   1 738.484 29.4619   5
   3  -4  -1 766.423 29.6434   5
   3  -4  -1 747.748 31.3631   6
  -3  -4   1 756.121 30.9782   6
  -3   4   1 762.187 28.6729   3
  -3   4   1 664.188 29.0713   5
  -3   4   1 763.233 29.0865   4
   3   4  -1 741.351 30.3272   4
  -2  -4   1 1.51962 0.93635   3
   2  -4  -1 0.36236 0.39464   4
   2  -4  -1 -1.2038 0.65682   6
  -2  -4   1 -0.4886 0.41287   5
   2  -4  -1 0.71751 0.54633   5
  -2  -4   1 -0.1575 0.34178   6
   2  -4  -1 0.20198 0.43770   3
  -2   4   1 0.72452 0.36859   3
  -2   4   1 0.55643 0.55062   5
   2   4  -1 0.60449 0.62545   5
  -2   4   1 0.46096 0.74326   6
  -2   4   1 0.01249 0.36856   4
   2   4  -1 -0.1170 0.49493   4
   2   4  -1 0.67902 0.66964   3
   1  -4  -1 24.7824 2.50721   6
   1  -4  -1 20.6889 1.65613   3
  -1  -4   1 20.0048 1.94551   5
  -1  -4   1 20.0705 2.12663   3
   1  -4  -1 20.9881 1.81909   5
  -1   4   1 19.0718 1.66093   5
  -1   4   1 23.1872 1.50396   4
  -1   4   1 20.0661 1.73177   3
   1   4  -1 18.8231 2.04602   3
  -1   4   1 19.2108 1.69841   5
   1   4  -1 23.0669 1.99736   5
   0  -4   1 211.135 9.31054   5
   0  -4   1 214.870 9.51340   5
   0  -4   1 223.032 9.56311   3
   0  -4  -1 219.966 9.38586   3
   0  -4  -1 215.056 9.10509   5
   0  -4  -1 214.881 9.21186   5
   0   4  -1 217.176 9.31047   5
   0   4   1 214.758 9.34050   3
   0   4   1 216.489 8.96694   5
   0   4  -1 223.556 9.41600   5
   0   4   1 216.591 8.93455   5
   0   4  -1 218.849 9.63041   3
   1  -4   1 121.546 6.12034   5
  -1  -4  -1 128.300 6.38190   3
  -1  -4  -1 129.308 5.96578   5
   1  -4   1 140.629 7.24557   6
   1  -4   1 123.342 5.97201   3
  -1   4  -1 130.380 6.09827   5
   1   4   1 113.719 5.67500   5
  -1   4  -1 120.858 5.76088   4
   1   4   1 124.608 6.18717   4
  -1   4  -1 110.711 5.92052   5
   1   4   1 121.649 6.28517   3
  -1   4  -1 129.140 6.07114   3
   1   4   1 124.490 5.78057   5
  -2  -4  -1 2.37609 1.02241   5
  -2  -4  -1 0.50575 0.50033   3
   2  -4   1 1.30167 0.91793   6
   2  -4   1 2.57720 0.77952   3
   2  -4   1 1.53781 0.72104   5
  -2  -4  -1 -0.0291 0.52969   4
   2  -4   1 0.32167 0.48126   4
  -2  -4  -1 -0.0317 0.62017   6
  -2   4  -1 0.41994 0.40928   3
   2   4   1 1.42622 0.65695   5
  -2   4  -1 1.95532 0.80756   5
   2   4   1 0.38576 0.61743   4
  -2   4  -1 -0.5121 0.69127   6
  -2   4  -1 0.96628 0.59172   4
  -3  -4  -1 7.96502 1.60140   5
  -3  -4  -1 4.68384 1.42864   4
  -3  -4  -1 10.4233 2.01268   3
   3  -4   1 6.41276 1.51830   5
   3  -4   1 6.03704 1.26986   4
  -3  -4  -1 7.38205 1.95790   6
   3  -4   1 6.66319 1.98162   6
  -3   4  -1 5.38838 1.81415   6
  -3   4  -1 7.30306 1.54703   4
  -3   4  -1 6.79516 1.55463   5
  -3   4  -1 5.69501 1.30213   3
   3   4   1 5.70157 1.63524   4
   3   4   1 10.7898 1.84437   5
   4  -4   1 6.20948 1.54839   4
  -4  -4  -1 7.30213 2.17802   6
   4  -4   1 7.12693 1.76363   5
  -4  -4  -1 7.99440 1.96235   4
   4  -4   1 5.01083 2.07449   6
  -4  -4  -1 9.42740 2.21455   3
  -4  -4  -1 9.35482 1.93485   5
   4   4   1 8.67092 2.19222   6
  -4   4  -1 8.86121 2.56362   6
  -4   4  -1 5.90523 1.74783   5
  -4   4  -1 7.01140 1.70866   4
   4   4   1 9.75062 1.98736   5
   4   4   1 8.03739 2.39246   4
   5  -4   1 3.51905 1.44625   5
   5  -4   1 3.20387 2.48383   6
  -5  -4  -1 3.58750 1.56535   5
  -5  -4  -1 4.63776 1.72538   3
  -5  -4  -1 2.94618 2.07017   6
   5  -4   1 4.02085 1.63648   4
   5   4   1 1.47727 1.38710   4
   5   4   1 0.04220 1.59427   6
  -5   4  -1 4.03182 1.46230   3
   5   4   1 2.49908 1.32561   5
  -5   4  -1 4.12829 2.04907   6
  -5   4  -1 5.22864 1.79764   4
  -5   4  -1 5.22553 1.83125   5
   6  -4   1 198.806 13.3304   5
  -6  -4  -1 184.796 13.9476   6
   6  -4   1 207.237 11.6600   4
  -6   4  -1 234.833 11.9030   3
  -6   4  -1 192.698 13.9745   6
   6   4   1 211.700 11.7368   5
  -6   4  -1 216.334 12.4259   4
   7  -4   1 2.41010 1.96021   5
  -7  -4  -1 8.19445 3.78754   6
  -7   4  -1 3.39606 3.42039   6
  -7   4  -1 1.14117 1.73421   3
   7   4   1 0.90035 2.35326   4
   7   4   1 4.35101 2.09236   5
  -8  -4  -1 59.9546 9.03893   6
   8  -4   1 75.6339 7.36799   5
   8  -4   1 70.0757 6.86860   4
  -8   4  -1 56.2609 8.57458   6
  -8   4  -1 81.0792 7.28710   3
   8   4   1 84.2530 7.23869   5
   8   4   1 86.3631 8.45294   4
   8  -5  -1 55.9982 6.53511   5
   8  -5  -1 74.3326 6.84177   4
  -8  -5   1 83.6381 9.77117   6
   8   5  -1 73.4321 7.16155   5
   8   5  -1 80.7797 8.52786   4
  -8   5   1 69.0316 7.43589   3
  -8   5   1 62.6392 8.52699   6
  -7  -5   1 5.29752 3.34023   6
   7  -5  -1 9.39595 2.51394   4
   7  -5  -1 13.7156 3.00418   5
  -7   5   1 6.09312 1.96261   3
   7   5  -1 6.60590 2.64683   4
   7   5  -1 8.31872 2.67170   5
  -7   5   1 9.32423 4.29950   6
  -6  -5   1 83.3481 8.48339   6
   6  -5  -1 73.6695 6.40889   5
   6  -5  -1 76.4932 5.97640   4
  -6   5   1 85.4958 7.53327   4
   6   5  -1 90.6647 7.80045   4
  -6   5   1 82.0278 8.26400   6
  -6   5   1 85.7267 6.10674   3
   6   5  -1 87.0267 6.88355   5
  -5  -5   1 1.51033 1.38710   6
   5  -5  -1 0.65997 1.17480   5
   5  -5  -1 1.63863 1.13757   4
  -5  -5   1 0.98758 1.22908   5
  -5  -5   1 2.21247 2.00434   3
   5  -5  -1 1.51644 1.84414   6
   5   5  -1 -0.6646 1.14031   4
  -5   5   1 1.34839 1.85918   6
  -5   5   1 -0.4350 0.76484   3
  -5   5   1 2.54468 1.14314   4
   5   5  -1 2.76951 1.68562   5
  -5   5   1 -0.2881 1.23257   5
  -4  -5   1 1.50047 1.15360   6
   4  -5  -1 -0.8387 0.66791   4
  -4  -5   1 0.42760 0.85766   3
  -4  -5   1 0.02892 0.86137   5
   4  -5  -1 0.97231 1.03973   5
   4  -5  -1 -0.4893 1.22486   6
  -4   5   1 0.70950 1.21554   6
  -4   5   1 1.88638 1.05822   4
   4   5  -1 -0.1974 1.08729   4
   4   5  -1 0.55501 1.02814   5
  -4   5   1 -0.7538 0.72807   5
  -4   5   1 0.37413 0.67860   3
   3  -5  -1 1508.73 60.6467   4
  -3  -5   1 1567.04 61.7684   5
  -3  -5   1 1672.45 62.6686   3
   3  -5  -1 1630.60 64.1004   6
  -3  -5   1 1445.09 62.9821   6
   3  -5  -1 1734.67 62.2113   5
   3   5  -1 1693.94 63.0208   4
  -3   5   1 1721.09 60.9947   3
   3   5  -1 1678.75 62.0809   5
  -3   5   1 1594.27 63.4078   6
  -3   5   1 1585.07 61.1130   4
  -3   5   1 1680.49 61.7185   5
   2  -5  -1 70.3181 4.39161   5
   2  -5  -1 68.5585 5.29789   6
  -2  -5   1 65.7241 4.70091   3
   2  -5  -1 71.0356 3.88351   3
  -2  -5   1 62.7341 4.25162   5
   2   5  -1 71.5364 4.88129   3
  -2   5   1 61.9471 3.61280   4
   2   5  -1 61.8109 4.24030   5
  -2   5   1 67.8780 4.08466   5
  -2   5   1 65.1760 3.80707   3
   2   5  -1 70.9586 4.81897   4
  -1  -5   1 793.421 30.5519   3
   1  -5  -1 780.066 30.8901   6
  -1  -5   1 753.163 30.6212   5
   1  -5  -1 678.446 29.4097   5
   1  -5  -1 769.557 29.2612   3
   1  -5  -1 775.006 29.5618   5
  -1   5   1 771.992 29.1472   5
   1   5  -1 774.854 30.2320   3
   1   5  -1 772.443 29.6428   5
  -1   5   1 774.038 29.3581   3
  -1   5   1 751.364 29.2479   5
   0  -5   1 0.99412 0.61427   5
   0  -5  -1 1.34254 0.58594   5
   0  -5   1 1.17360 0.71133   3
   0  -5  -1 0.19636 0.59227   5
   0  -5   1 3.60094 1.02267   5
   0  -5  -1 2.74009 0.98308   3
   0   5   1 1.31086 0.61454   5
   0   5  -1 0.46259 0.76637   3
   0   5  -1 2.15355 0.72881   5
   0   5   1 0.99390 0.51793   5
   0   5   1 1.35269 0.79782   3
   0   5  -1 1.06282 0.76930   5
   1  -5   1 -0.0333 0.75425   6
   1  -5   1 1.34283 0.66386   5
  -1  -5  -1 1.03194 0.67738   5
   1  -5   1 0.59546 0.47968   3
  -1  -5  -1 -1.3569 0.66588   3
  -1   5  -1 0.21069 0.38678   4
   1   5   1 0.72770 0.64846   3
   1   5   1 0.52195 0.51053   5
  -1   5  -1 0.30979 0.67117   5
  -1   5  -1 -0.2258 0.45236   3
   1   5   1 -0.1717 0.50313   4
   1   5   1 -0.7253 0.33657   5
   2  -5   1 360.843 16.9598   6
  -2  -5  -1 364.012 15.8303   3
  -2  -5  -1 357.805 15.1672   5
   2  -5   1 336.520 14.8841   3
   2  -5   1 347.362 16.4674   5
  -2  -5  -1 370.435 16.5912   6
  -2   5  -1 353.461 14.8402   4
   2   5   1 354.742 14.9471   5
  -2   5  -1 365.476 18.3841   6
  -2   5  -1 363.217 15.3488   5
   2   5   1 329.137 15.5385   4
  -2   5  -1 365.638 15.0256   3
   3  -5   1 472.019 20.4192   4
  -3  -5  -1 525.433 21.9738   3
  -3  -5  -1 531.945 21.9297   4
  -3  -5  -1 529.432 23.1308   6
   3  -5   1 496.151 23.2703   6
  -3  -5  -1 526.942 21.2784   5
   3  -5   1 481.366 21.2027   5
  -3   5  -1 498.540 22.9239   6
  -3   5  -1 485.626 21.1776   5
  -3   5  -1 517.680 20.9946   4
  -3   5  -1 465.037 20.5694   3
   3   5   1 501.818 20.9118   5
   3   5   1 517.880 22.1320   4
  -4  -5  -1 0.73737 1.03311   4
  -4  -5  -1 -1.0905 0.74301   6
  -4  -5  -1 0.22890 1.23291   3
   4  -5   1 -0.0090 0.66782   5
   4  -5   1 1.21789 0.84310   4
   4  -5   1 -2.7961 1.18344   6
  -4  -5  -1 -0.5201 1.09585   5
   4   5   1 0.03275 0.88125   5
  -4   5  -1 0.21534 0.92799   5
  -4   5  -1 0.18171 0.78243   3
   4   5   1 0.37149 0.77873   4
  -4   5  -1 -0.4458 1.46560   6
  -4   5  -1 1.40375 0.74884   4
   5  -5   1 400.338 19.0121   4
  -5  -5  -1 415.432 22.3144   3
   5  -5   1 440.242 20.0623   5
   5  -5   1 400.222 22.3217   6
  -5  -5  -1 445.998 22.8541   6
   5   5   1 404.761 20.7616   4
   5   5   1 434.438 19.5120   5
  -5   5  -1 449.715 20.1031   5
  -5   5  -1 443.919 20.0288   4
  -5   5  -1 476.639 19.5183   3
  -5   5  -1 407.913 22.0417   6
  -6  -5  -1 27.6815 5.76440   6
   6  -5   1 26.5430 3.83104   5
   6  -5   1 24.8048 3.60410   4
  -6   5  -1 24.9164 3.71638   3
   6   5   1 29.9298 3.92982   5
   6   5   1 20.5334 4.04800   4
  -6   5  -1 18.3500 5.41178   6
  -6   5  -1 26.6593 4.14464   4
  -7  -5  -1 112.062 11.1042   6
   7  -5   1 118.433 8.80217   5
  -7   5  -1 101.917 10.2513   6
   7   5   1 116.434 9.74083   4
   7   5   1 109.470 8.15137   5
  -7   5  -1 109.916 8.08714   3
  -8  -5  -1 39.0083 8.24128   6
   8  -5   1 43.4616 5.16554   4
   8  -5   1 42.0255 5.76067   5
   8   5   1 41.9877 6.87062   4
  -8   5  -1 39.0838 5.25552   3
  -8   5  -1 33.7819 7.08072   6
  -8  -6   1 70.4148 9.33622   6
   8  -6  -1 54.0736 5.77045   4
  -8   6   1 53.5797 9.21507   6
  -8   6   1 55.8007 6.64675   3
   8   6  -1 58.1524 6.81786   5
   7  -6  -1 3.26989 2.14414   5
  -7  -6   1 -0.4350 2.56783   6
   7  -6  -1 3.87724 1.78142   4
   7   6  -1 3.68765 2.15874   5
  -7   6   1 2.35570 2.65988   6
   7   6  -1 6.38311 2.81818   4
  -7   6   1 4.37024 1.70855   3
   6  -6  -1 53.7607 4.78014   4
   6  -6  -1 45.2336 5.12995   5
  -6  -6   1 50.9098 6.65578   6
   6   6  -1 59.3249 6.39534   4
   6   6  -1 57.6860 5.62984   5
  -6   6   1 50.1947 4.65968   3
  -6   6   1 50.7588 8.00945   6
   5  -6  -1 94.0719 6.13140   4
  -5  -6   1 100.473 8.69998   6
   5  -6  -1 86.3627 6.71190   5
   5  -6  -1 105.183 10.5584   6
  -5   6   1 103.080 6.21776   3
  -5   6   1 91.1894 6.59541   5
  -5   6   1 95.4063 6.56222   4
   5   6  -1 105.252 7.27205   5
  -5   6   1 93.1431 8.48562   6
   5   6  -1 100.924 7.98987   4
   4  -6  -1 -0.6444 1.57674   6
  -4  -6   1 -0.2772 1.22533   3
  -4  -6   1 1.12058 1.17986   5
   4  -6  -1 0.38016 0.68602   4
  -4  -6   1 0.82148 1.27597   6
   4  -6  -1 -0.0143 0.95644   5
  -4   6   1 3.49766 1.28549   5
   4   6  -1 1.27515 1.25560   4
  -4   6   1 0.69239 0.87499   4
   4   6  -1 1.84619 1.17701   5
  -4   6   1 -0.4749 1.32833   6
  -4   6   1 2.14860 0.92659   3
   3  -6  -1 714.446 28.8395   4
  -3  -6   1 759.945 30.2231   5
   3  -6  -1 773.005 30.4013   5
   3  -6  -1 670.595 29.0756   3
  -3  -6   1 746.693 30.9491   3
   3  -6  -1 752.005 32.5453   6
  -3  -6   1 783.454 32.0635   6
   3   6  -1 765.686 31.2708   4
  -3   6   1 705.544 29.1945   4
  -3   6   1 772.070 30.0163   5
   3   6  -1 773.314 30.3633   5
  -3   6   1 681.333 29.5998   5
  -3   6   1 757.600 31.8068   6
  -3   6   1 780.576 29.2758   3
  -2  -6   1 23.4701 2.94234   3
   2  -6  -1 21.2729 2.08112   3
  -2  -6   1 19.7030 2.35481   5
   2  -6  -1 19.8654 2.38044   5
   2  -6  -1 25.3051 3.63053   6
  -2   6   1 20.2003 2.23557   5
  -2   6   1 21.7625 2.25576   5
   2   6  -1 29.2592 3.24399   3
  -2   6   1 23.2578 1.99258   4
  -2   6   1 19.6395 2.11940   3
   2   6  -1 20.4018 2.42370   5
   2   6  -1 24.6718 2.89080   4
   1  -6  -1 2416.04 89.1015   3
   1  -6  -1 2390.98 89.3386   5
  -1  -6   1 2321.12 89.3748   5
  -1  -6   1 2408.02 90.0599   3
   1  -6  -1 2483.30 89.5701   5
   1  -6  -1 2387.73 90.9207   6
  -1   6   1 2432.00 88.8374   5
  -1   6   1 2416.56 89.0001   5
   1   6  -1 2380.45 90.0930   3
  -1   6   1 2452.24 89.2516   3
   1   6  -1 2370.36 89.3464   5
   1   6  -1 2392.79 89.4717   5
   0  -6  -1 669.994 27.0988   5
   0  -6   1 698.228 27.3894   3
   0  -6  -1 645.745 27.7609   5
   0  -6  -1 717.363 27.2924   3
   0  -6   1 702.738 27.2068   5
   0  -6   1 703.632 27.5562   5
   0   6  -1 626.969 26.8863   5
   0   6   1 682.486 27.1959   3
   0   6  -1 682.990 27.4926   3
   0   6   1 694.491 26.5994   5
   0   6  -1 702.078 27.0152   5
   0   6   1 701.841 26.5738   5
  -1  -6  -1 725.879 29.0234   5
   1  -6   1 756.555 30.8836   6
  -1  -6  -1 740.691 29.6605   3
  -1   6  -1 753.744 29.1297   5
   1   6   1 719.505 28.7116   5
  -1   6  -1 741.169 29.2145   5
   1   6   1 730.628 29.6508   3
  -1   6  -1 744.846 29.3590   3
   1   6   1 724.658 29.2841   4
   1   6   1 775.061 29.0076   5
  -2  -6  -1 297.940 14.0803   3
   2  -6   1 296.331 15.3496   6
   2  -6   1 301.398 13.2802   3
   2  -6   1 313.515 13.8494   5
  -2  -6  -1 298.763 13.4425   5
  -2   6  -1 297.653 13.5490   5
  -2   6  -1 321.063 13.4966   3
   2   6   1 319.943 13.3517   5
   2   6   1 299.966 13.2024   5
  -2   6  -1 273.190 12.9008   4
  -2   6  -1 310.636 13.7905   5
   3  -6   1 16.5016 1.98513   4
  -3  -6  -1 16.2995 2.82810   3
   3  -6   1 15.0518 2.52912   5
  -3  -6  -1 21.5925 2.59608   5
   3  -6   1 15.5443 2.24510   3
   3  -6   1 16.5579 3.29781   6
  -3  -6  -1 16.6887 3.12948   6
  -3   6  -1 18.9827 2.57424   5
  -3   6  -1 20.9345 3.91866   6
  -3   6  -1 23.4046 2.48294   3
   3   6   1 19.5153 3.21076   4
  -3   6  -1 18.2637 2.25130   4
  -4  -6  -1 111.736 7.56974   4
   4  -6   1 114.615 6.48730   4
  -4  -6  -1 108.981 7.54954   3
  -4  -6  -1 108.013 6.94836   5
  -4  -6  -1 110.213 8.55013   6
   4  -6   1 107.321 8.83323   6
   4  -6   1 106.586 7.06318   5
  -4   6  -1 95.7041 6.86884   5
  -4   6  -1 94.3205 8.10013   6
   4   6   1 102.642 6.62465   5
   4   6   1 108.196 7.75765   4
  -4   6  -1 102.536 6.46077   3
  -4   6  -1 105.074 6.71739   4
   5  -6   1 36.9464 4.25283   5
   5  -6   1 45.7389 4.17415   4
  -5  -6  -1 46.0163 5.88888   6
  -5   6  -1 45.1967 5.90229   6
  -5   6  -1 45.7847 4.52389   4
   5   6   1 41.5183 5.17388   4
  -5   6  -1 39.1578 5.39528   5
   5   6   1 38.1680 4.14605   5
  -5   6  -1 48.5882 4.22164   3
  -6  -6  -1 10.9321 3.98185   6
   6  -6   1 14.1671 2.85909   4
   6  -6   1 12.1691 2.71529   5
  -6   6  -1 14.4351 3.87602   6
   6   6   1 14.6809 3.00542   5
   6   6   1 14.8551 3.68383   4
  -6   6  -1 10.3313 2.41265   3
  -6   6  -1 16.8889 3.40225   4
  -7  -6  -1 5.31817 3.47535   6
   7  -6   1 3.50443 2.05873   5
   7   6   1 6.00589 2.33830   5
  -7   6  -1 5.11055 1.82404   3
   7   6   1 5.03798 2.72884   4
  -7   6  -1 0.75043 3.14083   6
   8  -6   1 31.9633 4.36673   4
  -8  -6  -1 35.3300 7.64268   6
  -8   6  -1 28.3022 6.29039   6
   8   6   1 35.5756 6.26867   4
   8   6   1 22.2359 4.53737   5
  -8   6  -1 29.1578 4.59231   3
  -8  -7   1 52.1138 9.16389   6
   8  -7  -1 33.3996 5.38219   5
   8  -7  -1 38.9370 4.72412   4
  -8   7   1 29.3040 6.81049   6
   8   7  -1 30.1398 5.20758   5
  -8   7   1 33.0282 5.33292   3
   8   7  -1 33.5989 6.70213   4
   7  -7  -1 10.9781 2.37795   4
  -7  -7   1 8.85764 3.59030   6
   7  -7  -1 6.48189 2.56821   5
  -7   7   1 -0.1466 3.07497   6
   7   7  -1 9.42586 2.78125   5
  -7   7   1 3.19066 1.94384   3
   7   7  -1 6.37548 2.66049   4
   6  -7  -1 25.1335 3.37706   4
   6  -7  -1 40.4547 4.83226   5
  -6  -7   1 34.2132 6.24721   6
  -6   7   1 33.6999 5.30039   6
   6   7  -1 36.2793 4.80586   5
   6   7  -1 27.5598 5.14219   4
  -6   7   1 36.5796 3.91974   3
   5  -7  -1 1.93205 1.33185   4
   5  -7  -1 5.23138 1.83620   5
  -5  -7   1 1.58174 2.15838   6
  -5   7   1 2.00606 1.44023   4
   5   7  -1 6.24062 2.47648   4
  -5   7   1 6.60964 2.03232   5
   5   7  -1 2.41601 1.62725   5
  -5   7   1 3.95506 1.48082   3
  -5   7   1 5.81582 3.11581   6
  -4  -7   1 489.349 23.1804   6
  -4  -7   1 465.613 20.7789   5
   4  -7  -1 506.334 21.2801   5
  -4  -7   1 445.830 21.4775   3
   4  -7  -1 468.855 19.3646   4
   4  -7  -1 442.014 23.2601   6
  -4   7   1 437.074 19.7403   3
  -4   7   1 479.589 20.2256   5
  -4   7   1 429.736 22.2540   6
  -4   7   1 441.356 19.7791   4
  -4   7   1 488.337 20.5602   5
   4   7  -1 486.752 22.2459   4
   3  -7  -1 35.9110 3.51931   5
  -3  -7   1 29.6743 3.75348   3
  -3  -7   1 29.7846 4.06330   6
  -3  -7   1 36.1069 3.62878   5
   3  -7  -1 25.8453 2.76364   3
   3  -7  -1 26.4083 4.79719   6
  -3   7   1 34.7941 3.24075   5
   3   7  -1 35.6747 3.89915   4
  -3   7   1 35.8359 3.08411   3
  -3   7   1 34.2490 2.81346   4
  -3   7   1 31.6364 3.13539   5
   3   7  -1 36.8855 3.52232   5
  -2  -7   1 42.1106 3.88724   3
   2  -7  -1 36.3119 4.37425   6
   2  -7  -1 38.9042 3.47475   5
  -2  -7   1 34.2833 3.40577   5
   2   7  -1 37.5941 3.78498   4
   2   7  -1 40.5792 3.48375   5
  -2   7   1 37.6827 3.15494   3
   2   7  -1 40.2518 3.79991   3
   2   7  -1 40.5140 3.44546   5
  -2   7   1 33.0034 2.95941   5
  -2   7   1 32.8874 2.59669   4
  -2   7   1 32.3393 2.96794   5
   1  -7  -1 242.533 11.2141   5
  -1  -7   1 221.810 11.4519   3
   1  -7  -1 236.290 11.0295   3
   1  -7  -1 247.746 12.5568   6
  -1  -7   1 232.050 11.0969   5
   1  -7  -1 232.108 10.9897   5
   1   7  -1 243.203 11.0769   5
   1   7  -1 231.500 11.6438   3
   1   7  -1 228.433 10.8815   5
  -1   7   1 236.194 10.5943   5
  -1   7   1 231.218 10.4382   5
  -1   7   1 243.158 11.0051   3
   0  -7   1 9.60566 1.75331   3
   0  -7   1 12.4137 2.03254   5
   0  -7  -1 9.86922 1.79724   5
   0  -7  -1 8.83373 1.64990   5
   0  -7   1 8.38632 1.72696   5
   0  -7  -1 11.3288 1.90197   3
   0   7  -1 8.22008 1.88415   3
   0   7  -1 10.8116 1.79063   5
   0   7  -1 7.47188 1.56102   5
   0   7   1 7.70976 1.76193   3
   0   7   1 9.49812 1.57992   5
   0   7   1 9.38927 1.54767   5
   1  -7   1 566.512 24.5704   6
   1  -7   1 489.613 22.7590   5
   1  -7   1 566.441 22.7851   3
  -1  -7  -1 549.634 22.6086   5
  -1  -7  -1 566.464 23.2752   3
   1   7   1 558.193 23.2838   3
   1   7   1 569.922 22.9111   4
   1   7   1 554.651 22.1308   5
  -1   7  -1 551.745 22.8941   3
   1   7   1 560.147 22.2300   5
  -1   7  -1 557.988 22.6219   5
  -1   7  -1 547.236 22.6465   5
  -2  -7  -1 287.819 13.8039   3
  -2  -7  -1 279.940 12.9788   5
   2  -7   1 237.833 12.8925   5
   2  -7   1 268.840 12.7330   3
   2  -7   1 293.925 15.2140   6
   2   7   1 300.108 13.7716   4
  -2   7  -1 290.697 12.9763   5
  -2   7  -1 294.701 12.6485   4
   2   7   1 289.944 12.7368   5
  -2   7  -1 274.429 12.9883   5
   2   7   1 283.828 12.6085   5
  -2   7  -1 295.725 13.0520   3
  -3  -7  -1 483.547 24.3621   6
   3  -7   1 514.282 25.3502   6
  -3  -7  -1 551.043 23.7563   3
  -3  -7  -1 562.206 22.9550   5
   3  -7   1 485.405 22.1455   3
   3  -7   1 538.745 23.1210   5
  -3   7  -1 501.449 24.3769   6
  -3   7  -1 512.008 22.6846   5
  -3   7  -1 569.269 22.5825   3
   3   7   1 549.305 22.4660   5
  -3   7  -1 548.340 22.6608   5
  -3   7  -1 560.471 22.4372   4
   3   7   1 564.325 23.9551   4
   4  -7   1 14.0024 2.47514   4
  -4  -7  -1 18.4716 2.96547   5
  -4  -7  -1 19.0575 3.25216   3
   4  -7   1 15.1404 2.87654   5
  -4  -7  -1 23.6820 4.35619   6
   4  -7   1 18.4421 4.01929   6
   4   7   1 20.6510 3.91134   4
  -4   7  -1 15.1550 3.69787   6
  -4   7  -1 16.9344 2.94213   5
  -4   7  -1 21.3800 2.68555   3
  -4   7  -1 22.8791 2.68851   4
   4   7   1 18.6114 2.96161   5
  -5  -7  -1 90.6530 8.80860   6
   5  -7   1 99.8059 6.41965   4
   5  -7   1 81.1084 7.76880   5
  -5   7  -1 84.1789 6.60053   4
  -5   7  -1 99.6108 6.49613   3
   5   7   1 95.9911 6.68176   5
  -5   7  -1 81.7088 8.12986   6
   5   7   1 86.6198 7.60827   4
  -6  -7  -1 114.515 10.8305   6
   6  -7   1 123.059 7.67315   4
   6  -7   1 101.270 7.97304   5
   6   7   1 113.510 9.37849   4
  -6   7  -1 98.7940 9.98606   6
  -6   7  -1 112.387 7.66542   3
   6   7   1 100.833 7.49895   5
  -6   7  -1 115.533 8.13820   4
   7  -7   1 72.4893 7.44785   4
  -7  -7  -1 85.5788 10.0918   6
   7  -7   1 84.8274 7.53583   5
   7   7   1 82.7953 8.81419   4
  -7   7  -1 58.7287 8.16908   6
  -7   7  -1 70.7486 6.28575   3
   7   7   1 79.5352 6.70691   5
   8  -7   1 18.9650 3.48996   4
   8  -7   1 27.3815 4.80409   5
   8   7   1 27.3154 5.72718   4
   8   7   1 15.6486 3.73202   5
  -8   7  -1 18.8881 3.77960   3
  -8   7  -1 15.4328 5.82588   6
   7  -8  -1 103.150 9.05786   5
   7  -8  -1 105.187 7.47799   4
  -7  -8   1 130.690 12.2567   6
   7   8  -1 116.261 8.68396   5
   7   8  -1 107.650 9.94930   4
  -7   8   1 82.8687 10.1578   6
  -7   8   1 110.299 7.55724   3
   6  -8  -1 70.2673 6.57156   5
  -6  -8   1 78.6445 8.66948   6
   6  -8  -1 79.4251 5.71813   4
  -6   8   1 52.0929 7.70863   6
  -6   8   1 64.7278 5.40011   3
   6   8  -1 81.0928 7.87172   4
   6   8  -1 80.0720 8.07610   5
  -5  -8   1 199.738 13.4279   6
   5  -8  -1 189.414 10.9919   5
  -5   8   1 186.341 10.0587   5
   5   8  -1 167.004 11.6143   4
   5   8  -1 166.282 10.3593   5
  -5   8   1 167.498 9.66605   4
  -5   8   1 165.343 9.29594   3
  -5   8   1 165.824 9.96063   5
  -4  -8   1 86.3881 7.84449   6
   4  -8  -1 95.8762 6.82147   5
   4   8  -1 94.9026 6.68888   5
  -4   8   1 91.9470 6.22068   5
  -4   8   1 93.6615 6.49544   5
  -4   8   1 83.1183 5.66197   4
  -4   8   1 89.9366 5.76083   3
   4   8  -1 85.4158 7.25090   4
  -3  -8   1 168.201 9.42890   5
   3  -8  -1 173.486 8.64352   3
  -3  -8   1 162.487 10.7093   6
   3  -8  -1 173.887 9.60481   5
   3  -8  -1 165.146 11.3721   6
  -3  -8   1 155.491 9.91445   3
  -3   8   1 172.325 8.76306   5
   3   8  -1 170.764 9.35984   5
   3   8  -1 177.634 10.3685   4
   3   8  -1 162.576 9.25727   5
  -3   8   1 165.199 8.64108   3
  -3   8   1 157.833 8.74820   5
   2  -8  -1 215.549 11.1256   5
   2  -8  -1 189.487 10.1433   3
  -2  -8   1 222.255 11.8570   3
  -2  -8   1 218.249 11.0731   5
   2  -8  -1 216.487 12.8571   6
   2   8  -1 228.395 11.0300   5
  -2   8   1 212.943 10.4459   5
   2   8  -1 233.216 11.7771   4
  -2   8   1 230.137 10.0516   4
   2   8  -1 225.317 11.9199   3
  -2   8   1 226.116 10.4001   5
   2   8  -1 219.448 10.9090   5
  -2   8   1 233.760 10.8319   3
   1  -8  -1 27.2258 2.98299   5
  -1  -8   1 33.1302 3.22953   5
   1  -8  -1 30.9392 3.98083   6
  -1  -8   1 27.6396 3.23649   3
   1  -8  -1 26.6522 2.98172   5
   1  -8  -1 29.0213 2.96631   3
   1   8  -1 31.2084 2.98293   5
  -1   8   1 26.9299 2.60659   5
   1   8  -1 28.7085 3.52575   3
  -1   8   1 31.0147 2.81301   5
   1   8  -1 32.4112 3.09196   5
  -1   8   1 30.0734 3.15791   3
   0  -8  -1 198.093 9.81555   5
   0  -8   1 190.733 9.73356   3
   0  -8   1 167.621 9.61456   5
   0  -8  -1 192.380 9.64169   3
   0  -8   1 184.741 9.53043   5
   0  -8  -1 187.467 9.38593   5
   0   8  -1 186.416 9.23274   5
   0   8   1 177.364 8.72477   5
   0   8   1 199.826 9.84647   3
   0   8  -1 172.481 9.15640   5
   0   8   1 184.607 8.77380   5
   0   8  -1 187.360 9.93337   3
  -1  -8  -1 14.2758 2.27779   5
  -1  -8  -1 14.2361 2.58063   3
   1  -8   1 16.2694 2.28908   5
   1  -8   1 22.0523 3.02442   6
   1  -8   1 14.9463 2.35721   3
  -1   8  -1 16.0554 2.50876   5
   1   8   1 11.6163 2.36768   3
  -1   8  -1 15.0756 2.61613   3
  -1   8  -1 14.7806 2.19327   5
   1   8   1 13.0786 1.85574   5
   1   8   1 14.8259 1.99894   5
  -2  -8  -1 286.577 13.5553   5
   2  -8   1 256.410 13.0858   3
  -2  -8  -1 284.793 14.3301   3
   2  -8   1 295.206 15.9134   6
   2  -8   1 300.650 14.0822   5
  -2   8  -1 306.525 13.7335   3
   2   8   1 293.014 13.0579   5
   2   8   1 283.308 14.0756   4
  -2   8  -1 290.186 12.9900   4
  -2   8  -1 292.119 13.4109   5
   2   8   1 280.065 13.3254   5
  -2   8  -1 297.040 13.6365   5
  -3  -8  -1 -0.2423 1.18141   6
   3  -8   1 0.18516 1.12872   5
  -3  -8  -1 1.97484 1.60467   3
   3  -8   1 -0.6435 1.33709   6
   3  -8   1 2.17032 1.00055   3
  -3  -8  -1 1.93533 1.03015   5
   3   8   1 -0.1981 0.92931   5
  -3   8  -1 -0.9697 1.05004   3
   3   8   1 0.41451 1.07270   5
   3   8   1 2.06115 1.37415   4
  -3   8  -1 1.08619 1.34563   5
  -3   8  -1 -0.3216 0.73430   4
  -3   8  -1 0.60210 1.20300   5
   4  -8   1 27.7038 3.68971   5
  -4  -8  -1 22.7452 4.31503   6
  -4   8  -1 22.8676 3.57858   5
  -4   8  -1 23.6328 4.85353   6
  -4   8  -1 24.9982 3.18156   3
  -4   8  -1 26.5511 3.53049   5
   4   8   1 25.5276 4.39263   4
   4   8   1 24.0213 3.20552   5
  -4   8  -1 31.7972 3.45637   4
   5  -8   1 127.206 7.60773   4
   5  -8   1 116.010 8.38523   5
  -5   8  -1 130.400 7.87375   3
  -5   8  -1 114.889 9.91261   6
   5   8   1 117.074 7.84448   5
  -5   8  -1 119.895 8.11563   4
   5   8   1 125.933 9.54296   4
   6  -8   1 13.1829 2.99269   5
   6  -8   1 15.5768 2.87604   4
  -6  -8  -1 14.4721 4.67078   6
  -6   8  -1 12.0936 3.76788   6
  -6   8  -1 10.9947 2.63731   3
   6   8   1 12.9421 3.46937   4
  -6   8  -1 9.02275 2.48472   4
   6   8   1 13.7405 2.92005   5
   7  -8   1 3.67485 1.74630   4
  -7  -8  -1 2.52975 2.85101   6
   7  -8   1 3.79098 1.85914   5
   7   8   1 6.67470 3.09667   4
   7   8   1 0.91196 2.15299   5
  -7   8  -1 4.18897 2.51355   6
  -7   8  -1 2.84922 1.84350   3
  -7  -9   1 17.3792 4.68566   6
   7  -9  -1 7.13187 2.27907   4
  -7   9   1 9.54717 2.91598   5
   7   9  -1 7.65492 3.55615   4
  -7   9   1 12.0275 2.77650   3
   7   9  -1 7.03733 2.78670   5
  -7   9   1 1.63356 3.96185   6
   6  -9  -1 2.35683 1.66872   5
  -6  -9   1 -0.7618 2.09743   6
  -6   9   1 3.82855 2.91235   6
   6   9  -1 6.62046 2.52475   5
  -6   9   1 5.30588 2.08198   5
   6   9  -1 3.59984 2.24093   4
  -6   9   1 2.70171 1.57646   3
  -5  -9   1 28.9941 5.39087   6
   5  -9  -1 32.3901 4.32105   5
   5   9  -1 39.1166 4.70917   5
   5   9  -1 38.1912 6.00879   4
  -5   9   1 44.0366 4.09660   4
  -5   9   1 38.6810 3.97031   3
  -5   9   1 35.5054 4.37803   5
   4  -9  -1 25.2055 3.53591   5
  -4  -9   1 34.2517 4.92677   6
  -4   9   1 26.3326 3.35168   5
   4   9  -1 33.6216 4.08636   5
  -4   9   1 33.4260 3.59010   3
  -4   9   1 27.1161 3.44719   5
   4   9  -1 25.5057 4.54203   4
  -4   9   1 29.6499 3.28499   4
   3  -9  -1 333.556 15.8335   5
   3  -9  -1 282.584 19.5749   6
   3  -9  -1 320.948 14.6236   3
  -3  -9   1 330.411 17.5693   6
  -3  -9   1 321.616 17.1057   5
   3   9  -1 334.593 16.6829   4
  -3   9   1 299.380 14.0893   4
   3   9  -1 327.553 15.4758   5
  -3   9   1 316.682 14.7797   5
   3   9  -1 319.416 15.3041   5
  -3   9   1 319.100 14.5222   5
  -3   9   1 341.085 14.9361   3
   2  -9  -1 585.270 24.1730   3
  -2  -9   1 580.124 24.8954   5
   2  -9  -1 562.220 27.1388   6
   2  -9  -1 593.507 25.1364   5
  -2  -9   1 578.176 25.7776   3
   2   9  -1 617.348 26.1635   3
   2   9  -1 564.416 25.3971   4
  -2   9   1 591.495 24.4774   3
  -2   9   1 567.056 24.0078   5
   2   9  -1 604.891 24.7300   5
   1  -9  -1 515.724 27.2649   6
  -1  -9   1 567.773 24.0726   3
   1  -9  -1 529.988 23.4240   5
  -1  -9   1 563.521 23.7657   5
   1  -9  -1 555.676 22.9661   3
  -1   9   1 564.056 23.2578   3
   1   9  -1 551.023 22.9624   5
   1   9  -1 539.995 23.9972   3
  -1   9   1 526.225 22.3327   5
   1   9  -1 550.318 22.9799   5
   0  -9  -1 70.3244 5.38608   5
   0  -9  -1 69.5786 5.17207   3
   0  -9  -1 71.3952 5.23553   5
   0  -9   1 71.0981 5.33026   5
   0  -9   1 73.0967 5.34150   3
   0   9   1 77.1533 5.52048   3
   0   9  -1 73.1819 5.10639   5
   0   9  -1 77.3229 5.86510   3
   0   9   1 79.4915 4.80534   5
   0   9   1 69.5240 4.67292   5
   0   9  -1 76.5166 5.11882   5
   1  -9   1 338.137 15.8493   5
   1  -9   1 332.292 15.3329   3
   1  -9   1 329.587 17.7093   6
  -1  -9  -1 335.233 15.2811   5
  -1  -9  -1 335.468 15.8927   3
   1   9   1 328.598 15.3659   4
   1   9   1 320.154 15.8094   3
  -1   9  -1 337.054 15.0629   5
  -1   9  -1 347.268 15.7885   3
   1   9   1 330.960 14.5220   5
   1   9   1 334.070 14.6395   5
  -1   9  -1 316.100 14.9848   5
   2  -9   1 99.6746 8.24078   6
   2  -9   1 100.827 6.42640   3
   2  -9   1 109.550 7.16706   5
  -2  -9  -1 100.983 7.37915   3
  -2   9  -1 93.3111 6.63101   3
  -2   9  -1 106.931 6.59744   5
  -2   9  -1 97.9137 6.02677   4
  -2   9  -1 104.401 6.49298   5
   2   9   1 99.2406 6.02193   5
   2   9   1 101.299 6.22666   5
   2   9   1 109.386 7.28444   4
   3  -9   1 19.6827 2.89698   3
   3  -9   1 15.1556 2.90098   5
  -3  -9  -1 19.8565 4.01337   3
  -3  -9  -1 21.0416 3.11712   5
  -3  -9  -1 21.2801 4.13067   6
   3   9   1 18.3983 2.80811   5
  -3   9  -1 16.5693 3.04269   5
  -3   9  -1 17.1850 2.69605   4
   3   9   1 20.8085 3.60761   4
  -3   9  -1 18.6891 2.93431   5
   3   9   1 17.9514 2.69745   5
  -3   9  -1 17.8241 2.90937   3
  -4  -9  -1 68.0478 7.43416   6
  -4   9  -1 64.3527 5.28710   4
   4   9   1 70.2602 5.46619   5
  -4   9  -1 74.4356 6.02436   5
   4   9   1 73.9975 5.62831   5
   4   9   1 68.2449 6.56502   4
  -4   9  -1 76.2416 5.76205   3
  -5  -9  -1 29.5503 5.84638   6
   5  -9   1 30.6109 4.39302   5
  -5   9  -1 41.3951 4.97579   4
   5   9   1 34.0876 4.23928   5
  -5   9  -1 27.2854 4.07149   5
  -5   9  -1 31.4239 5.91513   6
  -5   9  -1 29.4571 3.83340   3
   5   9   1 37.0233 5.21699   4
  -6  -9  -1 1.55590 2.32696   6
   6  -9   1 2.39232 1.99838   5
   6   9   1 -0.2589 1.80425   4
  -6   9  -1 -2.6523 2.05266   4
   6   9   1 1.56354 1.90609   5
  -6   9  -1 0.29176 1.90069   5
  -6   9  -1 1.73833 2.30453   6
   7  -9   1 15.8169 3.00810   4
  -7  -9  -1 12.3878 4.74626   6
  -7   9  -1 10.1074 4.88560   6
   7   9   1 12.2699 3.22533   5
  -7 -10   1 -2.9681 2.27872   6
   7 -10  -1 2.55801 2.32609   5
  -7  10   1 2.16502 2.23532   3
   7  10  -1 1.31572 2.69202   5
  -7  10   1 2.11191 2.58483   5
   6 -10  -1 56.6063 6.20771   5
  -6 -10   1 67.3754 8.40345   6
  -6  10   1 47.1706 5.11334   3
   6  10  -1 59.8774 6.00924   5
  -6  10   1 50.4620 5.41171   5
   6  10  -1 49.5450 7.71309   4
  -6  10   1 51.6712 5.97718   4
  -5 -10   1 -2.7079 1.29099   6
   5 -10  -1 1.17372 1.80210   5
  -5  10   1 0.04301 1.52066   4
  -5  10   1 2.23747 1.50964   3
   5  10  -1 2.57252 2.09073   4
  -5  10   1 -3.0415 1.27261   5
   4 -10  -1 24.3614 3.92321   5
  -4  10   1 24.5812 3.34831   3
   4  10  -1 21.2810 4.48220   4
  -4  10   1 26.5779 3.57179   5
  -4  10   1 27.2278 3.45114   5
  -4  10   1 26.2067 3.09356   4
   4  10  -1 19.3872 3.38360   5
   3 -10  -1 8.03807 1.87397   3
   3 -10  -1 5.94474 1.74020   5
   3  10  -1 6.30928 1.97383   5
  -3  10   1 7.70329 1.93582   5
  -3  10   1 7.85349 2.08136   3
   3  10  -1 5.21001 1.87897   5
  -3  10   1 6.63753 1.67433   4
  -3  10   1 8.35307 1.98670   5
   2 -10  -1 46.0395 4.04388   3
  -2 -10   1 52.3987 5.53363   3
   2 -10  -1 47.3772 4.60358   5
  -2  10   1 47.8493 4.03398   5
   2  10  -1 50.2683 4.49634   5
   2  10  -1 43.7673 4.22626   5
   2  10  -1 46.5539 4.88286   4
  -2  10   1 47.8919 3.60211   4
   2  10  -1 45.9354 4.99134   3
  -2  10   1 45.4883 4.48681   3
  -2  10   1 49.5454 4.03099   5
   1 -10  -1 243.111 11.8463   3
   1 -10  -1 245.112 13.9535   6
  -1 -10   1 239.360 12.6640   3
  -1 -10   1 216.037 11.9992   5
   1 -10  -1 240.767 12.4347   5
   1  10  -1 225.614 11.6315   5
  -1  10   1 245.838 11.3065   5
   1  10  -1 255.162 12.6117   4
   1  10  -1 229.687 11.6895   5
   1  10  -1 221.535 12.6467   3
  -1  10   1 235.794 12.0830   3
   0 -10   1 117.241 7.46392   3
   0 -10   1 110.737 7.32700   5
   0 -10  -1 115.441 7.28893   5
   0 -10  -1 112.047 7.48417   5
   0 -10  -1 111.576 7.22685   3
   0  10   1 111.101 6.44082   5
   0  10   1 104.650 7.37835   3
   0  10  -1 123.165 7.17935   5
   0  10   1 110.606 6.83403   4
   0  10  -1 110.295 7.54857   3
   0  10  -1 114.483 6.98531   5
   1 -10   1 36.2175 3.94350   3
   1 -10   1 44.1235 4.34343   5
   1 -10   1 30.9716 4.58248   6
  -1 -10  -1 36.5468 3.99782   5
   1  10   1 40.1359 3.34271   5
   1  10   1 38.2720 4.01286   4
  -1  10  -1 43.4638 3.95974   5
   1  10   1 37.2144 4.38084   3
  -1  10  -1 35.8426 4.22665   3
  -1  10  -1 35.8251 3.64299   5
  -2 -10  -1 32.3240 4.41976   3
   2 -10   1 34.2633 4.04539   5
   2 -10   1 33.3651 3.58266   3
  -2 -10  -1 38.4106 4.08664   5
  -2  10  -1 41.3547 3.94024   5
   2  10   1 34.4986 4.21224   4
   2  10   1 45.1556 3.64147   5
  -2  10  -1 30.2531 4.07739   3
   2  10   1 38.1090 3.54889   5
  -2  10  -1 40.1372 3.56790   4
  -2  10  -1 35.7559 3.84774   5
   3 -10   1 40.9879 4.45423   5
  -3 -10  -1 46.3775 5.51488   6
   3 -10   1 29.3337 3.73205   3
  -3  10  -1 42.5459 4.35277   3
   3  10   1 38.9257 4.53591   4
  -3  10  -1 38.0536 4.14466   5
   3  10   1 32.6004 3.66513   5
  -3  10  -1 38.1849 3.68818   4
   3  10   1 43.1437 4.49825   5
  -3  10  -1 40.6456 4.10098   5
  -4 -10  -1 86.1956 8.59806   6
   4 -10   1 104.843 7.69994   5
   4  10   1 94.5038 6.71158   5
   4  10   1 96.3334 6.73196   5
  -4  10  -1 96.7570 6.92822   3
  -4  10  -1 109.056 7.01702   4
  -4  10  -1 89.9307 6.89085   5
  -5 -10  -1 23.6043 5.40568   6
   5 -10   1 21.9193 3.83312   5
  -5  10  -1 15.3429 3.30041   3
   5  10   1 16.4597 4.03637   4
  -5  10  -1 16.5460 3.55286   5
  -5  10  -1 25.3015 3.53389   4
   5  10   1 19.3550 3.38723   5
   6 -10   1 79.0549 7.30822   5
  -6 -10  -1 83.1794 9.57519   6
  -6  10  -1 77.1152 6.84671   5
   6  10   1 64.5639 6.31156   5
   6  10   1 75.7991 8.46381   4
  -6  10  -1 63.4548 6.04980   3
  -7 -10  -1 10.3879 5.08752   6
   7 -10   1 -0.9364 2.71851   5
  -7  10  -1 2.47823 3.17752   5
  -7  10  -1 3.73526 3.56505   6
   7  10   1 12.8663 4.00518   4
  -7  10  -1 7.18471 2.91324   3
   7  10   1 0.39603 2.61518   5
   6 -11  -1 22.2851 4.99372   5
  -6 -11   1 32.6754 6.48730   6
  -6  11   1 22.6693 4.49901   4
   6  11  -1 19.0115 3.97525   5
  -6  11   1 16.9173 3.50622   5
  -6  11   1 23.3822 3.84455   3
   6  11  -1 17.0679 5.04636   4
   5 -11  -1 77.2428 6.97125   5
  -5 -11   1 76.6252 8.62563   6
  -5  11   1 74.5680 6.34655   3
   5  11  -1 74.4944 7.67225   5
  -5  11   1 81.3657 6.20905   5
  -5  11   1 76.5690 5.98960   4
   5  11  -1 77.3914 7.96296   4
  -4 -11   1 44.6005 6.23124   6
   4 -11  -1 43.4015 5.11769   5
   4 -11  -1 45.6560 4.61655   3
   4  11  -1 53.4611 5.25092   5
   4  11  -1 40.1261 5.80758   4
  -4  11   1 54.5783 4.72447   5
  -4  11   1 54.2520 4.54289   4
  -4  11   1 49.7771 4.99537   5
  -4  11   1 58.9949 5.11013   3
   3 -11  -1 8.88200 2.43450   5
   3 -11  -1 8.97923 2.27514   3
   3  11  -1 15.5011 2.92341   5
   3  11  -1 14.5706 3.46865   4
  -3  11   1 12.8447 2.23918   4
  -3  11   1 15.0566 2.82625   3
  -3  11   1 12.7758 2.53218   5
   2 -11  -1 6.47775 1.84371   3
   2 -11  -1 9.28012 2.33109   5
  -2  11   1 12.1047 2.09299   4
  -2  11   1 7.14008 2.17802   3
   2  11  -1 13.3179 2.65501   5
  -2  11   1 11.2302 2.15512   5
  -2  11   1 6.25294 1.87410   5
   2  11  -1 11.2463 2.47183   5
   2  11  -1 15.4522 3.26855   4
   2  11  -1 8.26204 2.73839   3
   1 -11  -1 93.8965 6.99245   5
   1 -11  -1 88.6792 6.29516   3
  -1 -11   1 99.0787 7.63678   3
  -1  11   1 103.456 7.08442   3
   1  11  -1 96.4417 6.42895   5
   1  11  -1 95.3358 7.49499   3
  -1  11   1 98.5289 5.99011   5
   1  11  -1 94.1825 6.43124   5
  -1  11   1 88.0064 5.78519   5
   1  11  -1 91.2274 6.93525   4
   0 -11  -1 20.7761 3.86646   5
   0 -11  -1 16.2616 2.78679   3
   0 -11   1 14.1839 3.06649   3
   0  11   1 20.7158 2.73917   4
   0  11  -1 13.6721 2.61054   5
   0  11   1 19.5649 3.45346   3
   0  11   1 19.4344 2.62725   5
   0  11  -1 16.5480 2.89302   5
   0  11   1 11.8837 2.11843   5
   0  11  -1 15.1556 3.31346   3
   1 -11   1 224.123 12.3768   3
   1 -11   1 269.670 13.6922   5
  -1 -11  -1 240.627 13.1149   3
   1  11   1 242.919 12.6714   4
  -1  11  -1 219.669 11.9150   5
  -1  11  -1 238.623 12.0160   5
   1  11   1 243.808 11.5810   5
   1  11   1 241.659 13.3285   3
   1  11   1 248.434 11.6905   5
  -1  11  -1 244.437 13.0266   3
   2 -11   1 64.4847 5.54147   3
   2  11   1 70.3493 6.08267   4
  -2  11  -1 61.5848 4.91990   4
  -2  11  -1 69.7976 5.49423   5
  -2  11  -1 62.1770 5.75460   3
   2  11   1 63.6204 4.76647   5
   2  11   1 66.9960 4.92292   5
  -2  11  -1 67.1723 5.31834   5
  -3 -11  -1 23.5603 4.57877   6
   3 -11   1 25.5047 3.67026   3
   3 -11   1 22.0394 3.73733   5
   3  11   1 24.5570 3.55336   5
   3  11   1 28.5792 3.44738   5
  -3  11  -1 31.3082 3.90947   5
  -3  11  -1 26.8977 3.69548   3
  -3  11  -1 22.2003 3.05428   4
   3  11   1 29.6071 4.06060   4
   4 -11   1 71.4193 5.75910   3
  -4 -11  -1 63.9922 7.39708   6
   4 -11   1 69.7382 6.32692   5
   4  11   1 54.3494 6.18417   5
  -4  11  -1 61.5288 5.46202   5
   4  11   1 63.0456 6.93719   4
  -4  11  -1 55.1896 5.29607   4
  -4  11  -1 60.5650 5.72696   3
   4  11   1 59.5053 5.26182   5
   5 -11   1 2.16524 1.78099   5
  -5 -11  -1 2.26477 2.15611   6
   5  11   1 -0.9895 1.65615   5
   5  11   1 -2.6481 2.12879   4
  -5  11  -1 -3.6064 2.31039   4
  -5  11  -1 4.83100 2.74270   5
  -5  11  -1 0.19595 1.72526   3
  -6 -11  -1 19.3870 5.45732   6
   6  11   1 17.2873 3.55606   5
  -6  11  -1 13.8536 3.25483   3
  -6  11  -1 8.38945 3.22612   5
   6  11   1 17.0364 4.68950   4
   6 -12  -1 4.14512 2.40089   5
   6  12  -1 4.36000 2.37596   5
  -6  12   1 0.10328 2.39221   5
   6  12  -1 -2.7407 2.72426   4
  -6  12   1 2.81538 2.54833   3
  -5 -12   1 12.9208 4.21636   6
   5 -12  -1 9.61851 3.06279   5
   5  12  -1 12.9898 3.95932   4
  -5  12   1 14.1110 3.15094   5
  -5  12   1 13.8205 3.04081   3
  -5  12   1 9.21897 2.60400   4
   5  12  -1 8.46425 3.33930   5
   4 -12  -1 3.91518 2.05556   5
  -4 -12   1 1.23189 2.22979   6
   4 -12  -1 0.44792 1.39106   3
  -4  12   1 3.24382 1.80055   3
   4  12  -1 1.95615 1.87584   5
   4  12  -1 -1.9005 1.40525   4
  -4  12   1 1.99600 1.64735   4
  -4  12   1 5.83494 2.12153   5
   3 -12  -1 42.4862 5.56069   3
   3 -12  -1 56.8124 5.62295   5
   3  12  -1 57.2183 6.22698   4
  -3  12   1 41.2473 4.95317   3
  -3  12   1 50.5657 4.94657   5
  -3  12   1 53.9627 4.35803   4
  -3  12   1 52.7681 4.68468   5
   3  12  -1 50.9162 5.09614   5
   2 -12  -1 107.986 7.22645   3
   2 -12  -1 100.732 7.70221   5
   2  12  -1 106.420 8.64637   3
  -2  12   1 106.550 6.46151   4
  -2  12   1 97.1565 7.50672   5
   2  12  -1 103.482 7.97809   4
   2  12  -1 109.896 7.31027   5
  -2  12   1 112.872 7.69888   3
  -2  12   1 104.846 6.50989   5
   1 -12  -1 29.6902 3.96560   5
   1 -12  -1 31.6803 3.87557   3
   1  12  -1 39.8763 4.18061   5
   1  12  -1 28.1465 4.67042   3
   1  12  -1 29.2098 3.74965   4
   1  12  -1 31.0728 3.65714   5
  -1  12   1 29.5059 3.34987   5
  -1  12   1 33.2179 3.45780   5
  -1  12   1 31.7287 4.13366   3
   0 -12  -1 108.748 7.78126   3
   0  12   1 108.748 6.60772   5
   0  12  -1 107.631 7.08625   5
   0  12  -1 107.272 7.12845   5
   0  12  -1 106.779 8.20544   3
   0  12   1 108.980 6.58913   5
   0  12   1 113.755 8.09050   3
   0  12   1 108.699 7.22971   4
   1 -12   1 1.93009 1.59604   3
   1 -12   1 -0.4372 1.10329   5
   1  12   1 -1.6629 1.17499   5
  -1  12  -1 -1.2280 1.03071   4
  -1  12  -1 1.94816 1.42792   5
  -1  12  -1 -0.4606 1.24439   3
  -1  12  -1 1.66364 1.44443   5
   1  12   1 2.35351 1.84019   3
   1  12   1 -0.1042 1.03637   4
   1  12   1 0.34884 1.10605   5
   2 -12   1 141.455 9.38587   3
   2 -12   1 186.057 11.0365   5
   2  12   1 170.416 10.6062   4
  -2  12  -1 170.726 9.65774   5
  -2  12  -1 153.049 9.13065   4
  -2  12  -1 170.753 10.4284   3
   2  12   1 171.893 9.21136   5
   3 -12   1 7.66751 2.43417   3
   3 -12   1 8.13426 2.53529   5
  -3 -12  -1 11.4854 3.22857   6
  -3  12  -1 8.87879 2.42383   4
  -3  12  -1 11.3235 2.77514   5
   3  12   1 9.15903 2.39114   5
   3  12   1 10.9047 2.44674   5
  -3  12  -1 9.78891 2.78284   3
   4 -12   1 6.16445 2.27650   5
   4  12   1 6.49945 2.73905   4
  -4  12  -1 7.24631 2.30499   5
   4  12   1 4.59092 2.24866   5
  -4  12  -1 4.09151 2.26055   3
  -5 -12  -1 31.6523 6.49053   6
   5 -12   1 34.5272 5.02651   5
  -5  12  -1 26.9093 4.31997   4
   5  12   1 28.6361 4.21298   5
  -5  12  -1 33.5216 5.02679   3
   5  12   1 27.4947 5.57490   4
  -6 -12  -1 28.6914 6.40368   6
   6 -12   1 24.1163 4.93577   5
  -6  12  -1 21.4027 4.34745   5
   6  12   1 22.3525 5.43305   4
  -6  12  -1 28.0817 4.67726   3
   6  12   1 23.9697 4.53002   5
   5 -13  -1 104.267 8.89719   5
  -5 -13   1 99.9473 10.7066   6
  -5  13   1 92.9649 6.96321   5
   5  13  -1 105.482 8.22561   5
  -5  13   1 90.8694 7.86308   3
   5  13  -1 99.0703 9.61872   4
   4 -13  -1 4.59717 1.97146   3
  -4 -13   1 4.17781 2.36927   6
   4 -13  -1 -0.6122 1.54125   5
  -4  13   1 2.78490 2.09048   3
  -4  13   1 -1.0389 1.70512   5
   4  13  -1 2.30822 2.00129   4
   4  13  -1 0.06057 2.17573   5
  -4  13   1 5.77306 1.92957   4
   3 -13  -1 137.951 8.85791   3
   3 -13  -1 147.607 10.2168   5
  -3  13   1 155.515 9.67481   3
   3  13  -1 163.883 11.2040   4
  -3  13   1 139.599 8.83935   5
  -3  13   1 144.280 8.50744   5
   3  13  -1 144.894 9.35130   5
  -3  13   1 163.472 8.78059   4
   2 -13  -1 62.2434 5.80064   3
   2 -13  -1 70.8790 6.58663   5
  -2  13   1 69.4370 6.23922   3
   2  13  -1 70.8048 6.96172   3
  -2  13   1 69.8049 5.40626   5
  -2  13   1 73.3628 5.24803   4
   2  13  -1 70.6905 5.78914   5
   1 -13  -1 0.85528 1.00042   5
   1  13  -1 -0.0677 1.54232   5
   1  13  -1 0.64874 1.43034   4
  -1  13   1 -0.0320 1.11172   5
   1  13  -1 -1.8920 1.13437   3
  -1  13   1 0.25370 1.11912   4
  -1  13   1 -0.8199 1.43486   3
   0  13   1 53.6535 4.99267   4
   0  13  -1 49.6970 7.27727   3
   0  13   1 51.1305 4.34637   5
   0  13  -1 50.6982 4.80006   5
   0  13   1 50.5591 5.01010   5
   0  13   1 53.0338 5.51134   3
   1  13   1 -0.3675 1.92409   3
   1  13   1 6.15964 2.11533   4
  -1  13  -1 -0.7348 1.66354   3
  -1  13  -1 3.11413 1.66974   5
   1  13   1 3.43943 1.46025   5
  -1  13  -1 1.09564 1.26893   4
   2 -13   1 11.6029 2.80956   5
   2  13   1 7.14187 2.71727   4
  -2  13  -1 9.69817 2.59052   5
   2  13   1 10.2007 2.46697   5
  -2  13  -1 13.3763 3.14986   3
   2  13   1 10.5800 2.87278   5
  -3 -13  -1 7.10750 2.58692   6
   3 -13   1 3.74301 1.87426   5
  -3  13  -1 5.60080 2.40811   5
   3  13   1 7.55993 2.57706   4
  -3  13  -1 8.30775 2.73605   3
   3  13   1 0.80330 2.29863   5
   3  13   1 6.33966 2.14984   5
  -4 -13  -1 1.02826 2.68417   6
   4 -13   1 8.25800 2.52582   5
   4  13   1 3.91815 2.36477   5
  -4  13  -1 1.28262 2.25457   4
   4  13   1 1.62262 2.58920   4
  -4  13  -1 2.30104 2.25880   5
  -4  13  -1 8.73965 2.89900   3
   5 -13   1 22.4040 4.65044   5
   5  13   1 15.4070 3.65165   5
  -5  13  -1 26.9777 4.56150   5
  -5  13  -1 25.2668 5.59513   3
   5  13   1 32.3491 6.14573   4
  -4 -14   1 9.59727 3.86979   6
   4 -14  -1 5.42541 2.92047   5
  -4  14   1 10.0333 3.10343   3
  -4  14   1 8.70823 2.63321   5
   4  14  -1 7.04966 3.33477   4
   3 -14  -1 14.7455 3.45777   5
  -3  14   1 12.4485 2.76125   4
  -3  14   1 14.1050 3.08765   3
  -3  14   1 19.1966 3.13510   5
   3  14  -1 10.9908 3.79383   4
   3  14  -1 19.6404 3.50379   5
   2 -14  -1 7.02148 2.16952   5
  -2  14   1 0.25895 2.07142   3
   2  14  -1 1.04419 2.09169   5
   2  14  -1 2.87719 2.04837   3
  -2  14   1 4.34511 1.95697   4
  -2  14   1 4.82590 2.57453   5
  -2  14   1 2.22527 1.89042   5
   2  14  -1 2.52297 2.47488   4
  -1  14   1 7.09468 2.41889   4
  -1  14   1 4.11601 2.39495   3
  -1  14   1 4.15847 1.92624   5
   1  14  -1 8.77624 2.80300   4
   1  14  -1 8.81558 2.40018   5
   1  14  -1 7.64236 3.12732   3
  -1  14   1 4.21610 1.84531   4
   0  14   1 100.339 7.45384   4
   0  14   1 91.0204 6.12888   5
   0  14  -1 88.8135 6.68836   5
   0  14  -1 87.4280 8.02759   3
   0  14  -1 95.8850 7.30277   4
   0  14   1 93.4755 7.73168   3
  -1  14  -1 14.4363 3.05440   5
  -1  14  -1 11.0563 3.04033   4
  -1  14  -1 21.1096 4.17700   3
   1  14   1 23.4535 4.07838   4
   1  14   1 17.9273 2.88718   5
   1  14   1 16.4678 3.66409   3
   2 -14   1 71.0185 7.05441   5
   2  14   1 74.7975 5.86038   5
   2  14   1 73.2900 6.98989   4
   2  14   1 74.3661 5.55939   5
  -2  14  -1 68.2138 6.80624   3
  -2  14  -1 72.5722 6.10247   5
  -2  14  -1 82.9261 6.30828   4
   3 -14   1 0.18649 1.70498   5
  -3 -14  -1 -1.4332 1.83137   6
   3  14   1 -1.3107 1.78181   5
   3  14   1 1.63908 2.29310   4
  -3  14  -1 -0.2427 2.40100   4
  -3  14  -1 3.46676 2.24394   5
  -3  14  -1 3.81062 2.27312   3
   4 -14   1 146.803 10.7928   5
  -4  14  -1 145.617 10.8015   5
  -4  14  -1 143.752 10.0321   3
   4  14   1 129.895 8.67781   5
   4  14   1 129.198 11.3041   4
   3 -15  -1 9.40027 3.09555   5
   3  15  -1 10.3748 3.51930   4
  -3  15   1 15.2155 3.51942   3
   3  15  -1 9.37003 3.06082   5
  -3  15   1 15.5754 2.88089   5
   2 -15  -1 181.222 12.0299   5
   2  15  -1 161.103 12.2904   3
  -2  15   1 168.556 9.63172   4
  -2  15   1 156.910 8.90670   5
  -2  15   1 157.350 10.8345   4
  -2  15   1 154.671 10.8516   3
   2  15  -1 147.419 11.0984   4
   1  15  -1 35.7163 4.93634   5
  -1  15   1 36.0619 4.06859   5
   1  15  -1 32.8909 5.68888   3
   1  15  -1 37.6060 5.47500   4
  -1  15   1 40.3370 4.75130   4
  -1  15   1 47.2902 4.72015   4
  -1  15   1 40.7090 5.22601   3
   0  15   1 133.825 10.1264   3
   0  15  -1 153.822 9.93672   4
   0  15   1 123.725 8.78807   5
   0  15  -1 131.626 10.4454   3
   0  15   1 137.312 9.29649   4
  -1  15  -1 15.4179 3.15302   5
  -1  15  -1 21.6505 4.69335   3
   1  15   1 20.4455 4.51214   3
   1  15   1 35.8272 8.24019   4
   1  15   1 25.1715 3.59529   5
   2  15   1 8.87067 3.30532   4
   2  15   1 2.59420 3.05688   5
  -2  15  -1 13.4009 3.17115   5
   2  15   1 7.61266 2.45284   5
  -2  15  -1 7.01580 3.07841   3
  -3 -15  -1 3.37758 2.83500   6
   3 -15   1 1.17645 1.93456   5
   3  15   1 2.31602 2.15637   5
   3  15   1 2.34541 2.22195   4
  -3  15  -1 2.54210 2.52453   3
  -3  15  -1 -0.7107 2.08235   5
  -2  16   1 -2.7407 4.19948   5
  -2  16   1 0.94447 2.14133   4
  -2  16   1 1.00229 2.55533   3
   2  16  -1 3.42435 2.69531   4
   2  16  -1 -0.3668 2.44988   5
   1  16  -1 27.2623 4.81676   4
  -1  16   1 19.2947 4.13638   3
  -1  16   1 23.4623 5.12388   5
   1  16  -1 23.2583 5.19595   3
  -1  16   1 21.8318 4.10386   4
   0  16   1 49.9783 6.49688   3
   0  16  -1 35.9459 6.08590   3
   0  16  -1 35.1883 5.22171   4
   0  16   1 39.5507 5.45545   4
   0  16  -1 39.7980 4.91368   5
   0  16   1 35.4481 5.82813   5
   1  16   1 40.8543 5.74237   4
  -1  16  -1 29.5340 5.47813   3
  -1  16  -1 46.3219 8.97250   4
  -1  16  -1 36.1264 5.01787   5
  -2  16  -1 31.7268 5.30620   3
  -2  16  -1 32.8793 4.95145   5
   2  16   1 32.4777 5.51096   4
   9   0  -2 40.8842 5.81077   4
  -9   0   2 43.5549 8.42756   6
   9   0  -2 52.8714 6.60490   5
   8   0  -2 167.350 12.0611   4
  -8   0   2 174.690 14.4090   6
   8   0  -2 194.214 12.1790   5
   7   0  -2 2.71965 1.74247   5
  -7   0   2 0.47884 2.09532   6
   6   0  -2 89.4654 7.04370   4
   6   0  -2 80.4073 7.70976   6
  -6   0   2 83.2976 8.03694   6
  -6   0   2 84.0048 6.66433   4
   6   0  -2 74.1645 6.33040   5
  -6   0   2 85.7378 7.32268   5
   5   0  -2 139.142 8.19466   5
   5   0  -2 125.052 8.17510   4
  -5   0   2 138.214 9.56806   6
   5   0  -2 120.343 8.77666   6
  -5   0   2 136.228 7.87724   5
  -5   0   2 126.605 8.08929   4
  -4   0   2 1462.05 54.7050   5
   4   0  -2 1351.66 54.8566   5
   4   0  -2 1288.58 56.5420   4
  -4   0   2 1490.77 55.2411   4
  -4   0   2 1492.15 56.7162   6
   4   0  -2 1480.40 56.5376   6
   3   0  -2 522.959 20.7041   5
  -3   0   2 519.586 21.6368   6
  -3   0   2 504.719 21.2379   5
   3   0  -2 537.713 20.9133   4
   3   0  -2 482.899 21.3544   6
  -3   0   2 457.405 20.4219   4
   2   0  -2 9999.99 379.942   2
  -2   0   2 9744.51 379.483   2
  -1   0   2 1176.21 43.3755   6
   1   0   2 587.704 22.0863   6
   1   0   2 535.747 21.3763   4
   1   0   2 559.268 20.9772   5
  -1   0  -2 564.588 22.0514   6
  -1   0  -2 588.208 21.1140   5
  -1   0  -2 517.974 21.3786   4
  -2   0  -2 584.881 22.2070   5
   2   0   2 540.163 21.9323   5
   2   0   2 517.341 22.3356   4
  -2   0  -2 557.417 22.5507   4
   2   0   2 612.315 23.6648   6
  -2   0  -2 582.156 23.5857   6
  -3   0  -2 3.47178 1.63490   6
   3   0   2 9.24277 2.02327   6
  -3   0  -2 3.74386 1.14812   4
   3   0   2 5.06923 1.18852   5
  -3   0  -2 4.16450 1.15304   5
   3   0   2 4.73042 1.25312   4
   4   0   2 67.1309 4.69891   5
  -4   0  -2 60.1938 4.93463   4
  -4   0  -2 62.9962 4.79919   5
  -4   0  -2 66.5203 6.04594   6
   4   0   2 65.6342 5.84347   6
   4   0   2 74.9243 5.36069   4
  -5   0  -2 95.7276 6.59157   5
  -5   0  -2 90.7621 8.04892   6
   5   0   2 83.2177 6.50658   4
   5   0   2 91.9704 6.29011   5
   6   0   2 17.5766 3.08687   5
  -6   0  -2 19.4883 4.68035   6
   6   0   2 21.2530 3.79137   4
   7   0   2 469.190 22.9857   4
  -7   0  -2 469.193 25.7280   6
   7   0   2 436.549 21.5485   5
  -8   0  -2 265.620 18.7176   6
   8   0   2 271.590 15.0738   5
   8   0   2 248.141 15.7595   4
  -9  -1   2 15.4352 5.24526   6
   9  -1  -2 24.4116 4.88681   4
   9  -1  -2 13.5097 3.88012   5
  -9   1   2 10.7070 5.54394   6
   9   1  -2 11.9735 3.48180   5
   8  -1  -2 2.84495 2.49356   4
   8  -1  -2 2.05447 2.14809   5
  -8   1   2 4.61319 3.00731   6
   8   1  -2 2.75772 2.36890   5
   8   1  -2 2.86698 2.06975   4
   7  -1  -2 0.38303 1.51106   5
   7  -1  -2 1.63462 1.74515   4
  -7  -1   2 -1.8244 1.53419   6
   7   1  -2 -0.0766 1.35366   5
  -7   1   2 0.14094 2.06068   6
   7   1  -2 0.44871 1.69737   4
   6  -1  -2 58.4541 6.75962   6
   6  -1  -2 52.2880 5.15477   4
  -6  -1   2 38.6119 4.94812   4
   6  -1  -2 54.4276 5.43637   5
  -6  -1   2 62.0438 5.50758   3
  -6  -1   2 56.1502 6.76087   6
   6   1  -2 54.3703 6.11970   6
  -6   1   2 54.2305 5.13265   5
  -6   1   2 51.6293 6.55532   6
   6   1  -2 60.4401 5.90622   4
  -6   1   2 58.5173 5.42464   4
   6   1  -2 57.5436 5.53602   5
   5  -1  -2 42.2978 4.11097   5
   5  -1  -2 44.6833 4.21936   4
  -5  -1   2 42.8602 4.95358   6
  -5  -1   2 38.6665 3.87362   5
  -5  -1   2 38.6616 3.83013   3
   5  -1  -2 41.4424 5.11440   6
  -5  -1   2 45.7388 4.40176   4
   5   1  -2 40.2818 4.13257   5
   5   1  -2 41.0887 4.35432   4
   5   1  -2 42.1580 4.83100   6
  -5   1   2 42.0994 5.06528   6
  -5   1   2 47.4121 4.10378   5
  -5   1   2 47.6363 4.36374   4
  -4  -1   2 1146.19 43.8450   3
   4  -1  -2 1133.47 45.6001   6
  -4  -1   2 1199.11 43.9110   5
   4  -1  -2 1160.12 44.0930   5
  -4  -1   2 1058.90 44.0372   4
  -4  -1   2 1187.14 45.8361   6
   4  -1  -2 1138.72 44.0796   4
  -4   1   2 1117.24 43.9126   4
  -4   1   2 1063.95 43.5021   5
   4   1  -2 1152.79 44.5949   4
  -4   1   2 1123.62 47.9171   6
   4   1  -2 1060.77 43.8959   5
   4   1  -2 1083.23 44.9870   6
   3  -1  -2 21.1034 2.23631   5
  -3  -1   2 23.7210 2.28354   5
  -3  -1   2 24.1157 2.34615   3
  -3  -1   2 20.6568 2.66395   6
   3  -1  -2 23.5332 2.90637   6
   3  -1  -2 25.2532 2.38074   4
  -3  -1   2 24.4310 2.53804   4
   3   1  -2 23.3207 2.67713   6
   3   1  -2 18.4567 2.12346   5
  -3   1   2 27.6494 2.41711   4
  -3   1   2 24.9269 2.95473   6
   3   1  -2 25.8839 2.55829   4
   2  -1  -2 1778.90 69.1533   5
   2  -1  -2 2009.70 70.1479   6
   2  -1  -2 1859.42 69.1078   4
  -2  -1   2 1806.30 69.7547   6
  -2  -1   2 1964.49 69.3139   3
   2   1  -2 1864.68 69.6226   6
   2   1  -2 1665.22 69.3816   4
  -2   1   2 2008.25 70.0567   6
  -1  -1   2 6.71859 0.92455   3
   1  -1  -2 7.60754 0.87934   6
   1  -1  -2 5.66131 0.56237   4
  -1  -1   2 6.80709 0.73826   5
   1  -1  -2 5.80266 0.61825   5
  -1  -1   2 4.98819 0.66205   6
   1   1  -2 4.85153 0.71269   5
   1   1  -2 5.13872 0.79594   3
  -1   1   2 5.27165 0.78827   6
  -1   1   2 6.12327 0.52974   5
  -1   1   2 5.25468 0.51678   4
   0   1   2 288.690 11.0577   4
   0   1  -2 302.677 11.4308   3
   0   1  -2 291.242 11.3604   6
   1  -1   2 164.271 7.37035   6
  -1  -1  -2 156.464 6.76438   4
  -1  -1  -2 147.120 7.10536   6
  -1  -1  -2 156.622 6.28778   5
   1  -1   2 146.035 6.54353   4
   1  -1   2 153.299 6.41900   5
  -1   1  -2 153.869 7.25488   6
   1   1   2 154.093 7.05757   6
  -1   1  -2 163.493 6.73104   3
  -1   1  -2 135.272 6.38178   5
   1   1   2 149.209 6.69159   4
  -1   1  -2 141.678 6.56192   4
   1   1   2 151.479 6.11895   5
  -2  -1  -2 722.160 31.0471   6
  -2  -1  -2 822.885 30.4862   4
   2  -1   2 789.831 29.8409   5
   2  -1   2 725.216 29.9554   4
   2  -1   2 810.399 31.3937   6
  -2  -1  -2 792.807 29.8678   5
   2   1   2 787.464 30.3638   4
   2   1   2 776.812 29.6284   5
  -2   1  -2 786.050 30.2142   4
  -2   1  -2 795.925 31.3864   6
   2   1   2 830.018 31.2162   6
  -2   1  -2 689.571 29.7437   5
   3  -1   2 387.596 16.2958   5
  -3  -1  -2 367.861 16.8560   4
   3  -1   2 402.016 18.2623   6
  -3  -1  -2 419.641 18.4312   6
   3  -1   2 403.710 16.7663   4
  -3  -1  -2 385.336 16.4621   5
  -3   1  -2 346.163 16.5584   4
   3   1   2 395.816 17.9434   6
   3   1   2 381.263 16.1436   5
  -3   1  -2 408.520 18.3855   6
  -3   1  -2 367.714 16.3837   5
   3   1   2 372.856 16.8358   4
  -4  -1  -2 -0.4008 0.74896   4
   4  -1   2 -0.7463 0.54000   5
  -4  -1  -2 0.18163 0.75828   5
  -4  -1  -2 -1.6428 1.15712   6
   4  -1   2 -0.1257 0.82455   4
   4  -1   2 -0.8998 1.35132   6
  -4   1  -2 -0.2154 0.81703   5
   4   1   2 2.28270 0.91314   5
  -4   1  -2 -0.3259 0.91713   6
   4   1   2 -0.3641 0.80255   6
  -4   1  -2 1.44184 0.98483   4
   4   1   2 -0.1432 0.72419   4
  -5  -1  -2 72.2451 6.01815   4
   5  -1   2 64.4203 5.50872   4
   5  -1   2 68.5420 8.10367   6
  -5  -1  -2 70.8010 5.52767   5
   5  -1   2 76.4074 5.51481   5
  -5  -1  -2 76.0607 7.20117   6
   5   1   2 73.0488 5.94543   4
  -5   1  -2 63.9021 5.32069   5
  -5   1  -2 61.3591 5.55509   4
   5   1   2 68.3729 5.28051   5
  -5   1  -2 76.1432 7.27133   6
   6  -1   2 13.1934 2.68972   5
  -6  -1  -2 11.1841 3.76583   6
   6  -1   2 9.53869 2.75052   4
   6   1   2 15.8749 3.37613   4
   6   1   2 14.1916 2.81179   5
  -6   1  -2 12.6777 3.73154   6
   7  -1   2 19.6817 3.92049   4
  -7  -1  -2 10.5579 4.21027   6
   7  -1   2 16.3610 3.19817   5
  -7   1  -2 10.5594 4.08564   6
   7   1   2 11.1018 3.12418   4
   7   1   2 11.1923 3.01296   5
   8  -1   2 37.8600 5.20624   4
   8  -1   2 38.2337 5.30744   5
  -8  -1  -2 47.5430 8.51930   6
  -8   1  -2 33.6680 7.31691   6
   8   1   2 46.0090 5.37501   5
   8   1   2 36.8885 5.40592   4
   9  -2  -2 10.5316 3.02835   4
  -9  -2   2 5.61655 3.96459   6
   9  -2  -2 8.29033 3.24184   5
  -9   2   2 6.61512 2.62123   3
   9   2  -2 8.15288 3.12950   5
  -9   2   2 4.86635 4.74647   6
   9   2  -2 7.31424 3.51968   4
  -8  -2   2 47.9361 8.47967   6
   8  -2  -2 49.8369 6.02507   4
   8  -2  -2 55.6419 6.01892   5
   8   2  -2 56.3539 6.27189   5
  -8   2   2 58.4089 7.39480   6
   8   2  -2 47.3229 6.12110   4
   7  -2  -2 290.738 15.9042   4
  -7  -2   2 325.899 19.1870   6
   7  -2  -2 301.140 16.1626   5
   7   2  -2 295.492 16.1400   5
   7   2  -2 283.176 16.6311   4
  -6  -2   2 916.540 40.2234   6
   6  -2  -2 914.504 40.2243   6
  -6  -2   2 901.484 37.5040   3
   6  -2  -2 909.958 37.6470   5
   6  -2  -2 925.635 37.5331   4
   6   2  -2 913.917 37.6368   5
  -6   2   2 935.012 37.6588   4
  -6   2   2 933.063 37.1718   5
   6   2  -2 781.769 38.2379   6
   6   2  -2 860.922 38.2029   4
  -6   2   2 865.870 39.7387   6
  -5  -2   2 201.942 10.6628   3
   5  -2  -2 191.898 10.3210   4
  -5  -2   2 175.985 10.4614   4
   5  -2  -2 193.908 11.9741   6
  -5  -2   2 203.089 12.1681   6
   5  -2  -2 192.582 10.5122   5
   5   2  -2 194.964 10.5718   5
   5   2  -2 172.468 10.9505   6
  -5   2   2 186.814 11.8061   6
  -5   2   2 173.651 9.94692   5
   5   2  -2 199.864 11.1747   4
  -5   2   2 191.460 10.3353   4
   4  -2  -2 749.836 32.0490   6
  -4  -2   2 681.103 30.1091   3
   4  -2  -2 742.659 30.1048   4
  -4  -2   2 723.848 30.6094   4
  -4  -2   2 756.418 30.1956   5
   4  -2  -2 760.142 30.4536   5
  -4   2   2 777.019 30.2447   4
   4   2  -2 771.270 31.3748   6
  -4   2   2 746.485 29.9915   5
  -4   2   2 798.610 32.3247   6
   4   2  -2 753.334 30.5127   5
   4   2  -2 724.392 30.9603   4
  -3  -2   2 26.2945 2.45715   5
   3  -2  -2 22.1589 2.14225   4
   3  -2  -2 21.8527 3.02532   6
  -3  -2   2 27.6306 2.59145   3
  -3  -2   2 31.4445 2.85780   4
  -3  -2   2 27.3335 3.02566   6
   3  -2  -2 23.0028 2.30567   5
  -3   2   2 28.7164 3.09034   6
  -3   2   2 24.2973 2.28363   4
   3   2  -2 30.7569 2.89667   6
   3   2  -2 27.6768 2.75280   4
   3   2  -2 24.0205 2.50304   5
   2  -2  -2 220.529 9.16244   4
  -2  -2   2 214.891 9.72833   3
  -2  -2   2 240.463 9.65513   5
   2  -2  -2 232.357 10.4366   6
   2  -2  -2 195.339 9.35154   5
  -2  -2   2 211.807 9.99418   6
   2   2  -2 233.815 9.78001   5
   2   2  -2 226.881 9.86644   3
   2   2  -2 195.252 9.62566   6
  -2   2   2 235.185 10.3277   6
  -2   2   2 211.271 9.14626   4
   2   2  -2 228.815 10.0632   4
  -2   2   2 225.301 9.31547   5
   1  -2  -2 1006.13 35.2288   6
   1  -2  -2 889.361 34.3189   5
   1  -2  -2 967.665 33.9064   3
   1  -2  -2 874.199 33.8525   4
  -1  -2   2 902.341 34.9203   3
  -1  -2   2 970.462 34.6985   5
  -1   2   2 926.232 34.0912   5
  -1   2   2 948.129 34.0534   5
  -1   2   2 949.843 33.8967   3
   1   2  -2 849.414 34.6182   5
   1   2  -2 947.720 35.0167   3
  -1   2   2 894.958 33.8949   4
   0  -2  -2 621.037 23.0882   5
   0  -2  -2 619.013 23.0841   5
   0  -2  -2 622.618 23.3946   4
   0  -2   2 646.442 23.9879   3
   0  -2   2 650.885 24.1034   6
   0  -2  -2 627.060 23.5905   3
   0   2  -2 618.079 23.7670   5
   0   2   2 611.000 23.3999   4
   0   2  -2 631.903 23.9946   3
   0   2  -2 664.378 23.9628   5
   1  -2   2 119.308 6.07858   5
  -1  -2  -2 139.558 6.81740   6
   1  -2   2 150.064 7.10315   6
   1  -2   2 131.514 6.14318   4
   1  -2   2 134.445 6.26838   3
  -1  -2  -2 149.737 6.48034   4
  -1  -2  -2 145.981 5.99434   5
  -1   2  -2 124.806 6.17241   3
  -1   2  -2 144.273 6.29881   4
  -1   2  -2 154.296 6.38784   5
  -1   2  -2 143.913 7.00341   6
   1   2   2 139.198 5.75262   5
   1   2   2 141.245 6.43091   4
  -2  -2  -2 13.1450 1.43990   5
   2  -2   2 9.81533 1.31807   4
  -2  -2  -2 9.05243 1.85505   6
  -2  -2  -2 13.0535 1.72315   4
   2  -2   2 14.4927 2.11272   6
   2  -2   2 9.74355 1.40665   5
   2   2   2 11.4156 1.30080   5
  -2   2  -2 13.6216 1.58849   5
   2   2   2 10.0304 1.66371   4
   2   2   2 13.3789 1.82853   6
  -2   2  -2 13.0001 1.60303   3
  -2   2  -2 14.3613 2.13640   6
  -2   2  -2 12.5821 1.51415   4
   3  -2   2 4.49164 1.15317   4
   3  -2   2 4.02182 1.14683   5
   3  -2   2 1.62156 1.29869   6
  -3  -2  -2 1.61056 1.03296   6
  -3  -2  -2 3.53040 1.18457   4
  -3  -2  -2 3.66809 1.18073   5
  -3   2  -2 3.93355 1.17390   5
  -3   2  -2 3.74727 1.44991   6
  -3   2  -2 3.39228 1.14887   4
   3   2   2 4.56422 1.42473   4
  -3   2  -2 2.22792 0.88201   3
   3   2   2 2.50577 0.86828   5
   3   2   2 3.08152 1.33678   6
   4  -2   2 15.2130 2.58777   4
  -4  -2  -2 17.8886 2.95766   4
   4  -2   2 16.1831 3.49838   6
  -4  -2  -2 13.5529 3.04529   6
   4  -2   2 20.1983 2.50517   5
  -4  -2  -2 16.0193 2.53780   5
   4   2   2 15.9614 2.82099   4
   4   2   2 22.2605 2.49777   5
   4   2   2 17.4395 3.14590   6
  -4   2  -2 16.4629 2.77750   4
  -4   2  -2 18.6045 3.50628   6
  -4   2  -2 19.6379 2.67709   5
   5  -2   2 298.082 17.5712   6
   5  -2   2 343.055 15.9476   4
  -5  -2  -2 303.451 17.6938   6
   5  -2   2 323.834 15.4270   5
  -5  -2  -2 320.646 15.6546   5
  -5  -2  -2 323.257 16.3239   4
   5   2   2 333.861 15.3247   5
  -5   2  -2 325.501 17.9375   6
   5   2   2 321.333 16.3285   4
   5   2   2 330.897 17.4135   6
  -5   2  -2 312.976 15.9514   4
  -5   2  -2 323.428 15.7206   5
  -6  -2  -2 283.404 17.6330   6
   6  -2   2 258.765 14.6319   4
   6  -2   2 292.339 14.7050   5
   6   2   2 277.509 14.2365   5
   6   2   2 304.056 15.8868   4
  -6   2  -2 273.643 17.1963   6
   7  -2   2 68.8711 6.72235   4
   7  -2   2 73.3660 6.54412   5
  -7  -2  -2 87.4992 9.55491   6
   7   2   2 79.5718 7.33648   4
   7   2   2 65.2498 7.30219   5
  -7   2  -2 77.3911 6.82344   3
  -7   2  -2 74.0626 8.89566   6
   8  -2   2 6.49185 2.65243   5
   8  -2   2 7.47830 2.70110   4
  -8  -2  -2 9.21831 4.18252   6
   8   2   2 7.08833 2.51732   5
   8   2   2 5.46748 2.71109   4
  -8   2  -2 5.70419 3.55940   6
  -8   2  -2 12.1840 3.04522   3
   8  -3  -2 0.82854 1.68951   4
   8  -3  -2 1.76110 1.38113   5
  -8  -3   2 2.26145 2.92062   6
  -8   3   2 1.65743 1.92553   3
  -8   3   2 -1.5504 3.32157   6
   8   3  -2 0.89056 1.99110   5
   8   3  -2 -2.8975 2.15076   4
   7  -3  -2 164.791 10.7276   5
   7  -3  -2 163.649 10.2661   4
  -7   3   2 143.378 11.9754   6
   7   3  -2 153.135 10.4266   5
  -7   3   2 154.594 9.60490   3
   7   3  -2 162.147 11.6146   4
   6  -3  -2 7.35622 2.19989   4
   6  -3  -2 6.84171 2.14956   5
  -6  -3   2 7.44564 2.92344   6
  -6  -3   2 3.37476 2.32164   3
   6  -3  -2 6.13231 2.78083   6
   6   3  -2 5.18420 1.83148   5
  -6   3   2 10.1585 3.50011   6
   6   3  -2 5.61401 2.34078   6
   6   3  -2 5.32527 2.25666   4
  -6   3   2 7.90483 2.40879   5
   5  -3  -2 64.9196 6.52813   6
  -5  -3   2 63.8484 6.32344   6
   5  -3  -2 59.5191 4.89358   4
  -5  -3   2 58.8639 5.41443   3
   5  -3  -2 60.7867 5.15424   5
  -5  -3   2 64.8678 5.50857   4
  -5  -3   2 73.9292 5.36527   5
   5   3  -2 61.9235 5.25017   5
  -5   3   2 62.8812 5.00882   5
   5   3  -2 70.6678 6.14229   6
  -5   3   2 70.6713 6.57384   6
   5   3  -2 64.2105 5.71136   4
  -5   3   2 67.4144 5.11917   4
  -4  -3   2 7.11066 2.15785   6
  -4  -3   2 5.50583 1.53349   4
   4  -3  -2 5.00843 1.51996   5
  -4  -3   2 5.40231 1.46188   5
   4  -3  -2 5.47111 1.31756   4
   4  -3  -2 0.65500 1.30137   6
  -4  -3   2 6.74420 1.76112   3
   4   3  -2 4.63644 1.65270   4
  -4   3   2 3.68664 1.25589   4
  -4   3   2 4.55653 1.28655   5
   4   3  -2 3.24239 1.24509   5
  -4   3   2 4.46875 1.94482   6
   4   3  -2 5.30680 1.55706   6
  -4   3   2 3.71660 1.05063   3
  -3  -3   2 1.12091 0.76002   5
   3  -3  -2 0.45848 0.45025   4
  -3  -3   2 1.37692 0.80373   6
  -3  -3   2 1.74637 1.00648   3
   3  -3  -2 0.13354 1.02199   6
  -3   3   2 0.67871 0.60372   5
  -3   3   2 1.48190 1.04888   6
   3   3  -2 -0.3522 0.52077   5
  -3   3   2 0.88526 0.50003   3
   3   3  -2 0.59686 0.75612   6
  -3   3   2 0.66708 0.54489   4
   3   3  -2 0.58974 0.66636   4
  -2  -3   2 240.578 10.6820   5
   2  -3  -2 274.289 11.9450   6
   2  -3  -2 249.822 10.0192   4
   2  -3  -2 225.335 10.5326   5
  -2  -3   2 216.774 11.0466   6
  -2  -3   2 271.744 11.3095   3
   2   3  -2 237.801 10.8278   5
  -2   3   2 246.739 10.4062   5
   2   3  -2 262.983 11.3893   4
  -2   3   2 233.986 10.0682   4
  -2   3   2 275.610 11.6924   6
   2   3  -2 233.835 11.0747   3
  -2   3   2 262.980 9.94197   3
  -1  -3   2 31.5454 2.50338   3
  -1  -3   2 31.9369 2.28085   5
   1  -3  -2 32.5987 2.03680   5
   1  -3  -2 33.2831 2.60890   6
   1  -3  -2 34.2745 1.78304   3
   1  -3  -2 32.4652 1.99285   5
  -1   3   2 32.8881 1.81249   3
  -1   3   2 30.4900 1.75597   5
   1   3  -2 29.0936 2.19380   5
   1   3  -2 29.8188 2.46398   3
  -1   3   2 29.7954 1.51679   4
  -1   3   2 33.3295 1.84480   5
   0  -3  -2 71.6001 3.28546   5
   0  -3   2 71.7841 3.89639   3
   0  -3   2 76.2165 3.78753   5
   0  -3  -2 72.4054 3.33327   5
   0  -3  -2 69.7410 3.54984   3
   0   3   2 69.6915 3.54672   3
   0   3   2 68.4455 3.31539   4
   0   3  -2 73.3200 4.00177   3
   0   3   2 70.1141 2.97898   5
   0   3   2 72.5031 2.99513   5
   0   3  -2 75.4287 3.86329   5
   0   3  -2 70.5428 3.74905   5
   1  -3   2 340.534 15.7634   5
   1  -3   2 411.657 16.0005   3
  -1  -3  -2 417.195 16.0794   4
  -1  -3  -2 400.964 16.1359   3
   1  -3   2 405.432 16.9464   6
  -1  -3  -2 402.484 15.6064   5
  -1   3  -2 404.225 16.8111   6
  -1   3  -2 404.349 16.0281   5
   1   3   2 399.632 15.3343   5
   1   3   2 393.877 16.0469   4
  -1   3  -2 384.568 15.7926   4
  -1   3  -2 394.942 15.9630   3
   1   3   2 417.193 15.3315   5
  -2  -3  -2 434.893 18.6726   6
   2  -3   2 415.709 17.3948   3
  -2  -3  -2 437.393 17.8963   4
  -2  -3  -2 448.260 17.3797   5
   2  -3   2 387.540 17.3038   5
   2  -3   2 397.095 17.1402   4
  -2   3  -2 452.792 17.4729   3
  -2   3  -2 440.230 17.5134   4
  -2   3  -2 442.809 18.9203   6
   2   3   2 439.659 17.0509   5
   2   3   2 435.517 17.9474   4
  -2   3  -2 375.440 18.1601   5
  -3  -3  -2 2.96271 1.06463   5
   3  -3   2 1.77655 0.83843   4
   3  -3   2 1.67663 1.27070   6
  -3  -3  -2 1.49501 0.96047   4
   3  -3   2 1.23257 0.99796   5
   3   3   2 1.34954 0.66185   5
  -3   3  -2 0.88773 0.66400   3
   3   3   2 -0.2743 0.69353   6
  -3   3  -2 0.95215 0.80565   5
  -3   3  -2 -0.1548 0.89963   6
   3   3   2 -0.0859 0.50375   4
  -3   3  -2 2.39462 0.90407   4
  -4  -3  -2 37.8757 3.95923   4
   4  -3   2 33.8687 3.37555   4
   4  -3   2 32.0172 4.19617   6
  -4  -3  -2 43.6735 4.88144   6
   4  -3   2 40.3749 3.61862   5
  -4  -3  -2 38.1541 3.63197   5
  -4   3  -2 37.1760 3.64316   5
  -4   3  -2 31.5145 3.48123   4
   4   3   2 36.3190 3.91628   4
  -4   3  -2 38.5806 4.59537   6
   4   3   2 42.2693 4.40925   6
   4   3   2 39.4259 3.40137   5
  -4   3  -2 40.2629 3.68314   3
   5  -3   2 5.76673 1.82652   4
   5  -3   2 3.60244 2.71768   6
   5  -3   2 6.53193 1.93214   5
  -5  -3  -2 8.97635 2.70284   6
  -5  -3  -2 4.63148 1.82611   5
  -5  -3  -2 6.37183 2.08930   4
  -5   3  -2 6.83646 1.80979   3
  -5   3  -2 4.36537 2.26022   6
  -5   3  -2 10.9941 2.37056   5
   5   3   2 6.88087 1.89579   5
  -5   3  -2 9.22962 2.18314   4
   5   3   2 9.06576 2.53980   6
   5   3   2 6.30655 2.08707   4
   6  -3   2 130.083 8.81084   4
  -6  -3  -2 136.069 11.3340   6
   6  -3   2 124.180 8.69234   5
  -6   3  -2 144.703 9.08735   3
  -6   3  -2 114.393 10.4891   6
   6   3   2 140.034 8.67257   5
  -6   3  -2 140.741 10.9784   4
   6   3   2 145.310 10.3367   4
   7  -3   2 2.86549 1.82164   4
   7  -3   2 5.71257 2.22955   5
  -7  -3  -2 -0.3917 2.27061   6
  -7   3  -2 -1.5306 2.19985   6
  -7   3  -2 3.02016 1.80400   3
  -8  -3  -2 16.9100 5.05995   6
   8  -3   2 17.9017 3.86867   4
   8  -3   2 21.4469 4.23303   5
  -8   3  -2 18.3755 3.80605   3
   8   3   2 24.7940 4.73936   4
  -8   3  -2 21.9584 5.81384   6
   8   3   2 28.3328 4.18434   5
  -8  -4   2 58.2893 8.20913   6
   8  -4  -2 47.1807 5.52260   4
   8  -4  -2 54.2726 6.30133   5
   8   4  -2 52.9328 6.35699   5
  -8   4   2 54.6521 5.49460   3
  -8   4   2 34.6415 7.22950   6
   8   4  -2 60.6294 7.34645   4
  -7  -4   2 13.3847 4.03629   6
   7  -4  -2 13.8962 2.97286   4
   7  -4  -2 12.0379 3.17369   5
   7   4  -2 14.2078 3.30415   5
  -7   4   2 9.63031 3.87469   6
   7   4  -2 11.6753 3.46218   4
  -7   4   2 15.3507 2.80632   3
   6  -4  -2 0.23978 1.27063   5
   6  -4  -2 3.17766 1.71219   4
  -6  -4   2 3.98113 2.58064   6
  -6   4   2 2.72647 1.98059   4
   6   4  -2 2.29782 1.89316   5
   6   4  -2 4.30654 1.90935   6
  -6   4   2 3.43419 1.42731   3
   6   4  -2 5.18459 2.28652   4
  -6   4   2 1.53834 2.00793   6
  -6   4   2 2.27757 1.91941   5
   5  -4  -2 163.110 8.89827   4
   5  -4  -2 163.651 9.55561   5
   5  -4  -2 150.948 12.3668   6
  -5  -4   2 174.041 9.94865   3
  -5  -4   2 142.748 10.6142   6
  -5  -4   2 157.369 9.30288   5
  -5   4   2 154.919 8.99022   5
  -5   4   2 158.346 9.40861   3
   5   4  -2 168.496 10.4546   4
   5   4  -2 177.189 10.5203   6
  -5   4   2 162.976 9.14670   4
  -5   4   2 164.668 10.9946   6
   5   4  -2 160.338 9.64132   5
  -4  -4   2 -0.6105 0.77947   3
  -4  -4   2 1.50729 1.07490   6
   4  -4  -2 -1.5381 1.04563   6
   4  -4  -2 0.34045 0.62997   4
  -4  -4   2 0.83072 0.95692   5
   4  -4  -2 -0.5390 0.67514   5
   4   4  -2 1.58660 1.20761   4
  -4   4   2 0.33602 0.61197   3
   4   4  -2 -0.2071 0.83829   5
  -4   4   2 -0.5625 0.81099   6
  -4   4   2 -0.3814 0.70967   4
  -4   4   2 1.97630 0.93002   5
  -3  -4   2 158.193 9.23390   6
   3  -4  -2 153.571 8.48433   5
   3  -4  -2 158.785 7.60099   4
  -3  -4   2 149.717 8.62578   3
  -3  -4   2 170.877 8.50676   5
   3  -4  -2 174.702 9.95003   6
  -3   4   2 178.004 8.28406   5
  -3   4   2 182.755 7.66304   3
   3   4  -2 185.848 8.87858   5
  -3   4   2 161.764 7.84512   4
  -3   4   2 170.011 9.58520   6
   3   4  -2 166.994 9.14315   4
  -2  -4   2 17.9062 2.15283   3
  -2  -4   2 11.9883 1.79551   6
   2  -4  -2 13.5721 1.60550   5
   2  -4  -2 11.6063 1.21059   3
  -2  -4   2 11.6964 1.68372   5
   2  -4  -2 13.1285 1.15583   4
   2  -4  -2 15.5050 2.90391   6
  -2   4   2 13.4563 1.23787   4
   2   4  -2 16.1186 1.87952   5
  -2   4   2 13.7383 2.25614   6
  -2   4   2 13.0327 1.21409   3
  -2   4   2 13.0509 1.49499   5
   2   4  -2 13.3407 1.85675   4
   2   4  -2 15.8380 2.18042   3
  -2   4   2 15.2683 1.51481   5
   1  -4  -2 47.6883 3.51872   6
  -1  -4   2 42.5957 2.90886   5
   1  -4  -2 46.2239 2.76382   5
   1  -4  -2 45.7233 2.52717   3
  -1  -4   2 44.9984 3.26759   3
   1  -4  -2 41.8104 2.69201   5
  -1   4   2 43.8582 2.43152   5
   1   4  -2 43.9539 3.28659   3
  -1   4   2 41.8596 2.44707   5
  -1   4   2 47.5504 2.63691   3
   1   4  -2 43.5600 2.95465   5
  -1   4   2 40.9065 2.14024   4
   0  -4   2 179.140 8.00777   3
   0  -4  -2 170.592 7.27639   5
   0  -4  -2 172.104 7.58912   3
   0  -4   2 178.813 7.80497   5
   0  -4  -2 168.498 7.33963   5
   0   4  -2 162.838 7.65799   5
   0   4   2 166.861 6.93390   5
   0   4   2 170.980 7.24116   4
   0   4  -2 171.067 8.03942   3
   0   4   2 173.610 6.98693   5
   0   4  -2 166.018 7.78210   5
   0   4   2 169.164 7.54987   3
  -1  -4  -2 1046.46 39.4933   5
  -1  -4  -2 1051.63 39.8388   4
  -1  -4  -2 1047.22 40.0737   3
   1  -4   2 1067.23 41.1201   6
   1  -4   2 1101.43 39.9784   3
  -1   4  -2 1091.42 40.0302   5
  -1   4  -2 1084.07 40.9693   6
   1   4   2 1064.40 39.1182   5
  -1   4  -2 1047.32 39.9232   3
   1   4   2 1008.46 39.1110   5
   1   4   2 1020.00 39.8580   4
  -1   4  -2 970.309 39.5567   4
  -2  -4  -2 72.8364 5.28198   6
   2  -4   2 72.4035 4.46741   3
  -2  -4  -2 76.7144 4.81828   4
   2  -4   2 72.4817 4.29850   4
  -2  -4  -2 86.1659 5.05755   3
   2  -4   2 74.5852 5.54404   6
  -2  -4  -2 71.3651 4.34200   5
   2  -4   2 77.3755 4.67713   5
   2   4   2 73.9747 4.13918   5
  -2   4  -2 73.5470 4.47035   3
   2   4   2 74.6246 4.83401   4
  -2   4  -2 65.7807 4.25063   4
  -2   4  -2 78.7705 5.60414   6
  -2   4  -2 68.3827 4.48426   5
  -3  -4  -2 13.9010 2.20510   5
   3  -4   2 14.0875 2.99425   6
  -3  -4  -2 14.7490 2.83038   6
   3  -4   2 19.1305 2.32316   5
  -3  -4  -2 15.5124 2.47290   3
   3  -4   2 13.3222 1.84396   4
  -3  -4  -2 19.0755 2.85452   4
   3   4   2 17.4813 1.99236   5
  -3   4  -2 15.4360 2.05158   3
   3   4   2 18.1366 2.84498   4
  -3   4  -2 11.9186 2.64535   6
  -3   4  -2 16.6112 2.10906   4
  -3   4  -2 16.4978 2.44834   5
   4  -4   2 194.160 10.5132   4
  -4  -4  -2 208.912 11.4786   3
  -4  -4  -2 227.265 13.2019   6
   4  -4   2 217.507 11.0869   5
  -4  -4  -2 214.272 11.6502   4
  -4  -4  -2 213.593 10.9776   5
   4  -4   2 211.850 13.0392   6
   4   4   2 204.648 10.5291   5
  -4   4  -2 217.963 13.0342   6
   4   4   2 237.357 12.5666   6
  -4   4  -2 222.311 10.9335   3
   4   4   2 233.146 12.1263   4
  -4   4  -2 219.219 11.2230   4
  -4   4  -2 203.911 11.0277   5
  -5  -4  -2 323.756 18.1677   6
   5  -4   2 309.976 17.9245   6
  -5  -4  -2 313.208 16.0940   4
  -5  -4  -2 285.673 15.0125   5
   5  -4   2 311.828 15.3408   5
   5  -4   2 332.902 15.2753   4
  -5  -4  -2 307.515 15.8205   3
   5   4   2 313.431 16.8888   6
   5   4   2 324.895 16.5414   4
  -5   4  -2 287.692 15.2701   5
  -5   4  -2 319.051 15.1196   3
   5   4   2 301.302 14.7586   5
  -5   4  -2 320.157 17.8364   6
  -5   4  -2 308.111 15.6697   4
   6  -4   2 64.4097 5.77745   4
  -6  -4  -2 75.3561 8.20217   6
   6  -4   2 72.1184 6.35254   5
  -6   4  -2 54.2793 9.64957   6
  -6   4  -2 67.6633 5.90271   3
   6   4   2 68.7413 6.79852   4
   6   4   2 65.0657 5.64033   5
  -6   4  -2 65.6842 7.20299   4
   7  -4   2 489.811 23.3754   5
  -7  -4  -2 531.184 28.1700   6
   7  -4   2 469.420 22.9931   4
  -7   4  -2 442.515 26.2264   6
   7   4   2 482.112 24.7214   4
  -7   4  -2 501.039 23.1140   3
   8  -4   2 152.377 10.7185   5
   8  -4   2 136.457 10.1405   4
  -8  -4  -2 119.856 12.8000   6
  -8   4  -2 134.295 12.9343   6
   8   4   2 139.015 9.93274   5
   8   4   2 160.618 12.0684   4
  -8   4  -2 159.825 10.6882   3
   8  -5  -2 1.02533 2.13918   5
   8  -5  -2 4.05026 2.12785   4
  -8  -5   2 2.72106 3.48790   6
   8   5  -2 -0.9697 2.16212   5
  -8   5   2 0.94212 1.60089   3
   8   5  -2 0.60907 2.50083   4
  -8   5   2 6.71995 3.82974   6
   7  -5  -2 9.38120 2.47532   4
  -7  -5   2 4.74758 3.27931   6
   7  -5  -2 10.5313 2.77865   5
  -7   5   2 7.61548 3.52511   6
   7   5  -2 6.48020 2.65530   4
   7   5  -2 7.48996 2.76995   5
  -7   5   2 14.3747 2.63884   3
   6  -5  -2 13.0581 2.90587   5
   6  -5  -2 17.4011 2.95556   4
  -6  -5   2 19.4868 4.35119   6
   6   5  -2 17.2119 3.62262   4
  -6   5   2 27.6743 5.40139   6
  -6   5   2 18.8427 2.87345   3
  -6   5   2 23.6007 3.42842   4
   6   5  -2 17.0623 3.32031   5
  -5  -5   2 442.860 19.7480   5
   5  -5  -2 391.909 21.5759   6
   5  -5  -2 416.465 19.5280   5
  -5  -5   2 377.207 19.5654   3
  -5  -5   2 413.616 21.6400   6
   5  -5  -2 401.122 18.2723   4
   5   5  -2 433.850 20.8849   4
  -5   5   2 405.710 19.1788   3
  -5   5   2 466.137 19.5805   5
  -5   5   2 447.467 19.0983   4
   5   5  -2 458.424 20.0101   5
  -5   5   2 403.449 21.1723   6
  -4  -5   2 21.4479 3.33358   3
  -4  -5   2 24.5987 3.04792   5
   4  -5  -2 24.4483 2.50382   4
   4  -5  -2 31.2897 4.22754   6
   4  -5  -2 24.9039 3.00494   5
  -4  -5   2 24.9490 3.61978   6
  -4   5   2 23.9582 4.14793   6
  -4   5   2 22.8446 2.75561   5
   4   5  -2 27.0015 3.50959   4
  -4   5   2 21.7410 2.54719   4
   4   5  -2 27.4071 3.08421   5
  -4   5   2 25.6819 2.45104   3
   3  -5  -2 644.806 25.7483   5
  -3  -5   2 595.033 27.0072   6
   3  -5  -2 636.316 27.6397   6
   3  -5  -2 618.917 24.3960   4
  -3  -5   2 622.267 25.6072   5
  -3  -5   2 619.526 26.2615   3
   3   5  -2 639.293 25.9108   5
  -3   5   2 593.957 24.6651   4
  -3   5   2 664.267 24.5516   3
  -3   5   2 645.349 27.0777   6
  -3   5   2 659.456 25.3009   5
   3   5  -2 599.521 26.4689   4
  -2  -5   2 110.734 6.25541   5
   2  -5  -2 130.960 7.74001   6
  -2  -5   2 127.099 6.97544   3
   2  -5  -2 115.818 6.27032   5
   2  -5  -2 117.085 5.57651   3
  -2   5   2 112.868 5.85051   5
  -2   5   2 119.169 5.61070   3
  -2   5   2 124.679 5.83321   5
  -2   5   2 110.213 5.37899   4
   2   5  -2 120.040 6.90285   4
   2   5  -2 127.720 8.07702   3
   2   5  -2 113.711 6.37448   5
   1  -5  -2 701.074 26.0660   3
  -1  -5   2 658.579 26.5630   5
  -1  -5   2 692.024 27.1747   3
   1  -5  -2 636.129 26.2596   5
   1  -5  -2 674.846 26.2556   5
  -1   5   2 693.805 25.8981   5
   1   5  -2 647.819 27.0971   3
   1   5  -2 668.800 26.6108   5
   1   5  -2 698.601 26.9384   5
  -1   5   2 678.194 25.7256   5
  -1   5   2 700.831 26.1118   3
   0  -5  -2 61.4783 3.52597   5
   0  -5  -2 57.2254 3.64350   3
   0  -5  -2 57.3041 3.39548   5
   0  -5   2 59.1325 3.85567   3
   0  -5   2 48.2750 3.63123   5
   0  -5   2 56.4530 4.35113   5
   0   5   2 58.8933 3.08280   5
   0   5   2 55.9020 3.24421   4
   0   5  -2 62.4566 4.06965   3
   0   5   2 60.5789 3.10682   5
   0   5  -2 62.4080 3.80160   5
   0   5   2 56.3438 3.59663   3
   1  -5   2 228.381 11.5219   6
  -1  -5  -2 233.963 10.7650   3
   1  -5   2 235.332 10.4283   3
  -1  -5  -2 228.815 10.0330   5
   1  -5   2 229.950 10.5093   5
  -1   5  -2 236.944 10.4195   5
  -1   5  -2 237.047 10.4960   5
  -1   5  -2 213.427 9.99401   4
   1   5   2 234.729 9.64636   5
   1   5   2 219.129 9.61834   5
  -1   5  -2 231.016 10.4709   3
   1   5   2 232.278 10.3800   4
  -2  -5  -2 258.778 12.5032   3
  -2  -5  -2 274.586 12.0346   5
   2  -5   2 273.606 13.8482   6
   2  -5   2 289.265 13.6749   5
   2  -5   2 250.082 12.0851   3
  -2  -5  -2 263.613 12.3797   4
  -2   5  -2 270.431 11.9681   4
   2   5   2 265.604 12.5571   4
   2   5   2 274.863 11.6439   5
  -2   5  -2 277.868 12.3585   5
   2   5   2 265.625 11.5891   5
  -2   5  -2 285.185 12.1642   3
  -2   5  -2 258.422 14.9850   6
   3  -5   2 12.2266 2.15817   5
   3  -5   2 11.5107 1.69393   4
  -3  -5  -2 11.2502 2.28366   3
  -3  -5  -2 10.9047 2.11862   4
  -3  -5  -2 12.0040 2.61367   6
  -3  -5  -2 13.2161 2.17275   5
   3  -5   2 12.6574 2.81894   6
   3   5   2 10.3859 2.23683   4
  -3   5  -2 11.2342 1.97908   4
  -3   5  -2 11.2542 1.90683   3
   3   5   2 10.7455 1.86339   5
  -3   5  -2 11.6213 2.79371   6
  -3   5  -2 11.9843 2.20704   5
  -4  -5  -2 105.871 8.39177   6
   4  -5   2 115.925 7.12229   5
  -4  -5  -2 107.000 6.89997   5
  -4  -5  -2 103.836 7.41632   4
   4  -5   2 105.599 6.54431   4
   4  -5   2 100.724 9.87924   6
  -4   5  -2 107.370 6.61760   3
  -4   5  -2 104.791 6.81938   4
   4   5   2 108.097 7.63231   4
  -4   5  -2 97.8188 8.15022   6
   4   5   2 104.239 6.41503   5
  -4   5  -2 118.693 7.22232   5
   5  -5   2 1.11082 1.07994   4
   5  -5   2 1.05561 1.33843   5
  -5  -5  -2 1.37754 1.99735   6
   5   5   2 0.39863 1.59534   4
  -5   5  -2 1.84887 1.92996   6
  -5   5  -2 -0.9250 1.17253   4
   5   5   2 4.02910 1.46705   5
  -5   5  -2 3.83329 1.51320   3
  -5   5  -2 6.73854 2.05563   5
   6  -5   2 415.743 20.4673   5
   6  -5   2 395.568 19.8443   4
  -6  -5  -2 423.696 26.9509   6
  -6   5  -2 450.838 20.2901   3
  -6   5  -2 408.585 23.2714   6
  -6   5  -2 449.106 23.4311   4
   6   5   2 435.659 19.9921   5
   6   5   2 461.125 22.4294   4
   7  -5   2 68.0056 6.38112   5
   7  -5   2 52.5961 5.89301   4
  -7  -5  -2 63.7812 8.37219   6
  -7   5  -2 59.5964 7.92658   6
  -7   5  -2 68.3119 6.11424   3
   7   5   2 64.7107 7.20937   4
   8  -5   2 155.839 11.2760   5
   8  -5   2 162.624 11.1786   4
  -8  -5  -2 174.244 15.1756   6
   8   5   2 161.451 10.7183   5
  -8   5  -2 170.634 11.0777   3
  -8   5  -2 125.286 13.0164   6
   8  -6  -2 36.2049 4.70019   4
  -8  -6   2 50.1351 7.44564   6
  -8   6   2 38.4234 7.32365   6
   8   6  -2 25.1219 4.67893   5
  -8   6   2 38.9076 4.52336   3
   7  -6  -2 165.538 11.0057   5
  -7  -6   2 169.002 13.7956   6
   7  -6  -2 167.127 9.86505   4
   7   6  -2 167.800 12.1672   4
  -7   6   2 129.110 11.8369   6
   7   6  -2 143.978 10.4345   5
  -7   6   2 166.170 9.36110   3
   6  -6  -2 58.1622 4.86680   4
  -6  -6   2 46.1576 6.30216   6
   6  -6  -2 56.2690 5.39552   5
  -6   6   2 45.7413 4.89493   4
   6   6  -2 54.2837 5.69248   5
  -6   6   2 54.7456 9.01373   6
  -6   6   2 51.8642 4.48169   3
   6   6  -2 51.0895 5.97559   4
   5  -6  -2 47.2811 4.05318   4
   5  -6  -2 60.2863 5.28049   5
  -5  -6   2 70.0616 6.95453   6
   5  -6  -2 49.6392 6.46594   6
  -5   6   2 58.0235 4.81376   4
   5   6  -2 53.1908 5.80010   4
   5   6  -2 54.6144 5.14468   5
  -5   6   2 54.1629 6.15802   6
  -4  -6   2 10.4759 2.54334   3
  -4  -6   2 4.59376 1.43407   5
  -4  -6   2 5.56865 1.90636   6
   4  -6  -2 6.49048 1.76989   5
   4  -6  -2 7.02054 1.43527   4
   4  -6  -2 4.31860 1.95650   6
  -4   6   2 5.04999 2.11314   6
  -4   6   2 5.89034 1.45559   4
  -4   6   2 6.02472 1.26053   3
   4   6  -2 5.73480 1.85500   5
  -4   6   2 7.00426 1.62951   5
   4   6  -2 8.89376 2.44024   4
   3  -6  -2 101.492 6.23324   5
  -3  -6   2 103.211 6.88733   3
  -3  -6   2 102.572 7.21954   6
   3  -6  -2 88.4842 7.38376   6
  -3  -6   2 96.1344 6.06885   5
   3   6  -2 102.000 6.93498   3
   3   6  -2 106.305 7.01612   4
  -3   6   2 95.5423 5.58767   5
  -3   6   2 88.1672 5.13088   4
  -3   6   2 100.895 5.30808   3
   3   6  -2 93.7936 6.11508   5
  -3   6   2 102.782 5.81908   5
   2  -6  -2 310.718 14.9666   6
  -2  -6   2 297.535 14.0105   3
   2  -6  -2 288.073 13.3403   5
   2  -6  -2 298.832 12.4122   3
  -2  -6   2 289.767 13.3006   5
  -2   6   2 304.223 12.5005   5
   2   6  -2 298.469 14.0571   3
  -2   6   2 307.774 12.5646   3
   2   6  -2 286.898 13.7995   4
  -2   6   2 277.099 11.9951   4
   2   6  -2 296.316 13.3791   5
   1  -6  -2 17.9064 1.98542   5
  -1  -6   2 17.5630 2.40786   3
   1  -6  -2 18.3603 1.90566   3
  -1  -6   2 15.0238 2.11717   5
   1   6  -2 20.2520 2.27504   5
   1   6  -2 18.9590 2.24142   5
  -1   6   2 16.4198 1.66426   5
   1   6  -2 19.7952 2.67219   3
  -1   6   2 16.8048 1.68636   5
  -1   6   2 22.3089 2.21608   3
   0  -6  -2 33.5119 2.85471   3
   0  -6   2 33.8683 3.00189   3
   0  -6  -2 32.8835 2.69899   5
   0  -6   2 35.8582 3.01141   5
   0  -6  -2 31.4963 2.62362   5
   0   6  -2 30.9486 2.82520   5
   0   6  -2 34.2093 2.88206   5
   0   6   2 31.8292 2.43062   4
   0   6   2 35.9995 2.33377   5
   0   6  -2 34.4601 3.28036   3
   0   6   2 29.9492 2.20989   5
   0   6   2 33.9544 2.85048   3
   1  -6   2 103.485 7.14792   6
   1  -6   2 115.290 6.69528   5
   1  -6   2 125.102 6.48985   3
  -1  -6  -2 117.778 6.19019   5
  -1  -6  -2 114.354 6.49341   3
   1   6   2 113.482 5.62349   5
   1   6   2 114.928 6.53844   3
  -1   6  -2 112.173 6.37995   3
  -1   6  -2 99.6390 5.84092   4
  -1   6  -2 123.958 6.45288   5
   1   6   2 113.809 6.28917   4
   1   6   2 113.368 5.53933   5
  -1   6  -2 122.649 6.37527   5
  -2  -6  -2 242.906 12.4419   6
   2  -6   2 239.806 12.8610   6
  -2  -6  -2 228.249 10.7659   5
  -2  -6  -2 232.401 11.5186   3
   2  -6   2 201.151 10.8258   5
   2  -6   2 229.712 10.8405   3
  -2   6  -2 222.988 12.1566   6
  -2   6  -2 242.085 11.1840   5
  -2   6  -2 235.017 10.9904   5
   2   6   2 237.627 10.4768   5
   2   6   2 223.795 10.3152   5
  -2   6  -2 232.166 10.9220   3
  -2   6  -2 238.357 10.7651   4
   3  -6   2 49.2446 4.00375   3
  -3  -6  -2 50.8530 4.58027   3
   3  -6   2 55.3936 4.46676   5
   3  -6   2 58.3430 5.72350   6
  -3  -6  -2 46.5494 4.42658   4
   3  -6   2 54.6003 4.05988   4
  -3  -6  -2 50.1025 4.04589   5
  -3  -6  -2 54.5757 5.25893   6
  -3   6  -2 46.2854 5.01951   6
  -3   6  -2 51.2645 4.11057   4
   3   6   2 51.1206 3.81154   5
  -3   6  -2 50.3523 4.05718   3
  -3   6  -2 47.8062 4.05473   5
   3   6   2 57.4612 4.86910   4
  -4  -6  -2 27.9792 3.72303   3
   4  -6   2 27.3405 4.38762   6
   4  -6   2 34.7421 3.66289   5
   4  -6   2 30.1415 3.17880   4
  -4  -6  -2 32.6258 4.49574   6
  -4  -6  -2 29.3539 3.31271   5
  -4  -6  -2 29.6216 3.90594   4
  -4   6  -2 30.1576 3.39886   4
  -4   6  -2 29.8392 3.54419   5
  -4   6  -2 30.8645 3.42278   3
   4   6   2 34.2665 4.02930   4
  -4   6  -2 31.5146 4.65943   6
   4   6   2 32.5472 3.42847   5
   5  -6   2 33.2797 4.00713   5
   5  -6   2 31.0576 3.57143   4
  -5  -6  -2 28.0505 5.17272   6
  -5   6  -2 32.5724 3.70267   3
  -5   6  -2 32.9176 3.94950   4
  -5   6  -2 30.9753 5.48574   6
   5   6   2 28.1664 4.73537   4
   5   6   2 29.7693 3.51661   5
   6  -6   2 32.0917 3.87385   4
   6  -6   2 46.2526 4.99180   5
  -6  -6  -2 33.2250 6.11187   6
  -6   6  -2 37.4480 4.19944   3
  -6   6  -2 25.6202 5.71926   6
   6   6   2 45.0614 5.44953   4
   6   6   2 38.6872 4.22852   5
   7  -6   2 91.7226 7.89566   5
  -7  -6  -2 101.643 10.9056   6
   7  -6   2 95.2870 7.23548   4
  -7   6  -2 86.2278 8.16089   3
  -7   6  -2 70.7614 9.70237   6
   7   6   2 84.4163 8.45741   4
   8  -6   2 55.2330 6.12146   4
  -8  -6  -2 47.0200 9.21734   6
  -8   6  -2 58.8794 6.30781   3
   8   6   2 52.7285 6.16687   5
   8   6   2 49.7071 7.29024   4
  -8  -7   2 58.3440 8.74057   6
   8  -7  -2 50.4354 6.33959   5
   8  -7  -2 45.7764 5.04645   4
  -8   7   2 37.9567 7.37507   6
   8   7  -2 44.4790 7.79883   4
  -8   7   2 59.6949 5.62902   3
   8   7  -2 48.7578 6.33170   5
   7  -7  -2 30.0122 4.50003   5
  -7  -7   2 25.6414 5.96776   6
   7  -7  -2 29.1383 3.59080   4
  -7   7   2 28.3622 3.95174   3
  -7   7   2 26.2039 5.70183   6
  -7   7   2 21.3940 4.82678   4
   7   7  -2 35.6441 6.06389   4
   7   7  -2 24.6643 4.33457   5
   6  -7  -2 30.8973 4.20464   5
   6  -7  -2 21.1346 2.96352   4
  -6   7   2 23.8293 3.47515   4
   6   7  -2 22.5935 4.21193   5
   6   7  -2 18.6663 4.26324   4
  -6   7   2 21.9536 3.07442   3
  -6   7   2 28.0127 5.26948   6
  -5  -7   2 156.389 11.5649   6
   5  -7  -2 157.028 9.90288   5
   5  -7  -2 169.446 8.58585   4
   5   7  -2 166.743 10.1076   5
  -5   7   2 175.411 8.69066   3
  -5   7   2 144.014 10.9023   6
   5   7  -2 168.120 11.1869   4
  -5   7   2 161.734 9.31143   5
  -5   7   2 156.114 8.96004   4
  -4  -7   2 54.4226 5.20158   3
   4  -7  -2 41.8696 5.76270   6
  -4  -7   2 49.2036 4.59232   5
  -4  -7   2 40.0142 5.02149   6
   4  -7  -2 44.1966 4.35130   5
   4  -7  -2 49.2814 3.58243   4
  -4   7   2 44.2745 5.45982   6
  -4   7   2 50.3839 4.14619   5
   4   7  -2 52.9562 4.76069   5
  -4   7   2 48.1528 3.70273   3
  -4   7   2 44.4179 3.74506   4
   4   7  -2 50.3852 5.19323   4
  -4   7   2 52.2623 4.13518   5
   3  -7  -2 649.752 26.8560   3
  -3  -7   2 694.413 29.1806   3
   3  -7  -2 664.547 30.4512   6
  -3  -7   2 713.351 30.0132   6
  -3  -7   2 682.202 28.1832   5
   3  -7  -2 701.134 28.2981   5
  -3   7   2 689.193 26.9462   3
   3   7  -2 690.911 29.3175   3
   3   7  -2 653.466 28.1476   5
  -3   7   2 690.682 27.1576   5
   3   7  -2 676.959 29.1981   4
  -3   7   2 682.264 27.4151   5
  -3   7   2 674.438 26.7828   4
   2  -7  -2 5.14935 1.21662   3
  -2  -7   2 3.45431 1.82063   3
   2  -7  -2 3.61413 1.90036   6
   2  -7  -2 6.64119 1.58069   5
  -2  -7   2 3.83698 1.28326   5
   2   7  -2 8.28714 1.93687   4
   2   7  -2 4.97455 1.61189   3
  -2   7   2 6.33713 1.10568   4
  -2   7   2 7.49528 1.49143   3
  -2   7   2 6.73450 1.45786   5
   2   7  -2 6.18805 1.44639   5
   2   7  -2 7.77272 1.68544   5
  -2   7   2 5.07278 1.20599   5
   1  -7  -2 72.0191 4.43092   3
   1  -7  -2 70.2943 4.61928   5
   1  -7  -2 70.7151 4.61467   5
  -1  -7   2 70.4471 5.17488   3
  -1  -7   2 69.8265 4.81928   5
  -1   7   2 72.8165 4.52549   3
   1   7  -2 73.0486 4.86164   5
   1   7  -2 65.9422 4.60158   5
   1   7  -2 71.6492 5.34470   3
  -1   7   2 72.5293 4.10995   5
  -1   7   2 68.6438 4.00031   5
   0  -7   2 83.9008 5.28761   5
   0  -7   2 78.1901 5.24635   3
   0  -7  -2 83.1548 4.93554   5
   0  -7  -2 81.9466 5.14860   3
   0   7  -2 78.5396 5.56838   3
   0   7  -2 76.3221 4.98480   5
   0   7   2 84.7975 4.42522   5
   0   7   2 83.4467 4.70271   4
   0   7   2 79.6328 4.35649   5
   0   7   2 76.4947 5.00726   3
   0   7  -2 81.3011 6.00475   5
   1  -7   2 183.695 10.7893   6
  -1  -7  -2 184.099 9.12835   5
   1  -7   2 199.504 9.61848   3
  -1  -7  -2 196.377 9.81938   3
   1  -7   2 195.979 9.78207   5
   1   7   2 189.710 9.42279   4
  -1   7  -2 196.299 9.42264   5
   1   7   2 188.165 8.71425   5
   1   7   2 188.603 8.62426   5
   1   7   2 194.979 9.85188   3
  -1   7  -2 172.133 9.24083   5
   2  -7   2 199.622 11.5366   6
  -2  -7  -2 174.783 9.09307   5
   2  -7   2 177.659 9.15873   3
  -2  -7  -2 196.114 10.0296   3
   2  -7   2 165.709 9.34993   5
  -2   7  -2 187.841 9.46398   5
  -2   7  -2 181.500 9.37031   3
   2   7   2 187.502 9.79348   4
  -2   7  -2 158.557 8.70350   4
   2   7   2 187.501 8.62668   5
   2   7   2 177.096 8.61069   5
  -2   7  -2 179.455 9.24662   5
   3  -7   2 56.9452 4.75712   5
  -3  -7  -2 54.9682 5.55806   6
  -3  -7  -2 55.4874 4.52902   5
  -3  -7  -2 55.5779 5.09255   3
   3  -7   2 52.8039 4.32960   3
   3   7   2 57.4698 4.32035   5
  -3   7  -2 57.9591 4.56850   3
   3   7   2 51.1104 4.85484   4
  -3   7  -2 49.4302 4.45057   5
  -3   7  -2 53.0587 5.46748   6
  -3   7  -2 57.6957 4.40629   4
   3   7   2 62.2698 4.29642   5
  -4  -7  -2 147.503 10.6959   6
  -4  -7  -2 131.832 9.25585   3
   4  -7   2 138.649 10.7074   6
   4  -7   2 144.961 8.83100   5
   4  -7   2 135.634 7.88552   4
  -4  -7  -2 149.086 8.71861   5
  -4   7  -2 151.206 8.97595   5
  -4   7  -2 131.997 9.98350   6
  -4   7  -2 139.875 8.20762   3
   4   7   2 138.336 9.35683   4
  -4   7  -2 131.836 8.24896   4
   4   7   2 143.168 7.99198   5
  -5  -7  -2 8.94726 3.31508   6
   5  -7   2 7.36447 1.97643   4
   5   7   2 5.75111 2.18012   4
  -5   7  -2 5.12257 1.95834   3
   5   7   2 5.62872 1.81945   5
  -5   7  -2 6.61898 3.25147   6
  -6  -7  -2 6.91714 2.98469   6
   6  -7   2 4.52302 2.02778   5
   6  -7   2 5.41987 1.80880   4
   6   7   2 10.0362 3.15517   4
  -6   7  -2 7.00160 2.26895   3
   6   7   2 7.67976 2.21723   5
  -6   7  -2 8.55397 3.82554   6
   7  -7   2 206.013 12.7525   5
   7  -7   2 200.900 11.8132   4
  -7  -7  -2 201.283 16.0551   6
   7   7   2 202.881 13.9534   4
  -7   7  -2 161.692 14.2439   6
  -8  -7  -2 23.0005 6.31489   6
   8  -7   2 29.8779 5.03584   5
   8  -7   2 24.7385 4.17158   4
   8   7   2 25.7653 4.36102   5
  -8   7  -2 23.5258 6.65165   6
  -8   7  -2 23.2666 4.17423   3
   8   7   2 23.0870 5.30276   4
  -7  -8   2 71.4671 9.35480   6
   7  -8  -2 81.6062 6.10898   4
   7  -8  -2 88.5364 8.00113   5
  -7   8   2 88.7322 6.39311   3
  -7   8   2 80.4964 7.20336   4
   7   8  -2 82.5436 8.85321   4
   7   8  -2 79.6084 7.55910   5
  -7   8   2 68.8470 9.34646   6
   6  -8  -2 5.55941 2.06083   5
   6  -8  -2 3.22246 1.55635   4
  -6  -8   2 5.25880 3.18274   6
   6   8  -2 0.91245 2.17281   4
  -6   8   2 3.48504 1.75096   4
  -6   8   2 7.38707 2.35781   5
   6   8  -2 6.44611 2.44509   5
  -6   8   2 6.51983 1.83692   3
  -6   8   2 3.66356 2.41655   6
  -5  -8   2 295.926 17.8478   6
   5  -8  -2 328.416 16.0009   5
  -5   8   2 287.250 14.1567   4
  -5   8   2 282.291 17.7808   6
   5   8  -2 281.118 16.6568   4
  -5   8   2 309.549 14.7508   5
   5   8  -2 306.246 15.6740   5
  -5   8   2 313.125 14.5492   5
  -5   8   2 295.704 13.8012   3
   4  -8  -2 44.3257 7.44908   6
   4  -8  -2 44.3619 4.49430   5
  -4  -8   2 49.7261 5.65410   6
  -4   8   2 51.5196 3.96519   3
  -4   8   2 51.0092 4.18981   5
  -4   8   2 49.6873 4.14360   5
   4   8  -2 47.6105 4.76190   5
  -4   8   2 43.3992 3.74127   4
   4   8  -2 50.4389 5.40981   4
   3  -8  -2 343.528 15.6403   5
   3  -8  -2 331.667 17.7589   6
  -3  -8   2 333.195 16.4560   3
  -3  -8   2 339.825 15.6154   5
   3  -8  -2 291.801 14.0280   3
  -3  -8   2 297.246 16.6114   6
  -3   8   2 325.499 14.5875   5
  -3   8   2 334.390 14.6068   5
   3   8  -2 331.040 16.4368   4
   3   8  -2 339.182 15.5539   5
  -3   8   2 335.875 14.4241   3
  -3   8   2 323.729 13.9411   4
   3   8  -2 318.060 16.3513   3
   2  -8  -2 59.2835 4.04094   3
   2  -8  -2 62.7724 4.75761   5
  -2  -8   2 64.9930 4.93061   5
  -2  -8   2 64.1379 5.53513   3
   2  -8  -2 57.1724 5.84827   6
   2   8  -2 67.9880 5.39628   4
  -2   8   2 60.7469 4.11199   5
  -2   8   2 66.8427 4.18132   5
  -2   8   2 57.2561 3.61723   4
  -2   8   2 60.1223 4.32499   3
   2   8  -2 68.6814 4.90078   5
   2   8  -2 58.7059 4.69155   5
   2   8  -2 57.8353 5.25571   3
  -1  -8   2 51.1576 4.64753   3
   1  -8  -2 53.5412 4.14345   5
   1  -8  -2 57.7646 4.30601   5
   1  -8  -2 51.0446 3.90790   3
  -1  -8   2 59.2530 4.51207   5
  -1   8   2 55.3100 3.58838   5
  -1   8   2 53.8520 4.06778   3
   1   8  -2 50.9234 4.63059   3
   1   8  -2 55.2851 4.26309   5
  -1   8   2 50.2095 3.45539   5
   1   8  -2 59.5031 4.33129   5
   0  -8  -2 206.782 10.1829   5
   0  -8   2 185.211 10.0109   5
   0  -8  -2 191.809 9.96164   3
   0  -8   2 187.942 10.2020   3
   0  -8  -2 215.057 10.0068   5
   0   8   2 201.591 9.53192   4
   0   8  -2 211.594 10.1932   5
   0   8  -2 194.552 10.5812   3
   0   8  -2 220.267 10.2104   5
   0   8   2 199.534 9.09140   5
   0   8   2 201.180 11.4338   3
  -1  -8  -2 70.8554 4.91755   5
   1  -8   2 68.5757 5.11348   3
   1  -8   2 74.5604 5.35809   5
   1  -8   2 70.3058 6.21975   6
  -1  -8  -2 73.8606 5.48120   3
   1   8   2 72.7378 4.33298   5
   1   8   2 70.2010 5.05578   4
   1   8   2 72.6921 4.38965   5
  -1   8  -2 75.6817 5.14242   5
  -1   8  -2 75.6950 5.14474   5
   1   8   2 78.4113 5.42826   3
  -1   8  -2 74.3187 5.46033   3
   2  -8   2 238.634 11.6309   3
  -2  -8  -2 235.352 12.3293   3
   2  -8   2 248.785 14.4787   6
   2  -8   2 234.565 12.0301   5
  -2  -8  -2 240.689 11.6104   5
  -2   8  -2 234.697 11.5725   5
   2   8   2 240.560 12.1620   4
   2   8   2 240.192 10.7846   5
  -2   8  -2 229.352 11.2007   4
   2   8   2 223.412 10.7662   5
  -2   8  -2 238.817 11.7980   3
  -2   8  -2 237.801 11.7832   5
   3  -8   2 48.5069 5.84918   6
   3  -8   2 51.3451 4.35668   3
  -3  -8  -2 60.9910 5.96761   6
   3  -8   2 48.7725 4.61737   5
  -3  -8  -2 55.7047 5.36531   3
   3   8   2 50.5364 4.02432   5
  -3   8  -2 59.5066 4.75374   3
  -3   8  -2 53.0547 4.67484   5
  -3   8  -2 59.3813 4.84305   5
   3   8   2 56.5242 5.26517   4
  -3   8  -2 49.4744 4.25990   4
   4  -8   2 221.457 12.4134   5
  -4  -8  -2 246.028 14.8349   6
  -4   8  -2 240.489 12.8587   5
   4   8   2 249.760 13.6755   4
  -4   8  -2 195.348 13.5421   6
  -4   8  -2 231.683 12.0373   4
   4   8   2 237.392 11.6023   5
   4   8   2 226.894 11.4705   5
  -4   8  -2 223.186 11.8193   3
   5  -8   2 62.9124 5.37929   4
   5  -8   2 69.3539 6.18657   5
  -5  -8  -2 89.0177 8.80135   6
  -5   8  -2 61.0737 7.28792   6
  -5   8  -2 68.9930 5.93238   4
  -5   8  -2 70.4184 5.80940   3
   5   8   2 69.2057 6.94463   4
   5   8   2 69.8814 5.51323   5
   6  -8   2 159.513 9.64524   4
   6  -8   2 163.528 10.7469   5
  -6  -8  -2 168.431 13.6933   6
  -6   8  -2 130.050 11.6159   6
   6   8   2 189.119 12.5293   4
   6   8   2 157.883 9.74341   5
  -6   8  -2 156.266 9.82502   3
  -7  -8  -2 53.3465 8.23083   6
   7  -8   2 77.1616 7.23568   5
   7  -8   2 76.0238 6.37013   4
  -7   8  -2 59.4406 6.05339   3
  -7   8  -2 61.5913 8.18598   6
   7   8   2 71.8359 8.12682   4
  -7  -9   2 35.3241 7.17853   6
   7   9  -2 54.2611 5.99737   5
  -7   9   2 40.6109 5.44351   4
  -7   9   2 44.3117 5.07166   5
  -7   9   2 27.5778 6.63817   6
  -7   9   2 39.1333 4.59596   3
   6  -9  -2 11.4363 2.83646   5
  -6  -9   2 16.7438 4.39373   6
   6   9  -2 16.4998 4.26860   4
  -6   9   2 16.1028 3.01810   4
  -6   9   2 18.5950 3.39188   5
   6   9  -2 11.0038 3.01701   5
  -6   9   2 7.48434 2.36039   3
   5  -9  -2 248.588 14.0742   5
  -5  -9   2 278.808 19.6346   6
  -5   9   2 264.998 12.8169   5
  -5   9   2 250.205 12.9482   5
   5   9  -2 264.696 15.4724   4
  -5   9   2 253.790 12.3821   3
  -5   9   2 239.456 12.4237   4
  -4  -9   2 10.6924 3.20018   6
   4  -9  -2 7.18816 2.17712   5
   4   9  -2 12.8233 2.79308   5
  -4   9   2 5.14261 1.78817   3
  -4   9   2 5.38362 1.83414   5
   4   9  -2 9.08039 2.76804   4
  -4   9   2 6.99515 1.57960   4
  -4   9   2 7.04725 1.69534   5
   3  -9  -2 17.8850 3.12679   5
   3  -9  -2 15.5107 2.32021   3
   3  -9  -2 25.5900 4.94524   6
   3   9  -2 21.6103 3.13155   5
  -3   9   2 19.3076 3.08250   3
   3   9  -2 14.4890 2.77974   5
  -3   9   2 21.8577 2.19872   4
  -3   9   2 17.4027 2.55044   5
   3   9  -2 17.2203 3.49513   4
   3   9  -2 14.7110 3.08897   3
   2  -9  -2 1.83469 1.31632   5
   2  -9  -2 1.06514 0.83347   3
   2  -9  -2 -1.1936 1.39251   6
  -2  -9   2 -0.3905 0.97375   5
  -2  -9   2 0.29978 1.90666   3
   2   9  -2 0.96963 1.47834   5
  -2   9   2 1.09527 1.02163   5
   2   9  -2 3.58415 1.50490   4
  -2   9   2 1.74322 1.49387   3
  -2   9   2 0.87771 0.91507   5
   2   9  -2 0.72605 1.19586   5
  -2   9   2 1.24132 0.73878   4
   2   9  -2 0.20802 1.20566   3
   1  -9  -2 1.36437 1.11223   5
   1  -9  -2 1.49294 1.66795   6
   1  -9  -2 2.36290 1.23281   5
   1  -9  -2 1.27666 1.12416   3
  -1  -9   2 3.08211 1.56858   3
  -1   9   2 1.80767 0.93166   5
   1   9  -2 3.03113 1.73603   3
   1   9  -2 2.32257 1.36650   5
  -1   9   2 1.43832 0.99326   5
  -1   9   2 0.86642 1.24120   3
   1   9  -2 3.22859 1.29471   5
   0  -9  -2 56.7775 4.60800   5
   0  -9  -2 60.4430 4.85295   5
   0  -9   2 65.4098 5.05926   3
   0  -9  -2 59.1770 4.68517   3
   0  -9   2 53.4791 5.48064   5
   0   9  -2 60.2516 5.19691   3
   0   9   2 64.1428 4.02451   5
   0   9   2 63.4369 4.39540   4
   0   9   2 67.5904 5.08487   3
   0   9   2 65.8393 4.05216   5
   0   9  -2 63.0857 4.75482   5
   0   9  -2 62.4457 4.77496   5
  -1  -9  -2 93.5457 6.43860   3
   1  -9   2 92.5946 6.50632   5
   1  -9   2 97.7384 8.03122   6
   1  -9   2 88.5326 6.15126   3
  -1  -9  -2 87.4000 5.93346   5
  -1   9  -2 97.6494 6.19787   5
   1   9   2 94.9999 5.33061   5
   1   9   2 92.5547 5.21982   5
  -1   9  -2 84.9584 5.94868   5
  -1   9  -2 98.8150 6.80092   3
   1   9   2 87.0535 6.02427   4
   1   9   2 90.7062 6.37884   3
   2  -9   2 6.46207 2.03954   5
   2  -9   2 9.26908 2.89740   6
  -2  -9  -2 4.72073 2.17055   3
   2  -9   2 5.04773 1.60841   3
   2   9   2 6.38316 1.46501   5
   2   9   2 5.73199 1.75907   4
  -2   9  -2 11.6049 3.78040   5
  -2   9  -2 4.00912 1.70962   5
   2   9   2 6.73803 1.47001   5
  -2   9  -2 5.54064 1.50056   4
  -2   9  -2 5.08568 1.94866   3
  -3  -9  -2 29.7794 3.62635   5
   3  -9   2 31.1789 3.51702   3
  -3  -9  -2 36.2958 4.96835   6
  -3  -9  -2 32.4929 5.50035   3
   3  -9   2 36.3357 4.01804   5
  -3   9  -2 34.8731 3.48165   4
  -3   9  -2 31.4487 3.78724   5
  -3   9  -2 31.7552 3.85376   5
   3   9   2 33.3588 3.30435   5
   3   9   2 26.2270 3.08574   5
   3   9   2 27.7975 3.85555   4
  -3   9  -2 31.0118 3.70397   3
  -4  -9  -2 167.057 14.0141   6
  -4   9  -2 178.475 10.3172   5
  -4   9  -2 174.161 10.0979   3
   4   9   2 182.471 11.5343   4
   4   9   2 186.991 9.76925   5
   4   9   2 163.155 10.4073   5
  -4   9  -2 187.984 10.2804   4
  -5  -9  -2 4.81610 2.82523   6
   5  -9   2 7.43441 2.31491   5
  -5   9  -2 2.01245 1.98143   4
  -5   9  -2 7.51914 3.24188   6
   5   9   2 3.84086 2.35101   4
  -5   9  -2 2.97696 2.13399   5
   5   9   2 5.19841 1.83994   5
   5   9   2 4.41271 1.91910   5
  -5   9  -2 6.03023 2.18108   3
   6  -9   2 15.2616 3.47760   5
  -6  -9  -2 19.1998 4.87279   6
   6   9   2 19.2141 4.62392   4
   6   9   2 25.7571 3.73849   5
  -6   9  -2 20.8857 3.92521   3
  -6   9  -2 13.6708 4.41562   6
  -7  -9  -2 39.3010 7.40383   6
  -7   9  -2 30.2083 4.77479   3
  -7 -10   2 14.5661 4.39380   6
   7 -10  -2 8.13345 2.96813   5
   7  10  -2 7.01649 3.65461   4
  -7  10   2 8.43432 2.89884   5
   7  10  -2 8.09407 3.30946   5
  -7  10   2 14.2494 3.15408   3
   6 -10  -2 60.6334 6.26207   5
  -6 -10   2 49.5163 7.20415   6
   6  10  -2 54.6404 7.04429   4
  -6  10   2 59.3821 5.16363   3
  -6  10   2 61.9664 5.55340   5
  -6  10   2 57.2523 5.57542   4
   6  10  -2 57.4100 6.11040   5
  -5 -10   2 51.2598 6.87303   6
   5 -10  -2 38.5025 4.87064   5
  -5  10   2 43.7091 4.06711   4
  -5  10   2 42.6989 4.44516   3
  -5  10   2 52.7287 4.84658   5
   5  10  -2 37.9609 5.58104   4
  -5  10   2 40.2656 4.23943   5
  -4 -10   2 1.92193 2.30638   6
   4 -10  -2 3.31736 1.71906   5
  -4  10   2 3.90140 1.32772   4
   4  10  -2 0.02765 1.75979   5
  -4  10   2 1.24568 1.65188   5
   4  10  -2 2.08043 2.28937   4
  -4  10   2 3.79708 1.92499   5
  -4  10   2 0.44901 1.20213   3
   3 -10  -2 252.835 13.0885   5
   3 -10  -2 245.906 11.6726   3
  -3  10   2 196.115 12.0632   5
  -3  10   2 239.753 11.8926   3
   3  10  -2 252.618 12.8210   5
   3  10  -2 232.586 13.5554   4
  -3  10   2 243.619 11.6165   5
   3  10  -2 254.056 14.1761   5
   3  10  -2 245.922 13.9738   3
   2 -10  -2 37.5275 3.52313   3
   2 -10  -2 39.8846 4.04866   5
  -2 -10   2 33.7470 5.30520   3
  -2  10   2 38.6394 3.23999   5
  -2  10   2 37.0659 3.84885   3
   2  10  -2 33.0746 3.86125   5
   2  10  -2 35.3550 3.91324   5
   2  10  -2 41.0587 4.59986   3
  -2  10   2 37.6699 3.33095   5
   2  10  -2 37.8910 4.31137   4
  -1 -10   2 312.022 15.5732   3
   1 -10  -2 307.999 16.8796   6
   1 -10  -2 319.516 15.2957   5
  -1 -10   2 301.681 15.0452   5
   1 -10  -2 306.726 14.5007   3
   1 -10  -2 322.497 16.6874   5
   1  10  -2 330.945 15.2928   5
   1  10  -2 311.534 15.8826   3
  -1  10   2 312.861 13.7226   5
   1  10  -2 313.344 14.8649   5
  -1  10   2 306.135 13.5737   5
  -1  10   2 321.106 14.9113   3
   0 -10  -2 136.750 8.27578   3
   0 -10   2 145.713 8.63812   5
   0 -10  -2 149.005 8.77272   5
   0  10   2 147.983 8.59236   3
   0  10   2 138.806 7.19131   5
   0  10  -2 136.750 8.99233   3
   0  10  -2 137.843 8.15550   5
   0  10   2 140.605 7.22118   5
   1 -10   2 106.059 7.44753   5
   1 -10   2 111.652 7.13483   3
   1 -10   2 101.830 8.50234   6
  -1 -10  -2 103.818 6.85231   5
   1  10   2 108.209 5.94452   5
  -1  10  -2 108.936 7.52108   3
  -1  10  -2 100.763 6.76124   5
   1  10   2 103.778 7.35214   3
  -1  10  -2 111.972 6.91477   5
   1  10   2 95.8785 5.80187   5
   1  10   2 99.1441 6.81415   4
   2 -10   2 131.141 8.12736   3
   2 -10   2 140.305 8.78334   5
  -2 -10  -2 130.260 8.12232   5
  -2 -10  -2 148.667 9.23796   3
  -2  10  -2 131.664 7.76968   4
   2  10   2 131.729 7.56778   5
   2  10   2 136.879 7.25415   5
  -2  10  -2 133.827 8.20079   5
  -2  10  -2 134.749 8.55324   3
  -2  10  -2 127.277 8.16357   5
   2  10   2 127.314 8.42386   4
  -3 -10  -2 58.6209 6.53678   6
   3 -10   2 49.5183 6.02332   5
  -3  10  -2 61.8847 5.42834   5
   3  10   2 68.8709 4.86836   5
  -3  10  -2 58.1801 5.32660   3
   3  10   2 70.0300 4.79948   5
  -3  10  -2 56.2112 4.79265   4
   3  10   2 65.5373 6.08067   4
   4 -10   2 49.7323 4.83597   3
   4 -10   2 47.7021 5.14040   5
  -4 -10  -2 47.0066 6.23601   6
   4  10   2 47.0593 4.30550   5
  -4  10  -2 45.0775 4.78324   3
  -4  10  -2 45.9445 4.73342   4
  -4  10  -2 52.8710 5.09613   5
   5 -10   2 26.4181 4.27090   5
  -5 -10  -2 13.6258 4.20441   6
  -5  10  -2 21.7224 3.61873   3
   5  10   2 24.2847 3.62891   5
   5  10   2 22.8237 4.91505   4
  -5  10  -2 20.2251 3.57649   4
  -6 -10  -2 120.405 11.6709   6
   6 -10   2 109.657 8.90942   5
  -6  10  -2 101.325 10.3920   6
  -6  10  -2 107.914 8.34260   3
  -6  10  -2 105.015 8.67432   5
   6  10   2 118.546 9.95921   4
   6  10   2 119.534 8.18614   5
   7 -10   2 5.63926 2.51132   5
  -7 -10  -2 13.0529 4.17318   6
   7  10   2 2.32544 3.74570   4
  -7  10  -2 13.8250 3.81757   5
  -7  10  -2 12.3117 4.66178   6
  -7  10  -2 11.8451 3.42533   3
  -6 -11   2 -1.9910 2.85706   6
   6 -11  -2 1.24470 1.98368   5
   6  11  -2 -2.8931 2.10676   5
  -6  11   2 -0.1110 2.40286   4
   6  11  -2 6.89886 3.31098   4
  -6  11   2 4.90749 2.06210   5
  -6  11   2 1.81137 1.97924   3
   5 -11  -2 46.3736 5.33572   5
  -5 -11   2 38.8860 5.89989   6
  -5  11   2 41.4951 4.11444   4
  -5  11   2 34.4486 5.29193   5
   5  11  -2 45.4820 5.26865   5
  -5  11   2 40.4158 4.56445   3
   5  11  -2 39.8878 6.57262   4
  -5  11   2 49.3012 4.59599   5
   4 -11  -2 45.8628 5.11462   5
  -4 -11   2 50.4186 6.56460   6
  -4  11   2 49.2053 4.25421   5
   4  11  -2 44.8693 5.47346   4
  -4  11   2 41.5662 3.78973   4
   4  11  -2 46.9742 5.03735   5
  -4  11   2 50.4102 4.73879   3
   3 -11  -2 81.5753 6.63931   5
   3 -11  -2 82.1036 5.88207   3
   3  11  -2 89.8173 7.71134   4
  -3  11   2 91.0447 5.84301   5
  -3  11   2 89.1636 5.73440   5
   3  11  -2 84.2881 7.46602   3
   3  11  -2 89.1118 6.71830   5
  -3  11   2 88.4591 5.40656   4
  -3  11   2 83.5915 6.26680   3
   2 -11  -2 9.22091 2.11069   3
   2 -11  -2 8.63779 2.35995   5
  -2  11   2 7.05757 1.55232   4
   2  11  -2 8.36075 2.54385   5
   2  11  -2 7.70709 2.12129   5
  -2  11   2 7.79646 2.01031   3
   2  11  -2 9.83492 2.73602   3
   2  11  -2 8.98807 2.63331   4
  -2  11   2 8.68300 1.77746   5
  -2  11   2 5.61987 1.62088   5
   1 -11  -2 -2.1868 1.00286   3
   1 -11  -2 2.30039 1.25933   5
   1  11  -2 -1.8611 1.37586   5
   1  11  -2 -1.1120 1.13730   5
  -1  11   2 -0.7710 1.03106   5
  -1  11   2 -0.0383 1.08763   3
   1  11  -2 0.22141 1.56242   3
  -1  11   2 0.07119 1.01490   5
   0 -11  -2 0.78879 1.09141   5
   0 -11   2 2.15205 1.65414   3
   0 -11  -2 -1.4529 1.42317   5
   0  11  -2 3.19968 1.53175   5
   0  11  -2 -0.5460 1.25943   5
   0  11  -2 3.66418 2.08206   3
   0  11   2 1.82343 1.10305   5
   0  11   2 -0.7316 1.33503   3
   0  11   2 3.51964 1.28989   5
   0  11   2 1.43653 1.25955   4
  -1 -11  -2 -0.8259 1.25996   3
   1 -11   2 -0.1822 1.32331   3
   1 -11   2 -1.2797 0.91847   5
  -1  11  -2 -1.7962 1.32000   3
  -1  11  -2 -1.0586 1.32219   5
   1  11   2 -1.2171 1.03892   5
   1  11   2 1.47568 1.29034   3
   1  11   2 -2.0809 1.15282   4
  -1  11  -2 1.59387 1.48308   5
   1  11   2 -1.8414 0.92748   5
   2 -11   2 -1.3784 1.15106   3
  -2  11  -2 0.99221 1.73479   3
  -2  11  -2 2.37166 1.84953   5
   2  11   2 2.39118 1.66888   4
  -2  11  -2 2.56424 1.85854   5
  -2  11  -2 1.30592 1.27793   4
   2  11   2 1.74694 1.29729   5
   3 -11   2 36.9230 4.67612   5
   3 -11   2 29.3606 4.20965   3
  -3 -11  -2 43.4630 5.95758   6
  -3  11  -2 31.1716 4.23488   3
   3  11   2 33.8544 4.66641   4
  -3  11  -2 34.4687 4.12400   5
  -3  11  -2 35.6857 3.94438   4
   3  11   2 39.4617 3.76673   5
   3  11   2 33.8473 3.54310   5
   4 -11   2 63.3025 6.36904   5
  -4 -11  -2 73.4974 8.05648   6
   4 -11   2 63.1382 6.17695   3
  -4  11  -2 81.3287 6.30523   4
   4  11   2 74.2962 5.57930   5
  -4  11  -2 66.9429 6.15371   3
   4  11   2 74.8139 7.20140   4
  -4  11  -2 65.3523 6.17739   5
   4  11   2 68.9366 5.49171   5
   5 -11   2 4.36380 2.15407   5
  -5 -11  -2 5.55276 2.38962   6
  -5  11  -2 1.26780 2.12083   4
   5  11   2 5.11801 2.72020   4
  -5  11  -2 -0.5270 1.79967   3
   5  11   2 3.87461 2.02676   5
  -5  11  -2 5.87432 2.15481   5
  -6 -11  -2 214.133 16.7305   6
   6  11   2 183.219 13.3882   4
  -6  11  -2 181.639 11.5056   3
   6  11   2 176.790 10.9108   5
  -6 -12   2 -1.5737 2.49607   6
   6 -12  -2 3.14495 2.26938   5
  -6  12   2 6.94241 2.76767   5
  -6  12   2 5.28747 2.52751   3
   6  12  -2 1.75306 2.91932   5
   6  12  -2 -0.2255 2.87771   4
   5 -12  -2 59.4354 6.28450   5
  -5 -12   2 69.9608 8.35666   6
   5  12  -2 71.9462 7.51709   4
  -5  12   2 58.4648 5.72433   3
  -5  12   2 57.7893 4.92882   4
  -5  12   2 58.7996 5.29189   5
   5  12  -2 64.7415 6.21794   5
   4 -12  -2 26.6742 3.52013   3
  -4 -12   2 19.7214 4.86189   6
   4 -12  -2 17.1012 3.42401   5
  -4  12   2 30.3503 3.41204   5
   4  12  -2 26.4688 5.13052   4
   4  12  -2 25.6851 4.91939   5
  -4  12   2 27.3017 3.97779   3
  -4  12   2 27.5146 3.28013   4
   3 -12  -2 152.198 9.28766   3
   3 -12  -2 172.409 10.9246   5
   3  12  -2 181.306 11.9230   4
  -3  12   2 167.570 9.09636   5
  -3  12   2 156.922 9.00753   5
   3  12  -2 167.391 10.3245   5
  -3  12   2 181.380 10.0020   3
  -3  12   2 187.541 9.04771   4
   3  12  -2 180.129 12.0937   3
   2 -12  -2 8.61691 2.07737   3
   2 -12  -2 3.89252 1.95075   5
   2  12  -2 9.41714 2.28807   5
  -2  12   2 4.16465 1.83319   5
   2  12  -2 6.79158 2.38595   3
   2  12  -2 6.85969 2.40038   4
  -2  12   2 12.6497 2.55075   3
  -2  12   2 9.04293 1.85999   4
   1 -12  -2 361.904 17.2311   3
   1 -12  -2 382.314 18.7700   5
   1  12  -2 378.590 18.3366   4
  -1  12   2 358.180 15.8179   5
  -1  12   2 374.566 15.9961   5
  -1  12   2 359.537 17.6412   3
   1  12  -2 364.647 18.8838   3
   1  12  -2 364.560 17.3519   5
   0 -12  -2 31.8422 4.08783   3
   0  12  -2 36.7638 4.98113   3
   0  12   2 34.7477 4.43378   3
   0  12   2 32.4859 3.13169   5
   0  12   2 31.8262 3.84429   4
   0  12   2 37.8194 3.30124   5
   0  12  -2 37.9894 4.09620   5
   1  12   2 145.131 7.61965   5
  -1  12  -2 143.754 9.52495   3
   1  12   2 150.702 9.18266   4
   1  12   2 146.337 7.76713   5
   1  12   2 138.770 9.40432   3
  -1  12  -2 135.406 8.54765   5
   2 -12   2 20.6838 3.71330   5
  -2  12  -2 26.2971 3.37537   4
   2  12   2 24.4580 3.40947   4
   2  12   2 14.8245 2.51843   5
  -2  12  -2 23.9465 3.52533   5
  -2  12  -2 18.0808 3.61304   3
   3 -12   2 73.1599 6.62486   5
  -3 -12  -2 89.1767 8.52260   6
  -3  12  -2 84.7342 6.91966   4
   3  12   2 70.3461 5.34606   5
   3  12   2 61.2388 5.79491   5
  -3  12  -2 67.9388 6.07145   5
  -3  12  -2 67.6679 6.34512   3
  -4 -12  -2 31.4032 5.94462   6
   4 -12   2 38.3342 4.85883   5
  -4  12  -2 32.4339 5.37687   5
  -4  12  -2 34.1512 4.34566   4
   4  12   2 35.7226 5.80485   4
   4  12   2 38.4501 4.14524   5
  -4  12  -2 37.2335 4.93503   3
   4  12   2 32.5969 3.82003   5
   5 -12   2 45.1861 5.58269   5
  -5 -12  -2 50.4360 7.73095   6
  -5  12  -2 39.6842 9.06743   3
  -5  12  -2 40.0725 5.09687   5
   5  12   2 32.5692 5.92811   4
   5  12   2 40.2235 4.60764   5
  -6 -12  -2 4.54768 2.84951   6
   6 -12   2 -1.3690 2.07231   5
   6  12   2 2.46699 2.41138   5
   6  12   2 -0.4221 1.97517   4
  -6  12  -2 -2.9627 2.36996   5
  -6  12  -2 1.90785 2.52267   3
   5 -13  -2 4.63088 2.54054   5
  -5 -13   2 6.05633 3.92394   6
  -5  13   2 3.15632 2.14419   3
  -5  13   2 -3.2026 2.19492   5
   5  13  -2 1.71450 2.47001   5
   5  13  -2 0.94421 2.19284   4
   4 -13  -2 3.40102 1.94858   3
   4 -13  -2 4.42411 2.05306   5
  -4 -13   2 0.15405 1.74512   6
   4  13  -2 5.29437 3.15950   4
   4  13  -2 -4.7515 2.16354   5
  -4  13   2 1.63652 1.60852   5
  -4  13   2 0.25049 1.54710   4
  -4  13   2 -0.2375 1.55317   3
   3 -13  -2 5.57593 2.40257   5
   3 -13  -2 9.92309 2.64699   3
   3  13  -2 6.49245 2.59401   5
  -3  13   2 10.5880 2.12128   4
   3  13  -2 4.10740 2.89161   4
  -3  13   2 11.4458 2.68511   3
  -3  13   2 14.7295 2.57704   5
   2 -13  -2 18.4378 3.19078   3
   2 -13  -2 14.9729 3.30010   5
   2  13  -2 15.1313 3.11010   5
   2  13  -2 15.3554 3.80651   4
  -2  13   2 23.8349 3.23444   5
   2  13  -2 17.5596 4.25665   3
  -2  13   2 22.9330 2.87235   4
  -2  13   2 19.1701 3.61417   3
   1 -13  -2 1.26584 1.92898   3
   1 -13  -2 0.19777 1.66961   5
   1  13  -2 0.90606 1.89983   3
   1  13  -2 -1.1809 1.54275   5
  -1  13   2 -0.9496 1.19860   4
  -1  13   2 -0.4982 1.22700   5
  -1  13   2 -1.4003 1.09085   4
  -1  13   2 -0.3114 1.36747   3
   1  13  -2 1.10210 1.31688   4
   0  13  -2 13.3882 3.46443   3
   0  13   2 15.5401 3.28714   3
   0  13   2 10.9168 2.05234   5
   0  13  -2 16.7501 3.10988   5
   0  13   2 15.6576 2.91462   4
   0  13   2 15.2535 2.30386   5
  -1  13  -2 17.7947 3.01449   4
   1  13   2 18.3883 2.74442   5
  -1  13  -2 17.2309 3.67245   3
  -1  13  -2 20.3583 3.46681   5
   1  13   2 14.4291 3.08299   4
   1  13   2 13.6535 2.45961   5
   2 -13   2 1.83472 1.55277   5
  -2  13  -2 -0.5887 1.62374   3
  -2  13  -2 1.39451 1.73485   4
   2  13   2 0.25236 1.53902   4
   2  13   2 1.62204 1.81057   5
  -2  13  -2 1.78432 1.70555   5
   3 -13   2 28.5524 4.26218   5
  -3 -13  -2 37.2292 5.69030   6
  -3  13  -2 42.7317 5.30919   3
   3  13   2 30.5246 5.10313   4
  -3  13  -2 33.0612 4.43279   4
   3  13   2 30.4384 3.68957   5
  -3  13  -2 22.0475 3.94832   5
   4 -13   2 3.49861 2.35634   5
  -4 -13  -2 10.5277 4.05965   6
  -4  13  -2 10.7969 2.79530   4
   4  13   2 9.76767 2.29261   5
  -4  13  -2 14.2544 3.13597   5
   4  13   2 11.0594 2.86467   5
   4  13   2 10.8765 3.38765   4
  -4  13  -2 7.91096 2.76843   3
  -5 -13  -2 9.14062 3.96559   6
   5 -13   2 8.99364 3.40372   5
   5  13   2 10.1584 3.35247   4
  -5  13  -2 4.49055 2.81033   3
  -5  13  -2 6.66935 3.34778   5
   5  13   2 4.89157 2.49514   5
  -4 -14   2 42.2041 6.69759   6
   4  14  -2 45.0817 6.91518   4
  -4  14   2 48.6417 5.61638   3
   4  14  -2 49.3074 5.82199   5
  -4  14   2 53.1421 5.99930   5
   3 -14  -2 43.9243 5.42464   5
  -3  14   2 36.9435 4.11100   5
  -3  14   2 31.5312 3.90809   4
  -3  14   2 41.1879 5.08943   3
   3  14  -2 42.3990 5.52269   4
   2 -14  -2 73.2438 6.71811   5
   2  14  -2 57.5378 6.90625   3
  -2  14   2 64.4941 4.98635   4
  -2  14   2 71.4681 5.19472   5
  -2  14   2 65.4263 4.70020   5
  -2  14   2 63.5640 5.11638   4
   2  14  -2 65.0936 6.67979   4
  -2  14   2 68.1118 6.21006   3
   2  14  -2 61.2660 5.97456   5
   1 -14  -2 60.6981 6.05413   5
  -1  14   2 45.4481 5.49642   3
   1  14  -2 47.2929 5.86678   3
  -1  14   2 54.9496 4.04150   5
  -1  14   2 52.5235 4.97224   4
   1  14  -2 57.6116 6.90902   4
  -1  14   2 49.6377 4.60553   4
  -1  14   2 50.7141 4.36761   5
   0  14  -2 112.358 9.42123   3
   0  14   2 123.077 6.84080   5
   0  14   2 124.845 6.83772   5
   0  14   2 125.767 9.54262   3
   0  14   2 131.175 8.51323   4
   0  14  -2 128.206 8.42829   5
   1  14   2 91.5868 5.60428   5
  -1  14  -2 83.9467 7.49776   3
   1  14   2 94.1729 5.74562   5
   1  14   2 86.0022 7.24133   4
  -1  14  -2 91.5935 6.93815   5
   2 -14   2 59.8415 6.36684   5
  -2  14  -2 52.9579 6.15634   3
   2  14   2 56.9527 7.30397   4
  -2  14  -2 49.7827 5.38514   5
   2  14   2 55.1133 4.66432   5
  -2  14  -2 57.4621 6.51600   4
   3 -14   2 125.713 9.45454   5
  -3 -14  -2 108.876 10.5196   6
  -3  14  -2 101.940 8.51419   3
   3  14   2 101.134 8.89958   4
   4 -14   2 32.5892 4.90332   5
  -4 -14  -2 28.3786 7.09066   6
  -4  14  -2 37.2768 5.31545   5
  -4  14  -2 38.7425 5.75313   3
   4  14   2 41.8715 5.50951   5
   4  14   2 41.6436 5.64538   4
   3 -15  -2 1.14079 2.29098   5
   3  15  -2 7.20593 2.70426   4
  -3  15   2 1.69409 1.67316   5
  -3  15   2 1.60887 1.65644   4
   3  15  -2 -0.2716 2.37446   5
  -3  15   2 -0.9550 1.88026   3
   2 -15  -2 3.62395 2.19239   5
  -2  15   2 1.83073 1.89208   4
   2  15  -2 2.99161 2.77466   4
  -2  15   2 0.53964 2.45851   5
  -2  15   2 0.24147 1.47059   5
  -2  15   2 -7.9760 3.78848   3
  -2  15   2 1.97041 1.68283   4
   2  15  -2 -3.1932 2.35722   3
  -1  15   2 3.35271 2.24054   4
  -1  15   2 6.56606 2.52107   3
   1  15  -2 -0.1146 2.01298   5
  -1  15   2 4.97953 1.63947   5
   1  15  -2 1.20666 1.85759   4
   1  15  -2 1.47709 2.02098   3
  -1  15   2 3.34367 1.83279   5
   0  15   2 -0.2481 1.74141   4
   0  15   2 0.96456 1.81617   3
   0  15  -2 -1.5256 1.86612   3
   0  15   2 -1.5684 1.38110   5
   0  15   2 0.32519 1.76155   5
   0  15  -2 -1.8426 1.80008   5
   0  15  -2 1.53760 2.08435   4
   1  15   2 1.67344 1.57821   5
   1  15   2 2.05680 1.83711   5
   1  15   2 -1.8852 1.54588   4
  -1  15  -2 1.49354 1.78614   3
  -1  15  -2 1.13462 2.16334   5
   2  15   2 -0.8786 1.86655   4
  -2  15  -2 -1.1627 1.85146   3
   2  15   2 0.70697 1.61455   5
  -3 -15  -2 2.46470 2.04599   6
   3 -15   2 -0.3125 1.99510   5
  -3  15  -2 2.80282 2.55257   5
   3  15   2 4.82374 2.59271   4
   3  15   2 0.42044 2.94397   5
  -3  15  -2 0.73906 2.37903   3
   2 -16  -2 115.880 9.79303   5
   2  16  -2 133.025 13.0675   3
   2  16  -2 128.400 10.3443   4
  -2  16   2 110.207 8.05548   4
  -2  16   2 124.497 9.61089   3
   1  16  -2 78.9013 8.15694   3
   1  16  -2 76.3921 7.81511   4
  -1  16   2 79.6259 7.00667   4
  -1  16   2 86.3561 7.75057   3
   0  16  -2 44.0833 6.62635   3
   0  16   2 49.7989 5.80745   4
   0  16  -2 53.8192 6.85789   5
  -1  16  -2 64.2655 7.55754   3
  -9   0   3 1.27976 3.54990   6
   9   0  -3 -3.5394 2.45775   4
   9   0  -3 -5.0082 2.18970   5
  -8   0   3 1.88100 2.66377   6
   8   0  -3 -2.0795 1.19867   4
   8   0  -3 -2.9158 2.01137   5
  -7   0   3 0.23931 1.92731   3
   7   0  -3 -0.5250 1.46532   4
  -7   0   3 -0.1969 1.86167   6
  -6   0   3 -2.3021 1.29494   5
  -6   0   3 0.05249 1.36371   3
   6   0  -3 1.21087 2.16302   6
   6   0  -3 0.14124 1.31906   5
  -6   0   3 0.82597 1.67210   6
  -6   0   3 0.95379 1.61202   4
   6   0  -3 0.30032 1.06330   4
   5   0  -3 -0.2995 0.89455   4
   5   0  -3 1.38651 1.22279   5
  -5   0   3 -1.4532 0.89420   5
  -5   0   3 0.57380 1.29468   4
  -5   0   3 1.24449 1.05384   3
   5   0  -3 -1.1751 1.04635   6
  -5   0   3 -0.1395 0.92207   6
   4   0  -3 -0.3327 0.95380   6
   4   0  -3 2.23291 1.08010   5
  -4   0   3 1.79931 1.00491   5
  -4   0   3 6.95962 1.57951   3
  -4   0   3 0.61201 1.47694   6
   3   0  -3 -0.0345 0.67820   6
  -3   0   3 0.24533 0.51824   3
   3   0  -3 1.03752 0.73599   5
  -3   0   3 0.48151 0.63421   5
  -3   0   3 0.25431 0.52498   4
   3   0  -3 0.47982 0.59137   4
  -3   0   3 -0.9862 0.62084   6
   2   0  -3 -0.1394 0.47244   4
  -2   0   3 -0.0692 0.47932   6
  -2   0   3 0.36794 0.46545   3
   2   0  -3 0.63519 0.46929   5
  -2   0   3 0.31150 0.40551   5
   2   0  -3 0.88590 0.64630   6
   1   0  -3 0.59253 0.32393   3
  -1   0   3 -0.0045 0.24839   3
  -1   0   3 -0.0699 0.13688   5
  -1   0   3 0.47667 0.20024   6
   1   0  -3 0.10969 0.21600   5
   1   0  -3 -0.1801 0.20770   6
   0   0  -3 0.70541 0.27141   4
   0   0   3 0.42859 0.20899   3
   0   0  -3 0.22133 0.22088   6
   0   0   3 0.07185 0.17754   4
   0   0  -3 0.33616 0.21066   3
   0   0   3 -0.0812 0.14265   6
  -1   0  -3 0.23586 0.21572   5
   1   0   3 0.02249 0.49308   6
   1   0   3 0.04722 0.25963   4
  -1   0  -3 0.13834 0.30598   4
  -1   0  -3 -0.3385 0.35265   6
   1   0   3 0.01350 0.18043   5
  -2   0  -3 -0.5824 0.47983   6
  -2   0  -3 -0.2271 0.47765   4
   2   0   3 0.17453 0.35674   5
  -2   0  -3 0.67330 0.41090   5
   2   0   3 -0.3936 0.49413   6
   2   0   3 -0.8135 0.36076   4
   3   0   3 0.02045 0.63460   4
   3   0   3 0.04330 0.44533   5
   3   0   3 -0.6502 0.75286   6
  -3   0  -3 -0.4671 0.62144   4
  -3   0  -3 0.16980 0.68483   5
  -3   0  -3 -0.3991 0.95293   6
   4   0   3 1.27573 1.18281   6
  -4   0  -3 -0.1871 0.71469   4
   4   0   3 0.12343 0.73479   5
  -4   0  -3 -0.5836 0.68645   5
  -4   0  -3 0.98378 1.01842   6
   4   0   3 0.97580 0.85291   4
   5   0   3 0.05844 1.57337   6
  -5   0  -3 0.43276 1.12578   5
  -5   0  -3 -2.1800 1.02576   6
  -5   0  -3 0.20103 1.52133   4
   5   0   3 2.30657 1.32751   4
   5   0   3 -0.6788 0.82000   5
  -6   0  -3 -2.2310 1.67804   6
   6   0   3 0.97734 1.17625   4
   6   0   3 -1.0027 1.06104   5
   7   0   3 1.12159 1.64120   5
   7   0   3 3.38479 2.17078   4
  -7   0  -3 -0.4908 2.38134   6
  -8   0  -3 4.67980 3.57725   6
   8   0   3 -1.6237 1.73530   4
   8   0   3 0.74457 2.03834   5
   9  -1  -3 -3.4127 1.89240   5
  -9  -1   3 2.84364 3.33862   6
   9  -1  -3 2.18025 2.62419   4
  -9   1   3 3.97611 3.74667   6
   9   1  -3 -0.6060 2.07228   5
   9   1  -3 -3.7342 1.85512   4
   8  -1  -3 88.7062 7.87756   5
  -8  -1   3 70.7458 8.60075   6
   8  -1  -3 87.0126 8.06785   4
   8   1  -3 95.6705 8.23141   5
  -8   1   3 91.5955 9.61727   6
   8   1  -3 91.2692 8.23427   4
   7  -1  -3 8.79218 2.97721   5
   7  -1  -3 11.2167 2.91907   4
  -7  -1   3 12.4959 3.57339   6
  -7   1   3 11.3495 2.75993   3
   7   1  -3 12.9498 3.40446   4
  -7   1   3 9.67485 3.55159   6
   7   1  -3 7.42166 2.60422   5
   6  -1  -3 1155.25 45.4391   4
   6  -1  -3 1027.97 44.9278   5
  -6  -1   3 919.601 50.1265   3
  -6  -1   3 1140.44 47.6341   6
   6  -1  -3 1161.39 47.6683   6
   6   1  -3 1155.00 46.9480   6
   6   1  -3 1100.34 45.2317   5
  -6   1   3 1187.84 47.7811   6
   6   1  -3 1153.41 46.0448   4
  -6   1   3 1055.18 44.8343   4
  -5  -1   3 109.030 6.96996   3
   5  -1  -3 101.085 6.98559   4
  -5  -1   3 115.580 8.42050   6
  -5  -1   3 94.0726 6.62692   5
   5  -1  -3 114.878 7.32713   5
   5  -1  -3 107.798 8.31373   6
  -5  -1   3 112.871 7.40072   4
  -5   1   3 115.125 6.90282   5
   5   1  -3 115.823 7.42847   5
   5   1  -3 104.165 7.40784   4
  -5   1   3 110.528 7.03869   4
  -5   1   3 120.766 8.59168   6
   5   1  -3 106.522 7.93801   6
  -4  -1   3 2949.27 124.966   5
  -4  -1   3 3347.79 125.891   4
   4  -1  -3 3590.52 126.050   5
   4  -1  -3 3314.21 127.110   6
  -4  -1   3 3639.97 127.471   6
  -4  -1   3 3318.31 125.396   3
   4  -1  -3 3619.29 125.988   4
   4   1  -3 3208.88 126.514   6
  -4   1   3 3515.35 125.298   5
  -4   1   3 3220.77 125.403   4
  -4   1   3 3603.95 127.459   6
   4   1  -3 3132.65 126.039   4
   4   1  -3 3529.67 126.065   5
   3  -1  -3 236.523 11.0436   6
  -3  -1   3 223.506 9.84960   5
  -3  -1   3 227.149 9.96378   3
  -3  -1   3 225.797 10.8012   6
   3  -1  -3 201.355 9.85612   4
   3  -1  -3 206.055 9.97422   5
  -3  -1   3 217.316 10.9751   4
   3   1  -3 236.367 10.7013   6
  -3   1   3 195.982 9.66121   4
   3   1  -3 226.622 10.2261   5
   3   1  -3 205.743 10.2446   4
  -3   1   3 237.410 10.9687   6
  -3   1   3 197.672 9.49819   5
  -2  -1   3 7340.50 294.859   2
   2  -1  -3 7799.83 294.532   2
   2   1  -3 7468.71 295.969   2
   1  -1  -3 1074.45 39.5101   3
   1  -1  -3 1189.56 40.2969   6
  -1  -1   3 937.868 39.8466   6
   1  -1  -3 1090.72 39.5949   5
  -1  -1   3 1092.33 40.3653   3
   1   1  -3 1117.20 40.1651   5
   1   1  -3 1095.12 40.4086   3
   0   1  -3 2536.53 98.1703   2
   0   1  -3 2420.43 97.7145   2
   1  -1   3 1167.73 43.8026   4
   1  -1   3 1219.77 44.6812   6
  -1  -1  -3 1121.44 44.4297   6
   1  -1   3 1148.40 43.3588   5
  -1  -1  -3 1206.48 43.1486   5
   1   1   3 1199.10 44.3894   6
  -1   1  -3 1182.09 43.5073   5
   1   1   3 1180.51 42.7518   5
   1   1   3 1159.51 43.8606   4
  -1   1  -3 1118.48 43.8362   3
  -1   1  -3 1183.16 44.6214   6
  -2  -1  -3 9.29133 2.00570   6
  -2  -1  -3 11.4375 1.37013   5
   2  -1   3 8.67183 1.18484   5
   2  -1   3 10.4663 1.43914   4
  -2  -1  -3 10.7254 1.74036   4
   2  -1   3 11.6025 2.12770   6
   2   1   3 10.3776 1.87676   6
  -2   1  -3 9.18097 1.93650   6
  -2   1  -3 11.2110 1.73361   4
   2   1   3 9.71576 1.61397   4
  -2   1  -3 13.7091 1.53879   5
   2   1   3 9.65487 1.15466   5
   3  -1   3 352.021 15.7363   4
   3  -1   3 369.613 17.3883   6
  -3  -1  -3 369.186 16.2249   4
   3  -1   3 337.407 15.1751   5
  -3  -1  -3 359.537 15.4947   5
  -3  -1  -3 365.803 17.3979   6
   3   1   3 358.626 17.0121   6
  -3   1  -3 370.704 17.5226   6
  -3   1  -3 328.031 15.7635   4
   3   1   3 374.966 15.1907   5
   3   1   3 347.512 15.9443   4
  -3   1  -3 375.903 15.7048   5
  -4  -1  -3 23.3670 3.99914   6
  -4  -1  -3 22.9233 2.75303   5
   4  -1   3 29.8758 4.20550   6
   4  -1   3 24.9887 2.89907   4
  -4  -1  -3 26.0091 3.19039   4
   4  -1   3 29.7518 2.97840   5
   4   1   3 25.1844 3.07636   4
   4   1   3 27.2974 2.79784   5
  -4   1  -3 30.9959 3.39238   4
  -4   1  -3 24.6538 2.85626   5
  -4   1  -3 22.4757 3.60758   6
   4   1   3 24.6913 3.58514   6
   5  -1   3 6.64261 1.78752   5
   5  -1   3 5.44616 1.83131   4
  -5  -1  -3 4.63545 2.24262   6
   5  -1   3 5.77354 2.60574   6
  -5  -1  -3 4.60097 1.92259   4
  -5  -1  -3 9.92136 2.27023   5
  -5   1  -3 5.06129 2.12119   4
   5   1   3 3.16359 1.31714   5
   5   1   3 2.28669 1.90554   6
   5   1   3 4.71924 1.87732   4
  -5   1  -3 7.89242 2.09135   5
  -5   1  -3 8.59681 2.89024   6
  -6  -1  -3 258.694 16.7052   6
   6  -1   3 257.787 13.3782   5
   6  -1   3 235.440 13.8051   4
   6   1   3 266.834 14.6964   4
   6   1   3 259.002 13.2035   5
  -6   1  -3 243.225 16.2097   6
   7  -1   3 33.3620 5.07584   4
   7  -1   3 36.5366 4.54136   5
  -7  -1  -3 33.0750 6.62519   6
  -7   1  -3 32.2323 6.76606   6
   7   1   3 37.9265 5.03592   4
   7   1   3 32.7299 7.09135   5
  -8  -1  -3 323.682 22.1584   6
   8  -1   3 344.663 18.0276   5
   8  -1   3 334.912 18.8070   4
   8   1   3 343.057 19.4139   4
  -8   1  -3 344.968 22.3251   6
   8   1   3 318.094 17.3946   5
   9  -2  -3 2.21074 2.47134   4
  -9  -2   3 4.72833 3.29048   6
   9  -2  -3 -0.5456 2.31075   5
  -9   2   3 7.51012 4.05044   6
   9   2  -3 -0.9730 2.46172   5
  -9   2   3 0.32153 2.20796   3
   8  -2  -3 48.2369 5.74496   5
   8  -2  -3 36.3686 5.13095   4
  -8  -2   3 45.6094 6.99714   6
   8   2  -3 36.2318 5.20545   5
  -8   2   3 47.3415 7.51226   6
   8   2  -3 47.4450 6.16060   4
   7  -2  -3 -1.3099 1.35264   4
   7  -2  -3 2.27194 1.93325   5
  -7  -2   3 -0.5247 1.83987   6
   7   2  -3 1.11962 1.66439   4
   7   2  -3 -0.8030 1.61028   5
  -7   2   3 3.05613 2.59496   6
   6  -2  -3 358.102 18.4474   5
   6  -2  -3 393.149 20.7898   6
  -6  -2   3 405.339 18.7239   3
   6  -2  -3 361.712 18.2310   4
  -6  -2   3 411.470 21.0248   6
  -6   2   3 386.902 17.9895   5
   6   2  -3 395.426 19.6361   4
   6   2  -3 363.481 18.5889   5
   6   2  -3 398.057 19.9595   6
  -6   2   3 392.666 20.6341   6
  -5  -2   3 -0.4546 0.91415   5
  -5  -2   3 -0.8924 1.02433   3
  -5  -2   3 1.41861 1.24328   4
   5  -2  -3 -0.8118 1.47161   6
   5  -2  -3 0.44587 0.99183   4
  -5  -2   3 3.15604 1.67834   6
   5  -2  -3 1.18002 1.26576   5
   5   2  -3 -0.0575 0.84966   4
   5   2  -3 -0.4346 1.20256   6
  -5   2   3 -1.4363 0.84076   5
   5   2  -3 -0.6319 0.95060   5
  -5   2   3 1.27613 1.10310   4
  -5   2   3 -1.5064 1.42973   6
  -4  -2   3 150.551 8.89183   6
  -4  -2   3 138.822 7.44172   5
   4  -2  -3 139.346 7.44562   4
   4  -2  -3 138.610 8.72096   6
  -4  -2   3 124.795 7.67411   4
  -4  -2   3 126.705 7.43526   3
   4  -2  -3 142.190 7.73889   5
  -4   2   3 116.403 7.04636   4
   4   2  -3 121.458 7.81851   6
  -4   2   3 129.786 9.92191   6
   4   2  -3 142.920 7.90478   5
   4   2  -3 144.420 8.26490   4
  -4   2   3 141.806 7.27216   5
  -3  -2   3 0.74598 0.58246   5
  -3  -2   3 -0.5780 0.46102   3
   3  -2  -3 0.44461 0.46635   4
  -3  -2   3 0.18796 0.63882   6
   3  -2  -3 0.41607 0.65168   5
   3  -2  -3 1.60184 0.93955   6
   3   2  -3 0.93805 0.90510   4
  -3   2   3 0.41772 0.50112   4
   3   2  -3 -0.2581 0.61704   5
  -3   2   3 0.32690 0.81919   6
  -3   2   3 0.62722 0.55597   5
   3   2  -3 -0.8745 0.43282   6
   2  -2  -3 220.702 9.47296   5
  -2  -2   3 229.935 9.58252   5
  -2  -2   3 230.475 9.93617   3
   2  -2  -3 238.269 10.3723   6
   2  -2  -3 202.665 9.04173   4
  -2  -2   3 183.582 9.64008   6
   2   2  -3 233.895 10.1674   4
  -2   2   3 202.723 8.96590   5
   2   2  -3 229.546 9.80330   5
   2   2  -3 229.927 9.95962   3
  -2   2   3 229.342 9.11548   4
  -2   2   3 242.389 10.2268   6
  -1  -2   3 1571.44 56.4322   3
   1  -2  -3 1595.93 56.3968   6
   1   2  -3 1533.06 56.4619   3
   1   2  -3 1365.12 55.9693   5
   0  -2  -3 318.296 12.4025   4
   0  -2   3 332.085 13.0258   3
   0  -2   3 325.209 13.0628   6
   0   2  -3 326.414 12.9965   6
   0   2   3 307.052 12.3625   4
   0   2  -3 335.993 13.1000   3
   1  -2   3 92.1885 4.87337   3
   1  -2   3 99.1818 5.54847   6
  -1  -2  -3 97.7320 4.94218   4
   1  -2   3 97.6721 4.72828   5
   1  -2   3 90.1207 4.76934   4
  -1  -2  -3 95.2327 5.33970   6
  -1  -2  -3 98.4168 4.31921   5
   1   2   3 96.1053 4.91835   4
   1   2   3 107.203 5.42237   6
  -1   2  -3 91.0772 4.82435   4
  -1   2  -3 104.029 5.02695   3
  -1   2  -3 95.9370 5.47531   6
  -1   2  -3 101.510 4.85051   5
   1   2   3 102.566 3.78043   5
  -2  -2  -3 670.678 25.4123   5
   2  -2   3 607.834 25.3738   5
  -2  -2  -3 663.628 26.1549   4
   2  -2   3 642.536 25.6598   4
  -2  -2  -3 645.794 27.0013   6
   2  -2   3 672.012 27.2584   6
   2   2   3 681.800 26.8020   6
   2   2   3 664.345 26.1279   4
  -2   2  -3 682.098 27.2814   6
   2   2   3 663.472 24.9796   5
  -2   2  -3 699.226 25.9654   3
  -2   2  -3 589.205 25.6738   4
  -2   2  -3 604.861 25.5273   5
   3  -2   3 80.7486 6.22293   6
  -3  -2  -3 78.7833 5.38809   4
   3  -2   3 82.6645 4.96351   5
  -3  -2  -3 73.0087 4.80596   5
   3  -2   3 69.5659 4.82608   4
  -3   2  -3 70.0975 4.99495   4
  -3   2  -3 86.7241 5.28613   3
   3   2   3 83.3301 5.94318   6
  -3   2  -3 80.7602 5.09444   5
   3   2   3 83.4102 4.66681   5
   4  -2   3 156.768 8.43927   5
  -4  -2  -3 167.935 10.7500   6
  -4  -2  -3 155.287 9.16993   4
   4  -2   3 138.884 8.43961   4
   4  -2   3 158.225 10.5522   6
  -4  -2  -3 164.316 8.72504   5
   4   2   3 144.542 9.67398   6
   4   2   3 161.099 8.43741   5
  -4   2  -3 165.153 10.6252   6
  -4   2  -3 145.462 8.81080   4
  -4   2  -3 146.791 8.55011   5
   4   2   3 153.371 9.10849   4
  -5  -2  -3 45.6125 4.91256   4
  -5  -2  -3 50.6773 6.10857   6
   5  -2   3 40.2370 4.25864   4
   5  -2   3 48.2092 5.80345   6
   5  -2   3 43.0274 4.23028   5
  -5  -2  -3 42.1753 4.22207   5
   5   2   3 50.8288 5.49082   6
  -5   2  -3 43.0633 4.43159   5
  -5   2  -3 50.0070 6.10677   6
   5   2   3 44.6898 4.68766   4
   5   2   3 41.2435 3.91645   5
   6  -2   3 33.8950 4.40880   4
   6  -2   3 38.4138 4.26041   5
  -6  -2  -3 27.4888 5.78380   6
   6   2   3 25.6511 3.55064   5
   6   2   3 33.9092 4.40126   4
  -6   2  -3 30.0682 5.50096   6
  -7  -2  -3 60.9772 7.94807   6
   7  -2   3 57.3982 5.86723   5
   7  -2   3 63.3667 6.43631   4
   7   2   3 70.6881 6.94011   4
  -7   2  -3 57.2758 7.62065   6
  -7   2  -3 60.9519 6.30190   3
   7   2   3 66.1660 6.02246   5
   8  -2   3 -0.2689 1.79126   5
  -8  -2  -3 -0.4235 3.59935   6
   8  -2   3 1.21231 2.20549   4
  -8   2  -3 2.69262 3.53299   6
   8   2   3 2.24397 2.19779   4
   8   2   3 -2.2031 2.19218   5
  -8   2  -3 0.49280 2.00366   3
   8  -3  -3 427.074 22.0037   5
  -8  -3   3 403.145 24.4136   6
   8  -3  -3 435.389 21.3104   4
   8   3  -3 449.325 23.3571   4
  -8   3   3 382.290 23.6778   6
  -8   3   3 420.644 20.3151   3
   8   3  -3 434.233 21.9959   5
  -7  -3   3 118.541 10.7520   6
   7  -3  -3 118.914 9.09505   5
   7  -3  -3 135.832 9.02263   4
   7   3  -3 134.952 10.0932   4
   7   3  -3 122.877 9.10141   5
  -7   3   3 136.607 8.50796   3
  -6  -3   3 451.506 22.9150   6
   6  -3  -3 391.670 20.1608   5
   6  -3  -3 410.235 19.7842   4
   6  -3  -3 393.854 22.2249   6
  -6  -3   3 409.803 20.3525   3
  -6   3   3 469.718 20.0316   5
   6   3  -3 443.350 20.8362   5
  -6   3   3 424.026 20.0935   4
  -6   3   3 444.267 22.6300   6
   6   3  -3 456.469 21.8260   4
   6   3  -3 428.536 21.5079   6
  -5  -3   3 24.8529 3.13242   5
  -5  -3   3 28.2327 3.68978   3
  -5  -3   3 25.6070 4.31385   6
   5  -3  -3 24.1686 3.85668   6
   5  -3  -3 20.0770 2.80702   4
   5  -3  -3 27.2008 3.35731   5
  -5   3   3 26.9823 3.21082   4
   5   3  -3 26.0754 3.61615   4
  -5   3   3 20.8869 4.23897   6
  -5   3   3 29.4536 3.13056   5
   5   3  -3 26.3210 3.75798   6
   5   3  -3 27.9977 3.39472   5
  -4  -3   3 66.7760 4.97432   3
   4  -3  -3 74.0012 6.15266   6
   4  -3  -3 64.0024 4.40814   4
  -4  -3   3 60.8751 4.50479   5
   4  -3  -3 66.7559 4.89303   5
  -4   3   3 80.9823 6.11888   6
  -4   3   3 65.2973 4.47697   5
  -4   3   3 67.2083 4.54962   4
   4   3  -3 72.4987 5.43088   6
   4   3  -3 69.3312 5.46205   4
   4   3  -3 64.4761 4.93114   5
  -3  -3   3 13.5829 2.16762   6
   3  -3  -3 10.0419 1.64910   5
  -3  -3   3 11.4790 2.05020   3
   3  -3  -3 15.8976 2.49873   6
   3  -3  -3 9.75190 1.36824   4
  -3  -3   3 10.6166 1.81267   5
  -3   3   3 9.41055 1.36611   4
  -3   3   3 12.0992 1.59499   5
  -3   3   3 15.2623 2.37756   6
  -3   3   3 10.5268 1.25682   3
   3   3  -3 14.2156 2.86217   4
   2  -3  -3 11.8903 2.01177   6
   2  -3  -3 11.6164 1.38045   5
  -2  -3   3 10.4335 1.50175   5
  -2  -3   3 10.0483 1.53441   6
  -2  -3   3 12.3502 1.96567   3
   2  -3  -3 11.5253 1.00237   4
   2   3  -3 14.9879 1.86158   4
  -2   3   3 11.5483 1.13774   5
   2   3  -3 11.8586 1.86949   3
  -2   3   3 12.2026 1.06085   4
  -2   3   3 11.6358 0.89239   3
   2   3  -3 13.8640 1.68109   5
  -2   3   3 9.49582 1.09221   5
  -2   3   3 10.7923 1.67002   6
   1  -3  -3 113.600 4.55370   3
  -1  -3   3 114.936 5.75966   3
   1  -3  -3 111.623 4.79924   5
   1  -3  -3 108.600 4.84402   5
  -1  -3   3 112.570 5.37330   5
  -1   3   3 107.683 4.53395   3
   1   3  -3 110.106 5.77417   3
   1   3  -3 113.535 5.47844   5
   0  -3   3 1555.08 54.8423   3
   0  -3   3 1416.63 54.8938   6
   0   3  -3 1486.88 54.6912   5
   0   3  -3 1422.78 54.4719   5
   0   3  -3 1481.59 54.8285   3
   0   3   3 1434.97 53.9091   4
  -1  -3  -3 321.934 12.9140   4
  -1  -3  -3 302.990 13.5158   6
  -1  -3  -3 315.299 12.2849   5
   1  -3   3 279.760 12.6719   5
   1  -3   3 287.301 12.8133   3
   1  -3   3 310.293 13.7864   6
  -1   3  -3 324.266 13.0408   3
   1   3   3 323.659 11.6208   5
  -1   3  -3 287.414 12.7806   5
   1   3   3 318.095 11.6354   5
  -1   3  -3 327.697 13.8101   6
  -1   3  -3 318.237 12.8853   4
   1   3   3 301.789 12.8446   4
  -2  -3  -3 513.106 22.5963   6
   2  -3   3 549.837 21.6055   3
  -2  -3  -3 531.593 21.0791   5
   2  -3   3 542.125 21.3572   4
  -2  -3  -3 556.742 22.9411   4
   2  -3   3 460.752 21.0897   5
   2  -3   3 541.500 23.0508   6
   2   3   3 546.755 22.4187   6
  -2   3  -3 562.702 21.5576   3
  -2   3  -3 552.852 22.9981   6
  -2   3  -3 483.270 21.2988   4
  -2   3  -3 550.120 21.5613   5
   2   3   3 521.508 21.7781   4
   2   3   3 522.729 20.5646   5
  -3  -3  -3 78.3505 5.61527   4
  -3  -3  -3 83.2263 5.24942   5
   3  -3   3 85.2780 6.70288   6
   3  -3   3 85.0841 6.19308   5
   3  -3   3 78.3215 5.17809   4
  -3  -3  -3 89.1233 6.69946   6
   3   3   3 87.4879 6.25238   6
   3   3   3 81.4957 4.82549   5
  -3   3  -3 82.3359 5.31748   3
  -3   3  -3 91.4629 6.84082   6
   3   3   3 80.3187 5.69652   4
  -3   3  -3 74.9442 5.24544   5
  -3   3  -3 82.2986 5.52962   4
  -4  -3  -3 11.5991 2.31529   4
  -4  -3  -3 9.70675 2.59756   6
   4  -3   3 9.28111 2.53094   6
   4  -3   3 5.98710 1.54487   5
   4  -3   3 7.45848 1.96206   4
  -4  -3  -3 9.54721 2.08745   5
   4   3   3 5.25505 1.83868   4
   4   3   3 9.41165 2.23267   6
  -4   3  -3 8.02635 2.49229   6
  -4   3  -3 9.25517 2.11030   5
  -4   3  -3 12.3360 2.24453   3
  -4   3  -3 6.30063 1.81779   4
   4   3   3 5.30480 1.82449   5
   5  -3   3 10.2260 2.36003   4
   5  -3   3 6.72502 3.09494   6
  -5  -3  -3 9.22403 2.60965   4
  -5  -3  -3 11.0645 3.16058   6
   5  -3   3 11.3363 2.44409   5
  -5  -3  -3 12.0059 2.59085   5
   5   3   3 10.4801 2.21623   5
  -5   3  -3 7.90826 2.88582   6
   5   3   3 10.7194 2.76905   6
  -5   3  -3 11.3588 2.46898   3
   5   3   3 14.5372 3.06371   4
  -5   3  -3 7.77029 2.27207   5
  -6  -3  -3 502.232 26.6447   6
   6  -3   3 506.716 23.2533   4
   6  -3   3 490.213 22.7925   5
  -6   3  -3 514.775 23.2768   3
   6   3   3 497.684 22.2808   5
  -6   3  -3 475.259 26.8056   6
   7  -3   3 86.5981 7.43677   5
  -7  -3  -3 87.1646 9.54175   6
   7  -3   3 86.8281 7.33022   4
  -7   3  -3 108.967 8.27240   3
   7   3   3 85.2199 6.79382   5
  -7   3  -3 76.8109 9.71812   6
   7   3   3 89.8355 8.28066   4
  -8  -3  -3 254.993 19.1715   6
   8  -3   3 264.503 15.3846   5
   8  -3   3 270.760 15.9761   4
  -8   3  -3 259.002 18.8939   6
   8   3   3 276.260 16.9642   4
   8   3   3 261.468 14.7603   5
  -8   3  -3 296.721 16.1682   3
   8  -4  -3 4.48877 2.26575   5
   8  -4  -3 -0.7670 1.86205   4
  -8  -4   3 0.02357 3.25121   6
   8   4  -3 0.75706 2.44387   4
  -8   4   3 2.24662 1.69879   3
   8   4  -3 0.39742 1.85011   5
  -8   4   3 4.67710 3.65442   6
   7  -4  -3 237.530 13.8729   5
   7  -4  -3 241.265 13.1236   4
   7   4  -3 241.039 14.8909   4
  -7   4   3 225.720 15.6294   6
  -7   4   3 225.777 12.1538   3
   7   4  -3 233.144 13.7686   5
   6  -4  -3 41.2372 4.25586   4
   6  -4  -3 48.6400 5.85557   5
   6  -4  -3 36.1185 6.28180   6
  -6  -4   3 40.1257 5.54350   6
   6   4  -3 42.3417 5.00426   5
  -6   4   3 52.0165 4.78905   5
   6   4  -3 48.5605 5.41218   4
  -6   4   3 37.1361 5.79300   6
  -6   4   3 53.2257 4.34941   3
  -6   4   3 44.2289 4.41269   4
   6   4  -3 45.6622 5.58074   6
  -5  -4   3 506.588 24.3553   3
   5  -4  -3 560.106 26.6561   6
  -5  -4   3 587.485 26.7563   6
   5  -4  -3 511.539 24.1437   5
   5  -4  -3 521.930 23.2992   4
  -5  -4   3 581.240 24.2334   5
  -5   4   3 583.500 23.8068   5
  -5   4   3 565.411 22.9672   3
   5   4  -3 578.674 25.7460   4
   5   4  -3 556.568 24.6790   5
  -5   4   3 584.456 23.8520   4
  -5   4   3 570.227 26.2739   6
   4  -4  -3 3.88368 1.26230   5
   4  -4  -3 2.87565 1.08037   4
   4  -4  -3 2.74062 1.45827   6
  -4  -4   3 3.63142 1.62833   6
  -4  -4   3 3.76999 1.28766   3
  -4  -4   3 4.91440 1.51057   5
   4   4  -3 4.23449 1.57903   5
   4   4  -3 2.88593 1.41016   4
  -4   4   3 5.68262 1.12823   3
  -4   4   3 3.19887 1.15245   5
  -4   4   3 3.05841 1.35069   4
  -4   4   3 3.87582 1.86648   6
  -3  -4   3 7.28461 1.76464   6
  -3  -4   3 6.17936 1.67465   3
  -3  -4   3 9.68587 1.80598   5
   3  -4  -3 8.41769 2.14813   6
   3  -4  -3 4.61004 0.94290   4
   3   4  -3 6.25793 1.72572   4
   3   4  -3 7.99291 1.67273   5
  -3   4   3 10.2591 1.50786   4
  -3   4   3 7.76428 0.99951   3
  -3   4   3 8.52518 2.03640   6
  -3   4   3 8.96803 1.72209   5
   3   4  -3 11.0924 2.13246   3
   2  -4  -3 650.636 24.9061   3
  -2  -4   3 679.681 26.1817   5
  -2  -4   3 647.228 26.6305   3
   2  -4  -3 703.781 27.5718   6
   2  -4  -3 654.321 25.8580   5
   2  -4  -3 661.564 24.7504   4
  -2   4   3 670.479 24.8927   3
  -2   4   3 619.958 24.8539   4
   2   4  -3 678.422 26.3874   5
  -2   4   3 671.284 25.1358   5
   2   4  -3 680.107 26.8612   3
  -2   4   3 646.793 25.2175   5
  -1  -4   3 244.205 10.7860   5
   1  -4  -3 262.345 10.2889   5
   1  -4  -3 243.888 10.2948   5
   1  -4  -3 255.224 10.0327   3
  -1  -4   3 264.878 11.3648   3
   1   4  -3 250.083 10.9056   5
  -1   4   3 242.427 9.48393   5
   1   4  -3 250.610 11.3642   3
  -1   4   3 250.801 9.48175   4
  -1   4   3 252.276 10.0321   3
   0  -4   3 3.40912 1.02891   6
   0  -4  -3 1.47958 0.63162   3
   0  -4  -3 1.87689 0.51954   5
   0  -4   3 0.68225 0.55945   3
   0  -4  -3 1.55560 0.49699   5
   0   4  -3 1.49477 0.87314   3
   0   4   3 1.19795 0.43430   4
   0   4  -3 0.65083 0.58054   5
   0   4  -3 0.50509 0.70980   5
   1  -4   3 141.015 6.75394   3
   1  -4   3 139.081 6.71955   5
  -1  -4  -3 128.232 6.07210   5
   1  -4   3 132.464 7.48759   6
  -1  -4  -3 128.556 6.66254   3
  -1  -4  -3 137.023 6.55770   4
   1   4   3 127.128 5.46226   5
  -1   4  -3 122.854 6.41171   4
   1   4   3 135.732 6.60074   4
   1   4   3 133.779 5.45576   5
  -1   4  -3 131.844 7.32054   6
  -1   4  -3 136.196 6.74394   3
  -1   4  -3 137.141 6.74937   5
  -2  -4  -3 726.719 29.1772   4
   2  -4   3 764.141 29.1954   3
  -2  -4  -3 718.338 30.1648   6
   2  -4   3 697.630 30.4017   6
   2  -4   3 738.983 28.9158   5
   2  -4   3 753.482 28.6976   4
  -2  -4  -3 726.763 28.4958   5
   2   4   3 730.868 29.2710   4
  -2   4  -3 769.674 28.9880   3
  -2   4  -3 732.496 30.3712   6
  -2   4  -3 690.292 28.8448   5
   2   4   3 704.812 27.8337   5
  -3  -4  -3 138.676 7.34787   5
   3  -4   3 125.201 8.78262   6
   3  -4   3 134.495 7.38982   5
   3  -4   3 119.739 7.15697   4
  -3  -4  -3 133.868 8.80766   6
  -3  -4  -3 130.811 7.84174   4
  -3   4  -3 131.087 7.44209   5
   3   4   3 136.339 6.78566   5
  -3   4  -3 140.590 8.96707   6
  -3   4  -3 136.094 7.50833   4
  -3   4  -3 124.358 7.33054   3
   3   4   3 136.673 7.92355   4
   4  -4   3 365.549 16.7435   5
  -4  -4  -3 372.595 16.8275   5
  -4  -4  -3 391.947 19.5017   6
   4  -4   3 352.097 19.0060   6
  -4  -4  -3 378.468 17.6636   4
   4  -4   3 374.839 16.6863   4
  -4   4  -3 321.091 16.6659   4
  -4   4  -3 405.287 17.0404   3
  -4   4  -3 349.427 18.8900   6
   4   4   3 376.843 17.8020   4
  -4   4  -3 342.680 16.8018   5
   4   4   3 375.328 18.2892   6
  -5  -4  -3 83.2624 6.43304   5
   5  -4   3 85.8997 6.34591   4
   5  -4   3 76.7730 7.72140   6
   5  -4   3 87.7206 6.42446   5
  -5  -4  -3 86.4683 8.16669   6
  -5  -4  -3 81.9950 7.91461   4
   5   4   3 87.5295 7.53827   6
   5   4   3 97.0619 7.42174   4
   5   4   3 84.6027 5.95803   5
  -5   4  -3 86.0420 8.18237   6
  -5   4  -3 87.2347 6.43804   3
  -5   4  -3 98.5446 6.97118   5
   6  -4   3 2.05974 1.36004   4
   6  -4   3 2.17758 1.59390   5
  -6   4  -3 0.32628 1.38397   3
  -6   4  -3 -0.5800 1.67205   6
   6   4   3 1.52340 1.61007   4
   6   4   3 1.63528 1.29879   5
   7  -4   3 12.4605 2.98231   5
   7  -4   3 8.20391 2.79849   4
   7   4   3 12.0981 3.26041   4
  -7   4  -3 13.8152 4.21856   6
  -7   4  -3 12.6588 3.14091   3
   7   4   3 7.42859 2.35386   5
  -8  -4  -3 4.21688 3.12171   6
   8  -4   3 2.48806 2.13306   4
   8  -4   3 0.92786 2.40471   5
   8   4   3 -0.4826 2.25066   5
  -8   4  -3 3.03547 4.10389   6
  -8   4  -3 -1.2779 2.09670   3
   8   4   3 3.36169 2.50877   4
   8  -5  -3 25.7625 4.62026   5
   8  -5  -3 29.8034 4.24868   4
  -8  -5   3 31.7785 6.39018   6
  -8   5   3 35.8910 4.21071   3
   8   5  -3 32.7051 6.04801   4
   8   5  -3 19.7314 4.30500   5
  -8   5   3 21.4379 5.82332   6
  -7  -5   3 83.8368 9.46917   6
   7  -5  -3 84.7566 6.53984   4
   7  -5  -3 91.0421 7.61848   5
  -7   5   3 84.1669 6.18445   3
   7   5  -3 87.9331 7.62895   5
  -7   5   3 96.6969 7.36233   4
  -7   5   3 69.8366 8.02970   6
   7   5  -3 78.7674 7.74159   4
  -6  -5   3 604.823 28.0550   6
   6  -5  -3 517.879 23.1844   4
   6  -5  -3 524.355 24.5659   5
  -6   5   3 527.755 22.6441   3
  -6   5   3 498.148 26.2315   6
   6   5  -3 552.981 25.5252   5
   6   5  -3 504.272 25.7408   4
  -6   5   3 561.882 23.7843   5
  -6   5   3 553.011 23.8613   4
  -5  -5   3 556.391 24.1147   5
  -5  -5   3 549.550 24.7785   3
   5  -5  -3 556.033 23.0301   4
   5  -5  -3 556.050 26.9046   6
  -5  -5   3 520.491 26.1682   6
   5  -5  -3 581.956 24.5925   5
  -5   5   3 578.573 22.6497   3
   5   5  -3 563.338 24.6952   5
  -5   5   3 495.559 23.0528   4
  -5   5   3 544.545 26.0427   6
  -5   5   3 544.512 23.3704   5
   5   5  -3 578.534 25.8575   4
   4  -5  -3 910.903 35.3990   5
   4  -5  -3 885.106 37.5577   6
  -4  -5   3 895.610 35.1347   5
  -4  -5   3 816.711 36.6478   6
  -4  -5   3 917.776 36.0409   3
   4  -5  -3 872.736 33.8057   4
   4   5  -3 843.586 36.2852   4
  -4   5   3 897.647 36.8624   6
  -4   5   3 833.368 34.0513   4
  -4   5   3 820.130 34.2078   5
  -4   5   3 871.936 33.5185   3
   4   5  -3 902.697 35.6776   5
   3  -5  -3 56.4447 4.12690   5
   3  -5  -3 51.5990 3.16505   4
  -3  -5   3 56.3269 4.63490   3
   3  -5  -3 64.6550 5.57935   6
  -3  -5   3 50.8413 4.70538   6
  -3  -5   3 55.6205 4.14100   5
  -3   5   3 54.1175 3.23106   3
  -3   5   3 61.1162 4.93301   6
  -3   5   3 52.8434 3.37233   4
   3   5  -3 64.3332 4.92630   4
  -3   5   3 56.8191 3.64875   5
   3   5  -3 61.3292 4.82769   3
   3   5  -3 64.3840 4.62104   5
   2  -5  -3 129.637 7.60713   6
  -2  -5   3 128.529 7.09747   3
   2  -5  -3 108.615 6.06316   5
  -2  -5   3 125.456 6.52522   5
   2  -5  -3 110.340 5.31262   3
  -2   5   3 126.152 5.49922   3
   2   5  -3 102.334 7.12350   5
  -2   5   3 114.274 5.16651   4
  -2   5   3 127.378 5.53877   5
  -2   5   3 116.247 5.56087   5
  -1  -5   3 4.59235 1.17949   5
   1  -5  -3 2.74080 0.85443   5
   1  -5  -3 3.03545 0.75174   3
   1  -5  -3 3.40908 0.89030   5
  -1  -5   3 4.16193 1.19973   3
  -1   5   3 2.71453 0.78282   3
   1   5  -3 2.89448 1.01726   5
   1   5  -3 0.82791 0.99875   3
  -1   5   3 4.34723 0.62855   5
  -1   5   3 2.89489 0.53167   5
   0  -5  -3 2.88948 0.77201   5
   0  -5   3 2.12015 1.01260   6
   0  -5   3 2.04268 0.90901   3
   0  -5  -3 2.81901 0.85491   3
   0  -5  -3 2.23074 0.67376   5
   0   5   3 3.12080 0.76740   4
   0   5  -3 1.27960 0.76970   5
   0   5   3 1.92663 0.38405   5
   0   5  -3 3.16833 1.18223   3
   0   5   3 2.44326 0.83204   3
   0   5  -3 0.64056 0.59194   5
   0   5   3 1.91721 0.36739   5
   1  -5   3 4.72935 1.23386   5
   1  -5   3 6.46245 1.36042   3
   1  -5   3 6.30441 1.60471   6
  -1  -5  -3 5.47632 1.09857   5
  -1  -5  -3 3.96009 1.00140   4
  -1  -5  -3 6.97943 1.70404   3
  -1   5  -3 6.06886 1.35816   3
  -1   5  -3 6.44415 1.27280   4
   1   5   3 5.52026 0.80807   5
   1   5   3 5.36481 0.76738   5
  -1   5  -3 6.79866 1.41386   5
   1   5   3 4.26468 1.11078   4
  -1   5  -3 5.93827 1.31355   5
  -2  -5  -3 259.843 11.6677   4
   2  -5   3 248.752 11.4457   5
  -2  -5  -3 236.643 11.6611   3
  -2  -5  -3 251.236 11.0731   5
  -2  -5  -3 247.154 12.5988   6
   2  -5   3 237.173 12.8361   6
   2  -5   3 235.849 11.2779   3
   2   5   3 241.154 10.3571   5
  -2   5  -3 249.778 11.2687   4
   2   5   3 243.400 11.6545   4
   2   5   3 252.951 10.3580   5
  -2   5  -3 251.041 12.6988   6
  -2   5  -3 237.086 11.2512   3
  -2   5  -3 219.165 11.2282   5
   3  -5   3 27.1437 2.90605   4
   3  -5   3 31.4219 4.22093   6
  -3  -5  -3 29.7108 3.01395   5
  -3  -5  -3 34.1895 3.63177   3
   3  -5   3 32.4407 3.26337   5
  -3  -5  -3 34.7284 4.11159   6
  -3  -5  -3 33.4904 3.53639   4
   3   5   3 28.7108 3.50323   4
   3   5   3 35.5399 2.80629   5
  -3   5  -3 34.9323 3.26282   4
  -3   5  -3 30.8438 3.24421   5
  -3   5  -3 29.8076 3.96270   6
  -3   5  -3 32.9587 3.23983   3
  -4  -5  -3 81.0779 6.32064   3
   4  -5   3 79.8605 7.71849   6
   4  -5   3 88.3217 5.80467   4
  -4  -5  -3 85.2312 7.42085   6
   4  -5   3 89.6686 6.08132   5
  -4  -5  -3 86.2087 5.93715   5
  -4   5  -3 74.0989 6.78722   5
   4   5   3 76.0575 6.08175   5
  -4   5  -3 71.3282 5.42924   3
  -4   5  -3 81.1074 7.31231   6
  -4   5  -3 85.5532 6.06199   4
   4   5   3 86.2890 6.59096   4
   5  -5   3 30.6620 3.69193   4
   5  -5   3 36.7801 3.92522   5
  -5  -5  -3 31.0285 4.92205   6
  -5   5  -3 25.1806 3.67029   4
  -5   5  -3 30.4348 3.68740   3
   5   5   3 36.7490 3.46110   5
   5   5   3 38.1143 4.57851   4
  -5   5  -3 26.4793 5.37240   6
  -6  -5  -3 55.7295 7.10083   6
   6  -5   3 52.5927 5.44442   5
   6  -5   3 59.9076 5.65236   4
  -6   5  -3 62.1262 5.72092   3
  -6   5  -3 53.3194 7.08406   6
   6   5   3 67.4257 6.82166   4
   6   5   3 58.4032 5.00317   5
   7  -5   3 -3.2559 1.46828   5
  -7  -5  -3 1.82950 2.49376   6
   7  -5   3 0.03606 1.59496   4
   7   5   3 -1.2009 1.45147   5
  -7   5  -3 -2.0140 3.32246   6
   7   5   3 4.04863 2.03577   4
  -7   5  -3 2.51266 1.63275   3
  -8  -5  -3 88.3098 10.8244   6
   8  -5   3 70.4788 7.04395   4
   8  -5   3 71.5821 7.08903   5
   8   5   3 66.8485 9.17314   4
   8   5   3 78.9237 6.93927   5
  -8   5  -3 66.3150 7.06973   3
  -8  -6   3 1.84826 3.65036   6
   8  -6  -3 1.71562 1.52158   4
   8   6  -3 6.06704 2.70731   5
  -8   6   3 -0.6920 3.24986   6
  -8   6   3 2.23183 1.68985   3
  -7  -6   3 82.7144 9.36361   6
   7  -6  -3 68.1148 6.70775   5
   7  -6  -3 80.5784 6.14782   4
   7   6  -3 83.1176 8.43715   4
   7   6  -3 81.1121 7.34494   5
  -7   6   3 71.9369 6.73144   4
  -7   6   3 76.5609 5.80572   3
  -7   6   3 73.3972 8.83872   6
   6  -6  -3 48.8708 5.19483   5
  -6  -6   3 48.7520 6.48434   6
   6  -6  -3 46.7093 4.19393   4
  -6   6   3 45.4092 4.78996   5
   6   6  -3 48.9948 5.84502   4
  -6   6   3 44.9117 6.25793   6
   6   6  -3 52.7542 5.62269   5
  -6   6   3 43.8210 4.52263   4
  -6   6   3 51.4871 4.18694   3
   5  -6  -3 242.236 15.1550   6
  -5  -6   3 253.384 14.9739   6
   5  -6  -3 214.311 12.2245   4
   5  -6  -3 248.032 12.9581   5
  -5   6   3 254.904 12.1207   5
  -5   6   3 233.628 14.3025   6
  -5   6   3 256.678 11.2736   3
  -5   6   3 242.810 11.8710   4
   5   6  -3 225.112 12.7926   5
   5   6  -3 233.650 13.8630   4
  -4  -6   3 28.4227 3.89797   6
   4  -6  -3 34.5489 3.60795   5
  -4  -6   3 31.4030 3.91899   3
  -4  -6   3 32.8450 3.57418   5
   4  -6  -3 28.6667 4.55982   6
   4  -6  -3 33.3252 2.65668   4
  -4   6   3 40.2220 3.40998   5
   4   6  -3 30.8201 3.56248   5
   4   6  -3 31.8745 4.09342   4
  -4   6   3 36.9506 3.19234   5
  -4   6   3 32.4557 2.62660   3
  -4   6   3 28.6898 2.90780   4
  -4   6   3 42.0743 4.76060   6
  -3  -6   3 580.178 23.9880   6
   3  -6  -3 554.218 24.5154   6
  -3  -6   3 575.510 23.4457   3
  -3  -6   3 470.241 21.9776   5
   3  -6  -3 489.455 22.0633   5
  -3   6   3 545.194 20.8852   3
   3   6  -3 502.018 23.1618   4
   3   6  -3 540.131 22.6848   5
  -3   6   3 506.898 21.2687   5
   3   6  -3 538.405 23.3484   3
  -3   6   3 497.818 20.7966   4
  -3   6   3 565.776 21.2527   5
  -2  -6   3 38.5413 3.67763   3
   2  -6  -3 34.2100 3.47974   5
   2  -6  -3 38.2655 4.02993   6
   2  -6  -3 36.3672 2.51262   3
  -2  -6   3 41.6762 3.43481   5
  -2   6   3 39.9627 2.59204   5
  -2   6   3 33.5742 2.17245   4
   2   6  -3 36.6242 3.33821   5
  -2   6   3 40.5391 2.76831   3
   2   6  -3 39.5425 3.89974   3
  -2   6   3 37.1739 2.54067   5
  -1  -6   3 1114.57 42.7142   5
   1  -6  -3 1144.13 42.3013   5
   1  -6  -3 1131.22 42.1428   5
  -1  -6   3 1140.09 43.3692   3
   1  -6  -3 1122.07 41.8955   3
   1   6  -3 1168.57 45.3248   3
  -1   6   3 1104.59 41.2201   5
   1   6  -3 1072.66 44.0649   5
   1   6  -3 970.373 42.6412   5
  -1   6   3 1108.45 41.1227   5
  -1   6   3 1120.02 41.9339   3
   0  -6   3 4.50394 1.23014   5
   0  -6   3 3.52253 1.21101   3
   0  -6  -3 5.95229 1.23739   5
   0  -6  -3 5.10990 1.13756   5
   0  -6  -3 6.62807 1.41809   3
   0   6   3 5.16581 1.06012   4
   0   6  -3 3.69761 1.29482   5
   0   6   3 5.77619 1.21234   3
   0   6   3 5.68805 0.77912   5
   0   6  -3 3.04049 1.36344   3
   0   6  -3 6.21967 1.38853   5
   0   6   3 4.29687 0.74337   5
   1  -6   3 3.73854 1.47925   6
  -1  -6  -3 3.38251 1.23908   3
   1  -6   3 2.46278 1.05678   5
  -1  -6  -3 2.80381 1.15817   5
   1  -6   3 2.35754 1.05922   3
  -1   6  -3 1.01914 1.07928   5
   1   6   3 1.96953 0.59874   5
   1   6   3 2.30532 0.61524   5
  -1   6  -3 1.13759 0.95609   3
   1   6   3 1.94557 0.87502   4
  -1   6  -3 2.83791 1.03130   4
  -1   6  -3 -0.1754 0.81116   5
  -2  -6  -3 88.8618 5.57328   4
  -2  -6  -3 82.4676 6.30332   6
   2  -6   3 89.0859 5.60637   5
   2  -6   3 89.1315 6.77885   6
  -2  -6  -3 83.3087 5.14375   5
  -2  -6  -3 87.2941 5.76187   3
   2  -6   3 80.2440 5.25360   3
   2   6   3 65.8249 7.55681   4
  -2   6  -3 77.5147 5.10378   4
   2   6   3 84.8386 4.57004   5
  -2   6  -3 88.0026 6.46497   6
   2   6   3 83.9416 4.48646   5
  -2   6  -3 80.6592 5.38083   5
   3  -6   3 87.1491 7.54580   6
   3  -6   3 93.1005 6.11134   5
  -3  -6  -3 78.9125 5.55317   5
   3  -6   3 81.9839 5.67121   3
   3  -6   3 96.1911 5.71841   4
  -3  -6  -3 84.1085 7.01579   6
  -3  -6  -3 84.8429 6.08545   4
  -3  -6  -3 91.6571 6.36715   3
   3   6   3 88.0583 6.31973   4
  -3   6  -3 75.0604 6.71557   6
  -3   6  -3 77.7215 5.75006   5
  -3   6  -3 74.1509 5.44009   3
  -3   6  -3 79.7652 5.58641   4
   3   6   3 87.3214 5.12136   5
   4  -6   3 66.2031 5.45124   5
   4  -6   3 65.9138 5.00707   4
  -4  -6  -3 68.0402 5.90235   3
  -4  -6  -3 70.3136 5.88418   4
  -4  -6  -3 69.9657 6.90541   6
   4  -6   3 61.4555 7.04035   6
  -4  -6  -3 61.9784 6.01783   5
  -4   6  -3 72.7026 5.56645   4
  -4   6  -3 73.9377 5.47644   3
  -4   6  -3 58.7609 6.45386   6
  -4   6  -3 68.0318 5.55529   5
   4   6   3 80.9369 6.46783   4
   4   6   3 72.6973 4.95647   5
   5  -6   3 70.5892 5.60756   4
  -5  -6  -3 72.5997 7.63027   6
   5  -6   3 69.2363 5.84970   5
  -5   6  -3 68.0211 5.94846   4
   5   6   3 67.2360 5.15029   5
  -5   6  -3 64.1658 7.12028   6
  -5   6  -3 72.0944 5.74635   3
   5   6   3 68.8418 6.51265   4
   6  -6   3 11.0718 2.62317   4
  -6  -6  -3 17.7877 4.84009   6
   6  -6   3 12.1222 3.13184   5
   6   6   3 17.2260 3.86294   4
  -6   6  -3 9.15577 4.02905   6
  -6   6  -3 18.2272 3.39738   3
   6   6   3 17.6703 3.07152   5
   7  -6   3 91.5197 7.63326   4
  -7  -6  -3 109.674 11.1443   6
   7  -6   3 95.7362 7.94337   5
   7   6   3 105.271 9.38442   4
  -7   6  -3 80.6159 9.82072   6
   7   6   3 94.0330 7.21144   5
  -7   6  -3 106.367 8.00709   3
   8  -6   3 12.2933 3.12671   4
  -8   6  -3 9.29095 5.32386   6
  -8   6  -3 12.5517 3.16020   3
   8   6   3 9.91304 3.91513   4
   8   6   3 7.51690 2.95025   5
   8  -7  -3 6.89950 1.99767   4
   8  -7  -3 11.4218 2.91667   5
  -8  -7   3 12.3184 4.60192   6
   8   7  -3 8.19182 3.56082   4
  -8   7   3 10.0452 4.52605   6
  -8   7   3 5.82165 2.22285   3
   8   7  -3 7.40719 2.58282   5
  -7  -7   3 9.90319 4.06877   6
   7  -7  -3 5.61777 1.92177   4
   7  -7  -3 6.47351 2.45529   5
   7   7  -3 7.20196 3.33601   4
  -7   7   3 7.34594 2.66488   4
   7   7  -3 8.48306 3.06441   5
  -7   7   3 4.11858 1.92683   3
  -7   7   3 11.1239 3.93826   6
  -6  -7   3 48.2820 6.62947   6
   6  -7  -3 44.7594 5.07330   5
   6  -7  -3 45.5239 4.07579   4
  -6   7   3 45.9239 4.45253   4
   6   7  -3 41.8880 5.04392   5
  -6   7   3 47.7906 4.01188   3
   6   7  -3 44.8086 5.90267   4
  -6   7   3 43.9390 6.36752   6
  -6   7   3 38.3309 4.61755   5
   5  -7  -3 21.7928 3.63039   5
  -5  -7   3 27.0234 4.93284   6
  -5   7   3 21.0037 2.53882   3
   5   7  -3 23.5408 3.43429   5
   5   7  -3 25.7844 4.53912   4
  -5   7   3 22.3323 2.97430   5
  -5   7   3 20.8723 4.46712   6
  -5   7   3 27.0763 3.20894   4
  -5   7   3 27.7454 3.30046   5
   4  -7  -3 708.922 29.6260   5
   4  -7  -3 683.356 32.0640   6
  -4  -7   3 670.398 29.2798   5
  -4  -7   3 716.416 30.5030   3
  -4  -7   3 751.667 31.8858   6
   4   7  -3 717.453 29.9461   5
  -4   7   3 721.536 28.4165   5
   4   7  -3 726.092 31.0922   4
  -4   7   3 680.565 29.2713   5
  -4   7   3 653.435 27.7604   4
   3  -7  -3 27.7087 4.13390   6
   3  -7  -3 30.1156 3.21530   5
  -3  -7   3 31.6053 3.51856   5
  -3  -7   3 28.3883 4.00732   3
   3  -7  -3 29.0720 2.48224   3
  -3  -7   3 33.5315 3.96143   6
  -3   7   3 27.1917 2.56393   3
   3   7  -3 33.0465 3.84798   4
   3   7  -3 31.1108 3.47099   5
  -3   7   3 29.2166 2.69350   5
  -3   7   3 26.2331 2.21998   4
   3   7  -3 30.5601 3.91962   3
  -3   7   3 29.0862 2.61891   5
  -2  -7   3 329.824 15.9771   5
   2  -7  -3 391.076 16.2300   5
   2  -7  -3 389.212 18.1041   6
   2  -7  -3 352.970 15.0128   3
  -2  -7   3 366.316 17.0205   3
  -2   7   3 373.618 14.8314   5
   2   7  -3 379.653 16.4740   5
  -2   7   3 373.003 15.0169   5
   2   7  -3 355.220 17.0845   3
  -2   7   3 371.265 15.2343   3
  -2   7   3 349.167 14.4503   4
   1  -7  -3 5.91605 1.39579   5
  -1  -7   3 5.03373 1.48958   3
   1  -7  -3 6.76686 1.40679   3
  -1  -7   3 6.55394 1.62517   5
  -1   7   3 9.97402 1.64968   3
  -1   7   3 5.60169 0.96010   5
   1   7  -3 8.44697 1.73690   5
   1   7  -3 6.34265 1.56873   5
   1   7  -3 4.95108 1.77342   3
  -1   7   3 7.39052 1.02287   5
   0  -7   3 254.074 12.0210   3
   0  -7   3 225.884 11.4798   5
   0  -7  -3 250.043 11.3410   5
   0  -7  -3 245.945 11.0600   5
   0  -7  -3 249.176 11.4337   3
   0   7   3 252.178 10.1317   5
   0   7  -3 253.079 11.7233   5
   0   7   3 243.001 10.8026   4
   0   7   3 239.031 10.0602   5
   0   7   3 243.482 11.3759   3
   0   7  -3 258.203 11.6810   5
   0   7  -3 251.508 12.2133   3
   1  -7   3 14.7145 2.06438   3
   1  -7   3 17.2795 2.37328   5
  -1  -7  -3 16.9068 2.09145   5
  -1  -7  -3 15.5434 2.39275   3
   1  -7   3 18.7246 3.32187   6
  -1   7  -3 14.2347 2.38664   5
  -1   7  -3 17.6844 2.53858   3
   1   7   3 16.6642 1.53518   5
   1   7   3 14.1682 1.99281   4
  -1   7  -3 16.1716 2.21525   5
  -1   7  -3 14.6585 2.21374   4
   1   7   3 15.2822 1.51310   5
  -2  -7  -3 266.340 12.2643   5
   2  -7   3 236.576 12.2229   3
  -2  -7  -3 272.573 13.1297   3
   2  -7   3 243.450 12.5774   5
   2  -7   3 263.759 14.5027   6
  -2   7  -3 270.358 12.3534   4
   2   7   3 274.335 12.9644   4
  -2   7  -3 266.794 12.5874   5
  -2   7  -3 262.006 12.5916   3
  -2   7  -3 273.419 12.7900   5
   2   7   3 263.906 11.3719   5
  -3  -7  -3 180.880 11.5285   6
   3  -7   3 196.206 10.0625   3
  -3  -7  -3 193.483 10.4290   4
   3  -7   3 173.003 12.0670   6
  -3  -7  -3 191.090 9.84851   5
   3  -7   3 185.058 10.1021   5
  -3   7  -3 178.117 9.67314   4
   3   7   3 190.250 8.92912   5
   3   7   3 189.654 10.6152   4
  -3   7  -3 169.010 11.1840   6
  -3   7  -3 193.499 11.3293   5
  -3   7  -3 179.848 9.79577   3
   3   7   3 177.849 8.88024   5
  -4  -7  -3 0.04571 1.58779   6
   4  -7   3 0.50952 0.94506   4
  -4  -7  -3 -0.8156 0.91481   4
  -4  -7  -3 1.35108 1.28729   5
   4  -7   3 0.40053 1.21670   5
   4   7   3 0.30437 1.15467   4
  -4   7  -3 -0.9851 1.53556   6
  -4   7  -3 1.55414 1.18611   3
  -4   7  -3 0.64971 1.52144   5
  -4   7  -3 -0.5692 1.06360   4
   4   7   3 1.15021 1.05439   5
   5  -7   3 48.8353 8.95928   5
   5  -7   3 38.8925 4.18058   4
  -5   7  -3 45.1048 4.93852   4
  -5   7  -3 51.2944 8.76625   6
   5   7   3 51.0027 6.54239   4
   5   7   3 46.3345 4.20758   5
  -5   7  -3 53.5174 4.95854   3
  -6  -7  -3 196.733 14.6282   6
   6  -7   3 180.669 11.1376   5
   6  -7   3 150.359 9.74839   4
  -6   7  -3 169.038 10.3666   3
   6   7   3 163.599 11.8618   4
   6   7   3 173.482 9.76029   5
  -6   7  -3 135.324 12.4809   6
   7  -7   3 3.98910 2.29768   4
  -7  -7  -3 10.7016 4.34615   6
   7  -7   3 13.2537 3.27214   5
   7   7   3 14.9321 3.87975   4
  -7   7  -3 7.39623 2.46833   3
  -7   7  -3 2.13108 3.91801   6
   7   7   3 9.90059 2.75206   5
  -7  -8   3 107.562 10.6712   6
   7  -8  -3 82.9050 7.45979   5
   7  -8  -3 84.6332 6.08097   4
  -7   8   3 75.7267 6.72114   4
  -7   8   3 82.5070 6.78765   5
  -7   8   3 81.8820 6.03804   3
   7   8  -3 89.0071 8.00180   5
   7   8  -3 85.3278 8.82793   4
  -7   8   3 71.9120 8.57216   6
  -6  -8   3 23.2342 5.18421   6
   6  -8  -3 21.8162 3.90573   5
   6  -8  -3 27.3480 3.12407   4
  -6   8   3 24.5532 3.34396   4
  -6   8   3 20.4426 4.03993   5
  -6   8   3 23.8255 5.12115   6
  -6   8   3 23.6696 3.21044   3
  -6   8   3 18.1879 3.36758   5
   6   8  -3 25.2433 4.33553   5
   6   8  -3 17.5620 4.05942   4
  -5  -8   3 201.570 13.5258   6
   5  -8  -3 186.116 11.1851   5
   5   8  -3 191.619 12.6057   4
  -5   8   3 184.752 9.70293   4
  -5   8   3 188.575 10.0427   5
  -5   8   3 191.173 9.90567   5
  -5   8   3 174.325 9.52683   3
   5   8  -3 189.338 11.3502   5
   4  -8  -3 159.314 11.9173   6
  -4  -8   3 215.883 12.6099   6
   4  -8  -3 178.667 10.2846   5
  -4   8   3 168.686 8.62612   4
   4   8  -3 183.672 11.4750   4
  -4   8   3 178.992 9.11995   5
   4   8  -3 167.862 10.3282   5
  -4   8   3 178.001 8.72614   3
  -3  -8   3 362.131 19.6734   6
   3  -8  -3 414.835 21.0348   6
   3  -8  -3 398.370 17.3008   3
  -3  -8   3 418.958 19.7770   3
   3  -8  -3 439.574 18.8423   5
  -3  -8   3 416.902 18.7053   5
  -3   8   3 430.705 17.4483   5
  -3   8   3 425.498 17.1580   5
   3   8  -3 428.856 19.8950   4
   3   8  -3 420.458 19.8864   3
  -3   8   3 387.569 16.6928   4
  -3   8   3 425.068 17.3429   3
   3   8  -3 407.085 18.8405   5
   2  -8  -3 59.9684 4.75622   5
  -2  -8   3 70.2971 5.16875   5
  -2  -8   3 65.3387 5.47046   3
   2  -8  -3 65.0076 6.04679   6
   2  -8  -3 63.8001 4.25904   3
  -2   8   3 70.1934 3.95436   5
   2   8  -3 70.6545 5.20332   5
  -2   8   3 66.5069 4.40956   3
   2   8  -3 64.4642 5.37795   4
  -2   8   3 64.6239 3.62641   4
   2   8  -3 66.3367 5.10501   5
   2   8  -3 62.1012 5.45956   3
   1  -8  -3 79.5190 5.13104   5
  -1  -8   3 70.1076 5.15452   5
  -1  -8   3 74.8633 5.60619   3
   1  -8  -3 74.0505 5.00137   5
   1  -8  -3 78.3896 4.85579   3
  -1   8   3 73.1487 4.00241   5
   1   8  -3 72.6237 5.87648   3
   1   8  -3 76.5589 5.32623   5
   1   8  -3 77.9108 5.37136   5
  -1   8   3 84.3555 5.05597   3
  -1   8   3 79.0645 4.13617   5
   0  -8  -3 5.60437 1.54939   5
   0  -8  -3 4.40108 1.54328   3
   0  -8   3 2.43791 1.42898   6
   0  -8   3 5.02962 1.44199   3
   0  -8  -3 6.55056 1.51035   5
   0   8  -3 7.04818 2.01739   3
   0   8   3 5.41811 1.78161   3
   0   8  -3 3.45701 1.47679   5
   0   8  -3 4.81763 1.60009   5
   0   8   3 5.59591 0.99264   5
   0   8   3 6.00262 1.34006   4
   0   8   3 5.80816 1.00790   5
   1  -8   3 219.718 11.4104   3
  -1  -8  -3 250.306 11.8926   3
  -1  -8  -3 237.118 11.0981   5
   1  -8   3 233.731 11.8517   5
   1  -8   3 239.779 13.2305   6
  -1   8  -3 223.674 11.7642   3
  -1   8  -3 241.965 11.5169   5
   1   8   3 232.778 9.92430   5
  -1   8  -3 220.961 11.3976   5
   1   8   3 233.510 10.0063   5
   1   8   3 225.858 11.1842   4
   2  -8   3 23.4737 3.05490   5
  -2  -8  -3 30.1485 3.11238   5
  -2  -8  -3 27.0628 3.40747   3
   2  -8   3 22.1245 2.87397   3
   2   8   3 26.8994 2.39217   5
  -2   8  -3 23.9701 3.07241   3
  -2   8  -3 29.2965 3.44074   5
  -2   8  -3 28.2847 3.25121   5
  -2   8  -3 25.6937 2.77604   4
   2   8   3 32.4686 3.51111   4
   2   8   3 30.6303 2.49460   5
   3  -8   3 52.3748 6.07992   6
   3  -8   3 48.0789 4.35206   3
  -3  -8  -3 46.4582 5.45556   6
  -3  -8  -3 45.1782 4.90274   3
   3  -8   3 47.0530 4.49377   5
  -3   8  -3 42.9202 4.50694   5
   3   8   3 52.1705 3.80571   5
  -3   8  -3 51.1939 4.54048   5
  -3   8  -3 50.4272 4.58929   3
  -3   8  -3 47.9943 4.19043   4
   3   8   3 52.9596 5.07694   4
   3   8   3 56.3877 3.84171   5
   4  -8   3 97.1776 7.25231   5
  -4  -8  -3 104.139 9.02452   6
   4   8   3 112.323 8.32796   4
  -4   8  -3 94.9229 8.56446   6
  -4   8  -3 106.024 7.29996   4
   4   8   3 107.915 6.46923   5
  -4   8  -3 102.025 7.12723   3
   4   8   3 103.926 6.34218   5
   5  -8   3 537.981 26.1480   5
  -5  -8  -3 605.225 30.2622   6
  -5   8  -3 523.460 28.5588   6
  -5   8  -3 603.084 26.5335   4
  -5   8  -3 593.213 25.9323   3
   5   8   3 594.439 24.9518   5
   5   8   3 645.383 28.3687   4
   6  -8   3 3.91583 2.20947   5
  -6  -8  -3 2.11043 3.51656   6
   6  -8   3 1.86691 1.76096   4
  -6   8  -3 5.97452 2.02665   3
   6   8   3 -0.5113 1.74532   4
   6   8   3 2.36586 1.98290   5
  -6   8  -3 -2.9567 1.98907   6
  -7  -8  -3 214.839 16.8833   6
   7  -8   3 177.472 11.3356   4
   7  -8   3 210.149 12.8625   5
   7   8   3 185.086 13.5102   4
  -7   8  -3 148.525 13.8475   6
   7   8   3 187.113 10.8908   5
  -7   8  -3 180.771 11.5496   3
  -7  -9   3 0.51541 2.46807   6
  -7   9   3 4.64609 2.36767   5
   7   9  -3 0.24818 2.31205   5
  -7   9   3 -3.6673 2.20856   4
  -7   9   3 1.45109 1.70231   3
  -6  -9   3 75.5955 8.69646   6
   6  -9  -3 88.1081 7.69703   5
   6   9  -3 86.9321 7.68558   5
  -6   9   3 86.9361 6.38106   4
  -6   9   3 97.5947 6.60681   5
   6   9  -3 89.1017 8.48044   4
  -6   9   3 88.0391 5.95005   3
  -5  -9   3 22.0441 5.45315   6
   5  -9  -3 18.7743 3.52683   5
  -5   9   3 19.4094 3.01093   5
   5   9  -3 17.0696 5.65390   5
   5   9  -3 21.0190 4.35646   4
  -5   9   3 20.4491 2.89367   4
  -5   9   3 13.6532 3.07378   3
  -4  -9   3 -2.0408 1.69089   6
   4  -9  -3 0.05062 1.29204   5
  -4   9   3 0.92358 1.37876   5
   4   9  -3 -1.3043 1.23286   5
  -4   9   3 0.23573 1.09371   3
   4   9  -3 1.00781 1.68312   4
  -4   9   3 0.30460 0.85211   4
   3  -9  -3 3.67024 2.11078   6
   3  -9  -3 3.35236 1.06031   3
   3  -9  -3 1.72552 1.52327   5
  -3   9   3 5.26403 1.43435   5
   3   9  -3 1.17886 1.51698   5
  -3   9   3 2.63605 0.89451   4
   3   9  -3 5.13934 1.93784   3
   3   9  -3 4.79728 1.76913   5
   3   9  -3 5.60959 1.94703   4
  -3   9   3 6.56274 1.35613   5
  -3   9   3 1.00868 1.27716   3
  -2  -9   3 279.216 14.1814   5
  -2  -9   3 316.993 15.4383   3
   2  -9  -3 310.266 14.4039   5
   2  -9  -3 295.622 13.2288   3
   2  -9  -3 301.712 16.4509   6
  -2   9   3 308.427 12.4761   4
   2   9  -3 314.740 15.5952   3
  -2   9   3 284.397 12.4897   5
  -2   9   3 304.672 13.5026   3
   2   9  -3 298.727 14.4327   5
   2   9  -3 254.583 13.9070   5
   2   9  -3 311.195 15.2671   4
  -2   9   3 289.913 12.8874   5
  -1  -9   3 5.23396 1.69675   5
   1  -9  -3 8.76603 1.86437   5
   1  -9  -3 6.20986 1.61643   3
  -1  -9   3 8.97166 2.61285   3
   1  -9  -3 11.6657 2.24432   5
   1   9  -3 11.1470 2.30506   5
  -1   9   3 9.46197 3.28644   3
  -1   9   3 8.09415 1.56112   4
  -1   9   3 11.9387 1.61001   5
   1   9  -3 10.1158 2.51078   3
  -1   9   3 11.7440 1.42138   5
   1   9  -3 6.87806 1.95229   5
   0  -9   3 595.119 26.4514   6
   0  -9  -3 593.366 24.1855   5
   0  -9  -3 562.952 23.5958   5
   0  -9  -3 559.028 23.8198   3
   0  -9   3 560.512 24.4045   3
   0   9   3 538.513 22.0701   5
   0   9  -3 583.785 24.2107   5
   0   9  -3 564.814 24.8205   3
   0   9   3 567.615 22.1463   5
   0   9  -3 571.587 23.9955   5
   0   9   3 564.678 23.1645   4
   0   9   3 548.256 23.8653   3
  -1  -9  -3 118.756 6.86351   5
   1  -9   3 89.0236 6.86865   5
   1  -9   3 116.741 8.52273   6
  -1  -9  -3 115.599 7.28087   3
   1  -9   3 112.878 7.17104   3
   1   9   3 106.504 5.58541   5
   1   9   3 114.420 6.89922   4
  -1   9  -3 108.678 7.22527   5
  -1   9  -3 116.650 7.13144   5
  -1   9  -3 109.529 7.44117   3
  -2  -9  -3 191.184 11.0197   3
  -2  -9  -3 191.939 9.98895   5
   2  -9   3 196.019 10.7198   5
   2  -9   3 178.187 10.0029   3
   2  -9   3 193.600 12.5715   6
  -2   9  -3 184.515 10.2782   5
   2   9   3 180.890 10.3742   4
  -2   9  -3 172.952 9.61389   4
   2   9   3 188.534 8.64845   5
   2   9   3 183.222 8.75507   5
  -2   9  -3 188.322 10.4210   3
  -2   9  -3 181.166 10.0639   5
   3  -9   3 111.299 7.78581   3
  -3  -9  -3 132.215 9.94074   6
  -3  -9  -3 131.416 8.07233   5
   3  -9   3 135.679 8.62858   5
  -3   9  -3 131.701 8.33282   3
  -3   9  -3 123.645 8.15874   5
   3   9   3 136.898 7.03676   5
   3   9   3 130.444 7.03351   5
  -3   9  -3 123.305 7.76357   4
   3   9   3 124.743 8.63006   4
  -3   9  -3 129.213 8.36164   5
   4  -9   3 266.519 14.4198   5
  -4  -9  -3 257.658 18.6968   6
   4   9   3 255.389 12.2446   5
   4   9   3 257.946 12.2199   5
   4   9   3 259.052 14.5931   4
  -4   9  -3 263.306 13.5397   3
  -4   9  -3 257.085 13.5766   5
  -4   9  -3 241.404 14.7574   4
   5  -9   3 169.088 10.9876   5
  -5  -9  -3 198.242 14.3642   6
   5   9   3 174.560 9.77955   5
   5   9   3 175.509 9.71473   5
   5   9   3 183.220 12.2035   4
  -5   9  -3 180.723 10.7274   3
  -5   9  -3 184.196 10.9878   4
  -5   9  -3 154.081 12.3935   6
   6  -9   3 71.2246 6.96493   5
  -6  -9  -3 78.5037 9.60588   6
  -6   9  -3 71.6130 7.55947   3
   6   9   3 74.6479 7.94584   4
   6   9   3 74.2469 5.98058   5
  -6   9  -3 62.8307 8.33981   6
   7   9   3 22.1373 5.26090   4
  -7   9  -3 18.1521 3.74624   3
   7   9   3 18.5314 3.65653   5
   7 -10  -3 54.0073 6.80327   5
  -7 -10   3 68.3751 9.31786   6
   7  10  -3 72.7545 8.94386   4
  -7  10   3 66.2874 5.72688   3
   7  10  -3 56.7641 6.92616   5
  -7  10   3 68.7567 6.20970   5
  -6 -10   3 25.7695 6.07166   6
   6 -10  -3 29.2382 4.30231   5
   6  10  -3 31.8409 5.84792   4
   6  10  -3 33.4473 4.99333   5
  -6  10   3 31.7553 3.77235   3
  -6  10   3 31.8607 3.94142   4
  -6  10   3 29.6458 3.98605   5
   5 -10  -3 155.156 10.2148   5
  -5 -10   3 145.741 11.8523   6
  -5  10   3 152.270 8.48010   5
  -5  10   3 157.488 8.62495   3
   5  10  -3 152.989 11.2587   4
  -5  10   3 152.023 8.23643   4
   5  10  -3 146.171 10.0390   5
   4 -10  -3 1.72870 1.48684   5
  -4 -10   3 1.23286 1.90776   6
  -4  10   3 0.74970 1.43987   5
  -4  10   3 -0.1432 1.68545   3
   4  10  -3 0.53137 1.52965   4
   4  10  -3 -0.8586 1.43643   5
   3 -10  -3 48.9206 3.90060   3
   3 -10  -3 45.9465 4.65674   5
   3  10  -3 52.8786 5.63194   4
   3  10  -3 60.3137 6.16472   3
   3  10  -3 55.4211 5.22459   5
  -3  10   3 52.7323 3.82211   5
  -3  10   3 48.6898 3.81593   5
  -3  10   3 50.1543 3.49634   4
   2 -10  -3 4.13619 1.33980   3
   2 -10  -3 2.69586 1.42955   5
  -2  10   3 4.14582 1.14945   5
   2  10  -3 1.49042 1.47463   5
  -2  10   3 1.99698 0.87889   4
  -2  10   3 7.16911 1.93688   3
   2  10  -3 3.06496 1.73933   5
   2  10  -3 5.07825 1.92854   4
   2  10  -3 3.34638 1.93616   3
  -2  10   3 4.35467 1.23566   5
  -1 -10   3 20.1867 3.56997   3
   1 -10  -3 16.7365 2.61149   3
   1 -10  -3 15.9713 3.28068   5
  -1 -10   3 20.7087 3.00968   5
   1 -10  -3 21.5968 2.99288   5
  -1  10   3 18.9775 1.97941   5
  -1  10   3 15.1819 2.62151   3
  -1  10   3 22.7656 2.30846   4
   1  10  -3 23.8731 3.24184   5
   1  10  -3 16.1711 3.26285   3
   1  10  -3 21.7373 3.22224   5
   0 -10  -3 312.317 14.5742   5
   0 -10  -3 292.423 14.0308   3
   0 -10   3 264.532 14.2175   3
   0 -10  -3 297.136 13.9629   5
   0 -10   3 295.546 15.9850   6
   0  10  -3 277.582 13.9614   5
   0  10   3 295.578 14.2550   3
   0  10  -3 294.390 14.2213   5
   0  10  -3 286.522 14.9530   3
   0  10   3 275.581 12.1441   5
   0  10   3 299.578 13.4640   4
   1 -10   3 36.1728 4.74858   3
   1 -10   3 42.8152 4.45495   5
   1 -10   3 44.6291 5.34842   6
  -1 -10  -3 45.1260 4.53649   3
  -1  10  -3 36.3803 3.59867   4
  -1  10  -3 41.0851 4.78237   3
   1  10   3 36.4323 2.88221   5
  -1  10  -3 38.2254 4.09237   5
  -1  10  -3 39.7992 4.04450   5
   1  10   3 38.7049 3.88278   4
   2 -10   3 51.1051 5.01727   5
   2 -10   3 57.4706 4.83616   3
  -2 -10  -3 47.1282 4.94506   3
  -2 -10  -3 48.8250 4.58498   5
  -2  10  -3 47.9477 4.59194   5
  -2  10  -3 32.5741 4.48453   3
   2  10   3 47.4647 3.44003   5
   2  10   3 58.1856 5.10607   4
  -2  10  -3 41.7729 4.13329   4
  -2  10  -3 48.4419 4.69886   5
   2  10   3 43.6945 3.36738   5
   3 -10   3 3.39578 1.53051   3
  -3  10  -3 3.52882 1.53805   4
   3  10   3 3.77654 1.34717   5
   3  10   3 6.07272 1.55816   5
  -3  10  -3 7.12146 2.39539   5
  -3  10  -3 6.11771 2.14126   3
   3  10   3 5.96112 2.37062   4
  -4 -10  -3 83.1031 8.56548   6
   4 -10   3 74.3795 6.66666   5
   4 -10   3 95.2793 6.93096   3
   4  10   3 79.7105 5.52292   5
  -4  10  -3 86.7610 6.70157   4
  -4  10  -3 79.7893 6.43514   3
  -4  10  -3 89.5954 7.04011   5
   4  10   3 82.8013 5.54630   5
  -5 -10  -3 66.6763 8.12978   6
   5 -10   3 58.4145 5.96663   5
  -5  10  -3 61.7236 6.11113   5
   5  10   3 57.9275 5.42225   5
   5  10   3 68.3038 7.19946   4
   5  10   3 73.2750 5.36510   5
  -5  10  -3 51.7582 5.73480   3
   6 -10   3 276.649 15.7467   5
  -6 -10  -3 286.496 19.7975   6
   6  10   3 268.432 17.0833   4
  -6  10  -3 232.820 17.4795   6
   6  10   3 276.099 13.6954   5
  -6  10  -3 270.444 15.2023   5
  -6  10  -3 259.901 14.7319   3
   6 -11  -3 25.9107 4.54994   5
  -6 -11   3 24.7357 5.79911   6
  -6  11   3 24.9366 3.64776   3
   6  11  -3 24.2935 5.27721   4
   6  11  -3 20.5926 4.25708   5
  -6  11   3 24.4407 3.66064   5
  -6  11   3 22.5040 3.58014   4
   5 -11  -3 0.89351 1.83775   5
  -5 -11   3 1.75107 2.09778   6
  -5  11   3 2.57343 1.52745   4
   5  11  -3 0.48490 2.01849   5
  -5  11   3 2.61377 1.71709   5
  -5  11   3 0.86010 1.73785   3
   5  11  -3 5.50450 2.95465   4
  -4 -11   3 246.727 15.5890   6
   4 -11  -3 233.306 13.1861   5
  -4  11   3 222.631 10.9722   5
  -4  11   3 227.274 11.4894   3
   4  11  -3 212.536 13.9919   4
   3 -11  -3 45.4163 4.99711   5
   3 -11  -3 54.6989 4.36019   3
  -3  11   3 51.3141 4.55918   3
   3  11  -3 51.0269 6.97982   4
   3  11  -3 56.6630 5.36099   5
  -3  11   3 48.3423 3.55199   4
   3  11  -3 48.8398 5.69948   3
  -3  11   3 52.5039 4.03970   5
  -3  11   3 53.9624 3.84507   5
   2 -11  -3 222.356 11.4389   3
   2 -11  -3 237.953 12.7017   5
   2  11  -3 210.908 13.2642   3
  -2  11   3 227.925 10.4544   5
  -2  11   3 237.121 11.8888   3
   2  11  -3 254.915 12.8224   5
  -2  11   3 229.195 10.3509   5
   2  11  -3 253.709 13.6091   4
  -2  11   3 225.300 10.6335   4
   1 -11  -3 74.8596 5.34617   3
   1 -11  -3 79.1102 6.07703   5
   1 -11  -3 75.5072 5.90160   5
  -1  11   3 69.7415 5.59315   3
   1  11  -3 74.4967 5.87824   5
  -1  11   3 73.0464 4.26675   5
  -1  11   3 73.2150 4.88146   4
   1  11  -3 76.4674 6.96579   5
   1  11  -3 66.8497 6.25675   3
   0 -11  -3 146.185 8.61355   5
   0 -11  -3 133.787 8.47915   3
   0 -11  -3 150.437 9.09264   5
   0 -11   3 123.485 8.60039   3
   0  11   3 142.654 8.84500   3
   0  11   3 139.778 6.77871   5
   0  11  -3 134.828 8.49321   5
   0  11  -3 138.342 9.49066   3
   0  11  -3 136.270 8.45709   5
   0  11   3 147.875 8.14777   4
   1 -11   3 432.159 20.5681   3
  -1 -11  -3 459.138 20.9996   3
  -1 -11  -3 445.763 20.2796   5
   1  11   3 434.382 18.1893   5
   1  11   3 433.532 18.3213   5
   1  11   3 469.637 20.3664   4
  -1  11  -3 448.863 21.1935   3
  -1  11  -3 472.648 20.2036   4
   2 -11   3 -2.9154 1.28147   3
  -2  11  -3 0.21744 1.29645   4
  -2  11  -3 3.38598 1.79334   3
  -2  11  -3 -0.1622 1.61895   5
   2  11   3 2.76371 1.07580   5
   2  11   3 -0.8327 1.45719   4
   2  11   3 -0.4259 0.77234   5
   3 -11   3 415.307 20.8384   3
   3 -11   3 395.896 20.9375   5
  -3 -11  -3 472.622 24.1657   6
   3  11   3 465.628 21.8874   4
  -3  11  -3 421.760 20.7511   3
  -3  11  -3 479.812 20.8183   4
   3  11   3 449.044 18.5460   5
   3  11   3 441.644 18.6857   5
   4 -11   3 23.1304 3.92504   5
  -4 -11  -3 24.3441 5.03913   6
   4  11   3 27.0724 3.35978   5
   4  11   3 16.4227 3.40415   5
  -4  11  -3 21.6496 4.01623   3
  -4  11  -3 29.7292 4.03597   4
   4  11   3 33.2099 4.67110   4
   5 -11   3 138.964 10.0168   5
  -5 -11  -3 133.113 12.5231   6
   5  11   3 147.122 8.56895   5
   5  11   3 155.973 11.4330   4
  -5  11  -3 141.180 9.68866   5
   5  11   3 139.901 8.30515   5
  -6  11  -3 77.8006 7.63459   3
   6  11   3 81.0539 6.43050   5
   6  11   3 98.4797 9.73145   4
   6 -12  -3 8.50204 3.00004   5
  -6 -12   3 1.42175 2.86417   6
  -6  12   3 -2.1973 2.25459   5
  -6  12   3 5.17244 2.63015   3
   6  12  -3 8.11379 2.84563   5
   6  12  -3 -1.9064 3.11631   4
   5 -12  -3 71.4946 7.09995   5
  -5 -12   3 84.3251 9.41424   6
  -5  12   3 75.2279 5.22369   4
  -5  12   3 78.0154 6.02757   3
   5  12  -3 64.7313 6.97819   5
   5  12  -3 73.8402 7.89897   4
   4 -12  -3 6.97533 2.37086   5
  -4 -12   3 5.39565 2.55937   6
  -4  12   3 12.2494 2.56591   3
   4  12  -3 13.1669 3.03029   5
  -4  12   3 7.89527 2.01303   5
   4  12  -3 6.61498 2.66893   4
  -4  12   3 7.05794 1.88419   5
   3 -12  -3 30.1601 4.22582   5
  -3  12   3 25.5135 3.64866   3
   3  12  -3 30.8553 5.21827   3
  -3  12   3 31.6443 3.12021   5
  -3  12   3 29.3157 2.84141   5
   3  12  -3 25.3608 4.79854   4
   3  12  -3 20.7609 3.70161   5
   2 -12  -3 76.3594 6.38925   5
   2 -12  -3 75.1378 5.48204   3
  -2  12   3 70.3833 5.79349   3
   2  12  -3 55.7690 6.59477   3
  -2  12   3 70.6378 4.24366   5
  -2  12   3 68.3265 4.64535   4
  -2  12   3 66.0606 4.37731   5
   2  12  -3 68.5630 6.58131   4
  -2  12   3 69.3676 4.54423   4
   2  12  -3 76.4997 6.25676   5
   1 -12  -3 4.86805 2.28527   3
  -1  12   3 -0.0442 0.88329   5
   1  12  -3 0.61221 1.74735   5
  -1  12   3 -2.0244 1.33613   3
   0 -12  -3 107.533 7.31364   3
   0  12   3 98.0852 5.21854   5
   0  12  -3 95.2313 7.76910   3
   0  12  -3 98.3539 7.00241   5
   0  12   3 91.7679 6.46292   4
   0  12   3 97.0588 7.26985   3
   1  12   3 122.896 7.89283   4
   1  12   3 118.402 6.66557   5
  -1  12  -3 116.756 7.61979   4
  -1  12  -3 114.116 7.84205   5
  -1  12  -3 115.218 8.66598   3
   1  12   3 110.754 5.97117   5
   2 -12   3 57.2602 5.93506   5
  -2  12  -3 53.8733 5.13160   4
  -2  12  -3 55.1730 5.64629   3
   2  12   3 58.6083 3.93728   5
  -2  12  -3 49.4348 5.05728   5
   2  12   3 53.2809 3.84762   5
   2  12   3 60.1415 5.65655   4
   3 -12   3 22.1541 4.15651   5
  -3 -12  -3 31.5043 5.71777   6
  -3  12  -3 41.7354 4.37351   4
   3  12   3 34.8465 3.23285   5
  -3  12  -3 35.2016 4.76621   3
   3  12   3 32.0768 3.31805   5
   3  12   3 36.6960 4.86083   4
  -3  12  -3 32.0659 4.41823   5
  -4 -12  -3 0.42527 1.73216   6
   4 -12   3 7.78540 2.47295   5
   4  12   3 0.42921 1.85587   5
  -4  12  -3 -1.8959 2.03187   5
   4  12   3 4.81954 2.22963   4
  -4  12  -3 -1.7592 1.96607   3
   5 -12   3 30.5274 5.08168   5
  -5 -12  -3 37.0984 6.97210   6
  -5  12  -3 37.8247 5.08863   3
   5  12   3 46.2307 6.58846   4
  -5  12  -3 43.9692 5.63956   5
   5  12   3 40.8220 4.10211   5
  -5 -13   3 30.5018 5.98039   6
   5 -13  -3 38.1421 6.86169   5
   5  13  -3 44.4313 7.26448   4
   5  13  -3 41.8048 5.70008   5
  -5  13   3 34.2065 4.48059   3
  -4 -13   3 50.1350 6.94461   6
   4 -13  -3 48.7431 5.65140   5
   4 -13  -3 43.4721 4.48940   3
  -4  13   3 42.0181 3.56958   5
  -4  13   3 38.2399 3.75106   5
   4  13  -3 47.8488 6.35064   4
   4  13  -3 41.3201 5.17011   5
  -4  13   3 45.0055 4.80204   3
   3 -13  -3 21.9155 4.02117   5
  -3  13   3 22.9950 3.71560   3
   3  13  -3 25.6206 4.86913   4
   3  13  -3 28.6838 4.19971   5
   3  13  -3 35.5617 5.82839   3
  -3  13   3 24.6319 2.96827   5
  -3  13   3 25.1758 2.63810   5
   2 -13  -3 192.469 10.5858   3
   2 -13  -3 196.615 11.8577   5
  -2  13   3 205.479 11.1636   3
  -2  13   3 179.416 9.67036   5
  -2  13   3 182.955 8.54008   5
   2  13  -3 184.488 11.1613   5
  -2  13   3 182.737 9.50033   4
   2  13  -3 199.330 12.3940   4
  -2  13   3 200.384 9.48088   4
   2  13  -3 186.719 12.5619   3
   1 -13  -3 184.621 10.4382   3
   1 -13  -3 189.561 11.6600   5
  -1  13   3 187.998 11.0146   3
   1  13  -3 178.522 12.0061   3
   1  13  -3 191.175 10.8906   5
  -1  13   3 186.528 9.87603   4
  -1  13   3 197.112 9.55487   4
  -1  13   3 175.304 9.28145   5
  -1  13   3 181.180 8.26469   5
   0  13  -3 9.51551 3.13160   3
   0  13   3 8.13415 2.46559   3
   0  13   3 9.73927 1.56117   5
   0  13   3 5.62670 2.21041   4
   0  13  -3 7.02975 2.32989   5
  -1  13  -3 334.405 16.7797   4
   1  13   3 336.760 14.1328   5
  -1  13  -3 351.920 16.8700   5
  -1  13  -3 328.656 18.2413   3
   1  13   3 361.426 17.0968   4
   1  13   3 339.160 15.2875   5
   2 -13   3 11.7618 2.92528   5
  -2  13  -3 9.20861 3.80789   3
  -2  13  -3 19.7413 3.36944   4
   2  13   3 12.3507 1.98847   5
   2  13   3 9.86865 1.72867   5
  -2  13  -3 11.6676 2.88432   5
  -3 -13  -3 54.8567 6.78115   6
   3 -13   3 42.6471 5.22276   5
   3  13   3 36.6804 3.40296   5
   3  13   3 32.5465 5.52842   4
  -3  13  -3 53.6863 5.60267   3
  -3  13  -3 49.8926 5.29911   5
   3  13   3 38.0407 3.58804   5
  -4 -13  -3 13.5277 3.94916   6
   4 -13   3 9.21274 2.97973   5
   4  13   3 9.21585 2.28974   5
   4  13   3 14.1516 3.80747   4
  -4  13  -3 9.71194 3.10714   3
  -4  13  -3 15.7645 3.75995   5
   4  13   3 13.0356 2.53679   5
   5 -13   3 179.915 12.6682   5
  -5 -13  -3 202.204 16.0508   6
   5  13   3 206.358 14.0824   4
  -5  13  -3 180.259 11.6434   5
   5  13   3 165.939 11.0083   5
  -5  13  -3 175.574 11.8691   3
  -4 -14   3 118.123 11.1221   6
  -4  14   3 91.9746 7.27396   3
   4  14  -3 106.111 8.28179   5
   4  14  -3 91.5161 9.13582   4
   3 -14  -3 29.0006 4.66365   5
   3 -14  -3 27.2465 3.85254   3
  -3  14   3 35.9343 4.40348   3
  -3  14   3 22.4865 3.16906   4
   3  14  -3 21.4098 4.98472   4
  -3  14   3 30.2657 3.11928   4
   3  14  -3 23.0378 4.06138   5
  -3  14   3 24.1040 3.34607   5
   3  14  -3 25.2064 5.05358   3
   2 -14  -3 -1.2819 1.42595   5
   2 -14  -3 0.43161 2.41524   3
   2  14  -3 7.07230 2.75428   3
   2  14  -3 1.05373 1.92618   4
   2  14  -3 -2.4991 2.11971   5
  -2  14   3 1.87143 1.77686   5
  -2  14   3 2.57887 1.62678   4
   1 -14  -3 155.378 10.3745   5
   1  14  -3 132.489 10.2994   3
   1  14  -3 117.748 10.1650   5
  -1  14   3 152.964 9.76764   3
  -1  14   3 137.188 8.40913   4
  -1  14   3 134.294 7.83233   4
   1  14  -3 144.833 10.2181   4
   0  14   3 -0.7841 1.62770   4
   0  14   3 -3.1616 2.32828   3
   0  14  -3 2.67379 1.85368   5
  -1  14  -3 3.25916 2.50013   3
   1  14   3 3.14335 1.37728   5
   1  14   3 5.56539 2.04452   4
   2  14   3 7.21861 2.79392   4
  -2  14  -3 8.67012 3.27481   3
   2  14   3 10.5926 2.06003   5
  -2  14  -3 8.36501 2.91535   5
   3 -14   3 7.26507 2.54582   5
  -3 -14  -3 3.40491 2.70571   6
   3  14   3 7.00634 2.34312   5
   3  14   3 9.82377 1.65801   5
   3  14   3 14.2634 3.74027   4
  -3  14  -3 4.45516 2.59488   5
  -3  14  -3 0.90772 2.57952   3
  -4 -14  -3 10.4224 3.50792   6
   4 -14   3 5.57253 2.45079   5
  -4  14  -3 10.0965 3.01455   5
  -4  14  -3 2.78237 3.11007   3
   4  14   3 9.28820 3.62997   4
   3 -15  -3 43.7117 5.85331   5
  -3  15   3 59.9867 5.89770   3
  -3  15   3 42.0465 4.20187   4
   3  15  -3 39.4412 6.73292   4
   2 -15  -3 0.39204 1.80083   5
   2  15  -3 3.89579 2.29664   3
  -2  15   3 -3.3591 2.15375   4
   2  15  -3 6.13905 2.70800   4
  -2  15   3 2.72981 2.27658   3
  -2  15   3 1.16249 1.83886   4
  -1  15   3 48.7669 5.04067   4
   1  15  -3 58.3261 6.20828   4
  -1  15   3 54.2508 5.78111   3
   1  15  -3 47.7204 6.18183   3
   1  15  -3 55.3580 5.57497   5
  -1  15   3 48.0341 4.59670   4
   0  15   3 112.250 7.86168   4
   0  15  -3 105.965 7.94715   5
   0  15  -3 92.0555 9.08902   3
  -1  15  -3 33.5130 5.55739   3
   1  15   3 41.8142 5.33078   4
  -1  15  -3 31.5689 4.58833   5
  -2  15  -3 108.079 8.39217   5
  -2  15  -3 107.512 9.09949   3
   2  15   3 121.098 9.42323   4
   3 -15   3 112.737 9.77360   5
  -3  15  -3 117.052 9.04647   5
   3  15   3 142.184 10.5209   4
  -3  15  -3 123.319 9.96680   3
   1  16  -3 16.2647 4.25169   5
  -1  16   3 26.8702 4.42853   3
  -1  16   3 25.5965 3.77891   4
   1  16  -3 20.1861 4.97949   3
   1  16  -3 25.6100 4.93515   4
   0  16  -3 9.56612 2.76549   4
   0  16   3 11.0423 3.26802   4
   0  16  -3 1.78715 2.72402   5
   0  16  -3 7.67949 3.33851   3
  -1  16  -3 6.42189 3.37819   3
  -1  16  -3 3.88213 2.76090   5
   1  16   3 5.73140 4.01446   4
  -9   0   4 56.4576 8.78480   6
   9   0  -4 84.3698 8.23587   4
   9   0  -4 87.2290 8.09899   5
   8   0  -4 -0.6408 1.11736   5
  -8   0   4 0.58867 2.56078   6
   7   0  -4 154.029 10.5168   4
   7   0  -4 158.001 10.5570   5
  -7   0   4 160.144 12.0169   6
  -7   0   4 146.928 9.70147   3
  -6   0   4 365.266 16.9583   4
   6   0  -4 315.165 16.7267   4
   6   0  -4 341.520 16.8800   5
   6   0  -4 316.966 19.7644   6
  -6   0   4 348.866 18.5160   6
  -6   0   4 310.626 15.7706   3
  -6   0   4 337.060 15.8951   5
  -5   0   4 58.7765 5.62686   6
   5   0  -4 55.1980 4.82515   4
  -5   0   4 53.6126 4.34363   3
  -5   0   4 52.5805 4.23710   5
  -5   0   4 47.0695 4.35007   4
   5   0  -4 59.4992 4.89161   5
   5   0  -4 48.3591 4.98838   6
  -4   0   4 559.560 22.6024   3
   4   0  -4 572.120 23.9732   6
  -4   0   4 592.385 24.2295   6
  -4   0   4 516.994 22.7069   4
  -4   0   4 537.179 22.3013   5
   4   0  -4 587.172 23.2793   5
   4   0  -4 476.167 24.0941   4
  -3   0   4 980.326 38.5017   3
  -3   0   4 1017.48 38.5251   5
   3   0  -4 1007.13 39.1093   5
   3   0  -4 1036.07 39.3037   4
  -3   0   4 1059.88 39.7830   6
   3   0  -4 994.579 39.5584   6
   2   0  -4 22.7104 1.93596   4
  -2   0   4 25.2768 1.85135   3
  -2   0   4 24.6423 1.97439   6
  -2   0   4 23.5449 1.67552   5
   2   0  -4 26.8415 2.05971   6
   2   0  -4 25.7085 1.82835   3
   2   0  -4 25.9049 1.93023   5
   1   0  -4 3505.49 128.298   2
  -1   0   4 2940.95 125.579   2
   0   0  -4 443.638 17.5453   6
   0   0   4 468.667 17.5979   3
   0   0   4 459.742 17.4992   6
   0   0  -4 463.172 17.5448   4
   0   0  -4 443.154 17.5133   3
   0   0   4 462.826 17.5499   4
  -1   0  -4 2738.30 101.503   6
  -2   0  -4 329.019 14.4678   4
  -2   0  -4 332.855 13.8317   5
   2   0   4 329.191 14.3484   4
   2   0   4 347.841 15.5064   6
  -2   0  -4 327.548 15.4278   6
   2   0   4 342.212 13.5018   5
  -3   0  -4 202.522 9.74642   5
   3   0   4 223.245 11.6343   6
   3   0   4 198.044 9.27462   5
  -3   0  -4 187.194 10.1665   4
   4   0   4 3.74930 1.74908   6
   4   0   4 2.34006 1.11077   5
  -4   0  -4 0.57180 1.38134   6
  -4   0  -4 -0.2859 1.00959   4
  -4   0  -4 4.08951 1.45884   5
   4   0   4 2.21334 1.12968   4
  -5   0  -4 36.7614 5.08923   6
   5   0   4 37.5312 5.04394   6
  -5   0  -4 40.8328 4.50395   4
   5   0   4 37.1537 4.26752   4
  -5   0  -4 35.4055 3.89760   5
   5   0   4 35.5408 3.63433   5
   6   0   4 -0.1633 1.19440   5
  -6   0  -4 2.45812 2.36154   6
   6   0   4 0.45861 1.36070   4
  -7   0  -4 191.640 15.2420   6
   7   0   4 210.565 13.2538   4
   8   0   4 10.0443 2.95230   4
   8   0   4 15.0826 3.25433   5
  -8   0  -4 3.60057 3.15073   6
   9  -1  -4 3.00728 2.50777   5
  -9  -1   4 2.72221 3.00948   6
   9  -1  -4 4.21971 2.31186   4
   9   1  -4 2.78962 2.43138   5
   9   1  -4 -0.2694 2.35312   4
  -9   1   4 3.28004 3.44634   6
   8  -1  -4 52.4580 6.43314   5
   8  -1  -4 60.8328 6.37208   4
  -8  -1   4 51.3260 7.13235   6
   8   1  -4 62.1253 6.75319   5
   8   1  -4 58.9324 6.57097   4
  -8   1   4 48.9159 7.26453   6
  -7  -1   4 13.7907 3.79210   6
   7  -1  -4 6.45131 2.59642   5
   7  -1  -4 11.1049 2.91405   4
   7   1  -4 4.00476 2.37661   5
  -7   1   4 5.15119 2.37075   3
  -7   1   4 10.3209 3.58853   6
  -6  -1   4 456.018 20.5925   3
  -6  -1   4 405.833 20.6831   4
  -6  -1   4 465.237 20.3619   5
   6  -1  -4 470.906 21.2993   5
   6  -1  -4 436.507 20.8936   4
  -6  -1   4 499.418 23.3641   6
   6   1  -4 473.600 21.4664   5
  -6   1   4 456.827 20.0490   3
   6   1  -4 439.436 24.1398   6
  -6   1   4 409.966 20.6291   4
  -6   1   4 428.257 22.4628   6
   6   1  -4 421.568 21.2716   4
  -6   1   4 470.889 20.3189   5
  -5  -1   4 279.099 13.1433   5
   5  -1  -4 270.534 13.6677   4
   5  -1  -4 263.330 14.6647   6
  -5  -1   4 262.250 14.6785   6
  -5  -1   4 238.898 13.3033   4
   5  -1  -4 281.233 13.8546   5
  -5  -1   4 279.263 13.3201   3
  -5   1   4 297.183 15.1394   6
  -5   1   4 261.182 12.6738   3
  -5   1   4 297.340 13.1684   5
   5   1  -4 280.011 14.1541   4
  -5   1   4 261.280 13.2393   4
   5   1  -4 293.354 14.6746   6
   5   1  -4 296.473 14.1127   5
   4  -1  -4 431.346 18.9533   4
  -4  -1   4 455.485 18.6169   5
   4  -1  -4 401.001 18.8596   5
   4  -1  -4 441.581 20.1259   6
  -4  -1   4 451.977 18.7712   3
  -4  -1   4 469.254 20.2416   6
  -4   1   4 459.643 18.8704   4
   4   1  -4 430.615 19.4242   4
   4   1  -4 448.780 19.7279   6
  -4   1   4 410.107 18.2212   5
  -4   1   4 478.165 20.2853   6
  -4   1   4 415.384 18.0638   3
   4   1  -4 453.819 19.2918   5
   3  -1  -4 126.082 6.87578   5
   3  -1  -4 141.462 7.00820   4
  -3  -1   4 131.635 7.37895   6
  -3  -1   4 139.382 6.92743   3
   3  -1  -4 136.185 7.59684   6
  -3   1   4 124.988 6.36848   5
  -3   1   4 137.281 6.38085   3
  -3   1   4 148.811 7.66939   6
   3   1  -4 145.388 7.46975   4
   3   1  -4 134.391 7.08886   5
   3   1  -4 149.698 7.42256   6
  -3   1   4 146.937 6.88203   4
  -2  -1   4 208.820 9.09046   6
   2  -1  -4 205.996 8.78765   5
   2  -1  -4 219.072 9.36320   6
   2  -1  -4 202.106 8.80800   4
  -2  -1   4 193.965 8.94217   3
  -2  -1   4 217.024 8.78553   5
   2   1  -4 227.865 9.53074   4
   2   1  -4 206.645 9.02235   5
   2   1  -4 177.434 8.68072   6
   2   1  -4 196.307 8.99131   3
  -2   1   4 218.632 8.36794   3
  -2   1   4 217.123 8.30542   5
  -2   1   4 220.914 9.21591   6
   1  -1  -4 1581.84 55.4042   3
  -1  -1   4 1472.96 56.1082   3
   1  -1  -4 1598.29 55.8315   6
   1   1  -4 1408.93 56.1434   3
   1   1  -4 1527.99 55.8325   5
   0  -1  -4 1050.82 40.5363   6
   0  -1   4 1117.04 40.6763   3
   0  -1   4 1098.56 40.6160   6
   0   1  -4 1103.76 40.5704   6
   0   1  -4 1076.46 40.6602   3
   1  -1   4 476.591 18.6698   5
   1  -1   4 511.546 19.5839   3
  -1  -1  -4 503.798 19.4828   4
  -1  -1  -4 510.900 18.4308   5
   1  -1   4 501.014 19.3949   4
  -1  -1  -4 482.930 20.0493   6
   1  -1   4 515.503 20.2297   6
  -1   1  -4 455.118 18.8558   5
  -1   1  -4 473.239 19.3866   4
   1   1   4 494.513 19.3848   4
  -1   1  -4 459.073 19.3683   3
  -1   1  -4 493.979 20.1563   6
   1   1   4 508.095 19.9534   6
  -2  -1  -4 167.518 9.29168   6
   2  -1   4 177.711 8.36836   4
   2  -1   4 156.715 7.62534   5
  -2  -1  -4 178.011 8.60625   4
   2  -1   4 170.171 9.32842   6
  -2  -1  -4 174.198 7.82776   5
  -2   1  -4 169.073 9.39069   6
  -2   1  -4 179.568 8.06793   5
  -2   1  -4 177.455 8.46875   3
   2   1   4 176.628 9.22423   6
   2   1   4 165.909 7.33513   5
   2   1   4 172.242 8.43678   4
  -2   1  -4 175.948 8.48908   4
  -3  -1  -4 21.5707 2.31104   5
   3  -1   4 14.4373 2.83415   6
  -3  -1  -4 19.2502 3.95245   6
  -3  -1  -4 21.2591 2.54644   4
   3  -1   4 20.7193 2.13332   5
   3   1   4 23.3619 3.10321   4
   3   1   4 22.2613 3.02879   6
  -3   1  -4 24.4005 4.53777   6
   3   1   4 22.6092 2.13072   5
  -3   1  -4 17.2168 2.37215   4
  -3   1  -4 17.8722 2.22546   5
  -4  -1  -4 10.4922 2.24582   4
   4  -1   4 7.81197 2.47976   6
  -4  -1  -4 8.26444 1.85189   5
  -4  -1  -4 9.06856 2.62059   6
   4  -1   4 7.62541 1.71391   5
   4  -1   4 7.68097 1.90613   4
  -4   1  -4 7.52113 2.28240   6
  -4   1  -4 8.52646 1.96968   5
   4   1   4 6.87510 2.35167   6
   4   1   4 10.1788 2.23382   4
  -4   1  -4 7.64324 1.93142   4
  -5  -1  -4 45.4517 4.71913   4
   5  -1   4 46.1772 4.13759   5
  -5  -1  -4 40.7419 4.21933   5
   5  -1   4 46.5606 4.49225   4
  -5  -1  -4 35.6209 5.20526   6
   5  -1   4 47.2608 5.66518   6
   5   1   4 45.2450 5.40263   6
   5   1   4 46.1484 4.70541   4
   5   1   4 42.4092 3.90261   5
  -5   1  -4 38.8332 5.22936   6
  -5   1  -4 41.7823 4.29753   5
  -5   1  -4 40.8906 4.52556   4
   6  -1   4 54.7103 5.79334   4
   6  -1   4 61.7680 5.31453   5
  -6  -1  -4 57.8539 7.47253   6
   6   1   4 60.1103 5.91993   4
   6   1   4 57.8703 5.00365   5
  -6   1  -4 51.1012 7.05703   6
   7  -1   4 2.99488 1.87356   5
   7  -1   4 6.38324 2.57770   4
  -7  -1  -4 4.16842 3.45034   6
   7   1   4 3.57327 1.83603   5
  -7   1  -4 3.55230 2.52656   6
   7   1   4 1.04316 2.07445   4
   8  -1   4 51.1141 5.74191   5
  -8  -1  -4 45.0345 8.66568   6
   8  -1   4 60.7227 6.69608   4
   8   1   4 51.7004 5.71467   5
   8   1   4 53.2780 6.41148   4
  -8   1  -4 67.4405 7.05147   3
  -8   1  -4 48.6671 8.83550   6
  -9  -2   4 9.96424 4.91651   6
   9  -2  -4 6.00090 3.33829   5
   9  -2  -4 7.94842 3.13147   4
  -9   2   4 25.3462 5.98093   6
  -9   2   4 7.22200 2.60247   3
   9   2  -4 11.0276 3.55664   5
   8  -2  -4 122.656 9.40487   4
   8  -2  -4 143.240 10.3717   5
  -8  -2   4 129.224 11.7067   6
   8   2  -4 149.495 10.6926   5
   8   2  -4 145.035 10.9504   4
  -8   2   4 118.954 11.1987   6
   7  -2  -4 116.005 8.67616   5
  -7  -2   4 116.882 9.99687   6
   7  -2  -4 119.490 8.60823   4
   7   2  -4 126.182 9.60306   4
  -7   2   4 115.876 9.85884   6
  -7   2   4 107.749 8.71030   3
   7   2  -4 114.149 8.78062   5
   6  -2  -4 5.83145 2.20480   5
   6  -2  -4 9.88788 2.46118   4
  -6  -2   4 5.66434 2.17791   3
   6  -2  -4 1.38438 2.65893   6
  -6  -2   4 5.60260 2.49997   6
  -6   2   4 12.1428 2.40676   5
   6   2  -4 4.22344 2.06204   5
  -6   2   4 10.1699 3.07229   6
  -6   2   4 4.96007 1.80204   3
   6   2  -4 6.78654 2.39581   4
   5  -2  -4 326.227 15.4096   5
  -5  -2   4 279.419 14.3869   5
  -5  -2   4 296.385 14.8459   3
   5  -2  -4 333.476 16.9046   6
  -5  -2   4 350.451 16.9665   6
   5  -2  -4 327.270 15.0423   4
  -5   2   4 306.807 14.3361   5
   5   2  -4 325.340 15.5749   5
   5   2  -4 307.132 15.7949   4
  -5   2   4 320.059 16.5438   6
   5   2  -4 324.186 15.9146   6
  -5   2   4 305.645 14.7278   4
   4  -2  -4 13.6504 2.63268   6
  -4  -2   4 10.9817 2.08872   3
  -4  -2   4 13.7945 2.12983   5
  -4  -2   4 10.2931 2.42606   6
   4  -2  -4 11.7216 2.08513   5
   4  -2  -4 11.2732 2.04307   4
   4   2  -4 11.6371 2.17776   6
  -4   2   4 14.6952 2.81984   6
   4   2  -4 12.2489 2.25467   5
  -4   2   4 13.2031 2.16142   4
   4   2  -4 11.4683 2.34887   4
  -4   2   4 13.3191 2.03030   5
  -3  -2   4 1067.70 43.8936   3
  -3  -2   4 1159.71 42.6486   5
  -3  -2   4 1057.23 43.3951   6
   3  -2  -4 1147.71 42.9014   5
   3  -2  -4 1114.22 42.4436   4
   3  -2  -4 1187.14 44.0751   6
   3   2  -4 997.041 42.7480   6
  -3   2   4 1048.48 41.9583   5
   3   2  -4 1210.31 43.7774   4
   3   2  -4 1173.34 43.2116   5
  -3   2   4 1028.25 42.1263   4
  -3   2   4 1234.57 43.8923   6
  -2  -2   4 758.260 30.4140   6
   2  -2  -4 773.618 29.7317   4
  -2  -2   4 730.642 30.4943   3
  -2  -2   4 746.665 30.1056   5
   2  -2  -4 853.819 31.0612   6
   2  -2  -4 750.380 29.9671   5
  -2   2   4 857.062 30.7657   6
   2   2  -4 785.810 30.4712   5
   2   2  -4 816.468 30.7588   3
  -2   2   4 788.378 29.1284   3
  -2   2   4 809.994 29.2561   5
  -2   2   4 835.646 29.2846   5
   1   2  -4 2181.20 80.6713   3
   0  -2   4 629.692 23.7597   3
   0  -2   4 618.865 23.7533   6
   0  -2  -4 606.651 23.0896   4
   0   2   4 606.370 23.0342   4
   0   2  -4 605.062 23.7517   3
   0   2  -4 617.218 23.6504   6
  -1  -2  -4 2240.53 87.3954   6
   1  -2   4 2370.45 87.7082   6
   1  -2   4 2336.88 86.3491   5
  -1   2  -4 2390.98 87.6878   6
  -1   2  -4 2404.70 86.9309   3
   2  -2   4 114.477 5.58776   5
  -2  -2  -4 111.522 6.26081   4
  -2  -2  -4 109.209 5.41617   5
  -2  -2  -4 104.848 6.72532   6
   2  -2   4 99.8873 5.71014   4
  -2   2  -4 102.616 6.65650   4
   2   2   4 107.570 6.03899   4
  -2   2  -4 96.2680 5.72786   3
  -2   2  -4 106.913 6.85306   6
   2   2   4 108.686 4.89002   5
  -2   2  -4 109.674 5.74495   5
   3  -2   4 5.39450 1.32752   5
  -3  -2  -4 4.13095 1.33262   5
  -3  -2  -4 5.33873 1.51465   4
  -3  -2  -4 7.18280 2.03855   6
   3  -2   4 2.34747 1.46151   6
   3   2   4 4.10551 1.02674   5
   3   2   4 4.94079 1.60016   6
  -3   2  -4 2.09379 1.40196   3
   3   2   4 5.21765 1.50360   4
  -3   2  -4 5.40238 1.46284   4
  -3   2  -4 6.69317 1.50084   5
  -3   2  -4 5.98442 1.98247   6
  -4  -2  -4 216.404 11.8855   4
   4  -2   4 222.613 10.9536   5
  -4  -2  -4 231.421 13.5288   6
  -4  -2  -4 221.534 11.2723   5
   4  -2   4 211.670 11.3098   4
   4  -2   4 224.872 13.3207   6
  -4   2  -4 220.548 11.8256   4
  -4   2  -4 212.037 11.2895   5
   4   2   4 221.327 10.7793   5
   4   2   4 228.209 12.9281   6
   4   2   4 222.579 11.9202   4
  -4   2  -4 222.382 13.3669   6
  -4   2  -4 235.452 11.7268   3
   5  -2   4 5.47538 1.84292   4
   5  -2   4 2.39137 1.49523   5
  -5  -2  -4 4.01861 1.54227   5
  -5  -2  -4 3.38534 1.43517   4
  -5  -2  -4 7.68850 2.87596   6
   5  -2   4 2.90776 2.41919   6
  -5   2  -4 7.55258 2.00303   3
   5   2   4 4.35509 1.90990   4
  -5   2  -4 5.19883 1.74433   5
  -5   2  -4 0.24155 1.77176   6
  -5   2  -4 3.95088 1.64227   4
   5   2   4 5.52223 1.54856   5
   5   2   4 1.23932 1.89049   6
   6  -2   4 8.88606 2.40075   5
   6  -2   4 8.83383 2.45600   4
  -6  -2  -4 7.21199 3.88130   6
   6   2   4 5.67446 1.86649   5
  -6   2  -4 13.0644 2.88827   3
   7  -2   4 16.2593 3.51634   4
   7  -2   4 14.2159 3.10002   5
  -7  -2  -4 12.1144 3.94295   6
   7   2   4 18.4664 3.45336   5
   7   2   4 14.0592 3.97899   4
  -7   2  -4 10.6068 4.40149   6
  -7   2  -4 19.7679 3.85265   3
  -8  -2  -4 -2.3509 3.58013   6
   8  -2   4 -0.2764 1.89493   5
   8  -2   4 -1.2466 2.01748   4
   8   2   4 1.62255 2.44881   4
  -8   2  -4 -2.7314 1.86470   3
  -8   2  -4 3.24996 2.69614   6
   8   2   4 3.74635 2.33675   5
   8  -3  -4 95.2196 8.69450   5
  -8  -3   4 110.643 11.2165   6
   8  -3  -4 112.173 8.71015   4
  -8   3   4 88.1784 10.0842   6
   8   3  -4 117.637 9.45334   5
   8   3  -4 125.858 10.5575   4
  -8   3   4 115.097 8.23711   3
  -7  -3   4 1.24228 2.02376   6
   7  -3  -4 -2.1831 1.28468   5
   7  -3  -4 -2.1826 1.33136   4
  -7   3   4 -1.8632 1.23064   3
   7   3  -4 1.27276 1.59959   5
  -7   3   4 2.61181 3.03167   6
   7   3  -4 -1.5224 1.17435   4
   6  -3  -4 300.491 15.8076   5
   6  -3  -4 290.556 17.3160   6
  -6  -3   4 321.576 17.7694   6
   6  -3  -4 313.349 15.2950   4
  -6  -3   4 306.201 15.7843   3
   6   3  -4 283.013 15.7475   5
  -6   3   4 299.391 17.2187   6
  -6   3   4 319.820 14.8947   5
  -6   3   4 319.807 15.3328   4
   6   3  -4 335.192 16.7976   6
   6   3  -4 302.183 16.5702   4
   5  -3  -4 4.48540 2.15108   6
  -5  -3   4 0.86862 1.17871   5
   5  -3  -4 1.38403 1.06907   4
  -5  -3   4 2.76521 1.50389   3
  -5  -3   4 2.65083 1.80876   6
   5  -3  -4 4.45786 1.51131   5
   5   3  -4 0.34266 1.15517   6
   5   3  -4 3.10178 1.34899   5
  -5   3   4 2.61231 1.12318   5
  -5   3   4 2.45258 1.20598   4
  -5   3   4 1.63704 1.61051   6
   5   3  -4 0.99680 1.41226   4
  -4  -3   4 33.6844 3.12822   5
  -4  -3   4 35.0439 3.91587   6
  -4  -3   4 34.0265 3.40499   3
   4  -3  -4 29.4362 3.12197   5
   4  -3  -4 26.9565 2.70182   4
   4  -3  -4 27.8505 3.86179   6
   4   3  -4 35.9011 3.69002   4
   4   3  -4 37.4780 3.52665   5
  -4   3   4 32.4756 2.70906   5
  -4   3   4 28.2667 3.24647   4
   4   3  -4 32.4383 3.38413   6
  -4   3   4 33.1554 4.01830   6
  -3  -3   4 -1.0259 0.81254   3
  -3  -3   4 0.28059 0.62484   5
   3  -3  -4 -1.7957 0.97525   6
  -3  -3   4 0.78559 0.75784   6
   3  -3  -4 1.73994 0.86154   5
   3   3  -4 0.40225 0.51113   5
   3   3  -4 0.14671 0.64054   3
  -3   3   4 -0.5369 0.39602   5
  -3   3   4 0.30112 0.35407   3
  -3   3   4 0.00151 0.78791   6
  -3   3   4 0.09408 0.39374   4
   2  -3  -4 0.73857 0.31242   4
  -2  -3   4 0.89045 0.77762   3
   2  -3  -4 1.34076 0.87098   6
   2  -3  -4 1.11966 0.53336   5
  -2  -3   4 1.27009 0.77082   5
  -2  -3   4 -0.3620 0.43525   6
  -2   3   4 0.79987 0.30647   5
   2   3  -4 0.27732 0.75340   3
  -2   3   4 1.41068 0.37798   4
  -2   3   4 1.29337 0.22908   3
   2   3  -4 2.77801 0.87858   5
  -2   3   4 0.63147 0.31068   5
  -1  -3   4 48.1966 3.18680   3
  -1  -3   4 44.8769 2.81574   5
   1  -3  -4 42.6938 2.08178   5
   1  -3  -4 44.9864 2.03286   3
   1  -3  -4 45.7716 2.07108   5
   1   3  -4 40.0682 2.86197   5
   1   3  -4 42.8573 3.21106   3
   0  -3   4 1629.19 59.0046   3
   0  -3  -4 1575.81 58.0314   4
   0  -3   4 1641.15 59.1854   6
   0   3  -4 1486.60 58.7321   5
   0   3  -4 1629.31 59.1165   3
   0   3   4 1555.62 58.0074   4
   0   3  -4 1522.46 58.5957   5
  -1  -3  -4 0.84514 0.36852   5
   1  -3   4 0.84441 0.55013   3
   1  -3   4 0.71588 0.51364   5
   1  -3   4 1.97427 0.92774   6
  -1  -3  -4 1.52199 0.78035   6
  -1  -3  -4 0.28148 0.52461   4
   1   3   4 0.55760 0.57232   4
  -1   3  -4 0.99653 0.72381   6
  -1   3  -4 0.63179 0.57495   4
  -1   3  -4 0.67265 0.52333   5
  -1   3  -4 0.37310 0.49171   3
   2  -3   4 46.8709 3.51943   5
  -2  -3  -4 52.3328 4.51753   6
   2  -3   4 59.4854 4.87992   6
  -2  -3  -4 59.3753 4.27837   4
   2  -3   4 57.3453 4.06690   3
  -2  -3  -4 56.1287 3.54417   5
   2  -3   4 60.8750 3.94519   4
  -2   3  -4 61.4260 3.99638   5
  -2   3  -4 64.9998 5.02188   6
   2   3   4 59.1246 3.02234   5
   2   3   4 57.8494 4.11292   4
  -2   3  -4 53.2975 3.86106   4
  -2   3  -4 59.0768 4.03389   3
   2   3   4 63.5331 4.60413   6
  -3  -3  -4 90.5208 5.44004   5
   3  -3   4 80.3928 6.65859   6
  -3  -3  -4 91.1341 6.92676   6
   3  -3   4 82.5141 6.18623   5
   3  -3   4 88.3208 5.55841   4
  -3  -3  -4 87.2409 6.03854   4
   3   3   4 84.4876 4.75673   5
  -3   3  -4 91.1660 6.95555   6
  -3   3  -4 94.1289 6.71344   3
  -3   3  -4 80.4196 5.58690   4
   3   3   4 89.3434 6.01262   4
   3   3   4 94.0777 6.60536   6
  -3   3  -4 93.3757 5.74155   5
   4  -3   4 154.714 8.46060   5
  -4  -3  -4 157.709 10.7035   6
  -4  -3  -4 156.767 9.28363   4
  -4  -3  -4 146.224 8.45825   5
   4  -3   4 147.738 8.54692   4
   4  -3   4 137.491 10.0440   6
  -4   3  -4 146.833 8.92284   4
   4   3   4 158.463 9.36205   4
  -4   3  -4 138.116 8.59359   5
  -4   3  -4 161.272 8.91240   3
   4   3   4 150.868 7.83990   5
   4   3   4 156.682 9.97433   6
  -4   3  -4 156.823 10.5844   6
  -5  -3  -4 3.68222 2.39046   6
   5  -3   4 3.51198 1.65754   5
   5  -3   4 9.45919 3.18667   6
  -5  -3  -4 5.17893 2.11654   5
   5  -3   4 5.11918 1.72878   4
  -5  -3  -4 3.92591 1.60023   4
   5   3   4 3.59886 1.75618   4
  -5   3  -4 5.21778 2.63967   6
   5   3   4 4.28457 1.64880   5
  -5   3  -4 7.38629 2.04135   5
   5   3   4 3.95603 1.87259   6
  -5   3  -4 9.46366 2.61546   4
  -5   3  -4 7.37075 1.96590   3
   6  -3   4 4.59116 1.71832   5
  -6  -3  -4 0.10101 1.70769   6
   6  -3   4 2.28522 1.78620   4
   6   3   4 0.71268 1.20308   5
  -6   3  -4 0.08233 1.41328   3
  -6   3  -4 3.23843 2.68154   6
   6   3   4 0.65098 1.68984   4
  -7  -3  -4 6.63654 3.63977   6
   7  -3   4 4.21188 2.34057   5
   7  -3   4 3.02366 1.96171   4
  -7   3  -4 4.56913 3.01247   6
   7   3   4 6.58051 2.27546   5
  -7   3  -4 6.74465 2.47713   3
   8  -3   4 8.36842 2.84944   4
  -8  -3  -4 6.13758 3.78639   6
   8  -3   4 6.17080 2.59510   5
  -8   3  -4 3.94752 2.22712   3
  -8   3  -4 5.14509 3.48469   6
   8   3   4 3.23866 2.01186   5
   8   3   4 7.45569 2.61451   4
   8  -4  -4 10.1128 3.20167   5
   8  -4  -4 10.5983 2.71257   4
  -8  -4   4 10.7222 4.49415   6
  -8   4   4 23.7206 3.84519   3
  -8   4   4 9.96356 2.75528   3
  -8   4   4 13.1447 4.95399   6
   8   4  -4 12.1305 3.92048   4
   8   4  -4 19.4286 4.29048   5
   7  -4  -4 159.635 10.4363   5
  -7  -4   4 158.103 12.2752   6
   7  -4  -4 134.143 9.07548   4
  -7   4   4 145.275 13.6356   6
   7   4  -4 155.829 11.2086   4
  -7   4   4 144.554 9.71908   4
  -7   4   4 136.340 8.47540   3
   7   4  -4 142.549 10.1407   5
   6  -4  -4 30.8667 5.72718   6
  -6  -4   4 48.0230 5.84839   6
   6  -4  -4 43.5239 4.15630   4
   6  -4  -4 42.9956 5.55033   5
  -6   4   4 43.7472 3.84064   3
  -6   4   4 47.1611 4.40570   4
  -6   4   4 39.5750 4.12519   5
  -6   4   4 46.8154 6.05946   6
   6   4  -4 33.4794 5.46396   4
   6   4  -4 38.7255 4.73746   5
  -5  -4   4 1145.07 46.0250   3
   5  -4  -4 1075.54 45.4837   4
   5  -4  -4 1110.08 47.4541   6
   5  -4  -4 1157.09 45.4740   5
  -5  -4   4 1092.47 47.0922   6
  -5  -4   4 1054.86 44.5852   5
  -5   4   4 1121.97 46.9286   6
   5   4  -4 1145.50 45.7163   5
   5   4  -4 1161.08 46.6811   4
  -5   4   4 1166.21 44.4106   4
  -5   4   4 1195.61 43.5583   3
  -5   4   4 1139.39 44.0892   5
  -4  -4   4 163.889 8.55979   5
   4  -4  -4 160.372 8.72752   5
  -4  -4   4 169.559 9.33695   3
   4  -4  -4 153.497 7.76547   4
  -4  -4   4 142.096 9.36136   6
   4  -4  -4 163.409 10.1072   6
   4   4  -4 166.914 9.73711   4
  -4   4   4 160.463 7.89390   5
  -4   4   4 164.725 7.35831   3
  -4   4   4 161.596 9.72717   6
   4   4  -4 158.579 8.97266   5
  -4   4   4 146.875 7.75343   4
  -3  -4   4 896.335 34.3219   5
   3  -4  -4 860.098 33.0417   4
   3  -4  -4 823.201 34.1661   5
  -3  -4   4 773.929 34.5543   3
   3  -4  -4 909.155 35.9760   6
  -3  -4   4 870.113 35.2237   6
  -3   4   4 881.938 33.2274   5
   3   4  -4 881.369 34.7592   5
   3   4  -4 950.068 35.6363   4
   3   4  -4 831.276 34.9337   3
  -3   4   4 907.520 33.1936   5
  -3   4   4 924.488 35.4459   6
  -3   4   4 830.016 33.0686   4
  -3   4   4 908.963 32.6852   3
   2  -4  -4 395.371 16.7837   6
  -2  -4   4 386.720 16.3731   3
  -2  -4   4 385.052 15.7058   5
   2  -4  -4 368.425 15.2982   5
   2  -4  -4 369.228 14.0544   4
   2   4  -4 370.149 16.3384   3
  -2   4   4 378.632 14.1857   3
  -2   4   4 362.574 14.1043   4
   2   4  -4 382.153 15.9579   5
  -2   4   4 362.991 14.1180   5
  -2   4   4 375.239 14.1114   5
   1  -4  -4 337.049 12.9249   3
   1  -4  -4 334.096 13.1095   5
  -1  -4   4 340.733 13.9133   5
   1  -4  -4 334.634 13.0154   5
  -1  -4   4 327.377 15.3949   3
   1   4  -4 326.053 14.4874   3
   1   4  -4 333.958 14.0293   5
   0  -4  -4 21.7244 1.41409   5
   0  -4  -4 21.4599 1.40046   5
   0  -4   4 22.5051 2.26706   6
   0  -4  -4 21.1152 1.58044   4
   0  -4  -4 21.7880 1.85795   3
   0  -4   4 24.6753 2.26173   3
   0   4  -4 23.8433 2.29203   3
   0   4  -4 24.6918 2.18552   5
   0   4   4 24.8803 1.71152   4
   0   4  -4 23.8611 2.20837   5
   1  -4   4 176.634 8.29195   5
   1  -4   4 175.694 9.31464   6
  -1  -4  -4 174.066 7.55303   5
  -1  -4  -4 173.991 8.15588   4
  -1   4  -4 181.966 8.55900   3
  -1   4  -4 160.135 8.91294   5
  -1   4  -4 189.130 9.25891   6
   1   4   4 171.697 8.16069   4
  -1   4  -4 171.143 8.27418   4
  -2  -4  -4 0.81986 0.77320   6
   2  -4   4 0.84296 0.67174   5
  -2  -4  -4 0.08180 0.74686   4
   2  -4   4 -0.1358 0.60760   3
  -2  -4  -4 0.87123 0.64017   5
   2  -4   4 1.86111 1.15981   6
   2  -4   4 1.83544 0.89617   4
  -2   4  -4 0.01995 0.54343   4
   2   4   4 0.88673 0.43600   5
  -2   4  -4 0.72495 1.02614   6
   2   4   4 2.63505 0.94911   4
  -2   4  -4 1.35770 0.73383   5
  -2   4  -4 1.08079 0.71198   3
   2   4   4 1.32008 0.50881   5
   3  -4   4 1327.16 54.6690   4
  -3  -4  -4 1405.96 55.6075   4
   3  -4   4 1407.24 57.3944   6
  -3  -4  -4 1444.83 54.7656   5
  -3  -4  -4 1436.89 57.3571   6
   3  -4   4 1523.00 55.1055   5
  -3   4  -4 1442.10 55.3425   4
   3   4   4 1463.23 55.8394   4
  -3   4  -4 1391.59 55.1121   5
   3   4   4 1440.36 53.7312   5
  -3   4  -4 1326.59 54.8424   3
  -3   4  -4 1502.87 57.6024   6
   3   4   4 1490.81 56.6573   6
   4  -4   4 41.6909 3.97832   4
  -4  -4  -4 42.5529 3.94628   5
   4  -4   4 40.9216 3.85184   5
   4  -4   4 43.9906 6.51804   6
  -4  -4  -4 40.3951 4.30146   4
  -4  -4  -4 41.6306 5.12198   6
   4   4   4 43.4510 4.55706   4
  -4   4  -4 40.7887 3.89829   3
  -4   4  -4 41.0050 5.36663   6
   4   4   4 44.0804 3.48896   5
  -4   4  -4 41.6601 4.65189   5
   4   4   4 39.9229 4.74984   6
  -4   4  -4 46.0485 4.34849   4
  -5  -4  -4 236.909 15.1321   6
   5  -4   4 224.708 12.1351   5
   5  -4   4 232.722 12.3158   4
  -5  -4  -4 219.802 12.2845   5
   5   4   4 229.643 11.3495   5
  -5   4  -4 232.060 12.4696   3
  -5   4  -4 235.880 15.0039   6
  -5   4  -4 226.520 12.8970   4
   5   4   4 227.668 13.2117   4
   6  -4   4 -0.2996 1.49908   5
  -6  -4  -4 5.84200 2.66378   6
   6  -4   4 2.86130 1.42409   4
   6   4   4 5.85571 1.86476   5
  -6   4  -4 2.25867 2.78133   6
   6   4   4 -0.4903 1.43390   4
  -6   4  -4 4.09935 1.99085   3
   7  -4   4 0.84642 1.34708   4
  -7  -4  -4 6.84785 3.58060   6
   7  -4   4 3.91856 2.27892   5
  -7   4  -4 1.41945 2.14008   3
   7   4   4 4.39220 2.01634   5
  -7   4  -4 4.57927 3.12211   6
  -8  -4  -4 15.3055 5.37221   6
   8  -4   4 14.3815 3.37686   5
   8  -4   4 12.1920 3.45626   4
  -8   4  -4 16.3868 3.87338   3
   8   4   4 9.93143 2.89938   5
  -8   4  -4 14.8367 5.60164   6
   8  -5  -4 12.1511 2.86336   4
  -8  -5   4 18.0460 4.89430   6
   8  -5  -4 11.8634 3.37784   5
   8   5  -4 10.2125 3.15713   5
  -8   5   4 12.9341 4.36312   6
  -8   5   4 11.1721 2.57029   3
   8   5  -4 11.5989 3.90839   4
  -8   5   4 2.44237 2.96209   3
   7  -5  -4 67.3650 6.41702   5
   7  -5  -4 56.9366 5.40619   4
  -7   5   4 66.4234 5.15199   3
  -7   5   4 53.4393 7.05451   6
   7   5  -4 63.7127 6.54882   5
   7   5  -4 63.6454 6.91505   4
  -7   5   4 68.6481 6.14114   4
   6  -5  -4 -1.6634 1.01164   4
   6  -5  -4 1.02728 1.52480   5
  -6  -5   4 1.19434 2.22281   6
  -6   5   4 2.00538 2.47516   6
  -6   5   4 0.86533 1.67414   4
  -6   5   4 0.97121 1.50193   5
   6   5  -4 -0.7857 1.48900   4
  -6   5   4 -0.0083 1.02982   3
  -5  -5   4 339.863 16.1206   5
   5  -5  -4 330.066 15.2699   4
  -5  -5   4 346.319 17.0843   3
  -5  -5   4 373.086 18.7124   6
   5  -5  -4 321.006 16.3108   5
  -5   5   4 350.796 14.5935   3
   5   5  -4 355.512 17.8498   4
  -5   5   4 342.502 17.9720   6
   5   5  -4 340.402 16.8421   5
  -5   5   4 312.772 15.1234   4
  -5   5   4 345.736 15.3174   5
  -4  -5   4 46.7357 4.17261   5
  -4  -5   4 50.4313 4.94037   3
   4  -5  -4 52.0806 5.40392   6
   4  -5  -4 54.7361 4.41234   5
  -4  -5   4 50.4707 5.10469   6
   4  -5  -4 47.4442 3.35562   4
  -4   5   4 51.6338 3.65357   5
  -4   5   4 51.8364 3.17742   3
   4   5  -4 55.5979 5.16787   4
   4   5  -4 53.3553 4.59951   5
  -4   5   4 47.7825 3.47585   4
  -4   5   4 50.6307 4.95319   6
   3  -5  -4 202.889 8.56168   4
  -3  -5   4 224.599 11.1633   6
  -3  -5   4 187.733 10.4236   3
   3  -5  -4 204.675 9.93824   5
   3  -5  -4 204.694 11.4024   6
  -3  -5   4 199.858 10.0035   5
  -3   5   4 211.388 8.87701   5
   3   5  -4 191.462 10.7470   4
  -3   5   4 204.105 8.73055   4
   3   5  -4 217.425 11.0194   3
   3   5  -4 214.614 10.5340   5
  -3   5   4 196.265 8.89095   5
  -3   5   4 210.003 8.53344   3
  -2  -5   4 222.580 11.0928   3
   2  -5  -4 225.959 10.1790   5
  -2  -5   4 227.849 10.5638   5
   2  -5  -4 224.599 9.14189   3
   2  -5  -4 232.656 11.6807   6
   2   5  -4 235.518 11.4241   3
  -2   5   4 218.521 8.75798   4
  -2   5   4 230.616 9.20376   3
   2   5  -4 235.902 10.8812   5
  -2   5   4 226.550 8.93066   5
  -2   5   4 234.024 8.90382   5
   1  -5  -4 8.04713 1.09501   5
  -1  -5   4 10.1757 1.51421   5
  -1  -5   4 7.67195 1.59369   3
   1  -5  -4 7.86005 1.11599   3
   1  -5  -4 8.37421 1.17408   5
  -1   5   4 7.94135 1.02696   3
  -1   5   4 6.58014 0.63233   4
   1   5  -4 7.03622 1.53487   5
   1   5  -4 8.46797 1.80431   3
   0  -5   4 596.604 23.9409   6
   0  -5  -4 509.899 20.9519   3
   0  -5  -4 534.337 20.5574   5
   0  -5   4 517.925 21.6990   3
   0  -5  -4 513.735 20.4320   5
   0   5  -4 537.513 21.9997   3
   0   5  -4 535.520 21.5067   5
   0   5  -4 547.825 21.7567   5
   0   5   4 499.200 20.5199   4
   1  -5   4 65.7265 4.40646   5
  -1  -5  -4 64.4811 4.11907   4
  -1  -5  -4 75.2090 3.97003   5
   1  -5   4 69.9188 4.54462   3
   1  -5   4 68.5643 5.24523   6
  -1   5  -4 72.2474 4.66501   3
  -1   5  -4 79.8740 5.31380   6
  -1   5  -4 72.5453 4.57962   5
   1   5   4 62.5620 4.16023   4
  -1   5  -4 61.3589 4.20433   4
   2  -5   4 327.538 15.0948   3
   2  -5   4 348.920 15.1776   5
  -2  -5  -4 359.008 15.5675   3
  -2  -5  -4 362.905 15.4389   4
  -2  -5  -4 346.998 16.5340   6
   2  -5   4 355.742 16.9701   6
  -2   5  -4 322.708 14.9496   4
   2   5   4 343.117 13.4496   5
  -2   5  -4 346.763 16.5712   6
   2   5   4 343.845 13.5177   5
   2   5   4 336.927 15.3179   4
  -2   5  -4 329.082 15.1605   5
  -2   5  -4 326.731 16.3475   3
  -3  -5  -4 620.026 26.8624   4
   3  -5   4 582.639 25.8857   4
   3  -5   4 631.930 28.7764   6
   3  -5   4 577.146 26.0989   5
  -3  -5  -4 633.426 26.0585   5
  -3  -5  -4 645.370 28.5792   6
  -3  -5  -4 646.909 27.0366   3
  -3   5  -4 693.696 26.8880   5
  -3   5  -4 613.959 26.3129   3
   3   5   4 646.645 25.0140   5
  -3   5  -4 655.304 28.6386   6
  -3   5  -4 669.794 26.7390   4
   3   5   4 665.332 27.2412   4
  -4  -5  -4 18.3082 3.20525   4
  -4  -5  -4 16.4281 3.60108   6
  -4  -5  -4 19.2545 2.70283   5
   4  -5   4 15.4839 2.79907   5
   4  -5   4 13.1151 2.40261   4
  -4  -5  -4 12.0700 2.48296   3
   4  -5   4 17.1105 3.75688   6
  -4   5  -4 15.1410 2.71961   3
   4   5   4 16.0836 2.02681   5
  -4   5  -4 14.8846 3.52327   6
  -4   5  -4 15.9161 2.79076   4
   4   5   4 19.1238 3.48206   4
  -4   5  -4 20.1008 2.91166   5
  -5  -5  -4 6.80688 2.71879   6
   5  -5   4 1.56058 1.28242   5
   5  -5   4 2.40876 1.42398   4
  -5   5  -4 1.72482 1.70023   4
  -5   5  -4 2.64948 1.30060   3
   5   5   4 3.24287 1.71691   4
  -5   5  -4 0.60671 1.72876   6
   5   5   4 4.28347 1.34124   5
  -6  -5  -4 15.1482 4.31140   6
   6  -5   4 19.0061 3.53324   4
   6  -5   4 19.9821 3.58948   5
  -6   5  -4 9.47781 2.59658   3
   6   5   4 11.9492 3.30531   4
   6   5   4 15.9751 2.86788   5
  -6   5  -4 13.7874 4.60041   6
  -7  -5  -4 11.0774 4.41701   6
   7  -5   4 8.14159 2.64491   5
   7  -5   4 2.08641 1.88637   4
   7   5   4 7.40171 2.18176   5
  -7   5  -4 4.59725 2.13930   3
  -7   5  -4 3.21484 3.31761   6
   7   5   4 4.05313 2.38430   4
   8  -5   4 4.89031 2.92366   5
   8  -5   4 9.22489 3.20903   4
   8   5   4 18.1465 3.98078   4
   8   5   4 7.72517 2.56835   5
  -8   5  -4 12.0814 5.98720   6
  -8   5  -4 15.0403 3.66178   3
   8  -6  -4 0.76148 2.06261   4
   8  -6  -4 2.38118 2.40393   5
  -8  -6   4 -2.5096 2.52365   6
  -8   6   4 2.09990 1.64824   3
  -8   6   4 1.37015 3.05769   6
   8   6  -4 0.59732 2.21793   5
   7  -6  -4 55.4411 4.92676   4
  -7  -6   4 68.6674 8.29524   6
   7  -6  -4 57.4584 6.17952   5
   7   6  -4 59.8986 6.96333   4
   7   6  -4 56.7210 6.32572   5
  -7   6   4 62.1591 7.74419   6
  -7   6   4 65.9671 4.97591   3
  -7   6   4 66.2734 5.82177   4
   6  -6  -4 19.9266 3.56813   5
  -6  -6   4 21.0987 4.50590   6
   6  -6  -4 21.3209 2.81805   4
  -6   6   4 23.4335 3.43850   5
   6   6  -4 20.1864 4.26109   4
  -6   6   4 24.4971 5.23379   6
  -6   6   4 22.2689 3.37627   4
   6   6  -4 27.9908 4.18645   5
   5  -6  -4 48.4535 4.73415   5
   5  -6  -4 45.0804 3.62040   4
  -5  -6   4 47.3211 5.75765   6
   5  -6  -4 42.9224 5.97672   6
   5   6  -4 59.4233 5.90750   4
  -5   6   4 49.0570 5.81601   6
  -5   6   4 49.5937 4.14480   5
  -5   6   4 49.4855 4.10729   4
  -5   6   4 51.1674 3.50142   3
   5   6  -4 51.6057 5.17691   5
  -4  -6   4 -0.4683 1.14402   6
  -4  -6   4 1.63495 1.59243   3
   4  -6  -4 0.88588 1.60674   6
  -4  -6   4 2.57525 1.29390   5
   4  -6  -4 1.59074 1.05884   5
   4   6  -4 4.48441 1.62223   5
  -4   6   4 2.15383 0.80918   3
  -4   6   4 -0.0287 0.80488   5
   4   6  -4 0.92044 1.25420   4
  -4   6   4 0.50635 0.84881   5
  -4   6   4 4.93973 2.23186   6
  -4   6   4 -0.7424 0.73128   4
  -3  -6   4 594.491 25.1686   3
  -3  -6   4 578.607 25.3488   6
   3  -6  -4 571.039 26.0375   6
  -3  -6   4 565.311 24.1345   5
   3  -6  -4 580.357 24.0789   5
  -3   6   4 587.364 22.5792   5
   3   6  -4 615.392 25.4922   3
  -3   6   4 540.803 22.3031   4
   3   6  -4 603.185 25.4858   4
  -3   6   4 566.827 22.6755   5
  -3   6   4 591.572 22.4681   3
   3   6  -4 595.871 24.7362   5
  -2  -6   4 4.98835 1.45742   5
   2  -6  -4 5.53463 1.26035   5
   2  -6  -4 2.52237 1.68240   6
   2  -6  -4 3.89023 0.73930   3
  -2  -6   4 2.64748 1.30965   3
  -2   6   4 3.32140 0.53543   4
   2   6  -4 3.89820 1.35426   5
  -2   6   4 3.74053 0.66088   5
  -2   6   4 3.09554 0.81414   3
   2   6  -4 1.37327 1.30121   3
  -2   6   4 4.53472 0.71135   5
  -1  -6   4 110.116 6.85210   3
   1  -6  -4 121.911 5.98647   5
   1  -6  -4 120.936 6.04948   5
  -1  -6   4 110.579 6.43218   5
   1  -6  -4 128.053 5.86329   3
  -1   6   4 116.971 5.10796   4
   1   6  -4 128.543 6.96496   5
   1   6  -4 115.724 6.58516   5
  -1   6   4 116.777 5.75957   3
   1   6  -4 119.921 7.17069   3
   0  -6  -4 294.203 11.9782   5
   0  -6  -4 286.064 11.7788   5
   0  -6   4 292.828 12.9928   3
   0  -6  -4 285.645 12.2484   3
   0  -6   4 290.335 13.5550   6
   0   6   4 284.097 11.7122   4
   0   6  -4 282.060 12.6829   5
   0   6  -4 232.297 16.2996   3
   0   6  -4 252.490 12.5271   5
  -1  -6  -4 2069.38 77.6539   5
   1  -6   4 2099.67 78.7200   3
   1  -6   4 2113.80 78.7647   5
  -1  -6  -4 2102.45 78.5310   3
   1  -6   4 2108.54 80.2361   6
  -1   6  -4 1994.92 78.5450   5
  -1   6  -4 2120.21 80.3870   3
  -1   6  -4 2139.58 78.4153   4
   1   6   4 2047.83 78.1603   4
  -1   6  -4 2102.49 78.5225   5
  -2  -6  -4 265.199 12.7486   3
  -2  -6  -4 264.555 13.8173   6
   2  -6   4 264.054 14.1989   6
   2  -6   4 255.031 12.4446   5
  -2  -6  -4 272.509 12.5977   4
   2  -6   4 271.871 12.5918   3
  -2  -6  -4 267.451 12.0278   5
  -2   6  -4 240.547 12.3736   5
  -2   6  -4 267.249 12.5621   3
  -2   6  -4 244.358 12.1768   4
   2   6   4 270.224 10.6879   5
  -2   6  -4 279.193 14.0130   6
   2   6   4 265.008 10.7658   5
   3  -6   4 347.741 18.1019   6
  -3  -6  -4 344.715 17.6537   6
   3  -6   4 321.731 15.1894   4
   3  -6   4 310.465 15.4379   3
  -3  -6  -4 337.559 15.3286   5
   3  -6   4 341.589 15.6883   5
  -3  -6  -4 350.171 16.1645   4
  -3  -6  -4 353.454 16.4066   3
   3   6   4 339.817 14.1590   5
  -3   6  -4 307.174 17.1093   6
   3   6   4 336.983 16.1584   4
  -3   6  -4 341.311 15.7161   4
  -3   6  -4 350.582 15.7359   3
  -3   6  -4 344.841 15.8801   5
   4  -6   4 283.184 13.6625   5
  -4  -6  -4 244.117 13.8909   3
  -4  -6  -4 267.543 15.8721   6
  -4  -6  -4 274.396 14.2181   4
   4  -6   4 243.491 15.5658   6
   4  -6   4 249.150 12.9235   4
  -4   6  -4 266.951 13.7085   4
   4   6   4 268.884 12.1806   5
  -4   6  -4 278.585 13.8916   5
   4   6   4 279.176 14.5061   4
  -4   6  -4 247.239 15.4533   6
  -4   6  -4 295.842 13.7998   3
   5  -6   4 22.2750 3.61664   5
   5  -6   4 18.6994 3.13415   4
  -5  -6  -4 13.4574 3.77006   6
   5   6   4 20.7536 3.92022   4
  -5   6  -4 17.9412 4.56911   6
  -5   6  -4 19.0969 3.24876   3
   5   6   4 23.8975 2.90023   5
  -5   6  -4 14.0871 3.16627   4
   6  -6   4 178.444 10.8051   4
   6  -6   4 175.796 11.0148   5
  -6  -6  -4 185.215 14.2299   6
  -6   6  -4 181.627 10.9916   3
   6   6   4 193.170 12.5967   4
   6   6   4 180.084 9.95399   5
  -6   6  -4 143.281 12.7889   6
   7  -6   4 0.17925 1.90843   4
   7  -6   4 5.73700 2.48516   5
  -7  -6  -4 0.79422 3.03376   6
  -7   6  -4 3.84567 1.97939   3
   7   6   4 -0.3701 1.87236   5
   7   6   4 3.27681 2.38193   4
  -7   6  -4 2.69226 2.61639   6
   8  -6   4 13.2063 4.64243   5
   8  -6   4 11.0642 3.21455   4
  -8  -6  -4 3.74852 4.04273   6
   8   6   4 15.3932 3.92511   4
  -8   6  -4 10.9472 5.06508   6
  -8   6  -4 19.3368 4.21931   3
   8   6   4 14.5876 3.24095   5
  -8  -7   4 13.3373 4.96957   6
   8  -7  -4 14.2109 2.94829   4
   8  -7  -4 15.4521 4.08298   5
  -8   7   4 15.2149 2.88698   3
  -8   7   4 12.0223 5.28017   6
   8   7  -4 11.1238 3.68328   5
   8   7  -4 14.3332 4.37017   4
   7  -7  -4 163.623 9.27745   4
   7  -7  -4 157.832 10.9603   5
  -7  -7   4 157.050 13.2225   6
  -7   7   4 142.356 12.1854   6
   7   7  -4 161.623 11.1992   5
  -7   7   4 153.501 8.58661   3
  -7   7   4 174.174 10.2558   4
   7   7  -4 163.344 12.5027   4
   6  -7  -4 34.9013 3.52738   4
  -6  -7   4 41.4389 5.97576   6
   6  -7  -4 32.5625 4.15671   5
  -6   7   4 37.4108 3.94762   5
  -6   7   4 36.8505 4.29434   5
   6   7  -4 37.9113 5.00587   5
  -6   7   4 27.7359 5.72136   6
   6   7  -4 27.7331 5.14148   4
  -6   7   4 40.5245 4.09857   4
   5  -7  -4 35.8974 3.04704   4
   5  -7  -4 36.8907 4.27957   5
  -5  -7   4 36.9105 5.26821   6
  -5   7   4 38.8171 3.49613   4
  -5   7   4 43.1595 3.74466   5
   5   7  -4 37.6415 5.28220   4
  -5   7   4 37.5815 5.28872   6
   5   7  -4 37.8766 4.64613   5
  -5   7   4 36.1120 3.05508   3
   4  -7  -4 17.7529 3.67698   6
  -4  -7   4 19.9991 3.69067   3
   4  -7  -4 21.6007 2.93195   5
  -4  -7   4 21.3562 3.11344   5
  -4  -7   4 17.5741 3.53923   6
   4   7  -4 19.4318 3.67467   4
   4   7  -4 17.8317 3.20269   5
  -4   7   4 16.1586 2.32780   5
  -4   7   4 21.0907 2.16630   3
  -4   7   4 15.2711 2.21155   5
  -4   7   4 18.0917 2.15793   4
  -3  -7   4 0.54116 1.07973   6
  -3  -7   4 -1.2100 2.27766   3
   3  -7  -4 -0.2734 0.82349   5
  -3   7   4 0.20857 0.68408   3
   3   7  -4 0.35045 1.20968   4
   3   7  -4 -1.0316 0.80880   5
  -3   7   4 0.49457 0.63316   5
  -3   7   4 -0.3239 0.66492   5
   3   7  -4 1.14371 1.14490   3
  -3   7   4 0.50951 0.49863   4
   2  -7  -4 35.1000 4.14602   6
  -2  -7   4 30.6021 3.52470   3
   2  -7  -4 35.9399 3.09312   5
  -2  -7   4 35.6352 3.40568   5
   2  -7  -4 30.4974 2.35431   3
  -2   7   4 31.3258 1.90414   4
   2   7  -4 29.0810 3.62452   3
  -2   7   4 34.8062 2.01076   5
   2   7  -4 36.0771 3.53520   5
  -2   7   4 31.7000 2.53307   3
  -2   7   4 33.2546 2.00704   5
  -1  -7   4 3.87566 1.29236   5
  -1  -7   4 3.28168 1.37868   3
   1  -7  -4 3.21986 1.16812   5
   1  -7  -4 2.06324 0.94973   5
   1  -7  -4 3.91690 1.07301   3
  -1   7   4 3.04076 0.98434   3
  -1   7   4 3.28694 0.70882   4
   1   7  -4 4.32408 1.58832   3
   1   7  -4 3.94255 1.40857   5
   1   7  -4 4.44217 1.43316   5
   0  -7  -4 609.033 24.2126   3
   0  -7  -4 616.545 23.9955   5
   0  -7   4 533.215 24.5799   3
   0  -7   4 592.653 25.6978   6
   0   7  -4 613.359 24.6440   5
   0   7  -4 589.525 24.7031   5
   0   7   4 584.390 23.4651   4
   0   7  -4 637.218 25.4446   3
   1  -7   4 -1.2801 1.32576   6
  -1  -7  -4 1.57460 0.90812   5
  -1  -7  -4 2.14357 1.08057   3
   1  -7   4 2.62100 1.03780   5
   1  -7   4 1.40584 1.15257   3
  -1   7  -4 -0.2470 0.67152   5
   1   7   4 1.35152 0.36108   5
  -1   7  -4 2.84525 1.16451   4
  -1   7  -4 3.12092 1.35516   5
   1   7   4 0.90412 0.81304   4
  -1   7  -4 1.65419 1.13814   3
   2  -7   4 238.642 12.0328   3
  -2  -7  -4 256.747 12.5319   3
  -2  -7  -4 246.107 13.5646   6
  -2  -7  -4 246.313 11.6332   5
   2  -7   4 243.608 12.2830   5
   2  -7   4 238.096 13.8986   6
   2   7   4 249.863 12.3210   4
   2   7   4 245.707 10.2464   5
  -2   7  -4 238.269 12.1725   3
  -2   7  -4 254.560 12.2220   5
  -2   7  -4 256.338 12.4023   5
  -2   7  -4 251.119 11.9732   4
   2   7   4 250.126 10.1792   5
  -3  -7  -4 9.79852 2.20477   4
   3  -7   4 11.5147 2.30577   3
  -3  -7  -4 15.3917 2.51192   5
  -3  -7  -4 12.3870 3.03914   6
  -3  -7  -4 15.5701 3.33481   3
   3  -7   4 10.6511 2.19927   5
   3  -7   4 12.9317 3.34457   6
   3   7   4 13.2467 2.82691   4
  -3   7  -4 10.5583 2.17223   3
   3   7   4 11.8999 1.66599   5
  -3   7  -4 17.7037 2.96290   5
  -3   7  -4 10.4922 2.13104   4
   3   7   4 9.11513 1.56181   5
  -3   7  -4 15.5972 3.58834   6
  -4  -7  -4 20.6360 3.10942   5
  -4  -7  -4 20.8417 3.44954   4
   4  -7   4 20.1284 3.44256   5
  -4  -7  -4 18.4068 3.90171   6
   4  -7   4 19.6582 3.06195   4
   4   7   4 18.8874 2.35168   5
  -4   7  -4 21.6359 4.54761   6
   4   7   4 19.6903 3.86294   4
  -4   7  -4 16.9872 2.99998   3
  -4   7  -4 21.4487 3.37194   4
   4   7   4 21.1629 2.58429   5
  -5  -7  -4 423.297 22.9670   6
   5  -7   4 379.564 18.5344   4
   5   7   4 416.586 17.7122   5
  -5   7  -4 403.266 19.1035   3
  -5   7  -4 381.928 21.7946   6
  -5   7  -4 383.888 19.3822   4
   6  -7   4 84.0070 7.12396   5
  -6  -7  -4 82.7777 9.21847   6
   6  -7   4 74.8456 6.64886   4
   6   7   4 99.5722 8.45272   4
   6   7   4 77.9279 5.92051   5
  -6   7  -4 63.9822 8.18973   6
  -6   7  -4 71.7616 6.68945   3
   7  -7   4 318.464 18.1834   5
  -7  -7  -4 350.707 23.2281   6
   7  -7   4 346.641 18.1227   4
  -7   7  -4 371.124 18.6274   3
   7   7   4 351.543 20.3165   4
  -7   7  -4 319.591 21.7410   6
   7   7   4 382.629 17.2067   5
  -7  -8   4 2.45959 2.93942   6
   7  -8  -4 4.72796 2.34169   5
   7  -8  -4 -2.2730 1.29934   4
   7   8  -4 4.53971 2.73843   4
   7   8  -4 3.40566 2.18732   5
  -7   8   4 0.19049 2.39700   6
  -7   8   4 1.45157 1.63145   3
  -7   8   4 -0.7960 2.09825   5
  -6  -8   4 121.238 11.0519   6
   6  -8  -4 102.533 8.29312   5
   6  -8  -4 107.394 6.49412   4
  -6   8   4 116.772 7.08724   5
  -6   8   4 111.806 7.09718   4
   6   8  -4 111.488 8.69729   5
   6   8  -4 117.290 9.98676   4
   5  -8  -4 113.546 8.60482   5
  -5  -8   4 137.832 10.6669   6
  -5   8   4 122.579 6.75087   3
   5   8  -4 135.748 9.90665   4
   5   8  -4 118.415 9.01619   5
  -5   8   4 138.602 7.24330   4
  -5   8   4 130.426 7.32775   5
   4  -8  -4 429.486 19.0778   5
   4  -8  -4 391.822 21.1387   6
  -4  -8   4 382.902 20.3211   6
  -4   8   4 394.824 16.5663   4
   4   8  -4 410.556 20.3305   4
  -4   8   4 413.993 16.8323   5
  -4   8   4 399.432 16.9276   5
  -3  -8   4 261.936 13.1774   5
  -3  -8   4 269.582 14.1280   3
   3  -8  -4 253.599 12.9214   5
   3  -8  -4 276.113 15.7253   6
   3  -8  -4 248.918 11.4048   3
  -3   8   4 269.637 11.2073   5
   3   8  -4 279.207 14.4003   4
   3   8  -4 287.013 13.8127   5
  -3   8   4 252.290 10.9289   4
   3   8  -4 253.781 14.1329   3
  -3   8   4 284.869 11.7556   3
   2  -8  -4 -0.0809 0.62421   3
   2  -8  -4 2.21196 1.34369   6
  -2  -8   4 0.90085 2.28084   5
   2   8  -4 1.55894 1.09678   5
  -2   8   4 0.35289 0.50447   5
  -2   8   4 0.81828 0.71883   3
  -2   8   4 0.14462 0.48808   5
  -2   8   4 0.21848 0.40139   4
   2   8  -4 -0.6270 0.91925   3
   2   8  -4 -1.3251 0.76539   5
   1  -8  -4 68.6175 4.53085   5
  -1  -8   4 62.8270 4.88892   5
   1  -8  -4 63.3998 4.43849   5
  -1  -8   4 64.7604 5.18301   3
   1  -8  -4 58.6626 4.90033   3
   1   8  -4 64.3987 4.92669   5
  -1   8   4 68.8136 4.42361   3
  -1   8   4 67.3417 3.65067   4
   1   8  -4 62.0546 5.37728   3
   1   8  -4 63.5227 4.89803   5
   0  -8   4 28.6892 3.20449   3
   0  -8  -4 25.5212 2.74569   5
   0  -8  -4 30.5735 3.14240   3
   0  -8  -4 32.4277 2.91597   5
   0  -8   4 27.5879 3.53067   6
   0   8  -4 28.3915 3.53435   3
   0   8  -4 27.1613 3.34087   5
   0   8  -4 31.6059 3.24627   5
   0   8   4 29.6926 2.97517   3
   0   8   4 28.4194 2.53566   4
   1  -8   4 3.30338 1.16812   5
  -1  -8  -4 2.53853 1.33329   5
   1  -8   4 3.13345 1.43083   3
  -1  -8  -4 3.27678 1.50126   3
   1  -8   4 3.22148 1.87412   6
   1   8   4 2.62902 0.57538   5
  -1   8  -4 2.78738 1.49581   5
   1   8   4 5.83878 1.52723   4
  -1   8  -4 2.79423 1.34794   5
   1   8   4 3.49016 0.61800   5
  -1   8  -4 3.13188 1.61724   3
  -1   8  -4 1.50806 1.05929   4
  -2  -8  -4 19.7750 2.75270   5
   2  -8   4 21.0680 2.92224   3
   2  -8   4 16.8102 4.70222   6
  -2  -8  -4 18.6235 3.05445   3
   2  -8   4 24.5809 3.03068   5
  -2   8  -4 21.3645 3.37732   5
   2   8   4 20.8902 1.73506   5
  -2   8  -4 18.1356 3.07170   3
   2   8   4 21.3338 3.02825   4
  -2   8  -4 17.6298 2.43758   4
   2   8   4 19.1807 1.70455   5
   3  -8   4 119.517 9.84232   6
  -3  -8  -4 142.678 9.00155   3
  -3  -8  -4 139.728 9.38177   5
  -3  -8  -4 144.697 10.4025   6
   3  -8   4 133.086 8.36620   3
   3  -8   4 145.020 8.84590   5
  -3   8  -4 148.470 8.81246   5
   3   8   4 147.051 6.90448   5
  -3   8  -4 129.194 9.93365   6
  -3   8  -4 138.111 8.46810   3
  -3   8  -4 134.140 8.21791   4
  -3   8  -4 131.179 8.52029   5
   3   8   4 139.009 6.90284   5
   3   8   4 152.490 9.16986   4
   4  -8   4 1.38869 1.44987   5
  -4  -8  -4 -2.0691 1.16121   6
   4   8   4 -1.0621 1.17715   5
   4   8   4 -0.0442 1.18427   4
  -4   8  -4 -1.0028 1.79999   6
  -4   8  -4 -1.5804 1.14109   4
   4   8   4 1.04255 0.92527   5
  -4   8  -4 -1.1946 0.93550   3
   5  -8   4 65.9677 6.15340   5
  -5  -8  -4 67.9329 7.76083   6
  -5   8  -4 56.6549 5.72319   3
  -5   8  -4 53.0145 6.80920   4
   5   8   4 65.5050 6.65965   4
  -5   8  -4 58.4529 7.20572   6
   5   8   4 61.3750 4.85892   5
   5   8   4 57.4367 4.88724   5
   6  -8   4 -2.7402 1.60328   4
   6  -8   4 0.77832 1.58614   5
  -6  -8  -4 -2.5307 2.06852   6
  -6   8  -4 3.93332 2.91057   6
   6   8   4 3.18879 2.08719   4
   6   8   4 0.60449 1.57436   5
   7  -8   4 4.11655 2.24740   5
  -7  -8  -4 3.95730 3.68978   6
   7  -8   4 1.14919 2.24658   4
  -7   8  -4 5.74144 3.95469   6
   7   8   4 0.25533 1.94223   5
  -7   8  -4 2.90341 2.22542   3
  -7  -9   4 61.5206 8.22653   6
   7   9  -4 64.2081 6.85768   5
  -7   9   4 57.5583 6.47138   4
  -7   9   4 60.9253 5.26399   3
  -7   9   4 66.6620 5.50539   5
   6  -9  -4 13.0859 3.09128   5
  -6  -9   4 14.8651 3.91529   6
  -6   9   4 11.0906 2.60279   5
  -6   9   4 14.7331 2.72076   4
   6   9  -4 15.9824 4.02575   4
   6   9  -4 8.49720 2.72269   5
  -5  -9   4 11.7558 3.41173   6
   5  -9  -4 12.1460 2.69932   5
  -5   9   4 12.1551 2.13984   3
   5   9  -4 11.8510 3.22303   4
   5   9  -4 10.6254 2.77179   5
  -5   9   4 9.86604 2.11132   5
  -4  -9   4 164.960 11.3289   6
   4  -9  -4 145.247 9.36221   5
   4   9  -4 160.063 11.1334   4
  -4   9   4 154.529 7.87948   3
  -4   9   4 154.064 7.59397   5
  -4   9   4 161.777 7.87797   5
   4   9  -4 144.642 9.64636   5
  -4   9   4 153.463 7.39262   4
   3  -9  -4 11.1148 2.96635   6
   3  -9  -4 7.76668 2.07661   5
   3   9  -4 9.57512 2.54231   5
  -3   9   4 9.75633 1.80783   3
  -3   9   4 12.1218 1.66108   5
  -3   9   4 10.9276 1.35297   4
   3   9  -4 10.2045 2.54819   5
   3   9  -4 9.07135 2.74945   3
   3   9  -4 9.49447 2.76940   4
   2  -9  -4 210.555 9.77740   3
  -2  -9   4 213.252 11.1340   5
   2  -9  -4 210.253 12.6406   6
  -2  -9   4 192.991 11.6306   3
   2  -9  -4 200.606 10.6767   5
  -2   9   4 212.185 9.94781   3
  -2   9   4 205.096 8.76803   4
   2   9  -4 221.732 11.3186   5
   2   9  -4 213.722 12.0614   3
  -2   9   4 211.016 8.56386   5
  -2   9   4 206.537 8.61333   5
   2   9  -4 188.965 10.8691   5
  -1  -9   4 1.19122 1.65109   3
   1  -9  -4 3.30089 1.45281   5
   1  -9  -4 2.88175 1.18832   5
  -1  -9   4 1.63687 1.43179   5
   1  -9  -4 2.18185 1.08232   3
  -1   9   4 2.66894 0.49743   5
   1   9  -4 3.86199 1.63516   5
   1   9  -4 2.26189 1.70653   3
  -1   9   4 4.15124 1.00896   4
   1   9  -4 5.61294 1.81767   5
  -1   9   4 3.13973 1.23073   3
   0  -9  -4 150.096 8.33456   5
   0  -9  -4 139.688 8.00365   5
   0  -9  -4 152.820 8.39215   3
   0  -9   4 156.329 10.2742   6
   0  -9   4 157.241 9.04512   3
   0   9   4 149.661 7.68500   4
   0   9  -4 150.141 8.67764   5
   0   9  -4 146.916 9.23002   3
   0   9   4 141.278 8.25188   3
  -1  -9  -4 264.596 12.9388   3
  -1  -9  -4 262.403 12.2562   5
   1  -9   4 269.156 14.9254   6
   1  -9   4 234.245 12.6367   3
   1  -9   4 219.360 12.7456   5
  -1   9  -4 265.228 12.5986   4
  -1   9  -4 266.417 12.8805   5
  -1   9  -4 255.763 12.8526   5
   1   9   4 247.530 10.0695   5
  -1   9  -4 247.951 13.1332   3
   1   9   4 270.548 12.7466   4
   1   9   4 260.104 10.0807   5
  -2  -9  -4 492.575 20.9205   5
   2  -9   4 501.771 21.9463   5
   2  -9   4 434.271 23.5000   6
  -2  -9  -4 504.356 22.0001   3
   2  -9   4 430.142 21.0867   3
  -2   9  -4 466.202 21.5008   3
   2   9   4 487.596 18.7398   5
   2   9   4 483.445 18.8035   5
   2   9   4 494.607 21.6077   4
  -2   9  -4 488.491 21.3386   5
  -2   9  -4 454.393 20.8386   4
  -2   9  -4 507.009 21.7412   5
   3  -9   4 333.144 16.3945   5
  -3  -9  -4 344.913 18.6388   6
  -3  -9  -4 331.530 15.6893   5
   3  -9   4 295.970 15.5246   3
   3   9   4 333.536 16.5198   4
  -3   9  -4 302.337 15.7813   3
  -3   9  -4 309.826 15.5383   4
   3   9   4 315.548 13.6696   5
  -3   9  -4 337.131 16.0315   5
   3   9   4 335.202 13.6657   5
   4  -9   4 1.27280 1.57305   5
  -4  -9  -4 2.30696 1.80440   6
  -4   9  -4 -1.5818 2.25070   6
   4   9   4 2.63313 1.72526   4
   4   9   4 1.88957 1.48383   5
  -4   9  -4 1.78537 1.76263   5
  -4   9  -4 1.19732 1.73826   4
   4   9   4 2.61663 1.40763   5
  -4   9  -4 1.37268 1.45061   3
  -5  -9  -4 69.8944 8.02049   6
   5  -9   4 55.7881 5.94738   5
  -5   9  -4 59.9054 7.58567   6
   5   9   4 66.3244 6.77025   4
  -5   9  -4 65.3888 6.03294   3
   5   9   4 60.3356 5.02218   5
   5   9   4 65.0243 4.92738   5
  -6  -9  -4 6.43333 3.29342   6
   6  -9   4 5.37196 2.68847   5
   6   9   4 5.03655 2.97287   4
  -6   9  -4 0.90537 1.83912   3
   6   9   4 2.54958 2.64792   5
  -6   9  -4 -1.1358 3.09816   6
   6   9   4 3.17910 1.91791   5
  -7  -9  -4 19.8507 5.74277   6
   7   9   4 21.6015 3.40261   5
  -7   9  -4 17.9174 5.74274   6
  -7   9  -4 20.1281 4.23885   3
   7   9   4 20.1454 5.16960   4
  -7 -10   4 5.16732 3.02697   6
   7 -10  -4 9.27279 3.30083   5
   7  10  -4 -1.5681 2.21921   4
  -7  10   4 2.94619 2.39770   5
   7  10  -4 -0.2100 2.01668   5
  -6 -10   4 55.9782 7.67819   6
   6 -10  -4 45.8079 5.75307   5
   6  10  -4 46.3415 6.79488   4
   6  10  -4 52.3399 6.24438   5
  -6  10   4 60.2723 4.74579   4
  -5 -10   4 39.4058 5.67647   6
   5 -10  -4 35.1127 4.61836   5
   5  10  -4 31.5610 5.76243   4
  -5  10   4 34.4626 3.64629   3
  -5  10   4 33.6091 3.45598   5
  -5  10   4 37.8383 3.44895   5
   5  10  -4 33.1154 4.82237   5
  -4 -10   4 34.3687 5.05323   6
   4 -10  -4 43.6568 4.65295   5
  -4  10   4 42.7981 3.68511   3
   4  10  -4 41.2109 5.54844   4
  -4  10   4 42.6883 3.08721   4
   4  10  -4 46.6325 5.16471   5
  -4  10   4 43.7143 3.30799   5
  -4  10   4 45.6456 3.45699   5
   3 -10  -4 247.759 13.0604   5
   3 -10  -4 236.490 11.3255   3
   3  10  -4 247.826 13.3246   5
   3  10  -4 273.773 15.1807   3
  -3  10   4 253.287 11.6469   3
  -3  10   4 227.546 10.3545   4
  -3  10   4 244.276 10.4508   5
   3  10  -4 269.813 14.5023   4
   2 -10  -4 8.72094 2.04696   5
   2 -10  -4 6.78083 1.65889   3
  -2  10   4 7.46769 1.11266   5
  -2  10   4 6.49622 0.99466   5
  -2  10   4 7.43905 1.22718   4
   2  10  -4 6.70686 2.21352   5
  -2  10   4 9.79997 2.27411   3
  -2  10   4 8.38083 1.35888   4
   2  10  -4 9.15382 2.62464   3
  -1 -10   4 137.296 8.73312   3
   1 -10  -4 144.129 7.68245   3
   1 -10  -4 131.338 8.00844   5
   1 -10  -4 126.809 7.74273   5
   1  10  -4 129.630 9.07833   3
  -1  10   4 130.739 6.76386   4
   1  10  -4 127.264 8.20458   5
  -1  10   4 138.352 7.76001   3
   1  10  -4 134.633 8.32309   5
   0 -10   4 226.044 13.3878   6
   0 -10  -4 221.113 11.3600   5
   0 -10   4 216.363 12.1239   3
   0 -10  -4 225.696 11.6509   3
   0 -10  -4 242.184 11.9944   5
   0  10  -4 239.171 12.8405   3
   0  10   4 220.135 11.6126   3
   0  10  -4 213.891 11.7964   5
   0  10  -4 230.476 11.9172   5
   0  10   4 231.925 10.9308   4
  -1 -10  -4 2.74461 1.50359   5
  -1 -10  -4 3.31767 2.11555   3
   1 -10   4 0.54529 2.49198   6
   1 -10   4 3.29895 1.58889   3
  -1  10  -4 3.08123 1.70219   3
   1  10   4 4.01335 0.77486   5
  -1  10  -4 9.13795 2.24271   5
  -1  10  -4 4.53488 1.97876   5
  -1  10  -4 0.99581 1.19317   4
   1  10   4 5.27596 1.75219   4
   2 -10   4 6.99414 2.04134   5
   2 -10   4 4.11193 1.71127   3
  -2 -10  -4 8.40027 2.35670   3
  -2 -10  -4 7.00762 1.95944   5
  -2  10  -4 3.11280 1.69933   4
  -2  10  -4 8.52143 2.45231   5
   2  10   4 4.94120 2.00852   4
  -2  10  -4 3.53922 2.32698   3
   2  10   4 6.78427 1.14448   5
   2  10   4 6.36919 1.15532   5
  -3 -10  -4 110.702 9.67246   6
   3 -10   4 111.040 7.89598   3
   3  10   4 114.505 5.88938   5
   3  10   4 114.152 6.02508   5
   3  10   4 120.925 8.54084   4
  -3  10  -4 106.518 7.76675   5
  -3  10  -4 114.906 7.71875   4
  -3  10  -4 112.071 7.86158   3
   4 -10   4 46.8366 5.26849   5
  -4 -10  -4 46.2930 6.57301   6
   4  10   4 47.9578 3.81584   5
  -4  10  -4 47.8192 5.22348   4
  -4  10  -4 40.3747 6.44316   5
   4  10   4 49.6438 3.72794   5
  -4  10  -4 36.0869 4.98735   3
  -5 -10  -4 21.1399 4.94571   6
   5 -10   4 34.2613 4.80886   5
  -5  10  -4 21.9296 4.44797   5
  -5  10  -4 19.2298 4.49954   3
   5  10   4 24.0225 4.92432   4
   5  10   4 29.5177 3.55554   5
  -6 -10  -4 -0.5049 2.60209   6
   6 -10   4 -0.1699 2.17670   5
   6  10   4 2.00128 2.67036   4
  -6  10  -4 0.37725 2.05690   3
  -6  10  -4 -1.9464 2.51036   5
   6  10   4 0.33869 3.19793   5
  -6  10  -4 1.37676 2.99920   6
   6  10   4 2.03334 1.78860   5
  -6 -11   4 1.56232 2.27358   6
   6 -11  -4 5.76615 2.54434   5
   6  11  -4 3.21464 2.97029   4
  -6  11   4 10.1943 3.31516   4
   6  11  -4 6.17288 2.87949   5
  -6  11   4 7.07107 2.97284   5
  -6  11   4 6.81775 2.27779   3
  -5 -11   4 18.1682 4.48982   6
   5 -11  -4 17.3585 3.52523   5
   5  11  -4 21.3712 4.89039   4
   5  11  -4 18.5812 3.95240   5
  -5  11   4 19.5345 2.64951   5
  -5  11   4 21.5004 2.71561   4
  -5  11   4 25.1502 3.17852   5
  -4 -11   4 180.662 13.1993   6
   4 -11  -4 207.688 11.9529   5
  -4  11   4 189.320 8.71555   5
   4  11  -4 192.168 12.9368   4
  -4  11   4 193.615 8.68938   4
   4  11  -4 194.411 11.8850   5
   3 -11  -4 5.77988 1.65115   3
   3 -11  -4 6.78721 2.63239   5
  -3  11   4 5.01186 1.79267   3
   3  11  -4 9.70901 2.91474   3
   3  11  -4 6.55670 2.42488   4
  -3  11   4 6.78574 1.27981   4
  -3  11   4 5.77510 1.15507   5
   3  11  -4 6.08809 2.30755   5
   2 -11  -4 185.378 9.67294   3
   2 -11  -4 193.958 10.8822   5
  -2  11   4 200.753 10.1254   3
   2  11  -4 200.091 11.9186   4
  -2  11   4 187.618 8.49623   4
   2  11  -4 195.839 11.0169   5
   2  11  -4 163.954 13.1906   3
  -2  11   4 183.369 8.57361   4
  -2  11   4 182.977 7.53392   5
   1 -11  -4 51.1720 4.72177   5
   1 -11  -4 45.0328 4.14823   3
   1 -11  -4 48.8468 4.53338   5
  -1  11   4 36.4267 3.98285   3
  -1  11   4 41.9653 3.48445   4
   1  11  -4 50.5346 5.82537   3
   1  11  -4 50.0583 4.90319   5
   0 -11  -4 30.1067 3.70553   5
   0 -11  -4 37.6512 3.88784   5
   0 -11  -4 34.0987 3.72780   3
   0  11  -4 30.7168 4.70557   3
   0  11  -4 25.1731 3.73115   5
  -1 -11  -4 83.1964 5.93387   5
  -1 -11  -4 84.4668 6.49528   3
  -1  11  -4 72.6658 6.02596   5
  -1  11  -4 69.7634 5.62423   4
  -1  11  -4 59.4538 6.32758   3
   1  11   4 74.3062 5.72095   4
   2 -11   4 70.1189 6.18780   5
  -2  11  -4 64.3287 5.83648   5
   2  11   4 61.7723 5.65146   4
   2  11   4 63.2700 3.40339   5
  -2  11  -4 64.3198 6.22404   3
   2  11   4 63.3253 3.44934   5
  -2  11  -4 67.6678 5.57484   4
  -3 -11  -4 38.0870 5.65273   6
   3 -11   4 36.8131 4.78895   5
   3  11   4 53.1783 5.56186   4
  -3  11  -4 38.5639 4.99477   3
   3  11   4 44.8852 3.07032   5
  -3  11  -4 39.5039 4.36344   4
  -3  11  -4 37.9123 4.83256   5
  -4 -11  -4 113.669 10.3701   6
   4 -11   4 93.8972 7.89250   5
  -4  11  -4 115.983 8.21629   5
   4  11   4 99.7517 8.66461   4
   4  11   4 101.068 5.76227   5
   4  11   4 101.042 5.76180   5
  -4  11  -4 97.2274 7.86557   3
  -5 -11  -4 28.6061 6.09827   6
   5 -11   4 33.8233 4.75606   5
   5  11   4 32.5088 3.90194   5
  -5  11  -4 23.1987 4.52702   5
   5  11   4 30.8578 5.40006   4
  -6 -11  -4 26.7081 7.63227   6
  -6  11  -4 28.1542 4.92026   5
   6  11   4 27.5094 5.46121   4
  -6  11  -4 24.0678 4.83966   3
  -6 -12   4 -1.5655 3.09339   6
   6 -12  -4 1.85275 1.97510   5
  -6  12   4 -0.9923 2.00841   3
   6  12  -4 -3.0455 2.28682   4
   6  12  -4 0.55805 2.49044   5
  -5 -12   4 16.7211 4.56011   6
   5 -12  -4 11.5771 2.88986   5
  -5  12   4 9.85098 1.83207   5
  -5  12   4 7.61334 2.14106   5
   5  12  -4 8.97678 3.58422   4
   5  12  -4 7.50765 3.00527   5
  -5  12   4 9.91626 2.42128   3
  -5  12   4 10.3185 1.79139   4
  -4 -12   4 6.60440 2.98161   6
   4 -12  -4 -0.3194 1.55900   5
   4  12  -4 3.49720 2.28125   5
  -4  12   4 3.46813 1.12122   5
  -4  12   4 5.98615 2.12229   5
   4  12  -4 6.82765 2.76140   4
  -4  12   4 4.55620 1.13164   4
  -4  12   4 6.66121 1.97973   3
   3 -12  -4 77.7962 5.54890   3
   3 -12  -4 85.9093 7.03414   5
   3  12  -4 87.8572 7.99006   3
  -3  12   4 88.0965 4.62421   4
   3  12  -4 83.8832 7.27460   5
  -3  12   4 83.2511 5.94162   3
  -3  12   4 81.2280 4.55197   4
   3  12  -4 85.4584 7.76684   4
   2 -12  -4 12.0603 2.36822   3
   2 -12  -4 12.7253 2.75306   5
  -2  12   4 16.3171 2.75949   3
   2  12  -4 10.6597 3.15678   3
   2  12  -4 16.2568 3.15984   5
  -2  12   4 14.6591 1.90362   4
  -2  12   4 8.97901 1.78436   4
   1 -12  -4 126.404 8.06326   3
  -1  12   4 135.872 7.39960   4
   1  12  -4 143.013 10.0872   3
  -1  12   4 140.274 8.54929   3
   0 -12  -4 0.63126 1.78079   3
   0 -12  -4 2.56395 1.71542   5
   0  12   4 -0.7111 1.08146   4
   0  12  -4 0.88693 1.63895   5
   0  12  -4 0.96789 1.93786   3
  -1  12  -4 70.8329 6.11419   5
  -1  12  -4 66.4288 6.65836   3
  -1  12  -4 77.7022 5.97195   4
   1  12   4 70.8508 5.84178   4
   2 -12   4 111.417 8.16696   5
  -2  12  -4 84.7136 7.16000   5
   2  12   4 107.429 7.78708   4
  -2  12  -4 86.0232 7.61580   3
  -2  12  -4 109.426 7.55412   4
  -3 -12  -4 2.56962 2.18000   6
   3  12   4 1.78500 1.93994   4
   3  12   4 -2.5307 1.03247   5
  -3  12  -4 -3.1465 1.61439   5
   3  12   4 -0.9136 0.78989   5
   4 -12   4 135.488 9.97798   5
  -4 -12  -4 145.041 12.2498   6
  -4  12  -4 144.145 9.86680   3
  -4  12  -4 126.064 9.26918   5
   4  12   4 136.317 6.66007   5
   4  12   4 126.522 9.98266   4
   5 -12   4 -1.3492 1.58562   5
  -5 -12  -4 -3.3508 2.45095   6
   5  12   4 0.12790 1.54666   5
  -5  12  -4 0.48101 2.79872   5
   5  12   4 2.52521 2.75515   5
  -5  12  -4 -3.4954 1.78250   3
   5  12   4 0.26189 1.81332   4
  -5 -13   4 7.01938 3.85291   6
   5 -13  -4 4.34359 2.70486   5
  -5  13   4 6.96508 2.29156   3
   5  13  -4 8.49872 3.06487   5
   4 -13  -4 143.092 10.1189   5
  -4 -13   4 134.260 11.5763   6
  -4  13   4 140.296 8.25935   3
  -4  13   4 136.079 6.23743   4
   4  13  -4 139.131 9.85058   5
   4  13  -4 131.287 10.9661   4
   3 -13  -4 -3.2277 1.43428   3
   3 -13  -4 -0.8033 1.59352   5
   3  13  -4 0.46382 2.33119   4
  -3  13   4 -0.5503 0.95599   4
   3  13  -4 2.24518 1.85241   3
   3  13  -4 -1.1889 1.63503   5
  -3  13   4 -1.3540 0.83394   4
  -3  13   4 1.32329 1.77995   3
   2 -13  -4 53.2072 5.60464   5
   2 -13  -4 55.3400 5.74553   3
  -2  13   4 58.1661 5.13062   3
   2  13  -4 54.2376 6.03098   4
   2  13  -4 43.4178 6.09170   3
  -2  13   4 52.7831 3.97186   4
   2  13  -4 63.3511 6.19197   5
   1 -13  -4 1.37689 1.56708   3
   1 -13  -4 0.78524 1.85174   5
   1  13  -4 -1.2879 1.80339   3
  -1  13   4 1.10179 1.09869   4
  -1  13   4 1.44536 1.50433   3
   1  13  -4 -0.2899 1.67577   5
   0  13  -4 46.2665 5.91115   3
   0  13  -4 55.3267 5.44621   5
   0  13   4 55.8967 4.78085   4
  -1  13  -4 0.13219 1.91724   3
   1  13   4 -0.3614 1.39187   4
  -2  13  -4 73.3343 7.39873   3
   2  13   4 86.9581 7.20608   4
  -2  13  -4 83.3392 6.87796   5
   3 -13   4 -1.0575 1.53540   5
  -3 -13  -4 0.44549 1.40426   6
   3  13   4 2.15765 1.58817   4
  -3  13  -4 -1.4116 1.92397   3
  -3  13  -4 -2.9316 1.65787   5
  -4 -13  -4 32.4337 6.54299   6
   4 -13   4 40.8199 5.45285   5
   4  13   4 47.1304 6.21407   4
  -4  13  -4 32.3570 5.47189   3
  -4  13  -4 41.3462 5.43567   5
   5 -13   4 4.04108 2.64599   5
   5  13   4 1.89627 3.07122   4
  -5  13  -4 -3.1894 2.73122   3
  -5  13  -4 0.24301 2.61438   5
  -4 -14   4 15.9316 4.28478   6
   4  14  -4 10.3588 3.52305   5
  -4  14   4 14.2827 3.01564   3
   4  14  -4 17.5727 4.64110   4
   3 -14  -4 4.32579 2.29003   5
   3 -14  -4 6.25068 2.05605   3
   3  14  -4 11.5641 3.37153   3
   3  14  -4 4.24550 2.34584   4
  -3  14   4 4.30460 1.39958   4
  -3  14   4 6.33560 1.51307   4
   3  14  -4 8.60795 2.78156   5
  -3  14   4 6.44261 2.40039   3
   2 -14  -4 91.7985 7.14442   3
   2 -14  -4 104.265 8.37553   5
   2  14  -4 98.9602 8.29050   4
   2  14  -4 88.3842 8.88431   3
   2  14  -4 87.2777 7.50433   5
  -2  14   4 103.198 7.48080   3
  -2  14   4 99.2464 5.89869   4
   1 -14  -4 12.4291 3.17635   5
   1  14  -4 13.5202 3.91572   3
   1  14  -4 10.1859 3.13106   5
  -1  14   4 15.1009 3.06745   3
  -1  14   4 19.8817 2.76703   4
  -1  14   4 10.7467 2.18989   4
   0  14  -4 3.60230 2.26642   5
   0  14  -4 8.69741 3.03285   3
   0  14   4 10.3252 2.46108   4
  -1  14  -4 39.5355 4.65214   5
   1  14   4 34.5143 4.39705   4
  -1  14  -4 26.8501 5.29955   3
   2  14   4 171.256 11.1094   4
  -2  14  -4 161.860 11.5069   3
  -3 -14  -4 -0.6891 1.81493   6
   3 -14   4 -3.5668 2.03586   5
   3  14   4 1.75943 2.74908   4
  -3  14  -4 4.98406 2.48007   3
  -3  14  -4 2.35495 2.31306   5
  -4 -14  -4 211.889 16.1573   6
   4 -14   4 186.373 12.8560   5
  -4  14  -4 168.367 12.2687   3
   4  14   4 178.483 12.9568   4
   3 -15  -4 2.63846 2.37253   5
  -3  15   4 2.66853 2.33770   3
   3  15  -4 0.87758 3.09186   3
   3  15  -4 3.91646 2.45081   5
   3  15  -4 2.61780 3.06071   4
   2 -15  -4 21.9467 4.12776   5
   2  15  -4 33.3685 5.51396   4
   2  15  -4 35.2099 5.01845   5
  -2  15   4 31.0007 3.56682   4
   2  15  -4 30.4914 5.81593   3
  -2  15   4 26.1792 4.28267   3
   1  15  -4 3.22310 2.89202   3
  -1  15   4 -1.3084 1.55008   4
   1  15  -4 0.34719 2.14259   4
  -1  15   4 -0.6962 1.61238   4
   1  15  -4 -2.5946 2.19049   5
   0  15  -4 121.063 10.3531   3
   0  15   4 112.282 8.00802   4
   1  15   4 4.26857 2.28767   4
  -1  15  -4 7.00864 3.10892   3
  -1  15  -4 3.49664 2.58456   5
  -2  15  -4 26.6284 5.33496   3
  -2  15  -4 27.1798 4.45385   5
   2  15   4 30.5971 4.95513   4
  -3 -15  -4 57.2019 8.17129   6
  -3  15  -4 39.9084 6.62559   3
   3  15   4 43.9594 6.48770   4
  -3  15  -4 39.7734 5.77031   5
   1  16  -4 5.15460 2.54116   5
   1  16  -4 2.49813 2.39944   4
  -1  16   4 0.88976 2.02860   4
   0  16  -4 18.2822 3.74579   5
   0  16   4 21.8568 3.83748   4
   0  16  -4 13.1930 3.89789   3
  -1  16  -4 9.36904 3.89796   3
  -1  16  -4 16.0529 3.84037   5
   1  16   4 16.1365 3.57971   4
   9   0  -5 -4.3439 2.42845   5
  -9   0   5 1.06975 4.11379   6
   9   0  -5 3.81695 1.94942   4
   8   0  -5 -1.9821 1.83296   4
  -8   0   5 5.84942 3.22528   6
   8   0  -5 -0.9102 1.85783   5
  -7   0   5 4.32868 1.97038   3
   7   0  -5 -0.6568 1.57490   5
   7   0  -5 0.49435 1.10876   4
  -6   0   5 -0.0892 1.58403   6
  -6   0   5 2.04880 1.50244   3
   6   0  -5 -1.4484 1.21957   5
  -6   0   5 0.77749 1.40376   5
   6   0  -5 0.52525 1.62449   4
   5   0  -5 3.16126 1.45963   5
  -5   0   5 1.14729 1.08929   5
   5   0  -5 1.13071 1.18362   6
  -5   0   5 1.63565 1.48478   6
  -5   0   5 1.11651 1.11788   3
   5   0  -5 0.68814 0.96618   4
  -4   0   5 -1.4413 0.87218   6
  -4   0   5 -0.0463 0.66196   5
   4   0  -5 1.18323 0.92120   5
   4   0  -5 0.99850 0.85981   4
   3   0  -5 -0.1487 0.56949   6
  -3   0   5 0.42440 0.48358   5
   3   0  -5 -0.0036 0.61374   4
  -3   0   5 -0.3180 0.47191   3
  -3   0   5 0.33511 0.70817   6
   3   0  -5 0.72066 0.57525   5
   2   0  -5 0.40008 0.44606   3
   2   0  -5 0.74080 0.48489   5
  -2   0   5 0.29485 0.33821   5
  -2   0   5 -0.6008 0.36196   3
   2   0  -5 0.41711 0.42536   6
  -2   0   5 0.41703 0.43153   6
   1   0  -5 -0.2349 0.25732   3
  -1   0   5 0.06125 0.25500   3
   0   0   5 -0.0714 0.26721   6
   0   0  -5 -0.0229 0.25432   6
   0   0  -5 0.51017 0.32682   4
   0   0   5 0.00296 0.29286   3
   0   0  -5 -0.2342 0.27877   3
   1   0   5 0.05518 0.46661   6
  -1   0  -5 1.02395 0.51298   4
   1   0   5 -0.5704 0.28655   4
  -1   0  -5 -0.3859 0.53502   6
  -1   0  -5 0.51285 0.28933   5
  -1   0  -5 -0.3067 0.35335   3
   2   0   5 -0.1436 0.37475   4
   2   0   5 -0.1020 0.64314   6
   2   0   5 0.08874 0.33937   5
  -2   0  -5 0.06303 0.89672   6
  -2   0  -5 0.10820 0.39633   5
  -2   0  -5 -0.6616 0.35539   4
  -3   0  -5 0.23724 0.67378   5
   3   0   5 0.28390 0.63126   4
   3   0   5 0.82583 0.56092   5
   3   0   5 1.09172 0.95987   6
  -3   0  -5 -0.4225 0.45525   4
  -3   0  -5 -0.9751 0.96768   6
   4   0   5 0.48020 1.29069   6
   4   0   5 -1.0124 0.62444   4
  -4   0  -5 1.45223 1.29776   6
  -4   0  -5 -0.1859 0.79273   5
  -4   0  -5 2.13818 1.17293   4
   5   0   5 -0.3800 0.88995   4
   5   0   5 0.41735 0.78223   5
  -5   0  -5 -1.1059 1.12595   5
  -5   0  -5 -1.8057 1.04873   4
  -5   0  -5 -0.4213 1.07469   6
   6   0   5 3.09180 1.65423   5
  -7   0  -5 -2.1798 2.37265   6
   7   0   5 3.00620 2.05909   4
   7   0   5 -0.4080 1.78319   5
  -8   0  -5 0.70101 3.08665   6
   8   0   5 1.45251 1.91413   5
   8   0   5 1.73101 1.93639   4
  -9  -1   5 0.31049 3.37208   6
   9  -1  -5 3.63245 2.72281   4
   9  -1  -5 3.48688 2.32655   5
   9   1  -5 -0.0251 1.56730   4
  -9   1   5 5.47380 3.79869   6
   9   1  -5 -1.3168 2.18230   5
   8  -1  -5 163.466 11.3960   4
  -8  -1   5 183.222 13.7231   6
   8  -1  -5 173.646 11.9077   5
   8   1  -5 176.706 12.1542   5
  -8   1   5 164.134 13.2264   6
   8   1  -5 180.612 12.4305   4
  -7  -1   5 164.467 12.1747   6
   7  -1  -5 172.834 10.9089   4
  -7  -1   5 167.585 10.7105   3
   7  -1  -5 151.735 10.6961   5
   7   1  -5 178.841 11.2781   5
  -7   1   5 167.264 10.0525   3
  -7   1   5 157.267 11.9346   6
   6  -1  -5 83.5453 6.83139   4
   6  -1  -5 102.689 7.49507   5
   6  -1  -5 94.7142 8.16164   6
  -6  -1   5 97.1218 6.57499   5
  -6  -1   5 101.706 8.46716   6
  -6  -1   5 99.5692 6.99749   3
   6   1  -5 98.3145 7.47259   5
   6   1  -5 104.021 7.74573   4
  -6   1   5 85.3719 6.17421   5
  -6   1   5 104.865 8.56597   6
   6   1  -5 89.2792 7.66686   6
  -6   1   5 102.241 6.55774   3
   5  -1  -5 338.898 16.5304   5
   5  -1  -5 361.225 17.7785   6
   5  -1  -5 367.783 16.6833   4
  -5  -1   5 357.483 17.6777   6
  -5  -1   5 356.573 16.0862   3
  -5  -1   5 334.445 15.6232   5
   5   1  -5 362.569 16.8817   5
  -5   1   5 386.263 17.9889   6
  -5   1   5 345.061 16.1439   4
  -5   1   5 342.732 15.4207   3
   5   1  -5 371.692 17.2857   4
  -5   1   5 314.781 15.2581   5
   5   1  -5 356.014 17.1586   6
  -4  -1   5 37.0731 3.70485   6
   4  -1  -5 31.8678 3.57159   6
  -4  -1   5 33.4637 2.85077   5
   4  -1  -5 28.5527 2.88391   4
   4  -1  -5 26.3268 2.86341   5
  -4  -1   5 29.6445 2.97737   3
  -4   1   5 29.5193 3.40351   6
   4   1  -5 29.5648 3.15734   5
  -4   1   5 30.8278 2.63179   5
  -4   1   5 24.0067 2.61446   4
  -4   1   5 33.2801 2.65544   3
   4   1  -5 28.4003 3.20586   4
  -3  -1   5 243.080 11.4999   6
  -3  -1   5 266.678 11.2579   3
  -3  -1   5 260.639 10.8708   5
   3  -1  -5 256.883 11.2833   5
   3  -1  -5 228.017 11.0430   4
   3  -1  -5 242.376 11.6872   6
   3   1  -5 230.193 11.5034   4
   3   1  -5 263.430 11.3839   6
   3   1  -5 260.602 11.4701   5
  -3   1   5 273.962 11.8101   6
  -3   1   5 257.356 10.5183   3
  -3   1   5 250.674 10.4266   5
  -2  -1   5 121.433 5.59938   5
   2  -1  -5 131.555 5.73528   5
   2  -1  -5 120.404 5.80869   4
  -2  -1   5 126.476 5.83647   6
   2  -1  -5 129.459 6.10714   6
  -2  -1   5 125.176 6.08300   3
   2   1  -5 127.777 6.01356   5
   2   1  -5 127.358 6.15205   3
  -2   1   5 131.088 5.92648   6
  -2   1   5 131.393 5.39780   3
  -1  -1   5 49.6394 2.91794   3
   1  -1  -5 51.8000 2.41308   3
  -1  -1   5 50.7850 2.16624   6
   1   1  -5 44.6307 2.89057   3
   1   1  -5 47.3160 2.56133   5
  -1   1   5 52.8572 2.40720   3
   0   1  -5 2327.68 85.6064   6
  -1  -1  -5 1195.83 47.0164   6
   1  -1   5 1267.75 46.5198   3
  -1  -1  -5 1262.29 44.9619   5
   1  -1   5 1210.37 46.2397   4
   1  -1   5 1243.79 47.1037   6
  -1  -1  -5 1245.17 46.3557   4
  -1   1  -5 1203.93 45.6289   5
   1   1   5 1235.17 46.8027   6
   1   1   5 1188.73 46.1581   4
  -1   1  -5 1255.53 46.4085   4
  -1   1  -5 1191.86 46.3590   3
  -1   1  -5 1221.29 47.0932   6
  -2  -1  -5 685.053 28.0159   6
  -2  -1  -5 677.607 26.9736   4
   2  -1   5 683.887 25.5795   5
  -2  -1  -5 672.730 25.7401   5
   2  -1   5 613.386 26.3106   4
  -2   1  -5 621.849 26.5524   4
   2   1   5 682.866 29.2445   6
  -2   1  -5 690.961 28.0736   6
   2   1   5 679.721 24.9794   5
  -2   1  -5 687.968 26.0998   5
   2   1   5 635.873 26.5186   4
  -2   1  -5 633.161 26.5586   3
   3  -1   5 69.6533 5.92463   6
  -3  -1  -5 64.7576 4.98727   4
   3  -1   5 75.9313 4.43867   5
  -3  -1  -5 72.8971 4.61649   5
   3  -1   5 64.9629 4.79701   4
  -3  -1  -5 72.9823 6.06442   6
  -3   1  -5 68.3568 6.00619   6
  -3   1  -5 62.5074 4.90315   4
   3   1   5 64.3282 5.56765   6
   3   1   5 66.0766 4.94470   4
   3   1   5 73.0654 4.11658   5
  -3   1  -5 71.3535 4.72770   5
  -4  -1  -5 541.139 25.8776   6
  -4  -1  -5 557.884 24.2774   4
   4  -1   5 548.111 22.6060   5
  -4  -1  -5 481.708 22.8643   5
   4  -1   5 568.361 23.8347   4
   4  -1   5 533.704 25.6609   6
  -4   1  -5 520.811 25.6817   6
   4   1   5 568.276 24.0481   4
  -4   1  -5 551.770 23.3974   5
  -4   1  -5 552.389 24.1724   4
   4   1   5 548.788 25.4176   6
   4   1   5 547.039 22.3098   5
   5  -1   5 23.6251 2.96593   5
   5  -1   5 26.8390 3.56302   4
   5  -1   5 18.9629 4.04988   6
  -5  -1  -5 24.0380 3.96731   4
  -5  -1  -5 23.3104 3.21643   5
  -5  -1  -5 27.2301 5.10402   6
  -5   1  -5 24.5547 3.53719   4
   5   1   5 27.4809 3.02166   5
  -5   1  -5 24.0323 4.85600   6
  -5   1  -5 23.6563 3.41931   5
   5   1   5 23.3398 3.84498   4
   5   1   5 21.8214 4.42681   6
   6  -1   5 346.614 16.3693   5
   6  -1   5 320.131 17.6380   4
   6   1   5 338.124 20.1644   4
  -6   1  -5 326.818 23.1506   6
   6   1   5 344.155 16.1007   5
   7  -1   5 10.9387 3.05258   4
  -7  -1  -5 11.4213 4.27394   6
   7   1   5 8.93117 2.60345   4
  -7   1  -5 8.58590 3.50764   6
   7   1   5 11.6533 2.75269   5
  -8  -1  -5 128.024 13.6458   6
   8  -1   5 133.793 10.5518   4
   8  -1   5 122.606 9.13083   5
   8   1   5 148.181 11.0583   4
  -8   1  -5 133.461 10.6617   3
   8   1   5 139.840 9.32997   5
  -8   1  -5 128.246 13.2145   6
  -9  -2   5 74.4256 9.42464   6
   9  -2  -5 61.1128 7.53262   5
   9  -2  -5 82.4271 8.20714   4
  -9   2   5 58.9273 9.12537   6
   9   2  -5 81.9167 8.42291   5
   8  -2  -5 104.531 8.86099   5
   8  -2  -5 117.232 8.85515   4
  -8  -2   5 98.1581 10.0115   6
   8   2  -5 86.3019 8.56866   4
   8   2  -5 100.249 8.76708   5
  -8   2   5 98.7737 10.0309   6
  -7  -2   5 12.4077 3.58983   6
   7  -2  -5 13.4516 2.92827   4
   7  -2  -5 12.8541 2.92165   5
   7   2  -5 7.32415 3.16804   4
  -7   2   5 17.5752 2.92855   3
   7   2  -5 13.0847 3.20329   5
  -7   2   5 2.83602 3.24095   6
   6  -2  -5 137.068 8.74884   5
   6  -2  -5 114.537 7.94242   4
  -6  -2   5 122.075 8.18005   3
  -6  -2   5 125.341 9.50477   6
  -6  -2   5 114.719 7.63441   5
  -6   2   5 124.480 7.99914   4
   6   2  -5 121.821 8.71002   6
  -6   2   5 125.775 9.66945   6
   6   2  -5 117.150 8.74286   4
  -6   2   5 120.858 7.38831   3
   6   2  -5 121.501 8.59864   5
  -5  -2   5 81.9873 6.88972   6
  -5  -2   5 92.3489 6.28751   3
   5  -2  -5 86.3151 6.03944   4
  -5  -2   5 94.3536 5.93109   5
   5  -2  -5 79.9761 7.01237   6
   5  -2  -5 87.4773 6.32331   5
   5   2  -5 88.7950 6.40576   5
   5   2  -5 90.8650 6.58459   6
  -5   2   5 87.6542 5.33329   3
  -5   2   5 95.1535 5.96312   4
  -5   2   5 81.5217 5.34495   5
   5   2  -5 88.9446 6.75820   4
  -5   2   5 89.2579 7.11715   6
   4  -2  -5 323.803 14.5444   5
   4  -2  -5 318.712 14.1448   4
  -4  -2   5 336.590 15.4217   6
   4  -2  -5 325.392 15.5742   6
  -4  -2   5 301.295 14.2305   3
  -4  -2   5 308.126 13.9011   5
   4   2  -5 307.096 14.5558   6
  -4   2   5 329.506 13.5106   5
   4   2  -5 313.851 14.6864   5
  -4   2   5 343.577 15.4945   6
  -4   2   5 303.211 13.1825   3
  -4   2   5 308.735 13.9542   4
   4   2  -5 302.231 14.9629   4
   3  -2  -5 203.449 9.74620   4
  -3  -2   5 209.310 9.86240   5
   3  -2  -5 223.451 10.1947   5
  -3  -2   5 246.062 10.8395   3
  -3  -2   5 234.157 10.7592   6
   3  -2  -5 230.621 11.0320   6
   3   2  -5 222.732 10.5015   3
  -3   2   5 243.712 10.8541   6
  -3   2   5 227.682 9.14256   3
  -3   2   5 216.413 9.18860   5
   3   2  -5 237.526 11.0131   4
   3   2  -5 190.098 9.90523   6
   3   2  -5 231.434 10.5834   5
   2  -2  -5 794.883 29.6938   5
   2  -2  -5 833.307 30.6894   6
  -2  -2   5 819.497 29.9977   5
  -2  -2   5 717.402 30.3518   3
  -2  -2   5 707.738 29.9439   6
   2  -2  -5 774.205 29.5542   4
   2   2  -5 792.365 30.6408   3
   2   2  -5 787.003 30.3158   5
  -2   2   5 857.065 28.8213   3
  -1  -2   5 406.375 16.6082   3
   1  -2  -5 421.210 15.3536   3
   1  -2  -5 422.194 15.4976   4
   1   2  -5 406.772 16.2533   5
   1   2  -5 406.975 16.7533   3
   0  -2   5 169.668 7.67791   3
   0  -2   5 163.550 7.61197   6
   0  -2  -5 168.303 7.11458   4
   0   2   5 167.462 7.02277   4
   0   2  -5 173.741 7.76457   3
   0   2  -5 163.246 7.51453   6
   1  -2   5 40.8280 3.42744   6
   1  -2   5 36.8083 2.44580   5
   1  -2   5 37.9439 2.85423   4
  -1  -2  -5 43.1314 3.35529   6
   1  -2   5 41.0673 3.02124   3
  -1  -2  -5 41.6070 1.90386   5
  -1  -2  -5 43.4037 2.96588   4
  -1   2  -5 41.8683 3.35996   6
  -1   2  -5 39.7559 2.67172   5
   1   2   5 40.5450 3.13654   6
   1   2   5 38.0765 2.75952   4
  -1   2  -5 40.7882 2.95321   4
  -1   2  -5 41.2522 3.01791   3
  -2  -2  -5 238.951 10.3588   5
  -2  -2  -5 246.911 11.4186   4
  -2  -2  -5 239.647 12.2816   6
   2  -2   5 229.124 12.2181   6
   2  -2   5 232.909 10.4310   5
   2  -2   5 233.765 10.9981   4
   2   2   5 241.357 11.2528   4
  -2   2  -5 246.980 12.4015   6
  -2   2  -5 262.448 11.4067   3
   2   2   5 243.140 9.37385   5
   2   2   5 240.402 11.8683   6
  -2   2  -5 238.866 11.2455   4
  -3  -2  -5 44.8075 4.01158   4
   3  -2   5 40.7264 3.27450   5
  -3  -2  -5 37.5206 3.25059   5
  -3  -2  -5 48.6276 4.89840   6
   3  -2   5 43.5409 3.63078   4
   3  -2   5 42.8072 4.64343   6
   3   2   5 44.2820 3.84211   4
  -3   2  -5 39.3382 3.44849   5
  -3   2  -5 41.6874 4.60130   6
   3   2   5 42.9029 2.87146   5
  -3   2  -5 44.7152 3.86404   3
  -3   2  -5 35.6414 3.61349   4
   3   2   5 41.4306 4.19687   6
  -4  -2  -5 442.538 20.0605   4
  -4  -2  -5 422.597 18.8701   5
   4  -2   5 417.840 21.3267   6
  -4  -2  -5 443.568 21.7631   6
   4  -2   5 415.493 19.1024   4
   4  -2   5 373.328 18.1149   5
  -4   2  -5 455.482 19.6299   3
   4   2   5 432.455 20.8757   6
  -4   2  -5 397.177 19.4119   4
   4   2   5 454.810 19.9494   4
  -4   2  -5 430.241 19.1697   5
   4   2   5 424.842 17.8740   5
  -4   2  -5 421.996 21.4749   6
   5  -2   5 100.483 8.79158   6
   5  -2   5 97.4692 7.15121   4
  -5  -2  -5 100.677 7.77095   4
   5  -2   5 101.819 6.66747   5
  -5  -2  -5 91.4283 8.71442   6
  -5  -2  -5 104.926 7.22901   5
  -5   2  -5 104.239 7.46688   3
  -5   2  -5 97.5778 7.11325   5
  -5   2  -5 88.8825 7.27174   4
  -5   2  -5 100.512 9.18856   6
   5   2   5 96.1277 6.18560   5
   5   2   5 102.292 7.66503   4
   5   2   5 112.041 8.97794   6
   6  -2   5 3.53154 1.82610   4
  -6  -2  -5 3.88375 2.40719   6
   6  -2   5 1.71104 1.58308   5
   6   2   5 2.40986 1.71353   4
   6   2   5 5.40212 1.90372   5
  -6   2  -5 -0.4558 1.54209   3
  -6   2  -5 0.88152 2.36045   6
   7  -2   5 10.1664 3.10600   4
   7  -2   5 4.48795 2.30474   5
  -7  -2  -5 11.7414 4.21865   6
  -7   2  -5 8.14431 3.81161   6
   7   2   5 10.2985 2.48229   5
  -7   2  -5 7.34585 2.68404   3
   7   2   5 9.00922 3.03890   4
  -8  -2  -5 0.81982 3.88223   6
   8  -2   5 0.58916 1.98035   5
   8  -2   5 2.50063 2.37910   4
  -8   2  -5 7.97939 4.33103   6
   8   2   5 -0.2902 2.17717   4
   8   2   5 2.46312 2.25622   5
  -8   2  -5 7.80909 2.77390   3
   8  -3  -5 106.814 8.20597   4
  -8  -3   5 86.3113 9.89221   6
   8  -3  -5 100.205 8.62019   5
  -8   3   5 103.850 8.23867   3
   8   3  -5 108.688 9.77426   4
  -8   3   5 76.0332 8.87500   6
   8   3  -5 105.207 8.99319   5
  -8   3   5 101.951 7.38728   3
   7  -3  -5 2.95515 1.59143   4
  -7  -3   5 0.48629 2.43270   6
   7  -3  -5 1.14679 1.83955   5
   7   3  -5 1.26532 1.67395   4
  -7   3   5 1.28741 1.64261   3
  -7   3   5 5.83241 2.34797   4
   7   3  -5 -0.1079 1.46366   5
  -7   3   5 5.43101 2.97056   6
   6  -3  -5 35.6401 3.91718   4
   6  -3  -5 34.8909 5.07605   6
  -6  -3   5 43.2346 5.66459   6
  -6  -3   5 45.1502 4.85704   3
   6  -3  -5 40.8428 4.64230   5
   6   3  -5 43.6026 4.90921   5
   6   3  -5 39.9410 5.51184   6
  -6   3   5 35.2480 3.57906   3
  -6   3   5 44.8273 5.67985   6
   6   3  -5 39.9705 5.30550   4
  -6   3   5 46.6672 4.32769   4
   5  -3  -5 45.5739 5.24381   6
  -5  -3   5 49.8327 4.65010   3
   5  -3  -5 37.0748 3.75272   4
   5  -3  -5 53.2402 4.62229   5
  -5  -3   5 52.4122 5.31625   6
  -5   3   5 50.8172 3.84191   5
   5   3  -5 48.6050 4.63550   5
  -5   3   5 50.2023 4.03140   4
   5   3  -5 37.3743 4.51876   4
  -5   3   5 42.0510 4.98598   6
   5   3  -5 51.8503 4.69126   6
   4  -3  -5 185.842 10.4912   6
  -4  -3   5 172.608 9.28609   3
   4  -3  -5 195.516 9.44212   5
  -4  -3   5 174.077 9.92941   6
  -4  -3   5 173.473 8.79849   5
   4  -3  -5 169.798 8.45873   4
  -4   3   5 159.766 8.22978   4
  -4   3   5 179.352 10.3991   6
   4   3  -5 171.651 9.38136   5
  -4   3   5 172.627 8.10756   5
   4   3  -5 156.349 9.57378   4
   3  -3  -5 148.750 7.34347   5
   3  -3  -5 144.765 8.21929   6
  -3  -3   5 151.591 7.88429   3
   3  -3  -5 142.364 6.65067   4
  -3  -3   5 127.660 7.57199   6
  -3  -3   5 139.753 7.18307   5
   3   3  -5 151.834 7.79290   5
  -3   3   5 139.654 6.51138   4
   3   3  -5 136.008 7.93718   4
   3   3  -5 150.675 7.93453   3
  -3   3   5 146.562 5.99309   3
  -3   3   5 141.220 5.97236   3
  -3   3   5 157.491 8.03340   6
  -3   3   5 141.919 6.17349   5
  -2  -3   5 179.456 7.96718   5
   2  -3  -5 185.640 8.71115   6
   2  -3  -5 171.223 7.52957   5
  -2  -3   5 173.113 8.08013   6
   2  -3  -5 157.676 6.88489   4
   2   3  -5 175.819 8.24814   5
   2   3  -5 173.594 8.59247   3
   1  -3  -5 52.4274 2.36835   3
  -1  -3   5 52.5029 3.56038   3
  -1  -3   5 50.7370 3.10422   5
   1   3  -5 54.8936 3.70794   3
   1   3  -5 54.0161 3.36245   5
   0  -3  -5 1604.73 60.6919   4
   0  -3   5 1599.13 61.7090   6
   0  -3   5 1690.17 61.7219   3
   0   3  -5 1692.65 61.8578   3
  -1  -3  -5 119.557 4.91004   5
   1  -3   5 109.419 6.18490   3
  -1  -3  -5 117.696 5.97832   4
   1  -3   5 118.818 6.78809   6
   1  -3   5 100.350 5.59428   5
  -1  -3  -5 116.492 6.62064   6
  -1   3  -5 113.898 6.16985   3
  -1   3  -5 120.628 6.17706   4
   1   3   5 114.411 5.88910   4
  -1   3  -5 118.812 6.72277   6
  -1   3  -5 121.958 5.98809   5
  -2  -3  -5 2685.43 98.0371   4
   2  -3   5 2342.87 96.9420   5
   2  -3   5 2399.56 97.6509   3
   2  -3   5 2719.02 97.6703   4
   2  -3   5 2646.90 99.4274   6
  -2  -3  -5 2650.43 99.2922   6
   2   3   5 2655.88 95.2764   5
  -2   3  -5 2448.34 97.6532   4
  -2   3  -5 2860.86 98.0569   3
   2   3   5 2640.71 97.8902   4
   2   3   5 2699.99 98.7723   6
  -2   3  -5 2735.04 99.5018   6
  -2   3  -5 2619.46 97.5157   5
  -3  -3  -5 211.639 10.2894   5
   3  -3   5 212.002 12.3666   6
  -3  -3  -5 222.291 12.5282   6
  -3  -3  -5 222.127 11.2528   4
   3  -3   5 209.638 10.5898   4
   3  -3   5 180.499 13.1686   5
   3   3   5 227.251 11.2607   4
  -3   3  -5 210.721 10.9108   4
  -3   3  -5 227.133 12.6127   6
  -3   3  -5 202.864 10.5325   5
   3   3   5 227.104 11.9669   6
  -3   3  -5 205.829 10.7244   3
   3   3   5 221.404 9.34851   5
   4  -3   5 403.840 21.0590   6
  -4  -3  -5 423.247 19.4935   4
  -4  -3  -5 400.340 20.9953   6
   4  -3   5 411.930 18.1086   5
   4  -3   5 422.889 18.6901   4
  -4  -3  -5 407.499 18.3625   5
  -4   3  -5 424.787 18.8172   5
  -4   3  -5 399.960 19.0165   4
   4   3   5 413.348 20.2399   6
   4   3   5 406.414 19.2154   4
   4   3   5 419.236 17.2740   5
  -4   3  -5 411.122 21.1541   6
  -4   3  -5 380.120 18.5109   3
   5  -3   5 178.920 9.92154   5
  -5  -3  -5 168.612 10.1251   5
   5  -3   5 159.592 10.0166   4
  -5  -3  -5 167.758 12.5509   6
  -5   3  -5 183.346 11.1452   4
  -5   3  -5 172.270 12.5549   6
   5   3   5 181.689 9.26235   5
   5   3   5 189.125 11.3021   4
  -5   3  -5 187.974 10.7766   3
   6  -3   5 0.25148 1.70155   4
   6  -3   5 0.40178 1.41212   5
  -6  -3  -5 -0.2305 2.46389   6
  -6   3  -5 1.04865 1.29041   3
   6   3   5 -1.0084 1.30175   4
  -6   3  -5 -1.2135 1.65157   6
   6   3   5 1.49365 1.41367   5
   7  -3   5 165.151 10.3780   5
   7  -3   5 168.607 11.1080   4
  -7  -3  -5 157.482 13.7378   6
  -7   3  -5 177.284 11.4543   3
   7   3   5 170.447 12.0907   4
   7   3   5 167.393 9.86486   5
  -7   3  -5 127.187 13.0129   6
  -8  -3  -5 2.53624 4.33624   6
   8  -3   5 3.76304 2.24034   5
   8  -3   5 4.98453 2.22712   4
  -8   3  -5 3.93736 1.72049   3
   8   3   5 -1.3066 1.97777   5
  -8   3  -5 -1.5289 3.71919   6
  -8  -4   5 5.95473 3.66756   6
   8  -4  -5 11.3790 2.78881   4
   8  -4  -5 12.1315 3.21198   5
   8   4  -5 15.9919 3.99428   4
  -8   4   5 5.68942 2.16688   3
  -8   4   5 6.83843 3.24144   3
   8   4  -5 2.30203 3.05304   5
  -8   4   5 9.30147 3.62133   6
   7  -4  -5 57.9457 5.35208   4
   7  -4  -5 56.7006 5.84828   5
  -7  -4   5 71.6988 7.77652   6
   7   4  -5 59.9646 6.90329   4
   7   4  -5 56.0288 6.02217   5
  -7   4   5 65.3208 5.76194   4
  -7   4   5 61.1506 7.61297   6
  -7   4   5 53.5221 4.96314   3
  -7   4   5 66.1179 5.11061   3
   6  -4  -5 80.5658 5.79531   4
  -6  -4   5 82.2789 7.65394   6
   6  -4  -5 73.5200 7.66492   6
  -6   4   5 80.1930 5.81414   4
  -6   4   5 63.0848 7.03962   6
  -6   4   5 76.2224 5.63736   5
   6   4  -5 75.6472 6.97978   4
  -6   4   5 71.1194 5.66150   3
   5  -4  -5 -0.6198 0.72859   4
  -5  -4   5 -0.1066 1.25805   5
  -5  -4   5 -0.4102 1.35546   6
  -5  -4   5 -0.3715 1.73946   3
   5  -4  -5 -0.6504 1.66350   6
   5  -4  -5 -0.3368 1.11791   5
   5   4  -5 2.02760 1.39763   5
  -5   4   5 1.26356 0.79118   3
  -5   4   5 1.49774 1.05094   5
   5   4  -5 -1.6580 1.06260   4
  -5   4   5 1.10753 1.08332   4
  -4  -4   5 80.5824 5.52147   5
   4  -4  -5 92.2846 7.04788   6
  -4  -4   5 102.343 7.18844   6
   4  -4  -5 84.4075 4.96599   4
  -4  -4   5 88.1279 6.12020   3
   4  -4  -5 97.9744 6.10526   5
  -4   4   5 95.2396 4.51669   3
  -4   4   5 99.9354 6.75076   6
   4   4  -5 89.6212 6.21746   5
   4   4  -5 85.1599 6.52068   4
  -4   4   5 81.8467 4.87730   4
   3  -4  -5 3.85249 1.72211   6
   3  -4  -5 6.73491 1.01937   4
  -3  -4   5 8.50196 1.71761   5
  -3  -4   5 5.98125 1.60074   3
  -3  -4   5 7.74177 1.75766   6
   3  -4  -5 7.02506 1.45968   5
   3   4  -5 6.06223 1.59447   5
  -3   4   5 7.83722 1.88754   6
   3   4  -5 5.96133 1.70502   4
   3   4  -5 7.44453 1.88103   3
  -3   4   5 4.79936 0.86475   4
  -3   4   5 6.67946 0.71727   3
  -3   4   5 6.46032 0.92162   5
  -3   4   5 9.00704 0.95121   5
   2  -4  -5 28.7767 2.16594   5
  -2  -4   5 25.4527 2.44049   5
   2  -4  -5 34.5376 3.12053   6
  -2  -4   5 27.1296 2.86439   3
   2   4  -5 29.5406 2.72617   5
   2   4  -5 25.1285 2.80274   3
  -1  -4   5 0.74296 0.76339   3
   1  -4  -5 0.13984 0.24993   5
   1  -4  -5 0.33876 0.30410   5
   1  -4  -5 0.34916 0.32680   3
  -1  -4   5 0.13762 0.54094   5
   1   4  -5 0.69503 0.83428   3
   1   4  -5 0.50798 0.73806   5
   0  -4  -5 203.330 7.90501   5
   0  -4  -5 210.436 8.72146   4
   0  -4   5 220.133 10.0553   3
   0  -4   5 216.758 10.0754   6
   0  -4  -5 202.916 9.01490   3
   0  -4  -5 208.736 7.90395   5
   0   4  -5 197.660 9.37969   5
   0   4  -5 214.920 9.84712   5
   0   4  -5 206.069 9.88682   3
   0   4   5 214.780 8.74948   4
  -1  -4  -5 94.2203 4.37624   5
  -1  -4  -5 86.9550 4.27677   5
  -1  -4  -5 96.4776 5.13204   4
   1  -4   5 84.8592 5.03673   5
  -1  -4  -5 84.2168 5.68892   6
   1  -4   5 96.2689 5.44933   3
  -1   4  -5 83.1675 5.23217   3
  -1   4  -5 95.6222 5.91976   6
  -1   4  -5 84.8952 5.17372   4
   1   4   5 93.2321 5.07819   4
  -1   4  -5 95.5275 5.28904   5
  -2  -4  -5 292.847 13.4054   4
  -2  -4  -5 294.853 12.5245   5
   2  -4   5 299.860 13.0405   5
   2  -4   5 294.446 14.7574   6
  -2  -4  -5 289.001 14.6996   6
   2  -4   5 285.945 13.0458   4
   2  -4   5 279.103 13.2883   3
  -2   4  -5 289.580 13.3014   4
  -2   4  -5 286.963 13.1823   5
  -2   4  -5 305.769 14.7567   3
   2   4   5 295.368 13.4320   4
   3  -4   5 24.5183 3.63348   6
   3  -4   5 19.6861 2.51402   4
  -3  -4  -5 27.2637 3.14478   4
  -3  -4  -5 28.4156 3.86832   6
  -3  -4  -5 23.8724 2.52299   5
   3  -4   5 18.6738 2.47076   5
   3   4   5 20.3621 3.08204   6
  -3   4  -5 19.1523 3.66376   6
  -3   4  -5 21.8037 2.61938   5
  -3   4  -5 24.9416 2.96619   3
   3   4   5 19.5533 2.90231   4
   3   4   5 22.0920 1.90943   5
  -3   4  -5 20.6593 2.64264   4
  -4  -4  -5 104.816 6.67112   5
  -4  -4  -5 95.5977 8.30277   6
   4  -4   5 102.167 6.78651   4
   4  -4   5 91.8364 6.34008   5
   4  -4   5 92.3628 8.21035   6
  -4   4  -5 99.4940 6.76343   3
  -4   4  -5 100.393 7.06396   5
   4   4   5 107.179 7.39930   4
   4   4   5 98.0374 5.61858   5
  -4   4  -5 96.4741 8.23992   6
   4   4   5 109.704 8.03475   6
  -4   4  -5 109.294 7.26768   4
  -5  -4  -5 -0.0664 1.48039   5
  -5  -4  -5 -1.3253 1.56714   6
   5  -4   5 -0.3655 1.23330   5
   5  -4   5 -1.5771 1.10870   4
   5   4   5 0.42043 1.10721   4
  -5   4  -5 2.29758 2.05712   6
   5   4   5 0.86693 0.96289   5
  -5   4  -5 0.17630 1.34697   3
  -5   4  -5 -1.4925 1.43290   4
   6  -4   5 -0.4394 1.42184   5
   6  -4   5 2.66594 1.65044   4
  -6  -4  -5 1.30713 2.36539   6
  -6   4  -5 -1.4154 1.48244   3
   6   4   5 0.87769 1.20392   5
   6   4   5 1.82242 1.93538   4
  -6   4  -5 1.67884 2.19710   6
   7  -4   5 6.08986 2.43251   4
   7  -4   5 7.68849 2.75980   5
  -7  -4  -5 13.0692 4.16278   6
  -7   4  -5 7.36908 3.51422   6
   7   4   5 8.28405 2.34328   5
   7   4   5 6.79974 2.58412   4
  -7   4  -5 13.5942 3.48638   3
   8  -4   5 21.7803 4.19169   5
   8  -4   5 29.5696 5.20819   4
  -8   4  -5 23.0146 4.85629   3
   8   4   5 31.8042 5.70836   4
   8   4   5 25.3850 4.70590   5
   8  -5  -5 5.93701 2.75013   5
  -8  -5   5 11.0452 4.11485   6
   8  -5  -5 4.06413 2.01674   4
  -8   5   5 6.79815 3.03325   3
  -8   5   5 6.23671 3.89023   6
   8   5  -5 5.46290 2.72276   5
   8   5  -5 1.75880 1.91431   4
  -8   5   5 5.90942 2.08728   3
   7  -5  -5 3.68042 1.93652   5
  -7  -5   5 6.93585 3.13122   6
   7  -5  -5 8.34230 2.17392   4
  -7   5   5 3.67129 1.85421   3
  -7   5   5 3.26434 1.48443   3
   7   5  -5 7.22936 2.78142   4
  -7   5   5 7.92704 3.49839   6
  -7   5   5 6.53185 2.49945   4
   7   5  -5 4.57270 2.67580   5
   6  -5  -5 5.22636 1.84601   5
   6  -5  -5 -2.4767 1.81684   6
  -6  -5   5 4.83961 2.49021   6
   6  -5  -5 0.85498 1.02394   4
  -6   5   5 2.67810 1.38559   4
  -6   5   5 2.03136 2.12599   6
  -6   5   5 2.37879 1.46549   5
   6   5  -5 5.44417 2.34736   4
  -6   5   5 0.26592 0.86785   3
   6   5  -5 1.69406 1.56130   5
   5  -5  -5 62.9874 4.49480   4
   5  -5  -5 63.8745 7.15582   6
  -5  -5   5 59.4908 5.29285   5
   5  -5  -5 64.0563 5.43024   5
  -5  -5   5 64.8110 6.07308   3
  -5  -5   5 68.1172 6.61570   6
  -5   5   5 70.7410 4.07802   3
   5   5  -5 79.9824 6.29380   5
  -5   5   5 67.3627 4.50990   5
  -5   5   5 67.4701 6.30259   6
   5   5  -5 59.2729 5.93732   4
  -5   5   5 66.7997 4.59075   4
   4  -5  -5 107.252 7.92040   6
  -4  -5   5 104.888 7.51721   6
  -4  -5   5 99.5857 6.45329   5
  -4  -5   5 108.648 7.39712   3
   4  -5  -5 103.826 6.63191   5
   4  -5  -5 93.5122 5.21908   4
   4   5  -5 103.057 6.88537   5
  -4   5   5 106.880 5.53949   4
  -4   5   5 107.454 4.95445   3
  -4   5   5 103.790 7.30337   6
   4   5  -5 103.131 7.43355   4
  -4   5   5 108.298 5.44346   5
   3  -5  -5 28.5662 1.72852   4
  -3  -5   5 25.3145 3.22669   3
  -3  -5   5 25.3347 3.04792   6
  -3  -5   5 26.0573 2.74099   5
   3  -5  -5 28.7133 2.82406   5
   3  -5  -5 24.4645 3.46587   6
  -3   5   5 25.3419 1.62271   3
  -3   5   5 26.3629 1.66776   5
  -3   5   5 24.9218 1.66560   5
  -3   5   5 27.4192 1.76095   4
   3   5  -5 24.6759 3.09233   3
   3   5  -5 28.9355 3.30822   4
   3   5  -5 27.9220 2.96997   5
  -2  -5   5 145.796 8.40305   3
   2  -5  -5 161.022 7.54225   5
  -2  -5   5 166.474 8.10215   5
   2  -5  -5 154.463 6.37359   3
   2  -5  -5 182.819 9.23402   6
   2   5  -5 165.798 8.88865   3
  -2   5   5 157.907 6.39247   3
   2   5  -5 147.865 8.08240   5
  -1  -5   5 163.716 8.51008   3
   1  -5  -5 163.708 7.15036   5
   1  -5  -5 167.567 7.09842   3
  -1  -5   5 165.899 8.03645   5
   1  -5  -5 158.356 7.02987   5
   1   5  -5 166.417 8.85532   3
   1   5  -5 168.701 8.29144   5
   0  -5  -5 7.63789 0.99292   4
   0  -5   5 8.75995 1.63165   3
   0  -5  -5 7.04828 0.89555   5
   0  -5  -5 9.44725 1.42653   3
   0  -5  -5 8.55825 0.96863   5
   0   5   5 6.74983 1.05758   4
   0   5  -5 9.09975 1.78534   3
   0   5  -5 8.30550 1.60637   5
   0   5  -5 6.30986 1.42243   5
  -1  -5  -5 66.4150 4.41607   3
  -1  -5  -5 73.8116 3.89056   5
  -1  -5  -5 64.2222 4.14868   4
   1  -5   5 55.6187 4.16785   5
   1  -5   5 56.0665 4.93251   6
  -1  -5  -5 68.5923 3.74041   5
   1  -5   5 69.3041 4.64149   3
  -1   5  -5 75.4897 5.23765   6
  -1   5  -5 75.2942 4.88498   3
  -1   5  -5 58.9977 4.23980   4
  -1   5  -5 67.3380 4.50541   5
   1   5   5 70.3779 4.28528   4
   2  -5   5 229.815 11.3465   3
  -2  -5  -5 235.004 12.5682   6
  -2  -5  -5 234.733 11.3522   4
   2  -5   5 235.562 12.8747   6
   2  -5   5 216.046 11.0008   5
  -2  -5  -5 230.594 10.7159   5
  -2   5  -5 239.360 12.6316   6
   2   5   5 234.268 11.4108   4
  -2   5  -5 243.503 11.4055   4
  -2   5  -5 242.868 11.4277   5
  -2   5  -5 234.679 11.4208   3
  -3  -5  -5 30.5772 4.11480   6
   3  -5   5 28.6010 4.20563   6
   3  -5   5 31.0788 3.32696   4
   3  -5   5 35.7514 3.41851   5
  -3  -5  -5 30.3940 3.08336   5
  -3  -5  -5 30.7802 3.54524   4
   3   5   5 34.9719 2.35198   5
  -3   5  -5 34.2191 4.53405   6
   3   5   5 31.7434 3.55610   4
   3   5   5 35.4344 2.38712   5
  -3   5  -5 34.0017 3.50846   4
  -3   5  -5 31.9150 3.44123   3
  -3   5  -5 32.2363 3.42732   5
  -4  -5  -5 104.318 8.65285   6
  -4  -5  -5 98.4516 6.65674   5
  -4  -5  -5 93.7928 7.02983   4
   4  -5   5 102.033 6.72141   4
   4  -5   5 94.7326 8.37058   6
   4  -5   5 95.5985 6.57516   5
  -4   5  -5 96.9256 7.01173   4
   4   5   5 90.8644 5.36922   5
  -4   5  -5 99.9830 6.85997   3
  -4   5  -5 100.793 6.91077   5
   4   5   5 107.974 7.61116   4
  -4   5  -5 95.6037 8.20945   6
  -5  -5  -5 266.153 17.0310   6
   5  -5   5 249.605 13.6616   5
   5  -5   5 277.856 14.0251   4
  -5   5  -5 263.653 16.8154   6
   5   5   5 269.140 15.0235   4
  -5   5  -5 247.883 14.3256   4
   5   5   5 276.299 12.5820   5
  -5   5  -5 295.913 14.5246   3
   6  -5   5 93.7210 7.17557   5
  -6  -5  -5 85.7814 9.22801   6
  -6   5  -5 65.2754 8.51939   6
   6   5   5 77.4810 7.49077   4
  -6   5  -5 94.2344 7.29798   3
   6   5   5 95.5344 6.20491   5
  -7  -5  -5 207.994 16.3713   6
   7  -5   5 212.530 12.7162   5
  -7   5  -5 228.463 13.3525   3
  -7   5  -5 181.896 15.2944   6
   7   5   5 206.610 11.3559   5
   7   5   5 207.433 14.0225   4
   8  -5   5 -3.2400 1.89608   4
   8  -5   5 -0.1251 2.59149   5
  -8  -5  -5 -0.0589 2.75340   6
   8   5   5 4.05211 3.04640   4
  -8   5  -5 12.6671 4.35509   6
  -8   5  -5 -3.1041 2.07934   3
   8  -6  -5 37.2329 6.81248   5
   8  -6  -5 46.6181 5.03742   4
  -8  -6   5 41.0582 8.22608   6
  -8   6   5 34.8395 4.12320   3
   8   6  -5 45.0801 6.19775   5
  -8   6   5 33.0457 6.14022   6
   7  -6  -5 18.5543 2.93517   4
  -7  -6   5 19.0451 4.73747   6
   7  -6  -5 17.4288 3.35090   5
  -7   6   5 14.8815 2.41284   3
   7   6  -5 13.3288 3.43106   5
   7   6  -5 9.28684 3.84548   4
  -7   6   5 14.7606 3.09405   5
  -7   6   5 16.9749 4.39025   6
  -7   6   5 14.0811 3.37339   4
  -6  -6   5 2.39610 1.65145   6
   6  -6  -5 -0.1645 1.17918   5
   6  -6  -5 1.44509 0.97637   4
   6   6  -5 0.44060 1.70655   4
  -6   6   5 -1.3014 1.12024   4
  -6   6   5 -0.6396 0.80879   3
   6   6  -5 1.90052 1.76616   5
  -6   6   5 -0.5369 1.79997   6
  -6   6   5 0.67019 1.31195   5
  -5  -6   5 20.7366 4.09306   6
   5  -6  -5 28.8848 3.57057   5
   5  -6  -5 20.7741 2.37428   4
   5  -6  -5 29.9138 4.55239   6
  -5   6   5 21.5083 2.60256   4
   5   6  -5 18.6221 3.32990   5
  -5   6   5 24.4742 2.20320   3
  -5   6   5 27.7958 2.85246   5
  -5   6   5 21.6333 2.65629   5
   5   6  -5 21.6401 4.21359   4
  -5   6   5 20.9611 4.07423   6
  -4  -6   5 148.374 9.58023   6
  -4  -6   5 141.558 9.02647   3
   4  -6  -5 146.807 10.0353   6
  -4  -6   5 140.831 8.40426   5
   4  -6  -5 148.339 8.48538   5
   4  -6  -5 148.001 6.70769   4
  -4   6   5 149.948 6.94088   4
   4   6  -5 147.395 9.33497   3
  -4   6   5 136.666 6.44739   3
   4   6  -5 159.202 9.72397   4
  -4   6   5 145.593 6.84784   5
   4   6  -5 132.525 8.55582   5
   3  -6  -5 166.926 8.36034   5
  -3  -6   5 132.824 8.03316   5
   3  -6  -5 156.829 9.89312   6
  -3  -6   5 159.886 9.30921   3
  -3  -6   5 146.658 9.02564   6
   3   6  -5 160.545 8.85406   5
  -3   6   5 155.087 6.35950   5
  -3   6   5 154.275 6.58730   3
   3   6  -5 167.356 9.52795   4
  -3   6   5 154.097 6.32515   5
  -3   6   5 159.426 6.42729   4
   3   6  -5 152.089 9.27342   3
  -2  -6   5 27.5418 3.14688   3
   2  -6  -5 24.9162 3.17032   6
   2  -6  -5 26.2481 2.38237   5
  -2  -6   5 26.7124 2.83828   5
   2  -6  -5 25.5365 1.71620   3
   2   6  -5 27.0952 2.82673   5
  -2   6   5 25.2731 1.78523   3
   2   6  -5 26.4328 3.13685   3
  -1  -6   5 286.452 14.0243   3
   1  -6  -5 306.308 12.6462   3
   1  -6  -5 317.789 12.9013   5
   1  -6  -5 301.109 12.6792   5
  -1  -6   5 306.146 13.6566   5
  -1   6   5 305.478 11.7526   4
   1   6  -5 315.538 13.9036   5
   1   6  -5 320.641 14.2125   5
   1   6  -5 309.506 14.5660   3
   0  -6   5 31.8023 3.31252   6
   0  -6  -5 28.2256 2.57682   3
   0  -6  -5 24.5380 2.05586   5
   0  -6   5 26.6645 3.00458   3
   0  -6  -5 29.7775 2.21640   5
   0   6  -5 31.0338 3.01308   5
   0   6  -5 28.3693 3.10291   3
   0   6   5 26.4943 2.13827   4
   0   6  -5 26.2066 2.81468   5
  -1  -6  -5 176.808 8.94564   3
  -1  -6  -5 184.302 8.37193   5
   1  -6   5 173.530 10.1404   6
   1  -6   5 182.136 9.21816   3
   1  -6   5 156.743 8.82491   5
  -1  -6  -5 170.360 8.07394   5
  -1  -6  -5 177.953 8.51352   4
  -1   6  -5 177.821 9.11448   5
   1   6   5 171.827 8.54849   4
  -1   6  -5 170.919 8.84509   4
  -1   6  -5 181.474 9.34956   3
  -1   6  -5 174.356 8.98986   5
   2  -6   5 58.6484 4.39584   5
   2  -6   5 55.1885 4.45042   3
   2  -6   5 52.4943 5.40971   6
  -2  -6  -5 58.8167 5.35567   6
  -2  -6  -5 55.9884 4.54221   3
  -2  -6  -5 55.7604 3.90727   5
  -2  -6  -5 54.3121 4.34855   4
  -2   6  -5 48.8988 4.16407   5
  -2   6  -5 57.7729 4.42405   4
  -2   6  -5 51.0390 4.36275   3
   2   6   5 53.3381 4.48476   4
  -2   6  -5 52.9738 5.06010   6
   3  -6   5 65.2729 5.13983   3
   3  -6   5 57.5852 6.18951   6
  -3  -6  -5 65.0690 5.26224   3
  -3  -6  -5 63.9546 5.17379   4
  -3  -6  -5 62.5106 4.65376   5
  -3  -6  -5 73.5551 6.53475   6
   3  -6   5 52.8401 4.64203   5
   3   6   5 61.0814 3.44406   5
  -3   6  -5 61.4510 5.03631   4
  -3   6  -5 63.6230 5.01508   3
   3   6   5 57.7530 3.38990   5
  -3   6  -5 63.7697 5.79741   5
  -3   6  -5 60.6276 6.21676   6
   3   6   5 66.6849 5.45150   4
   4  -6   5 2.49314 1.39201   4
   4  -6   5 3.21775 1.56790   5
  -4  -6  -5 -0.7573 1.14366   4
  -4  -6  -5 3.90297 2.13198   6
  -4  -6  -5 1.52017 1.63787   3
   4  -6   5 3.91987 2.12067   6
  -4   6  -5 2.70499 2.34210   6
  -4   6  -5 5.18338 1.89369   5
   4   6   5 1.14262 1.25838   4
   4   6   5 2.87442 1.18803   5
  -4   6  -5 1.04425 1.17195   3
   5  -6   5 5.22967 1.78480   4
   5  -6   5 8.06324 2.23144   5
  -5   6  -5 1.24071 1.46565   3
   5   6   5 6.01591 2.15223   4
  -5   6  -5 8.79366 2.74802   4
   6  -6   5 5.09896 2.10712   5
   6  -6   5 1.67231 1.54711   4
  -6   6  -5 -0.0131 2.98680   6
   6   6   5 -0.1656 1.31585   5
   6   6   5 1.31784 2.38279   4
   7  -6   5 89.5239 7.56184   4
   7  -6   5 94.5276 7.93619   5
  -7  -6  -5 85.1963 10.4710   6
   7   6   5 100.089 9.11757   4
  -7   6  -5 83.0650 10.2206   6
   7   6   5 100.878 6.91239   5
  -7   6  -5 100.080 8.07234   3
   8  -6   5 11.1940 3.21507   4
   8  -6   5 12.2018 3.70864   5
  -8  -6  -5 19.1318 6.35210   6
   8   6   5 14.6270 3.14117   5
   8   6   5 15.3067 4.05706   4
  -8   6  -5 11.2751 3.67990   3
  -8   6  -5 4.51499 4.50408   6
   8  -7  -5 -0.9369 1.35225   4
  -8  -7   5 -2.8519 3.05121   6
   8  -7  -5 -0.9898 2.11995   5
   8   7  -5 -4.3018 1.91861   4
  -8   7   5 4.56750 2.55743   5
  -8   7   5 6.01001 3.43343   6
  -8   7   5 0.34993 1.74860   3
  -7  -7   5 99.0555 9.71557   6
   7  -7  -5 77.1704 5.71037   4
   7  -7  -5 94.4500 7.88386   5
   7   7  -5 78.8606 7.65463   5
  -7   7   5 80.5655 6.21026   5
   7   7  -5 88.1674 8.77399   4
  -7   7   5 76.2311 5.36562   3
  -7   7   5 90.3206 6.84909   4
  -7   7   5 76.9460 8.69997   6
  -7   7   5 88.7259 6.32290   5
   6  -7  -5 15.3414 3.27185   5
   6  -7  -5 16.1287 2.40660   4
  -6  -7   5 19.3377 4.23743   6
   6   7  -5 16.3110 3.34543   5
  -6   7   5 13.0852 2.58662   5
  -6   7   5 14.8804 2.10793   3
  -6   7   5 16.2771 2.75338   4
  -6   7   5 13.4299 2.38104   5
   6   7  -5 9.35180 3.06679   4
   5  -7  -5 239.747 16.1036   6
   5  -7  -5 234.154 13.0024   5
   5  -7  -5 246.572 10.8699   4
  -5  -7   5 250.242 14.9917   6
   5   7  -5 248.688 13.7164   5
  -5   7   5 244.117 11.0362   5
  -5   7   5 239.550 11.0791   5
   4  -7  -5 136.965 8.16574   5
  -4  -7   5 122.172 7.80544   5
   4  -7  -5 126.010 11.5038   6
  -4  -7   5 117.134 8.48498   3
  -4  -7   5 129.159 9.13636   6
   4   7  -5 138.865 8.65353   5
  -4   7   5 127.848 6.16793   5
  -4   7   5 124.889 6.08230   4
  -4   7   5 137.192 6.15705   3
   4   7  -5 117.085 8.72641   4
   4   7  -5 130.996 8.96954   3
   3  -7  -5 30.2573 4.28364   6
   3  -7  -5 26.2689 2.91235   5
  -3  -7   5 29.5853 3.67060   6
  -3  -7   5 32.6460 3.91376   3
  -3   7   5 27.3695 2.07274   3
   3   7  -5 32.5457 3.98047   4
   3   7  -5 24.7050 3.91952   3
  -3   7   5 25.4124 1.53843   5
   3   7  -5 29.0438 3.37878   5
  -3   7   5 29.4546 1.62811   4
   2  -7  -5 471.333 19.4726   5
  -2  -7   5 458.323 20.7267   3
   2  -7  -5 476.614 21.5195   6
  -2  -7   5 446.290 19.8664   5
   2  -7  -5 459.820 18.2350   3
   2   7  -5 488.609 20.4173   5
  -2   7   5 454.304 18.2798   3
   2   7  -5 468.444 21.0667   3
  -1  -7   5 79.5338 5.26906   5
   1  -7  -5 79.6000 4.74473   5
   1  -7  -5 80.2635 4.54852   3
   1  -7  -5 80.9254 5.41515   5
  -1  -7   5 82.2970 5.77369   3
   1   7  -5 77.7024 5.41961   5
  -1   7   5 79.3407 3.81173   4
   1   7  -5 86.9294 5.69215   5
   1   7  -5 80.6985 5.98158   3
   0  -7  -5 18.5535 2.29039   3
   0  -7  -5 17.7062 1.89596   5
   0  -7  -5 17.4876 1.98887   5
   0  -7   5 15.5007 2.24847   3
   0  -7   5 13.5234 2.81576   6
   0   7  -5 16.9753 2.38786   5
   0   7  -5 13.8101 2.61475   3
   0   7  -5 19.6733 2.60345   5
   0   7   5 17.6782 1.85026   4
   1  -7   5 2.91552 1.77906   6
   1  -7   5 2.84402 1.16901   5
  -1  -7  -5 4.06660 1.14537   5
   1  -7   5 2.64146 1.17307   3
  -1  -7  -5 2.65996 1.23781   3
  -1   7  -5 4.48340 1.44569   4
  -1   7  -5 3.10356 1.29499   3
  -1   7  -5 1.11749 1.06801   5
  -1   7  -5 2.46282 1.24027   5
   1   7   5 2.67874 1.11313   4
  -2  -7  -5 161.821 10.1397   6
  -2  -7  -5 155.165 8.87036   3
   2  -7   5 136.423 8.41459   3
   2  -7   5 146.201 8.58178   5
  -2  -7  -5 152.211 8.51122   4
   2  -7   5 151.438 10.2041   6
  -2  -7  -5 156.319 8.11635   5
  -2   7  -5 163.318 9.02029   3
  -2   7  -5 151.384 9.78502   6
  -2   7  -5 155.632 8.73481   5
   2   7   5 153.727 8.63427   4
  -2   7  -5 161.290 8.88559   5
  -2   7  -5 153.504 8.56167   4
  -3  -7  -5 166.887 9.89566   3
  -3  -7  -5 171.250 11.2447   6
  -3  -7  -5 170.798 9.59333   4
   3  -7   5 158.081 11.3125   6
   3  -7   5 163.971 9.42455   3
   3  -7   5 131.915 8.84373   5
  -3  -7  -5 165.776 8.95437   5
   3   7   5 156.292 7.00928   5
   3   7   5 157.750 7.07608   5
   3   7   5 165.643 9.72772   4
  -3   7  -5 156.611 9.23005   3
  -3   7  -5 171.180 9.64334   5
  -3   7  -5 164.620 10.9141   6
  -3   7  -5 154.987 9.15817   4
   4  -7   5 231.302 12.5097   5
   4  -7   5 216.236 11.9540   4
  -4  -7  -5 239.943 15.0985   6
  -4  -7  -5 240.433 12.4389   5
  -4  -7  -5 239.759 13.1376   4
  -4   7  -5 233.375 14.6472   6
   4   7   5 227.091 13.2398   4
   4   7   5 229.954 10.4674   5
   4   7   5 223.424 10.4115   5
  -4   7  -5 240.183 12.8491   4
  -4   7  -5 254.847 12.9194   3
  -5  -7  -5 190.600 14.1695   6
   5  -7   5 198.337 11.3035   4
  -5   7  -5 183.501 13.7238   6
  -5   7  -5 201.887 11.7571   3
   5   7   5 203.063 12.7687   4
   6  -7   5 125.780 8.69359   5
   6  -7   5 94.1165 7.71828   4
  -6  -7  -5 120.606 11.5571   6
  -6   7  -5 119.692 8.71134   3
   6   7   5 115.443 6.97124   5
  -6   7  -5 93.5333 9.81352   6
   6   7   5 114.611 9.40906   4
   7  -7   5 282.140 15.6767   4
   7  -7   5 285.526 15.9072   5
  -7  -7  -5 281.205 20.0584   6
  -7   7  -5 285.371 15.9896   3
   7   7   5 277.460 13.7598   5
   7   7   5 281.546 17.3666   4
  -7   7  -5 245.061 18.5008   6
   7  -8  -5 72.3616 7.17948   5
  -7  -8   5 73.3501 8.78783   6
   7  -8  -5 67.5586 4.92344   4
  -7   8   5 67.5895 5.80660   4
   7   8  -5 58.2442 7.90404   4
   7   8  -5 61.6608 6.99566   5
  -7   8   5 69.2417 5.26506   5
  -7   8   5 64.9787 5.57499   5
   6  -8  -5 48.2809 5.32580   5
   6  -8  -5 45.7647 4.32861   4
  -6   8   5 42.7711 3.48264   3
   6   8  -5 48.7651 5.61195   5
  -6   8   5 42.2045 4.25286   4
  -6   8   5 43.6461 3.93776   5
   6   8  -5 50.0098 6.64592   4
   5  -8  -5 43.7101 5.81542   5
  -5  -8   5 52.0195 6.24412   6
  -5   8   5 47.8634 3.54555   5
  -5   8   5 48.7174 3.59822   4
   5   8  -5 50.1312 5.97062   4
   5   8  -5 45.3181 5.40734   5
  -5   8   5 45.6625 3.43592   3
  -5   8   5 48.7921 3.55774   5
   4  -8  -5 20.2927 4.05180   6
   4  -8  -5 24.2771 3.32328   5
  -4  -8   5 13.9366 3.36574   6
  -4   8   5 16.2854 2.23015   5
  -4   8   5 20.0330 1.98976   5
   4   8  -5 15.9543 3.42135   3
  -4   8   5 20.4336 2.16703   3
   4   8  -5 17.5838 3.84619   4
  -4   8   5 22.8746 1.93182   4
   4   8  -5 20.6153 3.61364   5
   3  -8  -5 154.976 7.57418   3
   3  -8  -5 171.939 9.33806   5
  -3  -8   5 159.432 9.42590   5
   3  -8  -5 186.265 13.9313   6
  -3  -8   5 173.191 10.3890   3
   3   8  -5 176.159 10.7593   3
  -3   8   5 167.297 6.72128   4
  -3   8   5 178.817 7.83389   3
   3   8  -5 178.388 10.6543   4
   3   8  -5 171.107 9.87482   5
   2  -8  -5 43.0879 4.84114   6
   2  -8  -5 43.1774 3.75077   5
   2  -8  -5 42.9753 3.00369   3
  -2  -8   5 43.4090 4.94036   5
  -2  -8   5 44.5658 4.59239   3
   2   8  -5 48.2649 4.82241   3
   2   8  -5 45.2554 4.32111   5
  -2   8   5 47.3428 3.18516   3
   2   8  -5 38.6859 3.95771   5
  -1  -8   5 16.1547 2.83125   3
   1  -8  -5 10.0667 1.76992   3
   1  -8  -5 13.1795 2.08607   5
  -1  -8   5 10.0758 2.21341   5
   1  -8  -5 16.2316 2.09638   5
   1   8  -5 14.9271 2.53999   5
  -1   8   5 14.5571 1.98618   3
   1   8  -5 14.7461 2.61452   5
  -1   8   5 12.8313 1.31522   4
   1   8  -5 11.3610 2.73759   3
   0  -8   5 562.731 26.1369   3
   0  -8   5 628.976 27.4992   6
   0  -8  -5 625.529 25.0817   5
   0  -8  -5 626.610 25.5669   3
   0  -8  -5 676.631 25.5757   5
   0   8   5 634.988 24.8294   4
   0   8  -5 596.192 26.1718   5
   0   8  -5 636.933 26.1673   5
   0   8  -5 636.091 27.0023   3
   1  -8   5 380.785 19.2163   6
  -1  -8  -5 382.146 16.5836   5
  -1  -8  -5 387.497 17.4218   3
   1  -8   5 391.758 17.7730   3
  -1   8  -5 363.392 17.1295   4
  -1   8  -5 382.664 17.9819   3
  -1   8  -5 407.056 17.9043   5
   1   8   5 391.534 16.9941   4
  -1   8  -5 399.430 17.6211   5
   2  -8   5 9.12664 2.03087   3
   2  -8   5 10.2235 2.31681   5
  -2  -8  -5 9.53938 2.61582   6
  -2  -8  -5 10.4926 2.06920   5
  -2  -8  -5 15.9643 2.80881   3
   2  -8   5 11.7662 3.28739   6
  -2   8  -5 10.9433 2.44600   3
  -2   8  -5 14.4960 2.66231   5
  -2   8  -5 13.7439 2.72857   5
   2   8   5 13.4965 2.70330   4
  -2   8  -5 15.5852 2.51680   4
  -3  -8  -5 661.798 27.7528   5
  -3  -8  -5 687.419 30.9947   6
   3  -8   5 620.872 28.2013   5
   3  -8   5 657.858 34.2359   6
   3  -8   5 678.198 28.7609   3
  -3  -8  -5 700.545 29.1995   3
  -3   8  -5 624.672 27.9611   4
   3   8   5 648.323 25.0249   5
  -3   8  -5 689.475 28.9851   5
   3   8   5 661.982 25.1161   5
  -3   8  -5 658.500 28.3501   3
   3   8   5 680.055 28.8374   4
  -3   8  -5 616.309 30.0480   6
  -4  -8  -5 108.186 11.1105   6
   4  -8   5 105.873 7.60780   5
  -4   8  -5 99.0394 7.44061   3
  -4   8  -5 102.792 7.50142   4
   4   8   5 108.442 8.17303   4
   4   8   5 99.0983 5.45361   5
   4   8   5 102.996 5.54376   5
  -4   8  -5 102.065 10.7376   6
   5  -8   5 411.156 19.6862   5
  -5  -8  -5 374.536 22.6448   6
   5   8   5 425.041 17.1362   5
   5   8   5 407.573 20.8170   4
  -5   8  -5 408.526 19.6073   3
  -5   8  -5 350.353 21.7865   6
   5   8   5 380.827 16.9190   5
   6  -8   5 46.0701 5.04843   4
  -6  -8  -5 63.5690 7.90248   6
   6  -8   5 55.8953 5.93721   5
   6   8   5 54.9265 4.42360   5
  -6   8  -5 49.5703 5.47980   3
  -6   8  -5 48.9192 7.58096   6
   6   8   5 62.5682 7.27849   4
   7  -8   5 65.6790 6.52661   4
   7  -8   5 62.5217 6.68051   5
  -7   8  -5 56.8614 10.7714   6
  -7   8  -5 54.9503 6.52582   3
   7   8   5 63.1656 5.42942   5
  -7  -9   5 15.8277 4.71078   6
  -7   9   5 16.5936 3.58122   5
   7   9  -5 19.6617 3.97190   5
  -6  -9   5 0.03104 1.93837   6
   6  -9  -5 5.01751 2.07179   5
   6   9  -5 1.45694 2.01168   5
   6   9  -5 2.24245 2.27609   4
  -6   9   5 1.41829 1.68767   5
  -6   9   5 1.59981 1.59033   4
  -6   9   5 4.19482 1.56878   3
  -6   9   5 2.26488 1.60231   5
   5  -9  -5 42.8026 4.80454   5
  -5  -9   5 40.1117 5.72327   6
  -5   9   5 35.9007 2.96815   5
  -5   9   5 41.0995 3.12400   5
  -5   9   5 40.0599 3.27468   3
   5   9  -5 31.1698 4.94365   5
  -5   9   5 43.8196 3.14700   4
   5   9  -5 43.5751 5.88146   4
  -4  -9   5 3.29978 1.97021   6
  -4   9   5 -0.6892 0.82824   3
  -4   9   5 0.81546 0.78583   5
   4   9  -5 0.54322 1.61638   3
   4   9  -5 0.22065 1.32203   5
  -4   9   5 -0.7293 0.56211   4
  -4   9   5 0.16076 0.69081   5
   3  -9  -5 348.964 18.7647   6
   3  -9  -5 354.817 16.3157   5
   3  -9  -5 320.848 14.1768   3
   3   9  -5 329.626 17.4794   4
   3   9  -5 336.990 17.5939   3
  -3   9   5 356.381 14.4613   3
   3   9  -5 346.767 16.8541   5
   2  -9  -5 55.1093 4.43811   3
  -2  -9   5 65.5133 5.77736   3
   2  -9  -5 65.7556 4.93892   5
   2  -9  -5 63.4735 6.24692   6
  -2  -9   5 59.9482 5.13313   5
  -2   9   5 58.7139 2.95701   4
  -2   9   5 60.9685 2.99020   4
   2   9  -5 65.5763 6.15503   3
  -2   9   5 61.4047 4.15001   3
   2   9  -5 68.2676 5.41414   5
   2   9  -5 63.0855 5.34307   5
   1  -9  -5 106.552 6.13299   3
   1  -9  -5 107.886 6.49611   5
   1  -9  -5 106.867 6.35678   5
  -1  -9   5 107.159 7.45485   3
  -1  -9   5 103.703 6.92175   5
   1   9  -5 112.646 7.22623   5
   1   9  -5 86.9653 6.65250   5
  -1   9   5 107.501 6.19792   3
   1   9  -5 118.377 8.13504   3
  -1   9   5 110.546 5.36221   4
   0  -9  -5 945.661 38.3447   3
   0  -9   5 1040.63 43.6549   6
   0  -9   5 900.177 39.5395   3
   0  -9  -5 935.855 37.9140   5
   0  -9  -5 995.949 38.4688   5
   0   9  -5 970.706 39.9878   3
   0   9   5 975.625 37.6061   4
   0   9  -5 958.013 39.1557   5
   0   9  -5 1005.78 39.1164   5
  -1  -9  -5 12.7020 2.18090   5
  -1  -9  -5 17.0267 2.97372   3
   1  -9   5 13.1525 3.24280   3
   1  -9   5 17.1287 3.59572   6
  -1   9  -5 14.6010 2.60605   4
  -1   9  -5 16.2444 3.04870   5
  -1   9  -5 11.1431 2.47614   5
  -1   9  -5 12.3429 2.88707   3
   2  -9   5 1380.08 58.8068   6
   2  -9   5 1512.77 56.5977   5
   2  -9   5 1379.07 55.9042   3
  -2  -9  -5 1471.23 56.4362   3
  -2  -9  -5 1457.44 55.1857   5
  -2  -9  -5 1481.50 58.6680   6
  -2   9  -5 1465.28 55.9605   5
  -2   9  -5 1358.13 55.5092   4
  -2   9  -5 1279.77 55.7135   5
  -2   9  -5 1406.18 56.2039   3
   2   9   5 1453.06 55.9190   4
   3  -9   5 114.720 7.84398   3
  -3  -9  -5 123.224 7.67443   5
   3  -9   5 118.281 8.16684   5
  -3  -9  -5 113.398 9.51347   6
   3   9   5 125.303 8.60142   4
  -3   9  -5 126.532 8.37623   3
  -3   9  -5 108.937 7.56883   4
  -3   9  -5 115.597 8.09698   5
   3   9   5 119.973 5.12911   5
   3   9   5 105.576 5.19526   5
   4  -9   5 159.036 10.0898   5
  -4  -9  -5 170.505 12.5435   6
  -4   9  -5 149.295 9.79172   3
   4   9   5 159.713 10.5656   4
  -4   9  -5 161.632 10.1323   4
   4   9   5 152.027 7.29991   5
  -4   9  -5 137.674 11.2913   6
  -5  -9  -5 122.186 11.1813   6
   5  -9   5 126.354 8.92503   5
   5   9   5 128.006 9.71253   4
   5   9   5 119.411 6.45208   5
  -5   9  -5 97.2294 9.39310   3
   5   9   5 123.870 6.63941   5
  -5   9  -5 87.6116 9.64504   6
  -6  -9  -5 3.14799 2.94871   6
   6   9   5 4.21899 2.21818   5
  -6   9  -5 5.41577 2.76615   3
  -6   9  -5 5.39937 3.30495   6
   6   9   5 6.65180 2.89586   4
  -7  -9  -5 61.2689 9.40202   6
  -7   9  -5 38.7131 5.86826   3
  -7   9  -5 36.5458 7.88241   6
   7   9   5 54.2521 7.07190   4
   7   9   5 45.1588 4.62801   5
   7 -10  -5 1.72024 1.90672   5
  -7 -10   5 1.36871 3.45079   6
   7  10  -5 5.19230 2.36111   5
  -7  10   5 3.13707 1.95511   3
   6 -10  -5 0.49743 2.17300   5
  -6 -10   5 -1.0793 2.13774   6
   6  10  -5 2.96915 2.27783   5
   6  10  -5 2.94505 2.24622   4
  -6  10   5 3.56500 1.73827   5
  -6  10   5 -0.0935 1.59476   5
  -6  10   5 -0.8048 1.46284   3
  -5 -10   5 13.8094 4.04540   6
   5 -10  -5 13.6471 3.04927   5
  -5  10   5 15.4903 2.03506   4
   5  10  -5 10.5903 2.70615   5
  -5  10   5 13.3978 1.86133   5
  -5  10   5 14.8708 2.71867   5
  -5  10   5 13.7177 2.25695   3
   5  10  -5 18.4891 3.98678   4
   4 -10  -5 34.8543 4.28314   5
  -4 -10   5 33.9430 5.24604   6
  -4  10   5 36.8444 2.17094   4
  -4  10   5 36.0348 3.18494   3
   4  10  -5 35.8670 4.95714   3
   4  10  -5 35.6738 4.63948   5
   4  10  -5 36.9886 5.02959   4
   3 -10  -5 1.72804 1.25798   5
   3  10  -5 1.68147 1.54741   5
  -3  10   5 2.84865 1.12154   3
   3  10  -5 2.08868 2.00720   4
   2 -10  -5 154.789 7.83024   3
   2 -10  -5 157.341 9.04927   5
   2  10  -5 149.472 10.1383   3
   2  10  -5 153.089 9.39231   5
  -2  10   5 145.632 6.48131   4
  -2  10   5 150.546 6.57711   4
  -2  10   5 154.585 7.99896   3
   1 -10  -5 309.479 14.5691   5
   1 -10  -5 313.745 14.0080   3
  -1 -10   5 266.177 16.9311   3
   1 -10  -5 289.064 14.1254   5
  -1  10   5 310.670 14.0796   3
  -1  10   5 302.198 12.8333   4
   1  10  -5 305.104 14.9788   5
   1  10  -5 308.324 16.6442   5
   1  10  -5 317.378 16.1621   3
   0 -10  -5 21.6694 3.03774   5
   0 -10  -5 21.4898 3.13027   3
   0 -10   5 20.3393 3.34760   3
   0 -10   5 21.6764 4.15003   6
   0 -10  -5 19.6805 2.96564   5
   0  10   5 18.2058 2.46490   4
   0  10  -5 23.6140 3.77919   5
   0  10  -5 20.4801 2.97400   5
   0  10  -5 20.5738 3.81033   3
   1 -10   5 239.419 13.6638   3
  -1 -10  -5 291.008 14.1337   3
  -1 -10  -5 274.531 13.2715   5
  -1  10  -5 277.335 13.9574   5
  -1  10  -5 273.485 14.5058   3
   1  10   5 283.566 13.3863   4
   2 -10   5 248.765 13.3858   3
   2 -10   5 242.308 13.5988   5
  -2 -10  -5 261.410 13.7213   3
  -2 -10  -5 257.830 12.7796   5
   2  10   5 242.323 13.0930   4
  -2  10  -5 282.927 13.4261   4
  -2  10  -5 239.918 13.6260   3
  -2  10  -5 241.474 13.1247   5
   3 -10   5 156.864 10.2209   5
  -3 -10  -5 147.157 11.3836   6
  -3  10  -5 151.997 9.30276   4
   3  10   5 153.203 9.94284   4
  -3  10  -5 143.357 9.62557   3
  -3  10  -5 138.480 9.39962   5
   4 -10   5 422.005 20.6849   5
  -4 -10  -5 456.242 24.1084   6
   4  10   5 410.320 23.5612   4
   4  10   5 405.122 16.4686   5
  -4  10  -5 395.605 20.0333   5
  -4  10  -5 418.785 20.3277   3
   5 -10   5 19.3072 4.03912   5
  -5 -10  -5 42.0542 6.33402   6
   5  10   5 28.4266 2.91200   5
  -5  10  -5 16.5212 4.54623   6
  -5  10  -5 32.4577 5.08311   3
   5  10   5 26.1650 2.76856   5
  -5  10  -5 23.7714 4.12871   5
   5  10   5 27.6183 4.90221   4
   6 -10   5 69.0228 6.97393   5
  -6 -10  -5 64.2121 8.42218   6
  -6  10  -5 40.3740 9.63932   6
   6  10   5 80.5135 7.95764   4
  -6  10  -5 66.2953 6.67418   3
   6  10   5 64.6791 5.36936   5
  -6 -11   5 23.7812 5.27856   6
   6 -11  -5 16.2499 3.74952   5
   6  11  -5 27.5352 6.51090   4
   6  11  -5 14.7732 4.18540   5
  -6  11   5 17.3791 2.50621   3
   5 -11  -5 181.242 11.5834   5
  -5 -11   5 178.200 13.4757   6
   5  11  -5 191.136 12.2860   5
  -5  11   5 187.287 7.71210   4
   5  11  -5 185.823 13.2326   4
  -5  11   5 181.548 9.04083   3
   4 -11  -5 17.2731 3.48270   5
  -4 -11   5 23.2532 4.70797   6
  -4  11   5 18.7626 2.59810   3
   4  11  -5 21.2079 4.01640   5
   4  11  -5 17.4577 4.14123   3
   4  11  -5 20.4384 4.71476   4
   3 -11  -5 163.613 8.12775   3
   3  11  -5 120.892 13.7885   5
   3  11  -5 155.663 10.8327   4
  -3  11   5 165.198 8.33798   3
   3  11  -5 158.125 11.1809   3
   2 -11  -5 78.8884 6.11053   5
   2 -11  -5 77.9092 5.15648   3
  -2  11   5 79.5384 4.07673   4
  -2  11   5 74.5536 3.95459   4
  -2  11   5 83.0311 5.48951   3
   2  11  -5 79.7352 6.53713   5
   2  11  -5 62.8657 8.21233   3
   1 -11  -5 302.753 15.4081   5
   1 -11  -5 340.981 16.1238   5
   1 -11  -5 326.569 15.1683   3
  -1  11   5 327.011 14.0889   4
   1  11  -5 345.054 16.4386   5
  -1  11   5 332.750 15.4301   3
   1  11  -5 333.073 17.4341   3
   0 -11  -5 28.6288 3.98985   3
   0 -11  -5 38.4963 3.98662   5
   0 -11  -5 40.1724 4.11662   5
   0  11   5 35.0735 3.34221   4
   0  11  -5 36.2067 4.16319   5
   0  11  -5 28.7045 4.83893   3
  -1 -11  -5 36.8356 4.29045   3
  -1 -11  -5 46.3022 4.36601   5
   1  11   5 39.0230 4.05369   4
  -1  11  -5 38.2206 5.44497   3
  -1  11  -5 43.2554 4.35469   4
  -1  11  -5 41.2341 4.65942   5
   2 -11   5 2.54519 1.36002   5
  -2  11  -5 -0.5949 1.33536   3
   2  11   5 0.25421 0.96630   4
  -2  11  -5 -1.9359 1.13883   4
  -2  11  -5 -0.6079 1.43219   5
  -3 -11  -5 11.2483 3.62497   6
   3 -11   5 15.5550 3.32332   5
  -3  11  -5 21.0570 3.98807   5
   3  11   5 10.4068 3.18689   4
  -3  11  -5 18.3254 3.74442   3
   4 -11   5 62.1439 6.37490   5
  -4 -11  -5 74.5754 8.62673   6
   4  11   5 76.3814 6.96068   4
  -4  11  -5 64.6957 6.52104   5
  -4  11  -5 58.4756 6.34700   3
  -5 -11  -5 28.0286 6.24058   6
   5 -11   5 23.6268 4.19982   5
  -5  11  -5 22.3797 4.32765   5
   5  11   5 23.5019 3.01507   5
  -5  11  -5 29.7165 5.14789   3
   5  11   5 29.2648 5.39484   4
  -6 -11  -5 65.8102 8.91253   6
   6 -11   5 41.2386 7.19007   5
  -6  11  -5 56.7518 7.02758   5
  -6  11  -5 46.2750 6.30452   3
  -6 -12   5 21.6280 5.55894   6
   6 -12  -5 14.0397 3.36873   5
  -6  12   5 11.8593 2.97869   3
   6  12  -5 8.75774 3.55355   5
   6  12  -5 14.3054 4.77522   4
   5 -12  -5 3.85385 2.14269   5
  -5 -12   5 2.18071 2.32321   6
  -5  12   5 3.24398 1.69934   3
   5  12  -5 2.08002 2.62305   5
   5  12  -5 -0.2577 2.80633   4
   4 -12  -5 39.0215 4.98032   5
  -4 -12   5 39.9417 5.76473   6
   4  12  -5 50.1239 6.65811   3
   4  12  -5 34.6520 5.05266   5
   4  12  -5 37.6571 6.25522   4
   3 -12  -5 43.8715 4.80079   5
   3 -12  -5 34.2536 3.48279   3
  -3  12   5 34.6744 3.71742   3
   3  12  -5 44.2640 5.10049   5
   3  12  -5 26.0801 5.11028   3
   3  12  -5 37.8278 5.08046   4
   2 -12  -5 11.1604 2.72121   5
   2 -12  -5 5.31905 1.81724   3
  -2  12   5 10.8066 2.35111   3
   2  12  -5 10.4839 3.01769   4
  -2  12   5 12.2818 1.51738   4
  -2  12   5 8.90431 1.46486   4
   2  12  -5 11.0561 3.42024   3
   1 -12  -5 38.1469 4.98885   5
   1 -12  -5 27.9973 3.38676   3
   1  12  -5 31.3076 4.30179   5
   1  12  -5 38.6205 5.15251   3
  -1  12   5 33.0388 2.98785   4
   0 -12  -5 80.6978 6.30222   5
   0 -12  -5 70.0058 5.89175   3
   0  12  -5 62.5218 7.86901   3
   0  12  -5 71.9264 6.26527   5
   0  12   5 71.5166 5.28099   4
  -1  12  -5 41.7616 4.90837   5
  -1  12  -5 28.2131 8.01784   3
   1  12   5 52.0795 4.85835   4
  -2  12  -5 3.94290 2.35050   5
   2  12   5 3.19172 1.85373   4
  -3 -12  -5 107.411 9.94968   6
   3 -12   5 87.1342 7.73994   5
  -3  12  -5 91.4783 7.53948   5
   3  12   5 102.519 8.17872   4
  -3  12  -5 85.7165 7.75056   3
   4 -12   5 0.52574 1.70522   5
  -4 -12  -5 -1.6847 2.04076   6
  -4  12  -5 1.43588 1.70021   3
   4  12   5 4.40737 2.25471   4
  -4  12  -5 -1.6760 1.99660   5
   5 -12   5 19.2707 3.92534   5
   5  12   5 13.3745 4.12956   4
  -5  12  -5 15.4338 3.97630   5
  -5  12  -5 20.2082 4.07752   3
  -5 -13   5 149.073 12.9609   6
   5  13  -5 126.158 10.2061   5
  -4 -13   5 65.9372 7.81069   6
   4 -13  -5 61.2553 6.35611   5
   4  13  -5 55.8999 6.34684   5
   4  13  -5 57.8483 7.22982   4
   4  13  -5 66.0589 7.56750   3
  -4  13   5 55.0289 4.80980   3
   3 -13  -5 151.787 9.00805   3
   3 -13  -5 181.440 11.3605   5
   3  13  -5 179.537 12.7705   3
   3  13  -5 167.178 12.0050   4
   3  13  -5 183.064 11.4836   5
  -3  13   5 193.339 9.89059   3
   2 -13  -5 12.2524 2.85323   5
   2 -13  -5 12.3643 2.48805   3
   2  13  -5 10.9713 2.85806   5
  -2  13   5 14.8215 2.90389   3
  -2  13   5 13.3749 1.74238   4
  -2  13   5 10.8272 1.72849   4
   2  13  -5 14.1156 3.83717   3
   2  13  -5 18.5722 4.03668   4
   1 -13  -5 126.341 7.75221   3
   1 -13  -5 121.586 8.66984   5
   1  13  -5 110.714 9.55176   3
   1  13  -5 104.839 8.42409   5
  -1  13   5 120.007 6.40704   4
  -1  13   5 121.480 6.78699   4
   0  13   5 58.5390 4.74120   4
   0  13  -5 46.1680 5.24375   5
   0  13  -5 41.8195 5.99742   3
   1  13   5 6.27334 2.43286   4
  -1  13  -5 5.20823 2.70487   3
  -1  13  -5 6.78335 2.66836   5
   2  13   5 2.30897 1.75570   4
  -2  13  -5 3.30102 2.25572   3
  -3 -13  -5 -0.8169 2.15521   6
   3 -13   5 4.10196 2.37519   5
  -3  13  -5 2.57549 2.16657   5
  -3  13  -5 2.60390 2.43371   3
   3  13   5 -0.2251 1.78151   4
   4 -13   5 43.1357 5.68781   5
  -4 -13  -5 33.4668 6.42898   6
   4  13   5 48.1942 5.88810   4
  -4  13  -5 46.6706 6.14919   3
  -5 -13  -5 67.5553 9.15529   6
   5 -13   5 57.7256 6.83094   5
  -5  13  -5 63.2272 7.50075   3
  -5  13  -5 52.7720 6.94909   5
   5  13   5 64.0058 8.14607   4
  -4 -14   5 -0.7622 2.05695   6
   4  14  -5 -0.3882 2.86963   4
  -4  14   5 2.70122 1.78253   3
   4  14  -5 5.08637 2.99626   5
   3 -14  -5 8.21649 2.70153   5
   3 -14  -5 4.17641 2.12742   3
  -3  14   5 7.38268 2.21007   3
   3  14  -5 9.58932 3.82726   3
   3  14  -5 9.74110 3.27582   4
   3  14  -5 5.01616 2.79177   5
   2 -14  -5 7.51199 2.45421   5
   2 -14  -5 7.95297 2.52327   3
   2  14  -5 7.21601 2.84918   3
   2  14  -5 3.33374 2.85570   4
  -2  14   5 7.96241 1.53415   4
  -2  14   5 6.92366 1.35955   4
   2  14  -5 6.58354 2.73725   5
   1 -14  -5 16.3076 3.51921   5
   1  14  -5 22.5898 3.88449   5
  -1  14   5 20.8340 2.81816   4
   1  14  -5 22.7007 4.72058   3
   0  14   5 16.9049 2.90481   4
   0  14  -5 16.0288 3.61416   5
   0  14  -5 15.6166 3.79594   3
  -1  14  -5 17.1044 3.71232   5
  -1  14  -5 22.2489 4.47736   3
   1  14   5 20.6792 3.66236   4
  -2  14  -5 0.20989 2.10196   5
   2  14   5 1.79223 1.94402   4
  -2  14  -5 -1.9178 2.53619   3
  -3  14  -5 53.2271 6.58070   3
   3  14   5 64.1938 6.93724   4
  -3  14  -5 56.2911 6.22108   5
  -4 -14  -5 15.5444 4.49339   6
   4 -14   5 8.46918 3.61368   5
  -4  14  -5 5.50353 3.45132   3
  -4  14  -5 12.1574 3.96554   5
   4  14   5 11.3951 3.56318   4
   3 -15  -5 26.7942 5.67533   5
   3  15  -5 40.4971 6.57239   4
   3  15  -5 24.7850 5.81771   3
   3  15  -5 27.7985 4.89502   5
   2 -15  -5 2.36585 2.32159   5
   2  15  -5 -0.6030 2.67124   3
  -2  15   5 1.23234 1.24011   4
   2  15  -5 1.91030 2.78976   4
   2  15  -5 2.09959 2.45253   5
   1 -15  -5 125.858 9.71351   5
   1  15  -5 121.977 9.33186   5
   1  15  -5 114.547 10.2253   3
  -1  15   5 133.343 7.32171   4
   0  15   5 -2.9580 1.48178   4
   0  15  -5 4.32493 2.49445   5
  -1  15  -5 51.8948 5.76839   5
   1  15   5 60.8615 5.77460   4
  -1  15  -5 50.8345 7.29424   3
   2  15   5 1.27394 2.15717   4
  -2  15  -5 2.95245 2.60053   3
  -3 -15  -5 3.60104 3.11144   6
   3  15   5 2.81087 2.74743   4
  -3  15  -5 3.47590 3.17385   5
  -3  15  -5 6.88783 3.57954   3
   1  16  -5 7.23997 3.20973   4
   1  16  -5 3.05004 2.51060   3
   1  16  -5 1.64473 2.56192   5
  -1  16   5 2.29106 2.15173   4
   0  16  -5 0.21486 2.97191   5
   0  16  -5 2.88231 3.65809   3
   0  16   5 8.88262 2.49592   4
  -9   0   6 62.5706 8.23663   6
   9   0  -6 69.1118 7.68238   4
   9   0  -6 78.3400 8.28190   5
   8   0  -6 153.842 11.1762   5
   8   0  -6 178.184 11.7626   4
  -8   0   6 149.765 12.3506   6
  -7   0   6 54.9169 6.34023   6
   7   0  -6 57.6533 6.19573   6
  -7   0   6 47.4735 5.06094   3
   7   0  -6 53.9071 5.60262   5
   7   0  -6 62.4341 5.99756   4
   6   0  -6 630.919 27.2167   5
   6   0  -6 587.501 27.5056   6
  -6   0   6 625.664 25.8641   3
  -6   0   6 612.719 28.0657   6
   6   0  -6 609.468 27.0862   4
  -6   0   6 577.333 25.5795   5
   5   0  -6 24.2553 3.27964   4
  -5   0   6 25.0628 3.55802   6
   5   0  -6 15.1780 2.91071   6
   5   0  -6 23.1767 2.99901   5
  -5   0   6 17.6902 2.65815   3
  -5   0   6 21.1419 2.56192   5
   4   0  -6 578.823 25.2652   6
  -4   0   6 599.843 23.9846   5
  -4   0   6 657.891 25.8052   6
   4   0  -6 596.662 25.1185   5
   4   0  -6 585.941 26.6882   4
  -4   0   6 624.979 24.6005   3
   3   0  -6 3.65067 1.24565   4
   3   0  -6 5.04754 1.33321   5
  -3   0   6 9.56279 1.58269   6
  -3   0   6 9.62004 1.44676   3
  -3   0   6 6.75843 1.15111   5
   3   0  -6 5.69412 1.47066   6
   2   0  -6 89.5350 4.27333   6
   2   0  -6 93.7725 4.54685   5
  -2   0   6 101.918 4.66662   3
  -2   0   6 100.768 4.29609   6
   2   0  -6 89.1194 4.59424   3
   1   0  -6 897.147 34.0943   3
  -1   0   6 919.245 34.0506   3
   0   0  -6 12.5627 1.31990   4
   0   0   6 10.6430 1.25305   3
   0   0  -6 13.2723 1.33555   6
   0   0  -6 12.1054 1.29245   3
   0   0   6 10.7617 1.24108   6
   1   0   6 72.1664 4.69631   6
  -1   0  -6 73.3648 4.33621   4
  -1   0  -6 74.3408 4.38421   3
  -1   0  -6 68.6406 4.70920   6
   1   0   6 70.6028 4.21745   4
  -1   0  -6 74.3078 3.44686   5
   2   0   6 671.339 25.0119   5
   2   0   6 682.401 26.7555   4
   2   0   6 675.521 27.9410   6
  -2   0  -6 658.670 28.0649   6
  -2   0  -6 628.901 26.7998   4
  -2   0  -6 661.749 25.8587   5
   3   0   6 113.647 6.89458   4
   3   0   6 117.206 8.06459   6
  -3   0  -6 117.416 8.23966   6
  -3   0  -6 100.996 6.22317   5
  -3   0  -6 109.969 7.02861   4
   3   0   6 109.093 5.67584   5
   4   0   6 89.7095 6.38227   4
   4   0   6 78.2672 6.94089   6
  -4   0  -6 85.3892 7.48551   6
   4   0   6 82.0951 5.14304   5
  -4   0  -6 79.1214 6.25222   4
  -4   0  -6 82.6968 5.86473   5
  -5   0  -6 8.94927 2.56246   4
  -5   0  -6 8.17747 2.11532   5
   5   0   6 9.28950 3.55552   6
   5   0   6 7.81173 1.91871   5
   5   0   6 9.66188 2.53809   4
  -5   0  -6 11.0661 3.53429   6
   6   0   6 1006.34 41.0313   5
  -6   0  -6 1019.19 46.7231   6
   6   0   6 1035.11 43.3289   4
   7   0   6 29.3852 4.94907   4
   7   0   6 20.5793 3.45119   5
  -7   0  -6 24.4942 6.09152   6
  -8   0  -6 258.756 20.6705   6
   8   0   6 298.155 17.6677   4
   8   0   6 306.558 15.6941   5
   9  -1  -6 8.27556 3.48090   5
  -9  -1   6 5.78235 3.87400   6
   9  -1  -6 12.2382 3.58904   4
   9   1  -6 11.3025 3.35101   5
  -9   1   6 11.9305 4.55444   6
   9   1  -6 8.48405 3.13237   4
   8  -1  -6 55.8256 5.91775   4
   8  -1  -6 45.0958 6.08172   5
  -8  -1   6 46.1395 6.77008   6
   8   1  -6 51.4584 5.89540   4
  -8   1   6 31.4200 6.40566   6
   8   1  -6 40.1126 5.70810   5
   7  -1  -6 253.856 13.9642   5
   7  -1  -6 220.986 14.5148   6
  -7  -1   6 234.039 12.8304   3
   7  -1  -6 225.170 13.1959   4
  -7  -1   6 232.651 14.7505   6
   7   1  -6 249.318 14.3793   6
   7   1  -6 204.277 13.1284   5
  -7   1   6 237.764 14.8150   6
  -7   1   6 201.004 13.2970   3
  -6  -1   6 175.092 9.65948   5
   6  -1  -6 175.633 11.4867   6
   6  -1  -6 161.743 10.4721   5
   6  -1  -6 171.590 10.5817   4
  -6  -1   6 193.770 11.9684   6
  -6  -1   6 175.084 10.1208   3
  -6   1   6 190.979 9.75484   3
   6   1  -6 173.498 10.8124   5
   6   1  -6 186.228 11.1988   4
  -6   1   6 199.404 12.0923   6
   6   1  -6 186.743 11.2072   6
  -6   1   6 185.776 10.6636   5
   5  -1  -6 73.0661 5.51652   4
  -5  -1   6 75.7547 5.00611   5
  -5  -1   6 83.2486 6.65919   6
  -5  -1   6 67.5501 5.12251   3
   5  -1  -6 68.1486 5.44046   5
   5  -1  -6 73.3622 6.20821   6
   5   1  -6 69.2994 5.65476   6
  -5   1   6 73.2346 4.80517   3
  -5   1   6 68.1354 4.60610   5
   5   1  -6 71.1697 5.70485   5
  -5   1   6 75.7240 6.29947   6
   5   1  -6 69.1401 5.71926   4
   4  -1  -6 75.9572 6.53797   6
  -4  -1   6 81.2933 5.67423   6
  -4  -1   6 74.8570 4.67758   5
   4  -1  -6 80.7765 5.36921   5
   4  -1  -6 76.9980 5.21147   4
  -4  -1   6 75.4738 5.02929   3
   4   1  -6 77.2511 5.55289   4
   4   1  -6 78.8294 5.33595   6
  -4   1   6 74.7082 4.53844   3
  -4   1   6 84.1521 5.13238   5
  -4   1   6 88.8959 5.84854   6
   4   1  -6 87.0441 5.60938   5
   3  -1  -6 426.124 17.7659   4
   3  -1  -6 423.210 17.6939   5
  -3  -1   6 439.665 17.2211   5
  -3  -1   6 406.370 17.6149   3
   3  -1  -6 450.030 18.2723   6
  -3  -1   6 452.672 18.0312   6
  -3   1   6 427.555 16.5830   5
   3   1  -6 428.923 17.5738   6
  -3   1   6 456.385 18.0261   6
   3   1  -6 426.818 17.9606   5
   3   1  -6 442.054 18.4278   4
  -3   1   6 424.879 16.9580   3
   3   1  -6 414.638 17.7367   3
  -2  -1   6 30.8641 2.36238   3
   2  -1  -6 25.2326 2.01004   6
  -2  -1   6 29.6393 1.85189   6
   2  -1  -6 28.4647 1.77698   3
   2  -1  -6 26.2990 1.80132   5
  -2  -1   6 28.2523 1.77111   5
   2   1  -6 28.9659 2.16695   5
  -2   1   6 29.0487 1.73297   3
   2   1  -6 29.9326 2.40180   3
   1  -1  -6 7.65042 0.83681   3
  -1  -1   6 6.35022 0.55475   6
  -1  -1   6 7.56367 1.17490   3
   1   1  -6 7.17137 0.85203   5
   1   1  -6 7.29221 1.17010   3
  -1   1   6 6.60599 0.79838   3
   0  -1  -6 113.393 5.72661   6
   0  -1  -6 118.950 5.55556   4
   0  -1   6 115.430 5.71305   6
   0  -1  -6 118.320 5.59855   3
   0  -1   6 127.232 5.91431   3
   0   1  -6 124.335 5.77121   6
   0   1  -6 119.572 5.85615   3
   0   1   6 119.492 5.52399   4
   0   1  -6 113.578 5.77345   4
   1  -1   6 187.990 8.86116   4
  -1  -1  -6 189.009 8.90273   4
  -1  -1  -6 199.294 7.48442   5
  -1  -1  -6 182.378 9.48791   6
   1  -1   6 193.952 9.57525   6
  -1   1  -6 206.878 8.32892   5
  -1   1  -6 181.634 8.90182   4
  -1   1  -6 192.871 9.61130   6
   1   1   6 197.431 8.85102   4
   1   1   6 199.418 9.38653   6
  -1   1  -6 194.554 9.06229   3
  -2  -1  -6 95.9437 5.80181   4
   2  -1   6 89.9234 4.63001   5
   2  -1   6 91.6787 6.45022   6
  -2  -1  -6 97.7337 6.62917   6
   2  -1   6 91.6995 5.56293   4
  -2  -1  -6 97.0296 4.94890   5
  -2   1  -6 96.6954 6.65206   6
   2   1   6 91.6931 5.60985   4
   2   1   6 89.9965 6.19301   6
  -2   1  -6 97.0116 5.22501   5
  -2   1  -6 102.964 5.93909   3
  -2   1  -6 96.7677 5.80131   4
  -3  -1  -6 88.1091 5.41607   5
   3  -1   6 89.3456 7.04743   6
   3  -1   6 93.2525 5.09116   5
   3  -1   6 91.0393 5.90857   4
  -3  -1  -6 94.3651 7.22365   6
  -3  -1  -6 95.2546 6.29241   4
  -3   1  -6 91.0560 7.15998   6
   3   1   6 85.5787 6.70824   6
  -3   1  -6 81.6287 5.42725   5
  -3   1  -6 91.2365 6.14096   4
   3   1   6 90.5762 4.68925   5
  -3   1  -6 95.8722 6.14612   3
   3   1   6 78.6962 5.75484   4
   4  -1   6 246.726 11.5578   5
   4  -1   6 244.784 12.5041   4
  -4  -1  -6 234.989 14.2928   6
   4  -1   6 233.005 14.0206   6
  -4  -1  -6 241.294 11.9826   5
  -4  -1  -6 226.056 12.5744   4
  -4   1  -6 233.457 12.0632   5
   4   1   6 235.419 10.8870   5
  -4   1  -6 239.228 12.7957   4
   4   1   6 216.478 12.2373   4
   4   1   6 247.895 13.9686   6
  -4   1  -6 243.264 14.4175   6
   5  -1   6 5.04931 1.57776   5
  -5  -1  -6 3.18189 2.40649   6
   5  -1   6 5.77489 1.98026   4
  -5  -1  -6 2.75272 1.82795   5
  -5   1  -6 9.71490 2.32341   5
   5   1   6 6.74685 1.74474   5
   5   1   6 6.89395 3.43023   6
  -5   1  -6 6.93167 2.11394   4
  -5   1  -6 5.17346 2.36630   6
   5   1   6 2.03372 1.69142   4
  -6  -1  -6 35.7131 6.65230   6
   6  -1   6 35.7157 4.19861   5
   6  -1   6 40.1643 5.04004   4
  -6   1  -6 34.7850 6.36567   6
   6   1   6 36.8117 3.82089   5
   6   1   6 36.9160 5.02440   4
   7  -1   6 17.4469 3.35765   5
   7  -1   6 20.4787 4.40316   4
  -7  -1  -6 25.1165 6.04745   6
   7   1   6 22.7611 4.24442   4
   7   1   6 30.1737 3.95106   5
  -7   1  -6 28.9864 4.79916   3
  -7   1  -6 19.3675 5.38174   6
  -8  -1  -6 3.91575 5.38506   6
   8  -1   6 11.0217 3.31338   4
   8  -1   6 11.7935 2.90012   5
   8   1   6 14.0850 3.40642   4
   8   1   6 4.23280 2.63197   5
  -8   1  -6 14.5601 3.52154   3
  -8  -2   6 208.869 14.8661   6
   8  -2  -6 207.848 13.6879   5
   8  -2  -6 229.443 13.5190   4
  -8   2   6 207.841 14.9480   6
  -8   2   6 205.867 12.1272   3
   8   2  -6 220.700 13.9722   5
   8   2  -6 216.309 14.3498   4
   7  -2  -6 -0.0972 1.47897   5
   7  -2  -6 -0.6835 0.92209   4
  -7  -2   6 -2.7795 1.64729   6
  -7   2   6 1.55042 1.78551   3
   7   2  -6 0.24324 1.68045   5
   7   2  -6 1.70269 1.92556   4
  -7   2   6 -0.3212 1.82526   6
   7   2  -6 3.24924 2.06790   6
   6  -2  -6 446.326 21.7774   6
  -6  -2   6 372.410 18.6542   5
  -6  -2   6 467.850 20.4199   3
   6  -2  -6 454.438 20.5410   5
   6  -2  -6 382.623 19.3433   4
  -6  -2   6 440.862 21.5610   6
   6   2  -6 457.210 21.3165   4
  -6   2   6 439.865 18.5849   5
  -6   2   6 446.296 21.5610   6
   6   2  -6 413.187 20.3472   5
   6   2  -6 367.174 19.8865   6
  -6   2   6 432.315 18.5499   3
   5  -2  -6 68.2668 5.41211   5
   5  -2  -6 62.7712 5.01594   4
   5  -2  -6 74.3148 6.17311   6
  -5  -2   6 63.4327 5.79370   6
  -5  -2   6 64.2930 4.72435   5
  -5  -2   6 63.6542 5.19749   3
  -5   2   6 69.9107 6.00371   6
  -5   2   6 64.9508 4.34845   5
   5   2  -6 61.9529 5.19072   6
   5   2  -6 76.2896 6.05456   4
   5   2  -6 74.7494 5.69987   5
   4  -2  -6 274.334 12.7617   4
   4  -2  -6 284.703 14.0260   6
  -4  -2   6 257.138 12.3940   5
  -4  -2   6 287.806 13.7630   6
   4  -2  -6 286.092 13.2496   5
  -4  -2   6 288.649 13.1876   3
   4   2  -6 274.191 14.1422   6
   4   2  -6 304.411 14.1459   4
  -4   2   6 306.488 13.9202   6
  -4   2   6 265.098 11.7534   5
   4   2  -6 277.278 13.3955   5
  -4   2   6 294.075 11.8855   3
   3  -2  -6 675.487 26.4633   4
  -3  -2   6 713.154 27.2464   3
  -3  -2   6 708.561 26.6998   5
  -3  -2   6 642.156 26.9732   6
   3  -2  -6 695.109 26.7809   5
   3  -2  -6 694.856 27.5893   6
  -3   2   6 697.075 25.1554   5
  -3   2   6 724.133 27.2457   6
   3   2  -6 598.928 27.3298   4
   3   2  -6 643.486 27.0814   3
  -3   2   6 673.431 25.5062   3
   2  -2  -6 118.318 5.86920   6
   2  -2  -6 107.885 5.01084   5
  -2  -2   6 102.188 5.26886   6
   2  -2  -6 109.787 5.13079   4
  -2  -2   6 116.573 5.37938   5
  -2  -2   6 114.552 6.01838   3
   2   2  -6 126.325 5.91268   5
   2   2  -6 115.926 6.14440   3
  -2   2   6 119.002 4.44527   3
   1  -2  -6 533.954 20.4555   3
   1  -2  -6 554.260 20.6200   4
  -1  -2   6 550.629 20.8467   6
  -1  -2   6 551.314 21.6891   3
   1   2  -6 557.319 21.8933   3
   1   2  -6 540.333 21.1909   5
   0  -2   6 1605.30 59.9273   6
   0  -2  -6 1557.33 59.8326   6
   0  -2   6 1598.54 59.9393   3
   0   2  -6 1579.66 59.9928   3
   0   2  -6 1667.34 59.8339   6
  -1  -2  -6 376.164 16.4459   6
  -1  -2  -6 386.181 15.6907   4
   1  -2   6 378.545 15.7059   4
   1  -2   6 364.855 16.4290   6
   1  -2   6 334.181 16.5687   3
  -1   2  -6 389.763 15.9316   3
   1   2   6 383.875 16.1405   6
  -1   2  -6 358.740 15.1800   5
  -1   2  -6 370.261 16.4143   6
   1   2   6 381.354 15.5502   4
  -1   2  -6 397.538 17.0170   4
  -2  -2  -6 800.343 31.9064   4
   2  -2   6 811.498 31.6289   4
  -2  -2  -6 780.177 33.0336   6
   2  -2   6 812.323 30.6854   5
  -2  -2  -6 788.886 30.5004   5
   2  -2   6 793.882 33.0788   6
   2   2   6 788.293 32.5039   6
  -2   2  -6 805.360 31.3638   5
  -2   2  -6 760.469 31.7224   4
  -2   2  -6 827.277 33.2636   6
   2   2   6 776.252 31.6294   4
  -2   2  -6 816.575 31.8853   3
  -3  -2  -6 171.170 9.56141   4
   3  -2   6 158.317 8.28492   5
  -3  -2  -6 172.158 10.8049   6
   3  -2   6 187.834 9.42489   4
  -3  -2  -6 175.561 8.71519   5
   3  -2   6 178.388 10.8024   6
  -3   2  -6 170.583 9.36841   3
   3   2   6 174.726 7.57816   5
   3   2   6 174.601 9.51995   4
  -3   2  -6 181.871 9.12031   5
  -3   2  -6 176.441 10.8755   6
  -3   2  -6 161.794 9.36098   4
   3   2   6 169.598 10.2390   6
   4  -2   6 1080.45 41.7852   4
  -4  -2  -6 1037.65 41.1544   5
  -4  -2  -6 1037.56 44.5058   6
   4  -2   6 968.355 40.3671   5
   4  -2   6 1014.17 44.2057   6
  -4  -2  -6 1023.72 42.3313   4
   4   2   6 1081.01 44.1939   6
   4   2   6 1052.28 39.7312   5
   4   2   6 1024.23 42.0330   4
  -4   2  -6 1042.89 42.2514   4
  -4   2  -6 1054.43 41.5264   5
  -4   2  -6 949.092 41.5230   3
  -4   2  -6 1066.59 44.6017   6
   5  -2   6 501.205 21.7813   5
  -5  -2  -6 499.099 25.8973   6
   5  -2   6 497.392 22.8745   4
  -5  -2  -6 514.535 22.7746   5
  -5   2  -6 509.213 25.9869   6
  -5   2  -6 466.527 23.2737   4
   5   2   6 517.286 23.5561   4
   5   2   6 501.329 21.1084   5
  -5   2  -6 495.851 23.0797   3
   6  -2   6 369.779 17.4006   5
  -6  -2  -6 365.507 21.8577   6
   6  -2   6 351.073 18.7099   4
  -6   2  -6 352.252 21.3877   6
  -6   2  -6 443.589 21.9688   3
   6   2   6 357.686 16.6852   5
   6   2   6 324.179 18.5611   4
  -7  -2  -6 11.4146 4.77951   6
   7  -2   6 24.4663 4.24745   4
   7  -2   6 20.2271 3.69539   5
   7   2   6 21.9007 4.32199   4
   7   2   6 14.8823 2.89886   5
  -7   2  -6 25.8250 5.73832   6
  -7   2  -6 23.4123 4.25299   3
   8  -2   6 102.836 8.87823   4
   8  -2   6 99.8415 7.92065   5
  -8   2  -6 101.574 8.98629   3
   8   2   6 99.7905 7.89185   5
   8  -3  -6 111.405 8.97256   5
  -8  -3   6 94.9057 10.0726   6
   8  -3  -6 99.0785 8.15148   4
  -8   3   6 99.9585 7.91399   3
   8   3  -6 123.375 10.2659   4
  -8   3   6 114.081 10.6987   6
   8   3  -6 113.224 9.38252   5
  -8   3   6 108.951 7.48373   3
   7  -3  -6 2.29756 1.56332   4
  -7  -3   6 -2.4642 1.71961   6
   7  -3  -6 -2.6827 1.23540   5
   7   3  -6 1.09155 1.89597   5
  -7   3   6 0.90180 1.76588   5
  -7   3   6 -3.1837 1.41926   3
   7   3  -6 6.04935 2.51080   4
  -7   3   6 1.76135 2.25716   6
   6  -3  -6 40.6425 4.65417   5
   6  -3  -6 30.6694 3.81528   4
  -6  -3   6 41.2741 5.48105   6
  -6  -3   6 39.3120 4.72817   3
   6   3  -6 40.4639 5.08656   4
  -6   3   6 38.0814 3.69844   5
  -6   3   6 37.2161 4.04705   4
  -6   3   6 29.9706 3.41839   3
   6   3  -6 35.2609 5.55180   5
  -6   3   6 28.3765 4.97509   6
   6   3  -6 22.4997 4.15562   6
   5  -3  -6 52.2487 5.55938   6
   5  -3  -6 48.5302 4.54898   5
  -5  -3   6 43.7627 4.88292   6
  -5  -3   6 48.6338 4.68502   3
  -5  -3   6 43.3513 4.10067   5
  -5   3   6 59.6791 5.56645   6
   5   3  -6 41.4258 4.76711   4
  -5   3   6 48.0667 3.49185   5
   5   3  -6 49.6502 4.83306   5
  -5   3   6 51.5430 3.45106   3
  -4  -3   6 113.697 7.06062   3
  -4  -3   6 118.706 6.59820   5
   4  -3  -6 111.278 7.63065   6
   4  -3  -6 116.380 6.85523   5
  -4  -3   6 101.855 7.09483   6
   4  -3  -6 108.175 6.12932   4
  -4   3   6 122.050 7.49042   6
  -4   3   6 112.510 5.34319   3
   4   3  -6 119.249 7.18074   5
   4   3  -6 121.976 7.68875   4
  -4   3   6 114.228 5.47500   5
  -3  -3   6 163.614 8.57759   6
   3  -3  -6 172.664 9.14722   6
  -3  -3   6 167.147 8.11811   5
  -3  -3   6 170.525 8.79161   3
   3  -3  -6 167.301 8.16212   5
   3  -3  -6 163.193 7.55062   4
  -3   3   6 173.431 6.62766   3
   3   3  -6 164.333 8.62024   5
   3   3  -6 173.921 8.92530   3
   3   3  -6 164.659 9.11250   4
  -3   3   6 176.212 6.66079   3
  -3   3   6 184.550 8.81653   6
  -2  -3   6 146.544 6.87533   5
  -2  -3   6 140.929 6.88653   6
  -2  -3   6 153.667 7.60335   3
   2  -3  -6 137.367 5.95324   4
   2  -3  -6 147.262 7.46139   6
   2  -3  -6 143.725 6.33510   5
   2   3  -6 148.789 7.68250   3
   2   3  -6 156.263 7.37900   5
  -1  -3   6 8.17761 1.19357   6
   1  -3  -6 7.80335 0.66823   4
  -1  -3   6 11.6000 1.74254   3
   1   3  -6 10.0050 1.73475   3
   1   3  -6 9.02320 1.42867   5
   0  -3   6 5.76071 1.33984   6
   0  -3  -6 6.71056 0.99510   4
   0  -3   6 7.48776 1.46802   3
   0   3  -6 8.95962 1.62478   3
   0   3  -6 7.36985 1.24464   6
   0   3   6 8.42917 1.03586   4
  -1  -3  -6 430.632 17.8612   4
  -1  -3  -6 444.436 16.2007   5
  -1  -3  -6 420.280 18.6941   6
   1  -3   6 414.470 18.0972   3
  -1  -3  -6 447.608 16.2184   5
   1  -3   6 433.164 18.9419   6
  -1   3  -6 452.957 18.9172   6
  -1   3  -6 408.086 18.0079   4
  -1   3  -6 432.038 18.2201   3
  -1   3  -6 432.093 17.7807   5
   1   3   6 453.174 17.8451   4
  -2  -3  -6 3.79259 1.30073   4
   2  -3   6 3.98389 1.67396   6
  -2  -3  -6 4.71788 0.99960   5
   2  -3   6 4.56319 2.16328   4
  -2  -3  -6 4.52527 1.58075   6
   2  -3   6 3.19893 1.14379   3
   2  -3   6 3.32533 0.98711   5
   2   3   6 3.37693 1.25267   6
  -2   3  -6 2.34130 1.35187   6
   2   3   6 5.00788 1.36072   4
  -2   3  -6 4.53543 1.33514   4
  -2   3  -6 4.11068 1.23396   5
  -3  -3  -6 761.974 31.1762   5
   3  -3   6 821.002 32.0415   4
  -3  -3  -6 771.022 32.4419   4
   3  -3   6 747.902 32.3092   5
  -3  -3  -6 777.563 34.1166   6
   3  -3   6 746.560 33.8540   6
   3   3   6 775.808 29.6196   5
   3   3   6 811.072 32.4717   4
   3   3   6 786.085 33.3114   6
  -3   3  -6 805.000 31.8961   5
  -3   3  -6 798.520 32.4184   4
  -3   3  -6 835.896 32.3810   3
  -3   3  -6 785.044 34.1375   6
   4  -3   6 39.4278 3.65393   5
  -4  -3  -6 45.3560 5.36176   6
   4  -3   6 39.9110 3.99750   4
  -4  -3  -6 39.8952 3.78972   5
   4  -3   6 41.7676 6.06510   6
  -4   3  -6 47.3894 4.44595   3
   4   3   6 41.9823 4.36680   4
  -4   3  -6 39.1042 5.10393   6
   4   3   6 38.2983 4.68822   6
   4   3   6 36.1443 2.93505   5
  -4   3  -6 35.8119 4.13767   4
  -5  -3  -6 90.2391 6.74861   5
   5  -3   6 97.0287 7.15783   4
   5  -3   6 96.4645 6.57641   5
  -5  -3  -6 82.1930 8.39283   6
  -5   3  -6 89.9295 7.43291   4
  -5   3  -6 78.3830 8.31376   6
   5   3   6 95.6400 7.56302   4
  -5   3  -6 109.720 7.64063   3
  -6  -3  -6 9.31606 3.60819   6
   6  -3   6 9.40945 2.66654   5
   6  -3   6 8.25232 2.77722   4
   6   3   6 4.85930 1.81739   5
   6   3   6 6.66918 2.87288   4
  -6   3  -6 10.2123 3.80374   6
   7  -3   6 154.026 10.8392   4
  -7  -3  -6 154.025 13.5883   6
   7  -3   6 152.183 9.85673   5
  -7   3  -6 152.349 13.4645   6
  -7   3  -6 146.782 10.6503   3
   7   3   6 147.448 11.2407   4
   7   3   6 156.691 9.17185   5
   8  -3   6 3.26644 2.20604   5
   8  -3   6 -2.6192 2.31105   4
  -8   3  -6 12.3601 4.92403   6
  -8   3  -6 1.59756 1.99923   3
   8   3   6 -0.9461 2.52939   4
  -8  -4   6 148.296 12.3399   6
   8  -4  -6 121.004 10.2917   4
   8  -4  -6 152.275 10.9014   5
   8   4  -6 143.695 11.6847   4
  -8   4   6 138.250 8.36105   3
  -8   4   6 132.256 11.6032   6
   8   4  -6 138.046 10.7395   5
   7  -4  -6 121.664 8.18710   4
  -7  -4   6 139.717 10.7879   6
   7  -4  -6 123.155 9.22677   5
  -7   4   6 134.202 7.64156   3
  -7   4   6 119.272 7.25418   3
  -7   4   6 138.783 8.60999   4
  -7   4   6 112.190 10.0293   6
   7   4  -6 122.940 9.44702   5
   7   4  -6 135.739 10.3626   4
  -7   4   6 115.436 7.45836   5
   6  -4  -6 204.298 13.5626   6
  -6  -4   6 225.868 13.7064   6
   6  -4  -6 208.033 11.0574   4
  -6   4   6 211.546 13.3390   6
   6   4  -6 211.733 12.8753   5
  -6   4   6 220.332 10.2427   3
  -6   4   6 210.127 11.0434   4
   6   4  -6 205.789 13.1283   4
  -6   4   6 207.670 10.3598   5
  -6   4   6 226.911 10.3498   3
   5  -4  -6 40.2133 4.91978   6
   5  -4  -6 43.6716 3.59019   4
  -5  -4   6 47.0691 4.11669   5
   5  -4  -6 40.6707 4.12132   5
  -5  -4   6 40.6207 4.71271   6
  -5  -4   6 51.8775 5.67215   3
  -5   4   6 38.5722 2.79771   3
  -5   4   6 35.8467 3.03588   5
   5   4  -6 37.9107 4.58331   4
  -5   4   6 39.7503 3.47662   4
  -5   4   6 38.5845 4.69712   6
  -5   4   6 36.3255 2.88657   3
   5   4  -6 45.0967 4.62704   5
  -4  -4   6 267.148 12.8902   3
   4  -4  -6 249.026 13.5426   6
  -4  -4   6 270.430 13.3043   6
  -4  -4   6 251.024 11.9628   5
   4  -4  -6 245.567 11.0541   4
   4  -4  -6 235.659 12.0142   5
   4   4  -6 267.682 13.0589   3
  -4   4   6 256.002 10.2043   3
   4   4  -6 241.565 13.0853   4
  -4   4   6 250.354 10.1263   3
  -4   4   6 242.689 10.3412   5
  -4   4   6 273.093 13.1971   6
  -4   4   6 253.675 10.4354   5
   4   4  -6 247.459 12.6533   5
  -3  -4   6 97.0654 5.68455   5
   3  -4  -6 100.168 4.62520   4
  -3  -4   6 99.7678 6.14709   6
   3  -4  -6 100.260 5.62989   5
   3  -4  -6 102.914 6.78520   6
  -3  -4   6 90.4248 6.12266   3
   3   4  -6 104.010 6.51690   3
   3   4  -6 95.5812 6.48553   4
   3   4  -6 106.304 6.27183   5
  -2  -4   6 83.9158 4.82061   5
   2  -4  -6 83.8489 4.29935   5
   2  -4  -6 87.8714 5.48578   6
  -2  -4   6 81.6983 5.39105   3
   2   4  -6 86.3923 5.65147   3
   1  -4  -6 8.96285 0.91823   3
  -1  -4   6 8.89138 1.68932   3
   1   4  -6 10.3079 1.91992   3
   1   4  -6 9.70592 1.69264   5
   0  -4   6 218.932 10.2329   3
   0  -4   6 221.163 10.4413   6
   0  -4  -6 211.006 9.12678   4
   0   4   6 214.674 9.06980   4
   0   4  -6 231.684 11.0971   5
   0   4  -6 215.348 9.87586   5
   0   4  -6 208.132 10.2782   3
  -1  -4  -6 48.1890 2.51319   5
  -1  -4  -6 47.5413 3.36696   4
   1  -4   6 41.9653 3.42968   3
  -1  -4  -6 45.0865 3.91739   6
   1  -4   6 48.4544 4.21308   6
  -1  -4  -6 46.5577 2.48927   5
  -1   4  -6 46.7639 3.47792   5
  -1   4  -6 47.9263 3.57941   4
   1   4   6 43.2265 3.20999   4
  -1   4  -6 51.1535 4.15374   6
  -1   4  -6 42.5505 3.52737   3
   2  -4   6 433.256 20.0216   6
  -2  -4  -6 426.877 17.3428   5
  -2  -4  -6 418.364 19.6709   6
   2  -4   6 427.066 18.2515   4
   2  -4   6 404.951 18.4262   3
   2  -4   6 431.863 17.9079   5
  -2  -4  -6 438.857 18.6062   4
  -2   4  -6 453.125 20.0051   6
  -2   4  -6 393.118 18.0612   5
   2   4   6 438.790 18.5117   4
  -2   4  -6 392.554 18.2737   4
  -2   4  -6 450.429 18.7185   3
   3  -4   6 340.732 15.1258   4
  -3  -4  -6 334.473 17.1788   6
   3  -4   6 284.780 14.3284   5
   3  -4   6 303.653 16.7991   6
  -3  -4  -6 326.733 14.5230   5
  -3  -4  -6 313.481 15.4472   4
   3   4   6 322.798 12.6254   5
   3   4   6 330.709 12.6687   5
   3   4   6 348.378 16.5458   6
  -3   4  -6 329.202 15.4672   4
  -3   4  -6 327.117 17.0196   6
   3   4   6 343.895 15.6715   4
  -3   4  -6 342.141 15.4330   3
  -3   4  -6 293.644 14.8098   5
   4  -4   6 162.996 8.91990   5
  -4  -4  -6 153.012 8.84926   5
  -4  -4  -6 166.384 9.90433   4
  -4  -4  -6 157.658 11.1784   6
   4  -4   6 148.706 9.01266   4
   4  -4   6 146.306 10.9291   6
  -4   4  -6 163.324 9.38367   5
   4   4   6 160.787 10.4247   6
  -4   4  -6 154.679 9.28097   3
   4   4   6 162.768 7.54720   5
  -4   4  -6 147.765 10.8990   6
   4   4   6 157.264 9.71201   4
   5  -4   6 43.7249 4.74576   4
   5  -4   6 57.2907 4.98126   5
  -5  -4  -6 56.0448 5.26033   5
  -5  -4  -6 59.8411 7.17229   6
  -5   4  -6 55.3824 6.96018   6
  -5   4  -6 67.9542 5.87470   3
   5   4   6 58.5537 5.70621   4
   6  -4   6 310.503 16.6230   4
  -6  -4  -6 322.409 20.2789   6
   6  -4   6 333.078 16.2979   5
   6   4   6 320.410 17.7333   4
  -6   4  -6 300.982 19.5539   6
   6   4   6 323.166 14.8143   5
   7  -4   6 174.238 11.4395   4
   7  -4   6 159.823 10.4255   5
  -7  -4  -6 150.160 14.0236   6
   7   4   6 151.131 11.6461   4
   7   4   6 164.144 9.41521   5
  -7   4  -6 135.134 12.9466   6
  -7   4  -6 183.985 11.7752   3
   8  -4   6 88.0080 8.08043   5
   8  -4   6 103.930 9.09254   4
  -8  -4  -6 102.323 12.6856   6
  -8   4  -6 74.0723 11.0125   6
   8   4   6 112.146 10.4107   4
   8   4   6 97.8808 7.30391   5
  -8   4  -6 122.027 9.81754   3
   8  -5  -6 6.78979 2.00184   4
  -8  -5   6 3.70028 3.69373   6
   8  -5  -6 6.45014 3.15205   5
  -8   5   6 4.94100 1.91403   3
   8   5  -6 16.7500 4.23399   4
  -8   5   6 -1.5005 2.93772   6
   8   5  -6 5.58975 2.63246   5
  -8   5   6 1.21226 2.80478   3
   7  -5  -6 130.636 8.19586   4
   7  -5  -6 133.838 9.56935   5
  -7  -5   6 125.954 10.6275   6
   7   5  -6 132.883 10.5968   4
  -7   5   6 110.216 11.7453   6
   7   5  -6 129.472 9.77890   5
  -7   5   6 113.636 7.36432   5
  -7   5   6 125.342 7.10411   3
  -7   5   6 131.112 7.44950   3
   6  -5  -6 51.0099 5.21703   5
  -6  -5   6 45.6927 5.96928   6
   6  -5  -6 48.0604 6.57532   6
   6  -5  -6 54.9916 4.35019   4
   6   5  -6 55.9505 6.15994   4
  -6   5   6 49.1763 6.02851   6
   6   5  -6 55.6662 5.67802   5
  -6   5   6 49.1505 3.86817   5
  -6   5   6 48.8129 3.51739   3
  -6   5   6 45.2045 4.13741   4
  -5  -5   6 14.5858 2.61555   5
   5  -5  -6 10.8109 3.29148   6
   5  -5  -6 15.5976 2.15270   4
   5  -5  -6 14.3219 2.76779   5
  -5  -5   6 13.2127 2.88527   3
  -5  -5   6 15.8627 3.33051   6
   5   5  -6 13.7265 2.95552   5
  -5   5   6 14.9786 1.97251   5
  -5   5   6 17.1979 1.73862   3
  -5   5   6 14.7195 2.14117   4
   5   5  -6 13.5005 3.28343   4
  -5   5   6 17.1221 3.71220   6
  -5   5   6 16.3321 2.13977   5
  -4  -5   6 22.5042 2.81889   5
  -4  -5   6 24.1164 3.30640   3
   4  -5  -6 22.3712 2.75227   5
  -4  -5   6 17.4415 3.22044   6
   4  -5  -6 20.8175 1.85299   4
   4  -5  -6 22.5115 3.56102   6
  -4   5   6 20.7653 1.44759   3
   4   5  -6 17.7213 3.12566   5
  -4   5   6 21.9117 1.63916   5
   4   5  -6 23.9779 3.41783   4
   4   5  -6 19.9808 3.33111   3
  -4   5   6 21.2709 1.71655   5
  -3  -5   6 3.24881 1.44750   3
  -3  -5   6 3.06316 1.36542   6
   3  -5  -6 5.28585 0.59092   4
  -3  -5   6 3.26205 1.33832   5
   3  -5  -6 1.67517 1.49466   6
   3   5  -6 5.40386 1.64541   3
   3   5  -6 4.70198 1.59716   5
   2  -5  -6 621.878 24.6339   5
  -2  -5   6 610.326 25.2815   5
  -2  -5   6 656.002 26.3514   3
   2  -5  -6 661.226 26.5871   6
   2   5  -6 613.652 26.3739   3
   2   5  -6 637.213 25.8086   5
   1  -5  -6 123.095 5.58592   3
   1  -5  -6 123.087 5.45930   5
   1  -5  -6 124.421 5.38433   5
  -1  -5   6 117.154 6.96528   3
   1   5  -6 141.353 7.26328   5
   1   5  -6 123.035 7.33668   3
   0  -5   6 238.770 11.1344   3
   0  -5   6 225.843 12.6292   6
   0  -5  -6 242.875 9.17112   5
   0  -5  -6 235.850 9.14510   5
   0  -5  -6 225.855 10.1090   3
   0  -5  -6 237.291 9.71909   4
   0   5   6 235.397 9.73393   4
   0   5  -6 195.117 10.5168   5
  -1  -5  -6 92.0787 4.55934   5
  -1  -5  -6 86.3685 6.89814   6
  -1  -5  -6 90.3540 4.49495   5
   1  -5   6 97.6698 6.54020   6
  -1  -5  -6 86.9393 5.13551   4
   1  -5   6 77.7291 5.38926   3
  -1   5  -6 92.0331 6.14774   6
  -1   5  -6 95.5788 5.96493   3
  -1   5  -6 90.1193 5.50939   5
   1   5   6 82.8033 5.05059   4
  -1   5  -6 94.5064 5.64704   4
  -2  -5  -6 51.7914 4.10349   4
   2  -5   6 51.1476 4.20728   3
   2  -5   6 49.1522 4.99752   6
   2  -5   6 41.8611 3.67419   5
  -2  -5  -6 46.3250 4.65418   6
  -2  -5  -6 50.9942 3.48208   5
  -2   5  -6 51.5864 4.24657   3
  -2   5  -6 55.4746 4.29430   4
  -2   5  -6 53.6889 5.01753   6
  -2   5  -6 47.9719 3.97755   5
  -3  -5  -6 1.82234 1.42372   6
   3  -5   6 0.40344 1.48460   6
  -3  -5  -6 1.43095 1.06894   5
  -3  -5  -6 4.27353 1.55764   4
   3  -5   6 2.54436 1.14447   4
   3  -5   6 2.21716 1.07285   5
   3   5   6 1.63705 1.02236   4
   3   5   6 2.44988 0.45294   5
  -3   5  -6 3.25022 1.75317   6
  -3   5  -6 -0.1327 0.71152   3
  -3   5  -6 1.86016 1.27355   4
  -3   5  -6 -0.0575 0.97076   5
   4  -5   6 245.050 12.5077   5
   4  -5   6 245.191 12.6944   4
   4  -5   6 238.010 15.2151   6
  -4  -5  -6 250.701 15.3510   6
  -4  -5  -6 251.757 13.5779   4
  -4  -5  -6 249.283 12.5914   5
  -4   5  -6 236.885 14.9840   6
   4   5   6 275.543 13.9147   4
   4   5   6 257.342 10.7673   5
  -4   5  -6 239.190 12.9001   3
  -4   5  -6 250.157 13.2975   4
  -4   5  -6 234.003 12.8903   5
   5  -5   6 1.44799 1.40126   5
   5  -5   6 -0.0795 1.20535   4
  -5  -5  -6 0.49729 1.88430   6
  -5   5  -6 2.52888 1.69686   3
  -5   5  -6 5.47300 3.00216   6
   5   5   6 6.96895 2.14871   4
   5   5   6 3.91766 1.28370   5
   6  -5   6 86.4880 7.27564   4
   6  -5   6 84.8380 7.12688   5
  -6  -5  -6 95.0390 9.99833   6
  -6   5  -6 90.9032 7.57105   3
   6   5   6 91.4423 7.96838   4
   6   5   6 89.4896 5.83460   5
  -6   5  -6 84.1495 9.54532   6
  -7  -5  -6 124.504 12.1196   6
   7  -5   6 103.525 8.05541   5
   7  -5   6 117.126 8.91550   4
  -7   5  -6 118.145 9.02523   3
   7   5   6 94.6415 9.19280   4
   7   5   6 106.667 7.17926   5
  -7   5  -6 92.3355 10.6458   6
   8  -5   6 0.48705 2.76024   5
  -8  -5  -6 6.65314 4.27168   6
   8  -5   6 1.16094 1.97234   4
  -8   5  -6 1.68504 1.91380   3
   8   5   6 3.88076 2.81375   4
   8   5   6 0.77344 2.21242   5
  -8   5  -6 9.17541 4.74059   6
  -8  -6   6 115.104 11.4446   6
   8  -6  -6 116.209 7.57664   4
   8  -6  -6 102.879 9.32368   5
  -8   6   6 109.051 6.89319   3
   8   6  -6 99.3627 10.9098   5
  -8   6   6 112.377 7.58894   5
   7  -6  -6 10.9594 2.22972   4
   7  -6  -6 14.0915 3.29561   5
  -7   6   6 12.8194 2.45924   5
   7   6  -6 14.0742 4.21574   4
   7   6  -6 11.9948 3.23534   5
  -7   6   6 12.7611 4.34955   6
  -7   6   6 9.97573 2.90823   4
  -7   6   6 15.2143 2.61043   3
  -6  -6   6 137.569 10.7027   6
   6  -6  -6 136.153 9.24200   5
   6  -6  -6 136.821 7.50519   4
  -6   6   6 132.169 7.13800   5
  -6   6   6 130.407 6.67089   3
  -6   6   6 135.512 10.2128   6
  -6   6   6 137.082 7.67451   4
  -6   6   6 136.075 7.24760   5
   6   6  -6 137.669 10.3262   4
   6   6  -6 124.450 9.33251   5
   5  -6  -6 -2.4311 1.94309   6
  -5  -6   6 0.55531 1.43005   6
   5  -6  -6 1.72447 0.87900   4
   5  -6  -6 -1.1815 0.93200   5
  -5   6   6 -0.7257 0.84266   5
  -5   6   6 0.25065 0.70128   3
   5   6  -6 1.95017 2.02000   4
  -5   6   6 1.35839 0.94414   4
  -5   6   6 1.61321 1.63378   6
   5   6  -6 0.32363 1.24352   5
  -4  -6   6 124.958 7.70181   5
  -4  -6   6 130.897 8.58432   3
  -4  -6   6 128.060 8.73440   6
   4  -6  -6 132.202 5.92667   4
   4  -6  -6 134.900 9.35154   6
   4  -6  -6 130.856 7.78224   5
   4   6  -6 143.758 9.07845   3
  -4   6   6 128.359 5.42098   5
   4   6  -6 130.241 8.43831   5
   4   6  -6 131.651 8.93282   4
  -4   6   6 133.438 5.53591   3
  -3  -6   6 41.5478 3.75042   5
   3  -6  -6 40.1857 3.42468   5
   3  -6  -6 37.5582 4.65903   6
  -3  -6   6 48.5231 4.66717   3
  -3  -6   6 39.3847 4.85235   6
   3   6  -6 46.0915 4.66340   3
   3   6  -6 38.2954 4.02239   5
   2  -6  -6 54.7487 4.63507   6
  -2  -6   6 43.0362 4.25187   3
  -2  -6   6 53.5327 3.94808   5
   2  -6  -6 50.8580 3.41840   5
   2  -6  -6 47.0968 2.44489   3
   2   6  -6 53.6971 4.20803   5
   2   6  -6 44.0730 4.31216   3
   1  -6  -6 25.6418 2.14090   3
  -1  -6   6 26.1843 3.01678   3
   1  -6  -6 25.1101 2.05894   5
   1  -6  -6 26.9384 2.08645   5
   1   6  -6 31.4246 3.10455   5
   1   6  -6 25.6324 3.25858   3
   0  -6   6 0.26686 1.09418   6
   0  -6   6 0.94393 1.02617   3
   0  -6  -6 1.26797 0.67027   5
   0  -6  -6 0.41185 0.80217   3
   0  -6  -6 0.88756 0.62493   5
   0   6  -6 2.39786 1.52909   3
   0   6  -6 1.42312 1.13405   5
   0   6  -6 0.73223 1.09003   5
   0   6   6 1.23441 0.68141   4
  -1  -6  -6 432.149 18.0614   4
   1  -6   6 425.311 18.6977   3
  -1  -6  -6 432.400 17.2807   5
   1  -6   6 421.925 19.8631   6
  -1  -6  -6 452.805 17.5057   5
  -1  -6  -6 443.745 18.4378   3
  -1   6  -6 445.157 18.6140   5
   1   6   6 449.028 18.1049   4
  -1   6  -6 365.222 18.2255   5
  -1   6  -6 401.236 18.7238   3
  -1   6  -6 425.632 18.5173   4
  -2  -6  -6 6.09534 1.44397   5
  -2  -6  -6 7.33231 2.11968   6
   2  -6   6 10.2447 2.60963   6
   2  -6   6 5.47459 1.60660   3
  -2  -6  -6 3.52103 1.37668   3
   2  -6   6 7.32394 1.77552   5
  -2  -6  -6 7.37737 1.75414   4
  -2   6  -6 4.45107 1.45240   3
  -2   6  -6 7.41896 1.69726   4
  -2   6  -6 7.43309 2.25318   6
  -2   6  -6 9.85443 2.02829   5
   2   6   6 8.34306 1.91125   4
  -3  -6  -6 149.247 10.5555   3
  -3  -6  -6 166.000 11.0566   6
  -3  -6  -6 172.183 8.87335   5
   3  -6   6 128.814 12.0334   6
  -3  -6  -6 163.383 9.59236   4
   3  -6   6 172.054 9.24769   5
   3  -6   6 149.158 9.23261   3
  -3   6  -6 181.426 9.73222   4
  -3   6  -6 167.708 10.9196   6
   3   6   6 162.683 9.56878   4
  -3   6  -6 168.771 9.52680   3
  -3   6  -6 156.464 9.31045   5
  -4  -6  -6 238.522 14.9892   6
   4  -6   6 232.341 12.1687   4
   4  -6   6 228.106 12.1171   5
  -4  -6  -6 223.375 12.8004   4
   4   6   6 230.228 9.88406   5
   4   6   6 241.388 13.1179   4
  -4   6  -6 233.410 14.5307   6
  -4   6  -6 225.380 12.6238   4
  -4   6  -6 221.013 12.3300   3
  -5  -6  -6 0.69920 1.51997   6
   5  -6   6 2.29388 1.48176   4
   5  -6   6 0.42979 1.45074   5
  -5   6  -6 0.59543 1.14243   3
   5   6   6 -1.4210 0.93478   5
  -5   6  -6 -0.0730 1.62197   6
   6  -6   6 41.4374 4.82964   5
   6  -6   6 40.7703 4.55894   4
  -6  -6  -6 36.7354 6.94629   6
   6   6   6 34.3232 4.92305   4
  -6   6  -6 31.5446 6.20197   6
  -6   6  -6 31.9601 4.45774   3
   6   6   6 35.0785 3.56789   5
  -7  -6  -6 1.93425 3.94307   6
   7  -6   6 5.60676 2.38768   5
   7  -6   6 4.10320 2.08544   4
  -7   6  -6 2.80700 2.39608   3
   7   6   6 11.2595 3.47831   4
   7   6   6 6.22135 2.15172   5
  -7   6  -6 7.62353 4.45796   6
  -8  -7   6 22.0978 5.48822   6
   8  -7  -6 17.8449 3.05353   4
   8  -7  -6 29.7458 5.09618   5
   8   7  -6 20.7925 5.03616   4
   8   7  -6 20.3214 4.70864   5
  -8   7   6 15.5842 2.76047   3
  -8   7   6 16.1211 3.34058   5
  -8   7   6 13.5191 5.37698   6
   7  -7  -6 23.4142 4.32214   5
   7  -7  -6 23.7878 3.22854   4
  -7  -7   6 29.7556 6.05459   6
  -7   7   6 31.3395 4.32677   4
  -7   7   6 29.9020 3.07162   3
   7   7  -6 26.5169 5.28635   4
  -7   7   6 33.9765 3.44735   3
   7   7  -6 32.3346 5.49039   5
  -7   7   6 32.6339 3.75297   5
  -7   7   6 25.9286 5.81196   6
  -6  -7   6 17.0650 4.09917   6
   6  -7  -6 14.7597 2.97175   5
  -6   7   6 13.7711 2.10237   5
   6   7  -6 12.8469 3.25752   5
  -6   7   6 15.4181 2.50750   4
   6   7  -6 15.7429 4.03884   4
  -6   7   6 11.9174 2.06334   5
  -6   7   6 14.5212 2.04043   3
  -5  -7   6 272.075 16.0818   6
   5  -7  -6 278.110 11.9255   4
   5  -7  -6 279.856 16.6740   6
   5  -7  -6 263.654 14.3218   5
   5   7  -6 307.632 18.8127   4
  -5   7   6 279.923 11.6387   5
  -5   7   6 291.215 12.1652   4
  -4  -7   6 398.922 19.1536   6
  -4  -7   6 376.592 18.5735   3
   4  -7  -6 347.340 17.1559   5
  -4  -7   6 373.384 17.3902   5
   4   7  -6 370.237 18.6689   3
   4   7  -6 387.797 19.1349   4
  -4   7   6 378.655 14.5250   3
   4   7  -6 388.215 18.3081   5
   3  -7  -6 -1.0195 0.60320   5
  -3  -7   6 0.31065 1.64381   3
  -3  -7   6 -2.2935 1.19047   5
   3  -7  -6 0.23706 1.33119   6
   3   7  -6 -0.6883 0.89996   5
   3   7  -6 0.80474 1.17275   4
   3   7  -6 1.80966 1.50244   3
  -2  -7   6 139.095 7.87916   5
   2  -7  -6 139.978 6.25850   3
   2  -7  -6 149.161 9.12299   6
  -2  -7   6 150.169 8.75733   3
   2   7  -6 135.428 8.16615   5
   2   7  -6 141.894 8.92298   3
   1  -7  -6 151.789 7.27574   3
   1  -7  -6 150.618 7.32031   5
   1  -7  -6 159.556 7.51232   5
  -1  -7   6 150.776 8.74494   3
   1   7  -6 151.315 8.48756   5
  -1   7   6 152.692 6.24078   4
   1   7  -6 158.601 8.72208   5
   1   7  -6 157.326 9.27617   3
   0  -7   6 1.61128 1.57805   6
   0  -7  -6 1.02090 0.82136   3
   0  -7  -6 0.73973 0.74691   5
   0  -7   6 2.08340 1.13683   3
   0  -7  -6 1.33437 0.68346   5
   0   7  -6 3.09837 1.24165   5
   0   7  -6 0.71156 1.15160   5
   0   7   6 1.82719 0.74416   4
   0   7  -6 0.95909 1.33098   3
   1  -7   6 853.246 35.8142   3
   1  -7   6 871.156 37.3298   6
  -1  -7  -6 920.933 34.7653   5
  -1  -7  -6 925.015 34.9221   4
  -1  -7  -6 893.808 35.4646   3
  -1   7  -6 899.873 36.1941   3
  -1   7  -6 865.241 35.7680   5
   1   7   6 904.979 35.0280   4
  -1   7  -6 920.903 35.7950   5
  -1   7  -6 824.530 35.3687   4
  -2  -7  -6 96.0555 5.83317   5
   2  -7   6 100.929 6.55724   5
  -2  -7  -6 90.7299 6.13616   4
   2  -7   6 90.5179 7.72749   6
  -2  -7  -6 94.0373 6.49666   3
  -2  -7  -6 100.814 7.67577   6
   2  -7   6 98.7358 6.64365   3
  -2   7  -6 98.5162 6.77619   3
   2   7   6 92.0304 6.34364   4
  -2   7  -6 86.6001 6.15012   4
  -2   7  -6 103.549 7.72618   6
  -3  -7  -6 959.143 39.1257   3
  -3  -7  -6 972.633 38.8565   4
   3  -7   6 836.813 40.6764   6
  -3  -7  -6 960.076 37.8432   5
   3  -7   6 901.370 38.2667   5
  -3  -7  -6 960.988 41.1432   6
  -3   7  -6 967.393 38.7594   4
   3   7   6 992.760 39.1515   4
  -3   7  -6 934.227 40.7109   6
  -3   7  -6 899.547 38.5544   5
  -3   7  -6 996.745 38.9141   3
   4  -7   6 -1.3158 1.24519   5
  -4  -7  -6 -1.1457 1.36770   6
  -4  -7  -6 2.64957 1.42903   5
   4   7   6 1.40672 1.36999   4
   4   7   6 1.95287 0.82061   5
  -4   7  -6 -0.7662 1.03457   3
   4   7   6 0.79195 0.71225   5
  -4   7  -6 -0.0976 1.80859   6
  -4   7  -6 -2.6665 1.37000   4
   5  -7   6 611.119 27.1761   4
  -5  -7  -6 656.093 32.0333   6
  -5   7  -6 638.138 27.9191   3
   5   7   6 630.302 28.7886   4
  -5   7  -6 543.096 30.0520   6
   5   7   6 615.339 24.4678   5
   6  -7   6 13.7371 3.19355   4
   6  -7   6 15.4312 3.54557   5
  -6   7  -6 13.3100 4.70130   6
   6   7   6 22.7972 4.47319   4
  -6   7  -6 17.2322 3.84560   3
   7  -7   6 48.0629 5.83932   5
  -7  -7  -6 47.6163 8.48726   6
   7  -7   6 50.0745 6.41229   4
  -7   7  -6 41.6395 5.99301   3
  -7   7  -6 38.5365 9.71560   6
   7   7   6 46.7017 4.41039   5
   7   7   6 49.4317 6.52374   4
   7  -8  -6 16.5098 3.71673   5
  -7  -8   6 16.8776 4.48841   6
   7  -8  -6 19.1564 2.56565   4
  -7   8   6 18.1433 2.41438   3
   7   8  -6 21.0900 4.98920   4
   7   8  -6 17.5856 3.91619   5
  -7   8   6 19.7695 2.78330   5
  -7   8   6 14.8108 2.50462   5
  -6  -8   6 65.3455 7.62100   6
   6  -8  -6 63.5161 6.02519   5
   6  -8  -6 55.8534 3.84622   4
   6   8  -6 46.2159 6.17898   4
  -6   8   6 59.7809 3.79528   3
  -6   8   6 69.5440 4.56267   4
  -6   8   6 54.9953 3.75589   5
   6   8  -6 63.0249 6.60489   5
  -5   8   6 6.55293 1.17442   3
   5   8  -6 4.53769 2.26528   4
  -5   8   6 4.29859 0.97175   5
   5   8  -6 4.85170 2.40416   5
  -5   8   6 5.40582 1.22301   4
   4  -8  -6 254.450 13.0391   5
  -4  -8   6 266.158 14.7571   6
   4  -8  -6 250.674 15.1731   6
   4   8  -6 257.692 14.6336   4
   4   8  -6 254.791 14.4335   3
   4   8  -6 262.965 13.8707   5
  -4   8   6 240.529 10.2120   3
  -3  -8   6 41.7838 4.15110   5
  -3  -8   6 29.6202 4.34132   3
   3  -8  -6 43.4863 3.89693   5
   3   8  -6 41.6060 4.66477   3
   3   8  -6 40.2759 4.24546   5
   3   8  -6 40.9007 4.71904   4
   2  -8  -6 6.94448 1.17596   3
   2  -8  -6 6.59933 1.57647   5
  -2  -8   6 8.27966 1.99242   5
  -2  -8   6 5.13774 1.82071   3
   2  -8  -6 5.13990 2.02290   6
   2   8  -6 2.39317 1.63551   3
   2   8  -6 7.30826 2.20605   5
   2   8  -6 2.65157 1.40602   5
   1  -8  -6 217.410 9.92702   3
   1  -8  -6 213.636 10.0152   5
   1  -8  -6 219.047 10.2486   5
  -1  -8   6 207.864 12.8471   3
   1   8  -6 212.995 11.9044   3
  -1   8   6 217.376 8.79298   4
   1   8  -6 211.758 11.1794   5
   0  -8  -6 1.91677 1.21614   3
   0  -8   6 -0.8113 1.36630   6
   0  -8  -6 1.76303 1.05643   5
   0  -8   6 -0.5455 1.39228   3
   0  -8  -6 2.45059 1.06818   5
   0   8   6 2.41975 0.81662   4
   0   8  -6 1.30923 1.24151   5
   0   8  -6 1.26908 1.60378   5
   0   8  -6 1.15754 1.40727   3
   1  -8   6 26.7971 3.39088   3
  -1  -8  -6 30.7054 2.93570   5
   1  -8   6 34.2594 4.32409   6
  -1  -8  -6 29.0410 3.37502   3
  -1   8  -6 31.8427 3.58915   5
  -1   8  -6 31.4791 3.52405   5
  -1   8  -6 30.0341 3.76013   3
   1   8   6 28.9075 3.02442   4
  -1   8  -6 30.8283 3.47419   4
  -2  -8  -6 248.632 11.9575   5
   2  -8   6 240.963 14.5650   6
  -2  -8  -6 255.523 13.0479   3
  -2  -8  -6 261.296 14.6134   6
   2  -8   6 254.565 12.9819   5
   2   8   6 245.133 12.6306   4
  -2   8  -6 248.067 12.8046   5
  -2   8  -6 254.166 12.7849   4
  -2   8  -6 230.542 12.8924   3
  -2   8  -6 256.289 13.0223   5
  -3  -8  -6 -1.4597 0.98452   4
  -3  -8  -6 -1.0046 1.39652   6
  -3  -8  -6 2.12429 1.58814   5
   3  -8   6 -2.8948 1.18255   3
   3  -8   6 2.53297 1.54939   5
  -3  -8  -6 -0.0187 1.73848   3
  -3   8  -6 0.30647 1.31640   3
   3   8   6 0.15386 1.03071   4
  -3   8  -6 0.08262 0.97436   4
  -3   8  -6 -3.9014 1.66022   6
   4  -8   6 122.153 8.38036   5
  -4  -8  -6 140.778 11.2023   6
  -4   8  -6 117.093 8.39346   4
  -4   8  -6 113.696 11.7851   6
   4   8   6 119.890 8.89536   4
   4   8   6 118.185 5.18323   5
  -4   8  -6 126.242 8.67867   3
  -5  -8  -6 48.9682 6.87289   6
   5  -8   6 43.2976 5.21087   5
   5   8   6 49.9209 3.39630   5
  -5   8  -6 38.3223 6.32249   3
   5   8   6 45.0567 5.98103   4
  -5   8  -6 45.7663 7.15929   6
   6  -8   6 45.3474 4.93583   4
  -6  -8  -6 51.4652 7.40336   6
   6  -8   6 37.5814 5.08944   5
   6   8   6 42.2538 3.51111   5
  -6   8  -6 42.9282 7.86172   6
   6   8   6 38.7363 3.86977   5
  -6   8  -6 39.8999 5.18614   3
   6   8   6 47.2206 6.35004   4
  -7  -8  -6 24.4348 6.48772   6
   7  -8   6 26.0365 4.74051   5
   7   8   6 25.3605 3.94911   5
  -7   8  -6 27.1900 4.68901   3
   7   8   6 30.7865 7.23746   4
  -7   8  -6 14.1357 5.65660   6
  -7  -9   6 13.3779 4.84271   6
   7   9  -6 19.1009 5.54551   4
   7   9  -6 12.8716 3.81733   5
  -7   9   6 10.1078 1.88894   3
  -7   9   6 10.6944 1.80963   5
  -6  -9   6 51.5093 6.70237   6
   6  -9  -6 35.2600 4.74088   5
  -6   9   6 39.3858 3.03482   3
   6   9  -6 39.8274 6.68144   4
   6   9  -6 49.7998 5.96039   5
  -5  -9   6 3.79691 2.20886   6
   5  -9  -6 -2.6209 1.31440   5
  -5   9   6 0.98435 0.81073   3
   5   9  -6 1.11902 1.82926   4
   5   9  -6 1.13804 1.78623   5
   4  -9  -6 26.2189 3.66281   5
  -4  -9   6 25.7655 4.14309   6
   4   9  -6 30.5990 5.40375   5
   4   9  -6 32.2213 4.49718   3
   4   9  -6 33.0858 4.58503   4
  -4   9   6 29.1145 2.22387   3
   3  -9  -6 19.6502 1.85310   3
   3  -9  -6 18.3544 2.70800   5
   3  -9  -6 17.5721 4.08125   6
   3   9  -6 16.7084 3.10942   5
   3   9  -6 14.3144 3.34863   4
   3   9  -6 14.8583 3.36444   3
  -3   9   6 19.1740 1.96187   3
   2  -9  -6 135.018 6.69568   3
   2  -9  -6 127.142 9.56987   6
   2  -9  -6 134.247 7.78436   5
  -2  -9   6 138.843 9.44498   3
  -2  -9   6 125.787 8.14693   5
   2   9  -6 139.997 9.31091   3
   2   9  -6 133.579 8.55910   5
   2   9  -6 150.314 8.81934   5
  -1  -9   6 281.717 14.8581   3
   1  -9  -6 300.088 13.1260   3
   1  -9  -6 278.895 13.2263   5
   1  -9  -6 301.199 13.6013   5
   1   9  -6 294.674 15.4225   3
   1   9  -6 297.751 14.6766   5
  -1   9   6 289.428 11.8986   4
   1   9  -6 302.185 14.5408   5
   0  -9   6 56.7753 5.18701   3
   0  -9  -6 46.3569 4.26315   3
   0  -9  -6 52.7246 4.10304   5
   0  -9  -6 53.7493 4.19913   5
   0   9  -6 49.7115 5.53976   3
   0   9  -6 55.9695 4.92585   5
   0   9   6 53.9090 3.77373   4
   0   9  -6 49.5189 4.91700   5
   1  -9   6 580.804 25.7468   3
  -1  -9  -6 600.830 25.3197   3
  -1  -9  -6 583.319 24.2994   5
   1  -9   6 564.389 27.4256   6
  -1   9  -6 592.868 25.5417   5
  -1   9  -6 617.913 26.4073   3
  -1   9  -6 622.811 25.9813   5
  -1   9  -6 555.822 25.2770   4
  -2  -9  -6 2.72194 1.33247   5
   2  -9   6 0.95966 1.47104   5
   2  -9   6 -1.1916 1.04813   3
  -2  -9  -6 2.69953 1.46312   3
   2  -9   6 2.37648 2.59649   6
   2   9   6 1.72332 1.31443   4
  -2   9  -6 2.53186 1.89675   3
  -2   9  -6 0.60517 1.29847   4
  -2   9  -6 4.41358 2.18487   5
  -3  -9  -6 671.761 27.8003   5
   3  -9   6 623.931 30.3668   3
   3  -9   6 605.173 28.2564   5
  -3  -9  -6 685.637 31.5499   6
  -3   9  -6 619.071 28.4534   3
  -3   9  -6 665.513 28.4880   4
   3   9   6 675.938 28.9142   4
  -3   9  -6 658.012 28.4674   5
   4  -9   6 3.26011 1.88678   5
  -4  -9  -6 12.9944 3.76394   6
  -4   9  -6 1.90200 2.69692   6
   4   9   6 8.87718 2.97039   4
  -4   9  -6 4.94036 2.22410   3
  -5  -9  -6 39.0705 6.21603   6
   5  -9   6 51.6887 5.50552   5
   5   9   6 38.4218 3.20000   5
  -5   9  -6 41.7265 5.45430   3
   5   9   6 40.4427 5.76416   4
  -5   9  -6 40.8284 7.12443   6
  -6  -9  -6 -0.6771 2.21321   6
   6  -9   6 -1.3705 1.90901   5
   6   9   6 2.42056 2.28551   4
  -6   9  -6 3.66003 2.83497   6
  -6   9  -6 -1.8522 1.97374   3
   6   9   6 -3.6424 1.84848   5
   6   9   6 0.47086 1.35292   5
  -7  -9  -6 2.98096 2.99454   6
  -7   9  -6 6.16882 2.61324   3
  -7   9  -6 -4.2175 3.23890   6
   7 -10  -6 1.96901 2.53759   5
  -7 -10   6 2.92508 3.98486   6
   7  10  -6 0.35513 2.50611   4
   6 -10  -6 47.0885 5.90615   5
  -6 -10   6 62.4403 7.83027   6
   6  10  -6 64.5185 7.02940   5
   6  10  -6 66.3412 7.63242   4
  -6  10   6 58.4224 3.48050   3
  -5 -10   6 -0.0916 2.27641   6
   5 -10  -6 0.05049 1.46408   5
   5  10  -6 1.56567 2.18332   5
   5  10  -6 2.82966 2.44809   4
  -5  10   6 -0.1975 0.78294   3
   4 -10  -6 184.353 12.8569   5
  -4 -10   6 232.356 13.9223   6
   4  10  -6 205.798 13.3499   4
   4  10  -6 202.405 12.1777   5
  -4  10   6 193.721 8.86385   3
   4  10  -6 196.123 12.9295   3
   3 -10  -6 37.6140 3.01107   3
   3 -10  -6 45.4145 4.45969   5
   3  10  -6 48.1241 6.09237   3
  -3  10   6 39.8954 3.10926   3
   3  10  -6 43.0895 4.76917   5
   3  10  -6 40.3721 5.91888   4
   2 -10  -6 277.351 13.2890   5
   2 -10  -6 261.125 11.8261   3
   2  10  -6 256.255 13.8239   5
   2  10  -6 263.639 14.8487   3
   1 -10  -6 118.731 7.27667   5
   1 -10  -6 111.101 6.72472   3
  -1 -10   6 115.604 8.77621   6
   1 -10  -6 112.902 7.07131   5
   1  10  -6 117.873 7.93908   5
  -1  10   6 119.019 5.74068   4
   1  10  -6 120.234 8.91106   3
   0 -10  -6 54.4140 4.72450   5
   0 -10   6 61.0635 6.62402   6
   0 -10   6 71.8130 6.93490   3
   0 -10  -6 68.0722 5.10473   5
   0 -10  -6 67.4123 5.18716   3
   0  10   6 66.6994 4.46183   4
   0  10  -6 71.8638 5.84444   5
   0  10  -6 63.0127 6.23455   3
  -1 -10  -6 215.683 11.0736   5
  -1 -10  -6 229.889 12.0329   3
   1 -10   6 224.717 13.9728   3
  -1  10  -6 215.326 11.7119   4
  -1  10  -6 227.732 12.2110   5
  -1  10  -6 213.684 12.5683   3
   1  10   6 222.671 11.2922   4
  -2 -10  -6 369.683 18.0445   3
  -2 -10  -6 373.204 17.0132   5
   2 -10   6 359.721 18.1135   5
  -2 -10  -6 383.050 20.2006   6
  -2  10  -6 354.534 18.1262   3
   2  10   6 386.096 17.6540   4
  -2  10  -6 345.828 17.3655   4
  -2  10  -6 354.645 17.6109   5
  -3 -10  -6 68.4677 7.39765   6
   3 -10   6 69.5618 6.30164   5
  -3  10  -6 68.3891 7.43243   5
  -3  10  -6 65.8301 6.25207   3
  -3  10  -6 78.7780 7.46546   4
   3  10   6 69.4925 6.12405   4
   4 -10   6 220.051 12.8705   5
  -4 -10  -6 217.365 15.3034   6
   4  10   6 219.559 13.4795   4
  -4  10  -6 205.699 12.5344   5
   5 -10   6 78.7643 7.23644   5
  -5 -10  -6 87.8485 9.49491   6
  -5  10  -6 82.8587 7.40755   5
  -5  10  -6 74.0679 7.08593   3
   5  10   6 74.8670 7.78003   4
  -5  10  -6 69.8453 8.31628   6
   6 -10   6 15.4509 3.60076   5
  -6  10  -6 10.9259 2.91748   3
   6  10   6 10.4696 3.54335   4
  -6 -11   6 4.76515 2.62988   6
   6 -11  -6 2.01124 2.44493   5
   6  11  -6 3.23450 2.64248   5
  -5 -11   6 3.29640 2.19937   6
   5 -11  -6 0.54862 1.75698   5
   5  11  -6 -2.4407 1.60016   4
  -5  11   6 1.58339 1.00074   3
   5  11  -6 -0.8150 1.95237   5
  -4 -11   6 87.2091 8.42430   6
   4 -11  -6 89.8690 7.02534   5
   4  11  -6 78.4035 8.06483   3
  -4  11   6 78.6534 4.69924   3
   4  11  -6 77.0603 7.19763   5
   4  11  -6 79.1492 7.84306   4
   3 -11  -6 21.9376 3.07812   3
   3  11  -6 22.6360 4.44566   3
   3  11  -6 24.2352 4.12935   5
  -3  11   6 22.0611 2.60712   3
   3  11  -6 26.1337 4.73707   4
   2 -11  -6 16.5779 2.96226   5
   2 -11  -6 11.7145 2.04674   3
   2  11  -6 17.2699 3.46860   5
   2  11  -6 19.0927 3.96898   3
   1 -11  -6 11.7484 2.46187   5
   1 -11  -6 10.5230 2.26433   3
   1 -11  -6 9.46473 2.33281   5
   1  11  -6 13.7980 3.07708   5
  -1  11   6 9.09901 1.56423   4
   1  11  -6 11.0524 3.15479   3
   0 -11  -6 22.0510 3.27273   3
   0 -11  -6 20.8310 3.29301   5
   0 -11  -6 21.9992 3.14241   5
   0  11  -6 21.8690 3.85303   5
   0  11  -6 21.3711 4.20844   3
   0  11   6 20.6558 2.59505   4
  -1 -11  -6 -0.8987 1.70649   3
  -1 -11  -6 -2.3388 1.12429   5
   1  11   6 1.96183 1.15401   4
  -1  11  -6 -1.6271 1.71719   3
  -1  11  -6 0.02400 1.36363   4
  -1  11  -6 -1.1438 1.64368   5
  -2 -11  -6 3.69467 1.97872   6
  -2  11  -6 6.92516 2.68716   3
   2  11   6 4.05406 1.72570   4
  -3 -11  -6 -0.3974 1.58308   6
  -3  11  -6 1.50706 2.33693   5
   3  11   6 2.07635 1.71794   4
  -3  11  -6 1.08792 2.38830   3
   4 -11   6 14.0138 3.14488   5
  -4 -11  -6 20.3056 4.78201   6
  -4  11  -6 9.99501 2.91695   3
  -4  11  -6 16.3040 3.81836   5
   4  11   6 15.8533 3.70496   4
   5 -11   6 12.5872 3.47816   5
  -5 -11  -6 13.7303 4.30654   6
  -5  11  -6 16.8370 3.88815   3
  -5  11  -6 17.1704 3.80441   5
   5  11   6 23.7675 4.87791   4
   6 -11   6 3.83810 2.81672   5
  -6 -11  -6 2.65729 2.74263   6
   6 -12  -6 77.4161 7.68890   5
  -6 -12   6 73.2493 9.35224   6
   6  12  -6 73.3388 7.90468   5
   6  12  -6 71.3373 9.15054   4
   5 -12  -6 61.0161 6.36292   5
  -5 -12   6 71.8669 8.33630   6
   5  12  -6 62.5454 8.09040   4
  -5  12   6 59.8139 3.88906   3
  -4 -12   6 72.5969 7.65702   6
   4 -12  -6 63.4015 6.17089   5
   4  12  -6 64.0880 6.49257   5
   4  12  -6 58.3618 6.77932   4
  -4  12   6 58.6088 4.26237   3
   4  12  -6 60.6757 7.66611   3
   3 -12  -6 132.041 7.46450   3
   3 -12  -6 147.385 9.52150   5
   3  12  -6 136.147 10.5981   3
   3  12  -6 138.630 10.6975   4
   3  12  -6 154.585 10.2282   5
  -3  12   6 147.420 8.71818   3
   2 -12  -6 53.7084 4.38463   3
   2 -12  -6 59.2796 5.57607   5
   2  12  -6 68.6221 6.17415   5
   2  12  -6 60.8350 6.53164   3
   1 -12  -6 358.472 16.3396   3
   1 -12  -6 372.721 17.5376   5
  -1  12   6 343.548 14.7901   4
   1  12  -6 343.565 17.5530   5
   1  12  -6 340.502 18.6895   3
   0 -12  -6 60.7274 5.37564   3
   0 -12  -6 63.5170 5.54135   5
   0  12  -6 57.3261 6.53986   3
   0  12  -6 62.5960 6.15257   5
  -1  12  -6 121.731 8.78243   5
   1  12   6 135.941 8.28276   4
  -1  12  -6 129.508 9.58949   3
  -2 -12  -6 18.7950 4.22431   6
  -2  12  -6 29.3589 4.80115   5
  -2  12  -6 27.8329 4.95304   3
   2  12   6 22.5675 3.95297   4
  -3 -12  -6 44.9948 6.76124   6
   3 -12   6 45.0421 5.41843   5
   3  12   6 42.9615 5.34260   4
  -3  12  -6 41.4460 5.33404   3
  -3  12  -6 42.7243 5.46048   5
   4 -12   6 5.50785 2.33728   5
  -4 -12  -6 3.21818 2.75874   6
  -4  12  -6 6.01619 2.95970   5
  -4  12  -6 9.44880 3.01975   3
   4  12   6 4.50232 2.35174   4
  -5 -12  -6 2.77154 3.44347   6
   5 -12   6 5.62916 2.72854   5
   5  12   6 4.39685 2.40070   4
  -5  12  -6 2.25559 2.35408   5
  -5  12  -6 5.27162 2.28898   3
   5 -13  -6 99.2903 10.1715   5
  -5 -13   6 101.551 10.2151   6
   5  13  -6 94.9326 9.19405   5
   5  13  -6 101.978 10.5858   4
  -4 -13   6 40.6900 6.20540   6
   4 -13  -6 40.1783 4.92264   5
   4  13  -6 32.3818 5.28356   5
   4  13  -6 31.9295 5.76500   3
   4  13  -6 39.3181 6.57834   4
   3 -13  -6 22.6831 2.85942   3
   3 -13  -6 24.2732 3.96879   5
   3  13  -6 25.2222 5.13546   3
   3  13  -6 22.5395 4.12778   5
   3  13  -6 19.1082 4.30776   4
   2 -13  -6 45.0143 5.27017   5
   2 -13  -6 49.5679 4.37910   3
   2  13  -6 56.2091 5.66849   5
   2  13  -6 36.8835 6.32167   3
   1 -13  -6 79.4151 6.66132   5
   1 -13  -6 75.4776 6.60871   3
  -1  13   6 72.5918 5.11883   4
  -1  13   6 80.7998 4.80664   4
   1  13  -6 69.6943 6.58949   5
   1  13  -6 62.9091 7.57313   3
   0 -13  -6 1.71939 1.89093   3
   0  13   6 0.25540 1.20225   4
   0  13  -6 0.62060 1.76279   5
   1  13   6 82.4674 6.50175   4
  -1  13  -6 77.5158 7.90679   3
  -1  13  -6 92.4496 7.33525   5
  -2 -13  -6 8.76726 3.06069   6
  -2  13  -6 13.0137 3.77512   3
   2  13   6 8.64526 2.92425   4
  -2  13  -6 10.6737 2.95366   5
  -3 -13  -6 102.867 10.1772   6
   3 -13   6 88.5992 8.07400   5
  -3  13  -6 90.5001 8.48035   3
   3  13   6 104.986 8.38153   4
  -3  13  -6 81.5971 7.63797   5
   4 -13   6 11.6884 3.72361   5
  -4  13  -6 3.14129 3.02630   3
   4  13   6 8.41436 3.30188   4
  -4  13  -6 11.4600 3.64143   5
  -4 -14   6 45.8763 6.91899   6
   4  14  -6 47.8859 6.06439   5
   4  14  -6 49.0432 7.48596   3
   3 -14  -6 119.448 7.38490   3
   3 -14  -6 130.607 9.52129   5
   3  14  -6 115.598 10.8860   3
   3  14  -6 129.003 10.8626   4
   3  14  -6 122.930 9.48948   5
   2 -14  -6 78.7860 6.82921   5
   2  14  -6 53.1889 7.56643   3
   2  14  -6 54.2974 7.03531   4
   1 -14  -6 137.722 9.65447   5
   1 -14  -6 142.659 8.60558   3
   1  14  -6 123.831 10.3671   3
  -1  14   6 129.371 6.88967   4
   1  14  -6 108.922 8.91486   5
   0  14  -6 76.8753 7.15389   5
   0  14   6 90.4068 6.20091   4
   0  14  -6 84.2479 8.14102   3
  -1  14  -6 36.4007 5.19985   5
  -1  14  -6 35.0855 6.30817   3
   1  14   6 46.7928 5.04299   4
  -2 -14  -6 153.364 12.7168   6
  -2  14  -6 142.091 11.0523   3
  -2  14  -6 137.163 9.92781   5
   2  14   6 141.386 9.92162   4
  -3 -14  -6 22.9617 6.25106   6
  -3  14  -6 21.9141 4.73919   3
   3  14   6 23.0883 4.33019   4
  -3  14  -6 24.3235 4.48688   5
   3 -15  -6 6.72347 3.57728   5
   3  15  -6 8.57900 3.60396   5
   3  15  -6 14.9116 4.75015   3
   3  15  -6 9.57715 4.37371   4
   2 -15  -6 4.60559 2.36127   5
   2  15  -6 6.35384 3.13767   5
   2  15  -6 2.30732 2.73887   4
   1 -15  -6 5.34167 2.05079   5
  -1  15   6 1.12752 1.47251   4
   1  15  -6 1.24561 2.31534   5
   1  15  -6 6.08661 2.61299   3
   0  15   6 3.91870 2.02545   4
   0  15  -6 2.67035 2.87918   3
   0  15  -6 0.50814 2.36625   5
   1  15   6 185.065 10.8709   4
  -1  15  -6 171.267 12.4175   3
  -1  15  -6 166.303 11.2524   5
  -2 -15  -6 -2.2032 2.22902   6
   2  15   6 2.48109 2.90157   4
  -2  15  -6 2.35797 2.50727   5
  -2  15  -6 -0.7462 3.04975   3
  -9   0   7 -1.5358 2.95425   6
   8   0  -7 1.98538 2.29184   5
  -8   0   7 -5.4775 4.53917   6
   8   0  -7 -1.4080 2.10467   4
   7   0  -7 0.11787 1.36059   4
  -7   0   7 2.30908 2.31317   6
   7   0  -7 2.29855 1.88421   5
  -7   0   7 1.74130 2.04736   3
   7   0  -7 -0.4410 2.05921   6
  -6   0   7 0.67900 1.49501   6
   6   0  -7 -1.0971 1.02629   4
  -6   0   7 1.19558 1.32875   3
  -6   0   7 3.34298 1.39269   5
   6   0  -7 -2.0247 1.44364   6
   6   0  -7 -0.1679 1.29583   5
  -5   0   7 0.14724 1.43979   6
   5   0  -7 1.52060 1.05689   5
   5   0  -7 0.10045 0.88365   4
  -5   0   7 2.68396 1.34671   3
  -5   0   7 0.42778 0.94838   5
  -4   0   7 -0.2807 0.85216   6
   4   0  -7 -0.2759 0.73606   5
   4   0  -7 -0.0371 0.85573   6
  -4   0   7 0.98179 0.97650   3
  -3   0   7 -0.0224 0.50426   3
   3   0  -7 -0.1435 0.43004   6
   3   0  -7 0.95684 0.64873   5
  -3   0   7 -0.2540 0.40338   5
   3   0  -7 0.10958 0.56621   4
  -3   0   7 0.79534 0.61704   6
   3   0  -7 2.21159 0.73936   3
   2   0  -7 0.10348 0.20412   6
   2   0  -7 -0.0725 0.52921   3
   2   0  -7 -0.0778 0.44330   5
  -2   0   7 -0.0272 0.40570   3
   1   0  -7 0.37328 0.45166   3
  -1   0   7 0.22340 0.40471   3
   0   0   7 0.80556 0.43471   3
   0   0  -7 0.09158 0.39839   4
   0   0  -7 0.03349 0.36922   3
   0   0   7 0.46552 0.42891   6
   0   0  -7 0.18303 0.41346   6
  -1   0  -7 0.68130 0.52210   6
   1   0   7 0.04823 0.59155   6
  -1   0  -7 0.32916 0.30262   5
  -1   0  -7 0.00183 0.52600   3
  -1   0  -7 -0.1624 0.45166   4
   1   0   7 1.47530 0.71291   4
  -2   0  -7 0.42596 0.47392   5
  -2   0  -7 -0.2027 0.52543   4
   2   0   7 0.40641 0.53495   4
   2   0   7 0.03234 0.76187   6
  -2   0  -7 0.02665 0.42021   3
  -3   0  -7 1.88948 1.28464   6
  -3   0  -7 -0.6003 0.54568   5
   3   0   7 0.48909 0.70328   4
   3   0   7 -0.1168 0.54247   5
  -3   0  -7 -0.0715 0.79658   4
   3   0   7 -2.1968 0.92778   6
  -4   0  -7 1.40047 1.78876   6
   4   0   7 -0.1277 0.78353   4
   4   0   7 0.00097 0.63858   5
  -4   0  -7 1.13890 0.99526   5
   5   0   7 0.08584 0.92551   5
  -5   0  -7 1.36027 1.99550   6
   5   0   7 0.29270 1.26658   4
  -5   0  -7 2.38017 1.37862   5
  -6   0  -7 -2.9323 2.21319   6
   6   0   7 -0.5872 1.28199   4
   6   0   7 -0.0730 1.51200   5
   7   0   7 0.21746 1.65122   4
   7   0   7 1.17431 1.45431   5
  -7   0  -7 -3.7973 1.96599   6
  -8   0  -7 -3.8972 3.16821   6
   8   0   7 -0.4535 2.15940   5
  -8   0  -7 -0.5752 2.01530   3
   8  -1  -7 10.8048 3.09019   4
   8  -1  -7 12.7639 3.25150   5
  -8   1   7 5.36469 3.62712   6
   8   1  -7 11.1740 3.01192   4
   8   1  -7 13.3259 3.03159   5
  -7  -1   7 115.350 9.54901   6
   7  -1  -7 104.792 8.00326   4
   7  -1  -7 111.650 8.53396   5
  -7  -1   7 111.355 7.91894   3
   7  -1  -7 106.254 9.13160   6
  -7   1   7 116.313 7.21993   5
   7   1  -7 94.1063 8.42401   6
   7   1  -7 115.943 8.80657   5
  -7   1   7 116.111 9.37435   6
  -7   1   7 104.058 7.12809   3
   6  -1  -7 21.4259 3.79420   6
  -6  -1   7 18.2655 2.80262   5
   6  -1  -7 17.6977 3.25593   5
  -6  -1   7 23.8524 4.28263   6
   6  -1  -7 20.6519 3.56318   4
  -6  -1   7 17.2611 3.13395   3
   6   1  -7 17.3967 3.35642   6
  -6   1   7 23.2776 2.80206   5
  -6   1   7 19.8309 2.85716   3
   6   1  -7 21.5371 3.68267   5
   6   1  -7 16.6486 3.64238   4
  -6   1   7 26.0540 4.05542   6
   5  -1  -7 561.711 24.8241   6
  -5  -1   7 506.570 22.6514   5
   5  -1  -7 588.851 24.4935   5
  -5  -1   7 614.087 25.2631   6
   5  -1  -7 562.446 24.1056   4
  -5  -1   7 578.189 23.5814   3
   5   1  -7 508.045 24.0713   5
  -5   1   7 583.618 22.5687   5
  -5   1   7 581.849 22.8990   3
   5   1  -7 572.630 24.2494   6
   5   1  -7 489.592 24.1648   4
   4  -1  -7 1172.62 45.0185   4
  -4  -1   7 1170.47 43.9600   5
   4  -1  -7 1160.20 45.4757   6
   4  -1  -7 1136.41 45.0158   5
  -4  -1   7 1132.48 44.5586   3
  -4  -1   7 1221.45 45.4287   6
  -4   1   7 1182.66 43.3828   5
   4   1  -7 1188.92 44.8447   6
  -4   1   7 1248.02 45.4816   6
   4   1  -7 1051.53 45.3096   4
  -4   1   7 1143.48 43.7898   3
   4   1  -7 1073.63 44.9992   5
  -3  -1   7 1736.41 68.8084   3
  -3  -1   7 1836.12 68.0662   5
   3  -1  -7 1866.93 69.1379   6
   3  -1  -7 1856.31 68.8419   5
  -3  -1   7 1909.94 68.8346   6
   3  -1  -7 1794.22 68.9344   4
   3   1  -7 1905.28 69.2020   5
  -3   1   7 2007.78 68.9136   6
   3   1  -7 1816.08 69.6567   4
   3   1  -7 1681.19 68.2286   6
  -3   1   7 1892.28 68.1021   3
   3   1  -7 1819.89 69.0073   3
   2  -1  -7 1735.60 66.9269   3
   2  -1  -7 1781.82 66.8114   5
   2  -1  -7 1854.21 67.2062   6
  -2  -1   7 1930.88 67.8570   3
  -2  -1   7 1860.57 66.5350   6
  -2   1   7 1878.26 66.8980   3
   2   1  -7 1739.71 67.8402   3
   2   1  -7 1790.25 67.4431   5
  -1  -1   7 510.303 19.6067   6
   1  -1  -7 525.165 20.0704   6
  -1  -1   7 536.629 20.8889   3
   1  -1  -7 533.861 20.3206   3
   1   1  -7 541.164 21.0486   3
  -1   1   7 536.495 20.3577   3
   0  -1   7 384.388 15.4856   3
   0  -1  -7 372.293 15.1191   3
   0  -1   7 370.687 15.2807   6
   0  -1  -7 364.262 15.3546   6
   0  -1  -7 377.490 15.1341   4
   0   1   7 381.533 15.1402   6
   0   1  -7 362.872 15.3955   3
   0   1  -7 378.536 15.4598   4
   0   1  -7 367.776 15.2418   6
   0   1   7 372.530 15.0184   4
   1  -1   7 1428.31 55.0631   6
   1  -1   7 1441.97 54.2789   4
  -1  -1  -7 1436.36 52.3148   5
  -1  -1  -7 1388.16 55.0824   6
  -1  -1  -7 1441.63 54.3095   4
  -1   1  -7 1488.09 53.3877   5
   1   1   7 1433.93 54.1078   4
   1   1   7 1417.59 54.6732   6
  -1   1  -7 1445.84 54.5725   4
  -1   1  -7 1438.56 54.4290   3
  -1   1  -7 1413.09 55.0881   6
  -2  -1  -7 13.6683 1.47582   5
   2  -1   7 13.3318 2.57140   6
   2  -1   7 11.6510 1.21963   5
  -2  -1  -7 13.8690 2.30405   4
  -2  -1  -7 11.1880 2.41817   6
  -2   1  -7 14.7865 2.79491   6
   2   1   7 14.3851 2.07613   4
  -2   1  -7 11.0920 1.51702   5
   2   1   7 12.6506 2.37610   6
  -2   1  -7 11.4095 2.04343   4
  -3  -1  -7 409.729 20.2729   6
   3  -1   7 393.924 19.8851   6
  -3  -1  -7 419.571 18.8970   4
   3  -1   7 429.592 18.5143   4
   3  -1   7 393.615 16.7862   5
  -3  -1  -7 403.730 17.5564   5
  -3   1  -7 411.389 20.3013   6
  -3   1  -7 413.942 17.8387   5
  -3   1  -7 398.548 18.5132   3
   3   1   7 427.017 16.2279   5
   3   1   7 421.635 18.5908   4
   3   1   7 420.670 19.8927   6
  -3   1  -7 415.624 18.8072   4
   4  -1   7 19.8067 2.65434   5
  -4  -1  -7 21.8321 2.83687   5
   4  -1   7 14.3206 2.79122   4
  -4  -1  -7 20.5104 3.98230   4
  -4  -1  -7 16.5445 3.77140   6
   4   1   7 22.0623 3.22002   4
  -4   1  -7 21.9139 3.19981   5
  -4   1  -7 14.0624 3.45912   6
   4   1   7 21.5540 2.24589   5
  -4   1  -7 16.4592 2.92755   3
  -5  -1  -7 186.475 13.2008   6
   5  -1   7 200.758 11.2783   4
   5  -1   7 172.297 9.53246   5
  -5  -1  -7 185.780 10.7311   5
  -5   1  -7 205.284 11.6581   3
   5   1   7 170.450 9.12767   5
   5   1   7 179.676 11.1331   4
  -5   1  -7 172.672 11.7425   5
  -5   1  -7 183.712 13.0413   6
  -6  -1  -7 -1.3846 1.98224   6
   6  -1   7 3.44313 1.68008   5
   6  -1   7 -0.4769 1.20747   4
   6   1   7 2.24939 1.74708   4
  -6   1  -7 4.99829 1.88894   3
   6   1   7 1.20466 1.26865   5
  -6   1  -7 0.96873 2.38154   6
   7  -1   7 270.489 13.9449   5
  -7  -1  -7 224.138 17.7424   6
   7  -1   7 284.239 15.9962   4
   7   1   7 254.901 13.3647   5
  -7   1  -7 251.052 18.2408   6
   7   1   7 292.970 16.4024   4
  -7   1  -7 272.168 16.0060   3
  -8  -1  -7 25.1885 8.17143   6
   8  -1   7 23.7816 4.03617   5
  -8   1  -7 21.6376 6.31189   6
   8   1   7 14.0036 4.63704   4
  -8   1  -7 22.0325 4.68418   3
   8  -2  -7 148.042 10.2484   4
   8  -2  -7 149.109 11.1021   5
  -8   2   7 141.320 11.5762   6
  -8   2   7 140.634 9.49914   3
   8   2  -7 178.916 12.1682   4
   8   2  -7 142.799 11.0337   5
   7  -2  -7 13.6680 3.13513   5
   7  -2  -7 13.9089 3.87272   6
   7  -2  -7 13.0506 2.89004   4
  -7  -2   7 9.03332 3.13668   6
  -7   2   7 9.32935 2.37269   3
  -7   2   7 12.6263 3.82537   6
   7   2  -7 6.63981 2.81798   6
  -7   2   7 8.35824 2.12680   5
   7   2  -7 11.0089 2.91123   5
   7   2  -7 13.2641 3.37990   4
   6  -2  -7 19.0292 3.25614   4
  -6  -2   7 24.3281 4.53052   6
   6  -2  -7 15.0748 3.46429   6
   6  -2  -7 21.6158 3.71228   5
  -6  -2   7 20.8899 2.94987   5
  -6  -2   7 21.4045 5.59205   3
   6   2  -7 18.4299 3.64700   4
  -6   2   7 21.6885 2.70946   5
  -6   2   7 22.8576 2.97343   3
   6   2  -7 19.0430 3.43194   6
   6   2  -7 16.5513 3.31724   5
  -6   2   7 22.0334 4.13930   6
  -5  -2   7 7.85274 1.89491   3
   5  -2  -7 7.87331 1.87070   4
   5  -2  -7 4.57452 1.65474   5
  -5  -2   7 6.33438 2.25485   6
  -5  -2   7 9.31841 1.87735   5
   5  -2  -7 7.98838 2.19242   6
   5   2  -7 7.59143 2.11691   5
  -5   2   7 5.87809 1.44609   3
  -5   2   7 6.11920 1.33175   5
  -5   2   7 7.10795 2.17886   6
   5   2  -7 5.84471 1.96681   4
   5   2  -7 7.40235 1.94183   6
  -4  -2   7 14.2762 2.44969   6
   4  -2  -7 14.6623 2.42994   5
   4  -2  -7 13.4048 1.94893   4
  -4  -2   7 13.5716 2.36341   3
  -4  -2   7 16.6948 2.10154   5
   4   2  -7 12.9121 2.54475   4
   4   2  -7 12.6490 2.35702   5
  -4   2   7 14.7576 2.52950   6
  -4   2   7 12.7351 1.52729   3
  -4   2   7 13.3414 1.42304   5
   4   2  -7 15.3073 2.05701   6
  -3  -2   7 36.6408 3.28628   3
   3  -2  -7 35.3481 2.78629   5
   3  -2  -7 41.3564 3.34497   6
  -3  -2   7 40.6647 3.06650   6
   3  -2  -7 41.6343 2.87819   4
  -3  -2   7 39.0233 3.18426   5
   3   2  -7 35.0816 3.20586   3
  -3   2   7 40.1807 2.16510   3
  -3   2   7 38.9819 3.03306   6
   3   2  -7 40.4512 3.86904   5
   2  -2  -7 113.621 5.51758   6
   2  -2  -7 104.341 4.32298   3
   2  -2  -7 101.330 4.52452   5
  -2  -2   7 112.927 5.82514   3
  -2  -2   7 91.7202 4.76690   6
  -2   2   7 111.696 4.32240   3
   2   2  -7 104.417 5.49645   5
   2   2  -7 111.993 6.03589   3
  -1  -2   7 69.0531 4.17365   3
   1  -2  -7 69.9943 3.32298   3
  -1  -2   7 70.8297 3.51534   6
   1  -2  -7 70.2875 3.42798   4
   1   2  -7 66.5657 4.23189   3
   1   2  -7 68.7384 3.75338   5
   0  -2  -7 2.63909 0.72536   4
   0  -2   7 3.22891 0.98179   6
   0  -2  -7 1.51690 0.62497   6
   0  -2   7 3.64099 0.94268   3
   0   2   7 1.72808 0.60694   4
   0   2  -7 1.58004 0.76042   6
   0   2  -7 1.25422 0.65215   3
   0   2  -7 1.03822 0.79292   4
  -1  -2  -7 8.97566 1.60888   4
   1  -2   7 5.71318 1.51340   6
   1  -2   7 7.23878 1.49759   3
   1  -2   7 6.83681 1.48822   4
  -1  -2  -7 6.62400 1.58486   6
  -1   2  -7 7.35185 1.53980   4
  -1   2  -7 6.68938 1.22699   5
  -1   2  -7 5.70838 1.48064   6
  -1   2  -7 4.96445 1.27486   3
   1   2   7 5.15369 1.19079   4
   1   2   7 9.21096 1.73109   6
   2  -2   7 363.399 17.3974   6
   2  -2   7 353.107 15.9593   4
  -2  -2  -7 368.269 16.3304   4
   2  -2   7 332.178 14.7324   5
  -2  -2  -7 365.228 17.4684   6
  -2  -2  -7 377.784 14.9006   5
   2   2   7 373.510 16.1639   4
   2   2   7 373.785 16.9834   6
  -2   2  -7 325.052 15.3322   5
  -2   2  -7 379.614 17.6018   6
  -2   2  -7 383.359 16.4541   4
  -2   2  -7 397.034 16.5000   3
  -3  -2  -7 37.2270 3.17017   5
   3  -2   7 37.4696 4.48210   6
   3  -2   7 36.3449 2.97640   5
  -3  -2  -7 35.0839 3.78223   4
  -3  -2  -7 40.1129 4.52076   6
   3  -2   7 32.7000 3.37650   4
  -3   2  -7 35.9869 3.37011   5
  -3   2  -7 39.3050 3.76497   3
  -3   2  -7 35.6346 3.71643   4
   3   2   7 40.1516 4.21948   6
   3   2   7 34.8718 2.02068   5
  -3   2  -7 35.9851 4.58322   6
   3   2   7 30.0590 3.49850   4
  -4  -2  -7 76.2415 6.16675   4
  -4  -2  -7 69.3639 5.35303   5
   4  -2   7 79.3728 5.14007   5
  -4  -2  -7 72.0721 7.27077   6
   4  -2   7 74.1843 7.35065   6
   4  -2   7 72.8955 5.68123   4
   4   2   7 81.1121 6.87061   6
  -4   2  -7 67.0851 6.81555   4
   4   2   7 80.1750 6.23488   4
   4   2   7 74.6217 4.29484   5
  -4   2  -7 72.9526 5.93793   3
  -4   2  -7 76.7160 7.34612   6
  -4   2  -7 55.6039 5.03171   5
   5  -2   7 46.1136 4.74340   4
  -5  -2  -7 51.7753 4.85205   5
  -5  -2  -7 43.5836 5.94846   6
   5  -2   7 40.1168 4.04210   5
  -5   2  -7 50.0486 6.55141   6
   5   2   7 46.3122 5.06663   4
  -5   2  -7 41.6509 4.74620   3
   6  -2   7 189.551 11.7074   4
   6  -2   7 171.209 10.0659   5
  -6  -2  -7 162.937 13.5495   6
  -6   2  -7 189.018 13.9405   6
  -6   2  -7 176.151 11.6535   3
   6   2   7 171.363 11.5368   4
   6   2   7 183.304 9.54385   5
  -7  -2  -7 4.79691 2.90665   6
   7  -2   7 7.37231 2.47978   4
   7   2   7 4.49966 2.46042   4
  -7   2  -7 7.11384 3.56992   6
   7   2   7 6.49428 2.11994   5
  -7   2  -7 11.2054 2.87463   3
   8  -2   7 69.6258 6.47199   5
  -8  -2  -7 60.8422 9.62753   6
  -8   2  -7 64.0219 9.57333   6
   8   2   7 76.0325 7.89892   4
  -8   2  -7 67.8661 8.06283   3
   8  -3  -7 67.7471 7.03706   5
   8  -3  -7 76.2466 7.85225   4
  -8  -3   7 63.6293 7.81537   6
  -8   3   7 59.4980 5.35287   3
   8   3  -7 64.6605 7.33375   4
   8   3  -7 70.1968 7.41466   5
  -8   3   7 64.2430 7.86772   6
   7  -3  -7 319.664 16.3052   4
   7  -3  -7 308.606 17.1986   5
  -7  -3   7 334.999 18.7252   6
  -7   3   7 321.103 18.2462   6
   7   3  -7 344.530 18.0303   5
   7   3  -7 335.672 18.3759   4
  -7   3   7 320.435 15.0083   3
   6  -3  -7 61.2747 5.73588   5
  -6  -3   7 65.9395 5.21628   5
  -6  -3   7 63.6498 5.88541   3
  -6  -3   7 66.3036 6.58784   6
   6  -3  -7 65.1954 5.23455   4
   6  -3  -7 69.4241 6.80112   6
  -6   3   7 64.3795 4.51834   3
   6   3  -7 74.5452 6.93763   4
  -6   3   7 65.7741 4.50194   5
  -6   3   7 59.1878 6.44334   6
   5  -3  -7 520.799 22.7586   4
  -5  -3   7 551.460 23.5302   3
   5  -3  -7 472.461 23.0595   5
   5  -3  -7 525.449 24.5545   6
  -5  -3   7 521.747 22.4718   5
  -5  -3   7 518.672 24.0681   6
  -5   3   7 574.941 24.4118   6
  -5   3   7 542.668 22.0186   5
   5   3  -7 562.003 24.0795   5
   5   3  -7 586.098 24.9042   4
  -5   3   7 525.116 21.2112   3
  -4  -3   7 -1.7627 1.04299   3
   4  -3  -7 1.22318 1.44093   6
   4  -3  -7 -0.3076 0.81269   5
   4  -3  -7 0.38850 0.65395   4
  -4  -3   7 -0.6873 0.81406   5
  -4  -3   7 0.15349 0.85544   6
   4   3  -7 0.88104 1.04553   5
   4   3  -7 0.31470 0.76636   3
  -4   3   7 0.54754 0.42822   5
  -4   3   7 0.49273 1.04635   6
  -4   3   7 0.70524 0.44348   5
   4   3  -7 1.62943 1.30817   4
  -4   3   7 0.43537 0.51459   3
  -3  -3   7 175.156 8.21135   5
  -3  -3   7 178.441 8.63660   6
   3  -3  -7 171.247 7.69343   4
   3  -3  -7 172.802 9.10535   6
   3  -3  -7 176.932 8.22820   5
  -3  -3   7 161.197 8.77729   3
   3   3  -7 177.500 8.89680   5
   3   3  -7 171.727 10.2592   3
  -2  -3   7 13.7171 1.62329   5
  -2  -3   7 16.5795 2.03498   3
   2  -3  -7 15.3684 1.90255   6
  -2  -3   7 11.2194 1.36837   6
   2  -3  -7 13.6063 1.09962   4
   2  -3  -7 13.8050 1.13355   5
   2   3  -7 13.7558 2.21225   3
   2   3  -7 16.1480 1.97216   5
  -1  -3   7 349.145 14.8312   3
  -1  -3   7 344.383 14.0719   6
   1  -3  -7 341.050 13.2723   3
   1  -3  -7 341.511 13.2623   4
   1   3  -7 339.092 14.2633   5
   1   3  -7 349.566 15.0314   3
   0  -3  -7 881.822 35.4569   6
   0  -3   7 903.785 35.5428   6
   0  -3  -7 898.863 34.5899   4
   0  -3   7 921.411 35.5765   3
   0   3  -7 939.679 35.3651   6
   0   3  -7 915.855 35.6870   3
   0   3   7 931.317 34.4712   4
  -1  -3  -7 58.2622 4.49335   6
   1  -3   7 53.1428 4.03453   3
  -1  -3  -7 60.0864 3.99377   4
   1  -3   7 56.5544 4.59067   6
   1   3   7 57.0511 3.82060   4
  -1   3  -7 51.4134 3.97360   4
  -1   3  -7 62.4691 4.37053   3
  -1   3  -7 65.0986 4.73433   6
  -1   3  -7 61.8165 4.02208   5
   2  -3   7 301.282 14.5286   4
  -2  -3  -7 331.215 14.9637   4
  -2  -3  -7 323.697 13.5052   5
   2  -3   7 329.910 16.1943   6
   2  -3   7 303.355 14.8335   3
   2  -3   7 340.818 13.9631   5
  -2  -3  -7 324.975 16.1209   6
  -2   3  -7 342.220 14.5626   5
  -2   3  -7 341.402 15.0718   3
   2   3   7 324.123 14.7858   4
   2   3   7 330.216 15.5531   6
  -2   3  -7 331.107 15.0238   4
   3  -3   7 12.9337 1.90195   5
   3  -3   7 14.0633 2.52045   4
  -3  -3  -7 17.3618 3.51840   6
  -3  -3  -7 14.8847 2.13345   5
  -3  -3  -7 14.2591 2.59526   4
   3  -3   7 11.4019 2.94318   6
  -3   3  -7 14.0962 2.52405   3
  -3   3  -7 14.2439 2.62081   4
   3   3   7 10.2107 2.39198   6
  -3   3  -7 10.2279 1.96013   5
  -3   3  -7 15.3610 3.38674   6
   3   3   7 13.1427 2.46086   4
   4  -3   7 9.60532 2.02831   5
  -4  -3  -7 14.7212 2.50676   5
  -4  -3  -7 12.0660 3.13869   6
  -4  -3  -7 10.2479 2.52192   4
   4  -3   7 16.1778 3.87315   6
   4  -3   7 9.96947 2.27575   4
   4   3   7 9.49547 1.44090   5
   4   3   7 9.00534 2.32852   4
  -4   3  -7 8.87888 3.01551   6
  -4   3  -7 12.3610 2.53510   5
  -4   3  -7 12.3140 2.48793   3
   4   3   7 6.29501 2.15626   6
  -4   3  -7 9.42080 2.38266   4
  -5  -3  -7 49.2784 6.52908   6
  -5  -3  -7 46.8342 4.86564   5
   5  -3   7 48.9219 5.16324   4
   5  -3   7 46.1855 4.22428   5
   5   3   7 47.0781 3.59945   5
  -5   3  -7 34.8427 6.27672   6
  -5   3  -7 44.5931 4.87091   3
   5   3   7 43.3469 4.92051   4
  -6  -3  -7 116.819 11.1244   6
   6  -3   7 121.238 8.83570   4
   6  -3   7 110.864 7.69682   5
   6   3   7 103.998 8.75851   4
  -6   3  -7 136.112 9.44071   3
  -6   3  -7 101.134 10.3488   6
   6   3   7 118.893 7.01454   5
   7  -3   7 161.283 10.9638   4
  -7  -3  -7 135.133 13.1634   6
   7  -3   7 140.097 9.19640   5
   7   3   7 130.282 10.5209   4
  -7   3  -7 132.323 12.9054   6
  -7   3  -7 137.522 10.3031   3
   7   3   7 140.890 8.36190   5
  -8  -3  -7 48.6440 8.91847   6
   8  -3   7 52.0148 5.42371   5
  -8   3  -7 43.8628 8.59750   6
  -8   3  -7 35.5654 5.72184   3
   8   3   7 37.8041 7.01914   4
   8   3   7 49.7219 4.97571   5
  -8  -4   7 4.35660 3.09442   6
   8  -4  -7 0.09333 1.74872   4
   8  -4  -7 4.48792 2.53945   5
  -8   4   7 0.55641 2.39338   3
  -8   4   7 5.81036 1.93663   3
  -8   4   7 8.61931 3.91151   6
   8   4  -7 -0.9292 1.93300   4
   8   4  -7 8.28323 2.52603   5
  -7  -4   7 3.75817 2.63187   6
   7  -4  -7 -1.4823 1.18852   4
   7  -4  -7 0.75407 1.31773   5
  -7   4   7 -0.6395 1.89301   5
   7   4  -7 -0.9413 1.61905   5
   7   4  -7 -0.0203 2.12708   4
  -7   4   7 0.63500 1.10391   3
  -7   4   7 -2.5889 1.47458   3
  -7   4   7 1.63755 2.42927   6
  -6  -4   7 243.211 14.5258   6
   6  -4  -7 251.892 15.0731   6
   6  -4  -7 251.018 12.4357   4
   6   4  -7 246.631 14.0116   5
  -6   4   7 248.696 11.1283   3
  -6   4   7 246.807 14.4284   6
  -6   4   7 240.538 11.1511   5
   6   4  -7 258.190 16.8395   4
  -5  -4   7 9.91034 2.20730   5
  -5  -4   7 12.0192 2.78598   3
   5  -4  -7 12.4687 2.95581   6
  -5  -4   7 13.0293 3.00026   6
   5  -4  -7 9.67458 1.87781   4
   5  -4  -7 10.0209 2.30222   5
   5   4  -7 7.45283 2.21964   5
   5   4  -7 11.2829 3.00811   4
  -5   4   7 8.24939 1.38105   3
  -5   4   7 12.7734 1.67202   5
  -5   4   7 12.8834 2.94300   6
  -5   4   7 10.6461 1.37623   3
  -4  -4   7 134.878 7.50434   5
   4  -4  -7 133.024 8.79457   6
   4  -4  -7 136.806 6.74596   4
  -4  -4   7 133.696 8.19998   3
  -4  -4   7 136.196 8.37465   6
   4  -4  -7 134.897 7.72657   5
   4   4  -7 134.747 8.34444   3
  -4   4   7 160.345 10.1020   6
   4   4  -7 131.688 8.58082   4
  -4   4   7 139.039 5.57244   3
   4   4  -7 142.485 8.36924   5
  -4   4   7 137.516 5.50344   3
   3  -4  -7 171.776 7.42477   4
   3  -4  -7 178.066 8.53474   5
  -3  -4   7 172.633 8.63230   5
   3  -4  -7 183.114 9.81109   6
  -3  -4   7 165.874 8.94229   6
  -3  -4   7 183.773 9.52365   3
   3   4  -7 194.218 9.86585   3
   3   4  -7 185.627 9.40652   5
  -2  -4   7 15.4239 2.35761   3
   2  -4  -7 15.7966 1.35260   5
  -2  -4   7 13.7329 1.81730   5
   2  -4  -7 18.9628 2.31436   6
   2   4  -7 17.4086 3.06248   3
   2   4  -7 13.9879 2.18527   5
  -1  -4   7 1.42240 0.65685   6
  -1  -4   7 0.77397 0.70415   3
   1  -4  -7 0.90021 0.35798   3
   1  -4  -7 0.38714 0.22667   4
   1   4  -7 -1.6323 0.75504   3
   1   4  -7 0.84607 0.79626   5
   0  -4   7 587.228 23.9025   3
   0  -4  -7 559.711 22.6041   4
   0  -4   7 579.374 24.0104   6
   0   4  -7 593.077 24.1047   3
   0   4   7 585.395 22.5049   4
   0   4  -7 596.160 23.6812   5
  -1  -4  -7 84.8491 3.72295   5
   1  -4   7 73.5979 5.21472   3
   1  -4   7 85.6452 6.04892   6
  -1  -4  -7 82.3189 5.00547   4
  -1  -4  -7 87.5838 3.74361   5
  -1  -4  -7 79.9996 5.71009   6
   1   4   7 92.8708 5.11114   4
  -1   4  -7 85.5424 5.80913   6
  -1   4  -7 91.3139 5.67836   3
  -1   4  -7 83.2542 5.17395   5
  -1   4  -7 77.9902 5.20896   4
   2  -4   7 252.927 12.1550   3
   2  -4   7 237.091 11.1199   5
   2  -4   7 221.640 11.5174   4
  -2  -4  -7 243.023 13.0662   6
   2  -4   7 233.954 13.0537   6
  -2  -4  -7 236.039 10.5713   5
  -2  -4  -7 253.397 11.9939   4
  -2   4  -7 265.129 13.3174   6
  -2   4  -7 243.695 11.6395   5
  -2   4  -7 243.974 11.9984   3
  -2   4  -7 249.124 12.0449   4
   3  -4   7 6.38250 1.76534   4
  -3  -4  -7 8.70462 1.73578   5
  -3  -4  -7 4.13926 1.84957   6
   3  -4   7 8.43350 1.85708   5
  -3  -4  -7 10.8559 2.35487   4
   3  -4   7 5.76781 2.47428   6
  -3   4  -7 6.24596 1.80224   4
  -3   4  -7 7.88774 1.86075   5
   3   4   7 6.73224 2.12413   6
  -3   4  -7 4.75388 2.18631   6
   3   4   7 9.22434 2.21843   4
  -3   4  -7 3.83417 1.42873   3
  -4  -4  -7 16.0649 2.75213   5
   4  -4   7 13.5848 2.60086   5
  -4  -4  -7 14.3208 2.94917   4
  -4  -4  -7 11.6229 3.21892   6
   4  -4   7 11.4926 2.47438   4
   4  -4   7 15.7387 3.59278   6
   4   4   7 14.7169 2.97167   4
   4   4   7 15.2160 1.51090   5
  -4   4  -7 14.5882 2.80175   5
  -4   4  -7 13.9568 2.82190   3
  -4   4  -7 15.1022 3.74933   6
   4   4   7 15.3676 3.21398   6
  -4   4  -7 14.5483 3.06609   4
   5  -4   7 17.9793 3.21100   4
  -5  -4  -7 19.8629 4.62004   6
   5  -4   7 18.8385 3.20524   5
   5   4   7 22.7725 2.37236   5
  -5   4  -7 21.7883 4.90701   6
  -5   4  -7 23.0862 3.87156   3
   5   4   7 22.1446 4.11434   4
   6  -4   7 19.0790 3.74387   4
   6  -4   7 14.0516 2.94702   5
  -6  -4  -7 12.7143 4.20023   6
   6   4   7 18.7190 3.82675   4
  -6   4  -7 14.2582 3.37486   3
   6   4   7 17.5497 2.56644   5
  -6   4  -7 9.36620 4.05435   6
  -7  -4  -7 6.58205 3.27128   6
   7  -4   7 4.17987 2.07502   5
   7  -4   7 4.16751 2.16073   4
   7   4   7 2.21044 1.91457   5
   7   4   7 8.06010 3.01490   4
  -7   4  -7 2.25295 3.13277   6
  -7   4  -7 5.78848 2.76142   3
   8  -4   7 39.6676 5.25885   5
  -8  -4  -7 35.1475 7.96569   6
  -8   4  -7 40.2696 7.63028   6
   8   4   7 41.0934 4.62777   5
  -8   4  -7 34.9996 5.70071   3
   8   4   7 50.8016 6.93303   4
  -8  -5   7 -1.9027 3.01472   6
   8  -5  -7 -0.3937 1.61078   4
  -8   5   7 1.97744 2.97621   6
  -8   5   7 2.25962 2.51031   5
  -8   5   7 1.30798 1.51444   3
   8   5  -7 2.19811 2.33894   5
   8   5  -7 4.63538 2.61413   4
   7  -5  -7 229.137 13.6299   5
  -7  -5   7 258.228 15.6841   6
   7  -5  -7 209.880 11.6497   4
  -7   5   7 203.621 16.6521   6
   7   5  -7 232.365 14.9663   4
   7   5  -7 238.922 14.2639   5
  -7   5   7 224.328 10.5667   3
  -7   5   7 223.775 10.7530   5
  -7   5   7 227.415 10.8050   3
  -6  -5   7 4.85905 2.50030   6
   6  -5  -7 3.39783 1.46482   4
   6  -5  -7 8.86618 3.28042   6
   6  -5  -7 7.08965 2.46735   5
  -6   5   7 5.43894 1.13813   3
   6   5  -7 3.15772 1.74697   5
  -6   5   7 5.11816 1.38942   5
   6   5  -7 10.9158 3.10792   4
  -6   5   7 0.94475 2.37845   6
  -6   5   7 6.84873 1.52096   5
  -6   5   7 5.65443 1.35648   3
   5  -5  -7 619.812 29.0546   6
   5  -5  -7 599.473 25.2206   4
  -5  -5   7 640.410 27.8767   3
   5  -5  -7 620.733 27.2749   5
  -5  -5   7 686.290 28.9982   6
  -5  -5   7 634.695 26.6764   5
   5   5  -7 660.305 29.0200   4
  -5   5   7 622.559 24.0694   5
   5   5  -7 646.955 28.0574   5
  -5   5   7 619.741 24.0166   5
  -5   5   7 616.759 24.0380   3
  -5   5   7 664.165 28.3588   6
  -5   5   7 625.192 23.9829   3
   4  -5  -7 33.6134 3.29082   5
   4  -5  -7 35.4587 4.21035   6
   4  -5  -7 30.5889 2.27777   4
  -4  -5   7 35.7501 3.52736   5
  -4  -5   7 33.8756 3.89215   3
   4   5  -7 28.2368 3.80022   4
   4   5  -7 34.9552 3.99182   3
   4   5  -7 30.0443 3.46244   5
  -3  -5   7 321.328 14.7776   3
   3  -5  -7 308.186 13.5027   5
   3  -5  -7 327.228 15.3228   6
  -3  -5   7 278.335 13.5455   5
  -3  -5   7 264.975 13.9517   6
   3   5  -7 329.936 14.6315   5
   3   5  -7 326.397 15.0776   3
  -2  -5   7 329.269 14.9918   3
   2  -5  -7 324.799 13.3000   5
   2  -5  -7 322.341 13.1654   5
   2  -5  -7 350.256 15.2981   6
  -2  -5   7 320.883 14.1167   5
   2   5  -7 329.992 15.3280   3
   2   5  -7 302.851 14.4502   5
  -1  -5   7 98.6531 6.18913   3
   1  -5  -7 101.686 4.76119   3
   1  -5  -7 99.2122 4.27830   5
  -1  -5   7 104.370 6.00643   6
   1  -5  -7 99.9660 4.23182   5
   1   5  -7 108.586 6.70678   3
   1   5  -7 105.130 6.05584   5
   0  -5   7 6.96850 1.66462   6
   0  -5  -7 5.46948 1.03731   4
   0  -5   7 4.46236 1.25186   3
   0  -5  -7 7.91569 1.40646   3
   0   5  -7 5.07545 1.40143   5
   0   5  -7 5.50974 1.56166   3
   0   5   7 8.53676 1.10502   4
   0   5  -7 5.54215 1.50037   5
  -1  -5  -7 264.124 11.9678   4
  -1  -5  -7 268.016 13.3352   6
   1  -5   7 255.417 12.5624   3
   1  -5   7 263.953 13.4872   6
  -1  -5  -7 271.607 10.8623   5
  -1  -5  -7 260.949 10.8266   5
  -1   5  -7 267.386 12.6121   4
  -1   5  -7 261.879 12.7732   3
  -1   5  -7 268.624 13.7681   6
  -1   5  -7 273.083 12.5054   5
   1   5   7 267.845 11.9797   4
   2  -5   7 441.901 20.0035   3
   2  -5   7 446.446 21.5014   6
  -2  -5  -7 465.789 19.8627   4
  -2  -5  -7 443.629 18.5374   5
   2  -5   7 476.675 19.4932   5
  -2  -5  -7 449.720 21.2740   6
  -2   5  -7 461.421 19.8385   5
  -2   5  -7 485.087 21.5598   6
   2   5   7 448.419 19.7258   4
  -2   5  -7 459.794 20.0221   4
  -2   5  -7 420.732 19.8201   3
  -3  -5  -7 7.27069 2.49043   6
   3  -5   7 5.07224 1.54873   4
  -3  -5  -7 4.89949 1.61806   4
  -3  -5  -7 2.42023 1.23167   5
   3  -5   7 5.75378 1.67918   5
   3  -5   7 2.30312 2.22430   6
  -3   5  -7 4.78460 1.59139   4
  -3   5  -7 4.37036 1.59456   3
   3   5   7 6.21226 1.80397   4
  -3   5  -7 2.95623 1.86671   6
  -3   5  -7 4.16611 1.53928   5
  -4  -5  -7 299.093 16.7677   6
  -4  -5  -7 265.772 14.2724   4
   4  -5   7 232.009 15.5971   6
  -4  -5  -7 270.841 13.2279   5
   4  -5   7 268.072 13.1069   5
   4  -5   7 237.766 13.1031   4
   4   5   7 254.745 10.3354   5
  -4   5  -7 264.154 15.8910   6
  -4   5  -7 224.645 13.3989   5
   4   5   7 265.120 10.3766   5
  -4   5  -7 283.449 14.0667   3
   4   5   7 280.062 14.3050   4
  -4   5  -7 255.347 13.9369   4
   5  -5   7 73.1561 6.02711   5
  -5  -5  -7 79.4591 9.98456   6
   5  -5   7 83.2472 6.54609   4
  -5   5  -7 76.5003 6.56089   3
  -5   5  -7 73.5169 9.84815   6
   5   5   7 81.3301 4.59364   5
   5   5   7 80.9816 8.29894   4
  -6  -5  -7 6.61925 3.45062   6
   6  -5   7 6.77056 2.27901   4
  -6   5  -7 7.08533 3.34443   6
  -6   5  -7 9.33565 2.77029   3
   6   5   7 6.04584 2.68621   4
   7  -5   7 105.092 8.32932   5
   7  -5   7 111.045 8.95384   4
  -7  -5  -7 125.440 12.4455   6
  -7   5  -7 102.482 11.3470   6
  -7   5  -7 117.521 9.50636   3
   7   5   7 118.849 6.99172   5
   7   5   7 128.920 10.1718   4
   8  -6  -7 -0.4017 2.03492   5
   8  -6  -7 -0.2228 1.53789   4
  -8  -6   7 1.15664 3.24244   6
   8   6  -7 -1.5031 2.28544   5
  -8   6   7 0.48898 2.42052   5
  -8   6   7 0.57664 2.89477   6
   7  -6  -7 7.10848 2.57973   5
  -7  -6   7 2.15587 2.52462   6
   7  -6  -7 10.0682 2.03762   4
  -7   6   7 3.43824 1.38963   3
   7   6  -7 6.69862 3.14164   4
  -7   6   7 3.03318 1.72542   5
  -7   6   7 7.94871 3.44804   6
  -7   6   7 6.70315 1.82832   5
   7   6  -7 3.62771 1.93121   5
   6  -6  -7 47.1330 5.03371   5
  -6  -6   7 41.3936 5.74211   6
  -6   6   7 45.1016 2.89884   3
   6   6  -7 41.3158 5.23434   5
  -6   6   7 39.2288 2.74464   3
  -6   6   7 31.1339 4.98730   6
  -6   6   7 43.7956 3.07042   5
   6   6  -7 46.0720 6.11394   4
  -6   6   7 35.7963 3.88944   5
   5  -6  -7 6.39425 1.22342   4
   5  -6  -7 8.32012 2.18991   5
   5  -6  -7 8.71173 2.69169   6
  -5  -6   7 2.11855 1.88203   6
   5   6  -7 2.26773 2.04978   4
   5   6  -7 5.74785 2.26917   5
   4  -6  -7 244.236 13.5756   6
  -4  -6   7 213.254 12.4472   6
   4  -6  -7 226.409 9.26254   4
  -4  -6   7 251.990 12.9078   3
   4  -6  -7 245.647 11.8606   5
  -4  -6   7 210.106 11.3720   5
   4   6  -7 237.221 13.3108   4
   4   6  -7 223.449 12.7105   3
   4   6  -7 236.460 12.5579   5
  -3  -6   7 259.900 12.3808   5
   3  -6  -7 257.828 12.0236   5
   3  -6  -7 260.909 13.7985   6
  -3  -6   7 258.915 13.3204   3
  -3  -6   7 246.463 13.0374   6
   3   6  -7 274.196 13.1582   5
   3   6  -7 273.958 13.6961   3
   2  -6  -7 91.3348 4.92717   5
  -2  -6   7 90.8511 5.65545   5
   2  -6  -7 91.2045 3.81867   3
  -2  -6   7 96.4817 6.46099   3
   2  -6  -7 91.1064 6.45793   6
   2  -6  -7 92.3522 5.00492   5
   2   6  -7 96.4006 6.16818   5
   2   6  -7 89.0852 6.63995   3
   1  -6  -7 66.3414 3.61965   5
  -1  -6   7 72.2842 5.08395   6
   1  -6  -7 67.3652 3.58443   5
   1  -6  -7 69.8510 3.81784   3
  -1  -6   7 74.2586 5.24717   3
   1   6  -7 73.4626 5.63752   3
   1   6  -7 66.2215 4.79300   5
   0  -6  -7 19.4856 1.55817   5
   0  -6  -7 18.3928 1.70203   4
   0  -6   7 18.6862 2.42266   3
   0  -6  -7 19.5298 2.13014   3
   0  -6   7 21.0531 2.95621   6
   0  -6  -7 18.9878 1.53880   5
   0   6   7 18.8424 1.74286   4
   0   6  -7 17.4950 2.47242   5
   0   6  -7 20.0838 2.82010   3
   0   6  -7 13.8084 2.33290   5
  -1  -6  -7 1.73632 0.66381   5
  -1  -6  -7 2.47233 1.20384   6
   1  -6   7 -1.8911 1.23465   6
   1  -6   7 1.76608 0.98034   3
  -1  -6  -7 1.52973 0.67824   5
  -1  -6  -7 3.15157 1.20397   3
  -1   6  -7 2.63470 1.18582   3
  -1   6  -7 2.48745 1.11257   4
  -1   6  -7 -0.2694 0.76000   5
   1   6   7 3.49563 1.10111   4
  -2  -6  -7 38.4992 3.64149   4
   2  -6   7 35.3032 3.60124   3
  -2  -6  -7 32.3293 3.42875   3
  -2  -6  -7 35.3678 4.22287   6
  -2  -6  -7 33.7291 3.00294   5
   2  -6   7 38.2754 3.53980   5
   2  -6   7 32.9789 4.55448   6
   2   6   7 37.9926 3.49907   4
  -2   6  -7 35.5407 3.64085   4
  -2   6  -7 35.0953 3.68094   3
  -2   6  -7 38.9009 3.83903   5
  -2   6  -7 36.7058 4.31017   6
  -3  -6  -7 99.2605 8.05413   6
  -3  -6  -7 90.5072 5.82349   5
   3  -6   7 83.7284 8.02285   6
  -3  -6  -7 90.4849 6.49274   4
   3  -6   7 86.8266 6.06756   5
   3   6   7 97.7822 6.79573   4
  -3   6  -7 79.2781 6.18096   5
  -3   6  -7 91.7752 7.74760   6
  -3   6  -7 83.0655 7.26039   4
  -3   6  -7 79.8415 6.25303   3
   4  -6   7 4.98462 1.93340   5
  -4  -6  -7 7.72783 2.67148   6
  -4  -6  -7 10.8783 2.63127   4
   4  -6   7 6.52188 1.78651   4
  -4   6  -7 7.59851 3.05900   6
  -4   6  -7 8.03967 2.23821   4
   4   6   7 4.30055 1.81312   4
  -4   6  -7 7.67026 2.24010   3
   5  -6   7 165.062 10.3241   4
   5  -6   7 148.881 9.74391   5
  -5  -6  -7 177.842 13.3458   6
  -5   6  -7 165.695 12.8584   6
   5   6   7 163.497 7.50994   5
   5   6   7 180.306 11.4215   4
  -5   6  -7 165.305 10.7040   3
   6  -6   7 98.9367 7.63339   5
   6  -6   7 102.081 8.01528   4
  -6  -6  -7 88.3026 9.93444   6
  -6   6  -7 104.639 8.28004   3
  -6   6  -7 98.8937 10.3456   6
   6   6   7 93.5585 5.59856   5
   6   6   7 106.411 8.96937   4
   7  -6   7 7.61621 2.79017   4
  -7  -6  -7 7.82409 3.63157   6
   7  -6   7 6.59252 2.39318   5
   7   6   7 12.6960 3.35343   4
  -7   6  -7 6.57880 2.51081   3
  -7   6  -7 16.9788 5.05211   6
  -8  -7   7 36.2826 7.11687   6
   8  -7  -7 43.6251 4.29596   4
   8  -7  -7 48.0321 6.04828   5
   8   7  -7 51.1732 6.38734   5
  -8   7   7 38.5448 6.74062   6
  -8   7   7 40.3226 3.91315   3
   8   7  -7 35.5859 6.77553   4
  -7  -7   7 32.6743 5.97680   6
   7  -7  -7 35.3260 3.42475   4
   7  -7  -7 36.3993 4.78352   5
  -7   7   7 38.7625 3.09441   3
  -7   7   7 32.7325 2.84206   3
  -7   7   7 34.9288 3.01836   5
   7   7  -7 38.6178 6.55018   4
   7   7  -7 46.2031 5.97303   5
  -7   7   7 34.5546 3.73188   5
   6  -7  -7 116.147 8.58585   5
  -6  -7   7 128.912 10.2405   6
   6  -7  -7 115.321 6.30055   4
   6   7  -7 125.595 9.34881   5
  -6   7   7 113.313 5.31846   3
   6   7  -7 122.658 9.86170   4
   5  -7  -7 281.739 14.7449   5
   5  -7  -7 279.096 11.8708   4
  -5  -7   7 300.967 16.5550   6
   5  -7  -7 281.095 16.7861   6
   5   7  -7 292.427 16.6237   4
   5   7  -7 308.478 15.8393   5
   4  -7  -7 229.803 15.9480   6
  -4  -7   7 276.950 14.1610   6
   4  -7  -7 244.090 12.4147   5
  -4  -7   7 231.787 12.3593   5
   4   7  -7 249.178 13.3415   5
   4   7  -7 229.395 13.7492   4
   4   7  -7 264.620 14.1714   3
   3  -7  -7 108.567 6.47744   5
  -3  -7   7 105.620 7.43906   3
   3  -7  -7 122.515 8.53701   6
  -3  -7   7 118.833 7.21939   5
   3   7  -7 99.9660 7.59558   3
   3   7  -7 101.828 7.05942   5
   2  -7  -7 42.9671 3.39294   5
  -2  -7   7 44.3859 3.92550   5
  -2  -7   7 44.3096 4.25980   3
   2  -7  -7 46.1511 2.47216   3
   2  -7  -7 44.7818 4.53092   6
   2   7  -7 43.1516 4.19374   5
   2   7  -7 44.1969 4.58113   3
  -1  -7   7 20.9117 2.76369   6
   1  -7  -7 23.1850 2.15017   3
   1  -7  -7 21.1760 1.98908   5
  -1  -7   7 18.5198 2.62413   3
   1  -7  -7 21.8130 2.01698   5
   1   7  -7 20.0895 2.88193   5
   1   7  -7 18.3872 2.67670   5
   1   7  -7 16.8014 3.09264   3
   0  -7   7 63.5867 5.42833   6
   0  -7  -7 61.0646 4.25206   3
   0  -7  -7 60.5056 3.58460   5
   0  -7  -7 61.3462 3.68086   5
   0  -7   7 63.2518 4.94845   3
   0   7  -7 49.4635 4.41251   5
   0   7  -7 59.5008 5.30631   3
   0   7  -7 60.9878 4.82065   5
   0   7   7 58.9748 3.63943   4
   1  -7   7 34.8667 4.40793   6
  -1  -7  -7 31.7565 3.28391   3
  -1  -7  -7 28.7907 2.56226   5
  -1  -7  -7 26.4441 2.51670   5
   1  -7   7 28.0141 3.34284   3
  -1  -7  -7 31.1685 2.83962   4
  -1   7  -7 27.6084 3.39971   5
   1   7   7 31.0638 2.96260   4
  -1   7  -7 30.3487 3.55163   3
  -1   7  -7 26.8180 3.30400   4
  -1   7  -7 30.3995 3.38590   5
  -2  -7  -7 595.908 24.6699   4
   2  -7   7 554.419 26.9280   6
  -2  -7  -7 595.685 25.1374   3
   2  -7   7 545.194 24.5992   5
  -2  -7  -7 609.605 27.0035   6
   2  -7   7 562.211 25.3973   3
  -2  -7  -7 580.055 23.7304   5
  -2   7  -7 578.983 25.3307   3
  -2   7  -7 568.482 24.9273   4
  -2   7  -7 598.440 26.5877   6
  -2   7  -7 569.701 25.0540   5
   2   7   7 591.125 24.7279   4
  -3  -7  -7 3.70334 1.81427   6
   3  -7   7 2.96338 2.53662   6
  -3  -7  -7 4.30716 1.64858   3
  -3  -7  -7 2.10474 1.25171   5
   3  -7   7 2.85356 1.78424   3
   3  -7   7 5.18823 1.74257   5
  -3  -7  -7 1.86329 1.46310   4
   3   7   7 1.76393 1.34069   4
  -3   7  -7 1.24155 2.15149   6
  -3   7  -7 2.02695 1.37387   5
  -3   7  -7 0.36515 1.28218   3
  -3   7  -7 2.48153 1.46639   4
  -4  -7  -7 159.418 12.1493   6
  -4  -7  -7 166.202 9.74232   5
   4  -7   7 185.285 10.3247   5
  -4   7  -7 148.506 11.8393   6
  -4   7  -7 169.983 10.4192   3
   4   7   7 169.283 10.6737   4
  -5  -7  -7 16.1613 4.14597   6
   5  -7   7 12.7547 4.44602   5
  -5   7  -7 16.0256 4.56224   6
   5   7   7 23.9388 4.26697   4
   5   7   7 14.2259 1.61823   5
  -6  -7  -7 25.4959 5.96016   6
   6  -7   7 31.2890 4.37718   5
   6  -7   7 34.6279 4.41031   4
   6   7   7 27.4469 2.97880   5
  -6   7  -7 23.9479 4.45656   3
   6   7   7 28.0037 2.62480   5
   6   7   7 32.4556 5.48050   4
  -6   7  -7 26.2406 5.97166   6
   7  -7   7 2.98050 2.70293   5
   7  -7   7 9.42066 3.11633   4
  -7   7  -7 -0.6153 2.47427   3
   7   7   7 4.39866 1.98226   5
  -7   7  -7 8.04689 4.36754   6
   7  -8  -7 2.14586 1.17116   4
  -7  -8   7 5.10772 3.20084   6
   7  -8  -7 3.72469 2.27109   5
   7   8  -7 -0.9857 2.56475   4
   7   8  -7 1.32946 2.35196   5
   6  -8  -7 17.0201 3.50417   5
  -6  -8   7 18.1532 4.46829   6
   6   8  -7 12.4731 3.40832   4
   6   8  -7 15.4263 3.44754   5
  -5  -8   7 202.181 13.0404   6
   5   8  -7 185.156 11.7462   5
   5   8  -7 188.857 12.7552   4
   4  -8  -7 166.723 11.7310   6
   4  -8  -7 167.657 9.74966   5
  -4  -8   7 181.129 11.3224   6
   4   8  -7 169.104 11.2310   3
   4   8  -7 168.633 11.3789   4
   4   8  -7 179.009 10.8231   5
   3  -8  -7 185.305 9.67278   5
   3  -8  -7 185.014 17.0329   6
  -3  -8   7 162.067 9.67840   5
  -3  -8   7 176.933 12.5758   3
   3   8  -7 187.085 10.5829   5
   3   8  -7 199.169 11.5370   3
  -2  -8   7 470.201 21.6301   3
   2  -8  -7 496.249 20.1279   5
   2  -8  -7 456.536 19.7461   5
  -2  -8   7 468.321 20.7161   5
   2  -8  -7 493.196 22.4377   6
   2  -8  -7 458.599 18.5774   3
   2   8  -7 473.767 22.2192   3
   2   8  -7 491.978 21.4003   5
   1  -8  -7 491.184 20.3487   5
  -1  -8   7 516.597 22.5568   3
  -1  -8   7 504.207 22.6070   6
   1  -8  -7 503.296 20.3029   3
  -1   8   7 506.368 18.8294   4
   1   8  -7 506.056 22.0191   5
   1   8  -7 499.106 22.9180   3
   1   8  -7 484.206 22.0324   5
   0  -8   7 281.898 15.4291   6
   0  -8  -7 302.997 13.7603   3
   0  -8  -7 323.637 14.0472   5
   0   8  -7 310.043 15.0748   5
   0   8   7 300.158 12.9335   4
   0   8  -7 323.179 14.8336   5
   0   8  -7 282.313 15.1159   3
   1  -8   7 572.187 27.0430   6
  -1  -8  -7 586.103 24.8830   3
  -1  -8  -7 592.198 23.8434   5
   1  -8   7 545.109 25.5554   3
  -1   8  -7 577.257 25.8239   3
  -1   8  -7 594.245 25.2885   4
  -1   8  -7 565.745 25.1232   5
   1   8   7 624.533 24.5254   4
  -1   8  -7 637.010 25.7804   5
   2  -8   7 45.4792 6.03119   6
  -2  -8  -7 59.2796 4.40335   5
   2  -8   7 56.2844 5.24725   3
  -2  -8  -7 61.2016 5.33818   3
   2  -8   7 56.6780 5.03190   5
  -2  -8  -7 56.3430 4.75421   4
  -2  -8  -7 49.2401 5.63177   6
   2   8   7 56.6871 4.77958   4
  -2   8  -7 61.9259 5.65030   3
  -2   8  -7 61.7100 5.22122   5
  -2   8  -7 48.6488 4.76511   4
  -2   8  -7 63.3508 5.36975   5
  -3  -8  -7 336.987 17.2638   3
  -3  -8  -7 339.073 15.8889   5
  -3  -8  -7 328.487 16.5318   4
  -3  -8  -7 338.551 18.9626   6
   3  -8   7 336.961 16.9347   3
   3  -8   7 337.427 16.5665   5
   3   8   7 330.285 16.7316   4
  -3   8  -7 340.073 18.6181   6
  -3   8  -7 340.102 17.0048   3
  -3   8  -7 347.628 16.8728   4
   4  -8   7 363.133 18.1638   5
  -4  -8  -7 373.418 21.3030   6
   4   8   7 400.863 19.2997   4
  -4   8  -7 381.968 18.7463   3
  -4   8  -7 341.955 20.4426   6
   5  -8   7 82.6237 6.87217   5
  -5  -8  -7 74.9788 8.84787   6
  -5   8  -7 76.7925 6.79800   3
   5   8   7 73.0799 7.30358   4
  -5   8  -7 71.2649 8.02383   6
   6  -8   7 5.26396 2.04230   4
   6  -8   7 2.20890 2.36963   5
  -6  -8  -7 2.63476 2.79945   6
  -6   8  -7 10.7438 4.16762   6
  -6   8  -7 0.75700 2.02643   3
   6   8   7 0.09381 1.74310   4
  -7  -8  -7 0.46629 2.59981   6
   7  -8   7 0.32139 2.41354   5
  -7   8  -7 0.01951 2.28288   3
  -7   8  -7 -2.6863 2.68763   6
   7   8   7 2.06629 2.24832   4
  -7  -9   7 69.8166 8.56411   6
   7   9  -7 63.3483 8.14785   4
   7   9  -7 62.3445 7.37405   5
  -6  -9   7 4.22796 2.60876   6
   6  -9  -7 7.59014 2.55710   5
   6   9  -7 6.40839 3.14495   4
   6   9  -7 4.58547 2.69298   5
   5  -9  -7 15.6803 3.39933   5
  -5  -9   7 21.1774 4.57976   6
   5   9  -7 18.1027 3.62414   5
   5   9  -7 24.2921 4.82500   4
   4  -9  -7 40.8042 4.33742   5
  -4  -9   7 38.3743 5.04103   6
   4   9  -7 43.7164 5.35946   3
   4   9  -7 41.4358 5.28005   4
   4   9  -7 40.6044 4.67996   5
   3  -9  -7 97.7685 6.57188   5
   3  -9  -7 101.766 8.65765   6
   3   9  -7 93.3906 8.00346   3
   3   9  -7 98.6938 7.35330   5
   2  -9  -7 22.4891 3.94449   6
   2  -9  -7 20.9205 2.86137   5
   2  -9  -7 19.8457 2.09110   3
  -2  -9   7 30.4086 3.60548   5
   2  -9  -7 23.6535 2.74278   5
   2   9  -7 30.2044 4.11414   3
   2   9  -7 17.1985 3.36641   5
   1  -9  -7 86.8319 5.46482   5
   1  -9  -7 93.7828 5.75449   5
  -1  -9   7 94.8118 7.27321   6
  -1  -9   7 89.8971 6.71137   3
   1  -9  -7 87.7821 5.36318   3
   1   9  -7 89.2924 6.50721   5
  -1   9   7 88.0048 4.11226   4
   1   9  -7 86.5209 6.47597   5
   1   9  -7 81.2923 7.04742   3
   0  -9  -7 191.367 9.43868   5
   0  -9  -7 181.152 9.81661   3
   0  -9   7 184.115 10.8616   3
   0  -9  -7 203.350 9.79715   5
   0   9  -7 192.056 10.7722   5
   0   9  -7 184.325 10.6907   5
   0   9  -7 195.925 11.5561   3
   0   9   7 196.001 9.10940   4
   1  -9   7 357.865 17.7425   3
   1  -9   7 361.231 19.3649   6
  -1  -9  -7 376.595 17.2551   3
  -1  -9  -7 381.366 16.3150   5
  -1   9  -7 364.778 17.5420   5
  -1   9  -7 369.846 19.3187   5
  -1   9  -7 370.040 17.4463   4
  -1   9  -7 370.772 18.3450   3
  -2  -9  -7 173.902 11.6097   6
   2  -9   7 164.140 10.3901   3
  -2  -9  -7 178.932 9.20602   5
  -2  -9  -7 183.915 10.3596   3
   2  -9   7 142.687 9.60192   5
  -2   9  -7 162.738 10.0328   5
   2   9   7 173.331 9.74105   4
  -2   9  -7 161.895 10.2554   3
  -2   9  -7 154.785 9.64920   4
  -3  -9  -7 1.15529 1.23690   5
  -3  -9  -7 -0.0962 1.11262   4
   3  -9   7 1.44259 1.51727   5
   3   9   7 1.96362 1.43565   4
  -3   9  -7 0.43191 1.66453   5
  -3   9  -7 2.15330 1.74743   3
  -4  -9  -7 59.7746 7.18930   6
   4  -9   7 60.7113 5.73360   5
  -4   9  -7 40.6379 5.94490   6
   4   9   7 57.3716 6.06697   4
  -5  -9  -7 16.3480 4.46536   6
   5  -9   7 18.8967 3.85730   5
  -5   9  -7 17.4213 5.31443   6
  -5   9  -7 33.2923 4.47883   3
   5   9   7 22.0646 4.57595   4
  -6  -9  -7 169.428 14.6381   6
   6  -9   7 159.519 10.7281   5
   6   9   7 150.162 11.4090   4
  -6   9  -7 162.048 11.0535   3
  -6   9  -7 132.099 12.5368   6
   7 -10  -7 -0.9399 1.87537   5
  -7 -10   7 -3.6355 2.51462   6
   7  10  -7 -3.6157 2.22309   4
   7  10  -7 1.51349 2.51355   5
   6 -10  -7 282.252 16.5802   5
  -6 -10   7 337.821 19.8903   6
   6  10  -7 302.643 18.9560   4
   5 -10  -7 61.4000 5.84428   5
   5  10  -7 42.8345 7.12116   4
   5  10  -7 68.0890 6.58323   5
  -4 -10   7 428.240 21.3703   6
   4  10  -7 385.189 20.7871   3
   4  10  -7 374.384 20.7640   4
   3 -10  -7 454.923 18.9623   3
   3 -10  -7 494.212 21.7412   5
   3  10  -7 489.409 25.0071   5
   3  10  -7 500.247 23.9769   3
   2 -10  -7 74.8250 5.58066   5
   2  10  -7 77.0276 7.22028   3
   2  10  -7 68.4249 6.22310   5
   1 -10  -7 791.891 32.3241   5
   1 -10  -7 816.966 32.6938   5
  -1 -10   7 801.629 35.0066   6
   1 -10  -7 813.989 32.0176   3
  -1  10   7 811.878 30.3189   4
   1  10  -7 780.252 34.8870   3
   0 -10  -7 87.7288 6.19661   3
   0 -10  -7 88.4765 5.95297   5
   0 -10   7 87.2387 8.10773   6
   0 -10  -7 102.925 6.49891   5
   0  10  -7 94.4019 7.77598   3
   0  10  -7 94.0110 7.02632   5
   0  10   7 103.162 5.72703   4
  -1 -10  -7 27.4149 3.13152   5
  -1 -10  -7 24.9536 3.75102   3
   1  10   7 25.4947 3.08403   4
  -1  10  -7 26.7145 3.79276   4
  -1  10  -7 27.4946 4.45475   3
  -1  10  -7 21.4575 3.79340   5
  -2 -10  -7 77.2407 6.77816   3
  -2 -10  -7 81.5935 6.80542   5
  -2  10  -7 80.8122 6.79330   5
   2  10   7 87.9482 6.44550   4
  -2  10  -7 85.5463 7.18608   3
  -3 -10  -7 62.1008 6.98547   6
   3 -10   7 58.7753 5.72870   5
  -3  10  -7 53.3709 5.71024   5
   3  10   7 57.6595 5.47692   4
  -3  10  -7 54.8257 6.14512   3
   4 -10   7 9.86467 2.85133   5
  -4 -10  -7 6.92042 2.84528   6
  -4  10  -7 6.51421 2.45499   5
   4  10   7 8.99278 2.77369   4
  -4  10  -7 7.62565 3.09370   3
  -5 -10  -7 61.4700 8.05091   6
   5 -10   7 41.9382 5.39637   5
  -5  10  -7 44.7709 7.87749   6
   5  10   7 45.0587 5.78287   4
  -5  10  -7 36.0267 5.13389   3
  -6 -10  -7 77.4639 9.74668   6
   6 -10   7 68.9091 6.99724   5
   6  10   7 74.5252 7.98939   4
  -6  10  -7 62.4448 7.32604   3
  -6  10  -7 55.8954 8.53913   6
   6 -11  -7 -1.7849 2.25904   5
  -6 -11   7 1.00168 2.91674   6
   6  11  -7 6.83527 3.40897   4
   6  11  -7 5.63315 3.14125   5
  -5 -11   7 37.8781 5.56932   6
   5 -11  -7 34.4914 4.96147   5
   5  11  -7 34.9739 5.55653   5
   5  11  -7 40.3375 5.74738   4
   4 -11  -7 28.0302 4.33756   5
   4  11  -7 29.8785 5.26197   3
   4  11  -7 33.8583 4.68473   5
   4  11  -7 30.1426 5.40633   4
   3 -11  -7 64.5948 4.08989   3
   3 -11  -7 81.0093 7.37207   5
   3  11  -7 65.8805 7.15679   3
   3  11  -7 71.9544 6.60580   5
   3  11  -7 69.1760 7.08088   4
   2 -11  -7 34.5804 3.84516   5
   2 -11  -7 36.2730 3.04869   3
   2  11  -7 28.0427 4.41560   5
   2  11  -7 31.8318 5.30839   3
   1 -11  -7 66.7900 4.96076   3
   1 -11  -7 68.9636 5.51001   5
   1  11  -7 68.4828 7.12840   5
  -1  11   7 64.3920 3.66315   4
   1  11  -7 77.2576 7.16916   3
   0 -11  -7 253.538 12.9020   5
   0 -11  -7 238.352 12.6366   3
   0  11  -7 248.942 13.9042   5
   0  11   7 250.540 11.6125   4
  -1 -11  -7 70.8479 5.99024   3
  -1 -11  -7 74.4800 5.59531   5
  -1  11  -7 69.8094 7.95838   3
   1  11   7 74.3145 5.53270   4
  -1  11  -7 68.8319 7.60198   5
  -2 -11  -7 239.004 15.3438   6
   2  11   7 245.244 12.9112   4
  -2  11  -7 222.288 14.0590   3
  -2  11  -7 231.189 13.1655   5
   3 -11   7 21.9175 3.92288   5
  -3 -11  -7 27.6816 5.30132   6
  -3  11  -7 23.3830 4.28611   5
  -3  11  -7 19.7799 4.21483   3
   3  11   7 27.0296 3.90122   4
  -4 -11  -7 3.38023 2.44609   6
   4 -11   7 4.62738 2.10962   5
  -4  11  -7 5.99427 2.43872   5
   4  11   7 6.38559 2.49180   4
  -4  11  -7 7.94290 3.04540   3
  -5 -11  -7 16.3757 4.37833   6
   5 -11   7 13.7093 3.48106   5
  -5  11  -7 15.4412 3.87250   5
  -5  11  -7 18.0184 4.19687   3
   5  11   7 12.1153 3.61753   4
   5 -12  -7 3.66323 2.49514   5
  -5 -12   7 3.78605 3.46630   6
   5  12  -7 5.25658 3.12319   5
   5  12  -7 2.71175 2.60622   4
  -4 -12   7 44.6454 5.93454   6
   4 -12  -7 42.7480 5.07730   5
   4  12  -7 43.2086 5.62481   5
   4  12  -7 37.1185 6.24188   3
   4  12  -7 40.7716 6.53660   4
   3 -12  -7 9.22866 2.08207   3
   3 -12  -7 10.3627 2.56803   5
   3  12  -7 10.9857 3.27880   3
   3  12  -7 6.60164 2.34267   5
   3  12  -7 12.9543 3.73061   4
   2 -12  -7 5.84279 1.54745   3
   2  12  -7 4.27692 2.44482   5
   2  12  -7 11.2971 3.25175   3
   1 -12  -7 11.7401 2.54665   5
   1 -12  -7 8.13107 2.26785   3
  -1  12   7 11.0312 1.46117   4
   1  12  -7 7.19781 2.34099   5
  -1  12   7 12.5828 1.59105   4
   1  12  -7 11.7583 3.54039   3
   0 -12  -7 1.61366 1.76999   3
   0 -12  -7 2.49004 1.40421   5
   0  12  -7 -1.0743 1.89062   3
   0  12   7 1.20017 1.24904   4
   0  12  -7 2.02679 1.99259   5
  -1  12  -7 74.3804 7.76326   3
   1  12   7 93.1419 6.38203   4
  -1  12  -7 79.5010 7.02687   5
  -2 -12  -7 3.76690 2.50865   6
  -2  12  -7 10.7738 3.08735   5
  -2  12  -7 4.27992 2.42232   3
   2  12   7 10.9057 2.63895   4
  -3 -12  -7 -0.4385 1.49550   6
   3  12   7 2.71400 1.98460   4
  -3  12  -7 4.99691 2.55060   5
  -3  12  -7 -0.8974 1.83035   3
  -4 -12  -7 50.3378 7.40880   6
   4 -12   7 46.8771 5.70716   5
  -4  12  -7 51.1529 6.45467   5
  -4  12  -7 42.7196 5.98427   3
   4  12   7 49.1606 6.02220   4
   5 -12   7 26.6005 4.96768   5
  -5 -12  -7 27.1663 6.13749   6
  -5  12  -7 17.7318 4.68567   5
   5  12   7 24.4118 5.08733   4
  -5  12  -7 35.1978 5.93793   3
  -5 -13   7 36.9886 6.60344   6
   5  13  -7 33.2016 7.00474   4
   5  13  -7 37.7835 5.96453   5
   4 -13  -7 4.23934 2.17393   5
  -4 -13   7 4.31144 2.33290   6
   4  13  -7 7.59361 3.50414   3
   4  13  -7 0.91579 2.42843   5
   4  13  -7 5.94592 3.54436   4
   3 -13  -7 8.80999 2.57540   5
   3 -13  -7 7.48774 1.85316   3
   3  13  -7 8.42591 2.95716   4
   3  13  -7 10.3728 3.14252   3
   3  13  -7 7.23697 3.01290   5
   2 -13  -7 22.4353 3.09602   3
   2 -13  -7 25.1130 3.77047   5
   2  13  -7 20.1548 4.05774   5
   2  13  -7 27.8860 4.87510   3
   1 -13  -7 63.2641 5.93247   5
   1 -13  -7 52.0858 5.80103   3
  -1  13   7 53.6882 3.54512   4
  -1  13   7 59.3590 3.47553   4
   1  13  -7 55.0217 6.69200   3
   0 -13  -7 425.019 19.7331   3
   0 -13  -7 447.963 20.7743   5
   0  13  -7 411.320 20.5171   5
   0  13  -7 385.359 21.4881   3
   1  13   7 25.1517 3.76826   4
  -1  13  -7 25.8591 4.40829   5
  -1  13  -7 20.2872 4.46005   3
  -2 -13  -7 179.829 13.8450   6
   2  13   7 200.234 11.3510   4
  -2  13  -7 160.818 11.8764   3
  -2  13  -7 163.671 11.1141   5
  -3  13  -7 3.31077 2.51486   5
   3  13   7 0.26058 1.79538   4
  -3  13  -7 1.82343 2.33297   3
  -4 -13  -7 338.116 21.9750   6
   4 -13   7 338.789 18.6809   5
  -4  13  -7 303.878 18.2184   3
   4  13   7 313.697 18.2863   4
  -4 -14   7 3.06553 2.09507   6
   4  14  -7 2.50858 2.55154   5
   4  14  -7 1.83729 2.49328   3
   4  14  -7 2.64463 2.36300   4
   3 -14  -7 84.6328 7.55396   5
   3  14  -7 63.6020 7.24910   5
   3  14  -7 71.0542 7.99513   4
   3  14  -7 60.6133 9.89869   3
   2 -14  -7 22.5879 4.02890   5
   2 -14  -7 13.4826 2.60745   3
   2  14  -7 19.2351 4.63789   3
   2  14  -7 16.5084 4.15660   5
   1 -14  -7 51.0749 5.08390   3
   1 -14  -7 53.8268 5.83795   5
  -1  14   7 47.6404 3.18471   4
   1  14  -7 43.7086 6.25165   3
  -1  14   7 41.3147 3.12753   4
   1  14  -7 46.7197 5.71865   5
   0  14   7 14.4456 2.61431   4
   0  14  -7 15.3852 3.67167   5
   0  14  -7 12.8713 4.16167   3
  -1  14  -7 3.47115 2.58092   3
  -1  14  -7 5.19901 2.65898   5
   1  14   7 2.44957 2.10956   4
  -2 -14  -7 26.5820 5.74027   6
   2  14   7 37.0659 4.80578   4
  -2  14  -7 31.6031 5.44954   5
  -2  14  -7 43.8836 6.74033   3
  -3 -14  -7 2.00547 2.23583   6
  -3  14  -7 0.60625 2.50639   5
   3  14   7 -0.9008 2.08744   4
  -3  14  -7 0.28712 2.39502   3
   3 -15  -7 21.1059 4.79009   5
   3  15  -7 11.1457 4.23868   3
   3  15  -7 17.4701 4.46738   5
   2 -15  -7 249.548 14.6881   5
   2  15  -7 233.021 16.3523   3
   2  15  -7 243.935 14.8047   5
   1 -15  -7 3.72284 2.18009   5
   1  15  -7 4.09480 3.26874   3
   1  15  -7 -3.4281 2.14005   5
  -1  15   7 -1.0797 0.99045   4
   0  15  -7 91.8911 9.18723   3
   0  15   7 95.9536 6.57164   4
   0  15  -7 93.5675 8.15529   5
   1  15   7 3.82186 2.09911   4
  -1  15  -7 1.64542 2.77771   3
  -1  15  -7 4.01393 2.66275   5
  -2 -15  -7 104.325 10.5479   6
  -2  15  -7 89.4536 8.24062   5
  -2  15  -7 101.617 9.68518   3
   8   0  -8 5.66371 2.28930   4
   8   0  -8 6.15641 2.62310   5
  -8   0   8 5.76872 3.08922   6
  -7   0   8 -0.4806 1.93840   6
  -7   0   8 3.81417 3.15199   3
   7   0  -8 -0.6172 1.55007   5
   7   0  -8 3.02352 2.14985   6
  -7   0   8 -2.2296 1.56238   5
   7   0  -8 0.64612 1.56922   4
  -6   0   8 673.829 28.1836   3
   6   0  -8 670.382 29.6414   6
  -6   0   8 662.811 27.4029   5
   6   0  -8 672.169 29.6932   4
   6   0  -8 695.582 29.9332   5
  -6   0   8 709.841 30.3309   6
  -5   0   8 10.1668 1.76324   5
   5   0  -8 11.9785 2.38838   6
   5   0  -8 16.2748 2.82221   5
   5   0  -8 20.1503 2.82361   4
  -5   0   8 13.6972 2.77218   6
  -5   0   8 9.81416 2.02797   3
  -4   0   8 256.128 10.5909   5
   4   0  -8 241.250 11.7022   6
   4   0  -8 253.235 12.5762   4
   4   0  -8 229.016 11.8753   5
  -4   0   8 275.848 11.5854   3
  -4   0   8 276.991 12.1098   6
   3   0  -8 2.54409 0.88879   3
   3   0  -8 0.54789 0.71796   5
  -3   0   8 -0.2330 0.49366   6
  -3   0   8 1.31520 0.73515   3
   3   0  -8 -0.1335 0.39446   4
   3   0  -8 0.42399 0.43229   6
   2   0  -8 990.985 37.5092   5
  -2   0   8 1025.25 37.9064   3
   2   0  -8 997.846 38.0746   3
   1   0  -8 117.893 4.89500   6
   1   0  -8 125.952 5.92420   3
  -1   0   8 117.671 5.76009   3
   0   0  -8 475.791 19.2242   6
   0   0  -8 481.105 19.2287   4
   0   0   8 461.391 18.8871   6
   0   0  -8 476.311 19.1724   3
   0   0   8 478.847 19.2650   3
  -1   0  -8 168.825 8.95412   6
  -1   0  -8 165.605 6.94889   5
  -1   0  -8 166.215 8.31045   3
   1   0   8 157.780 8.59170   6
  -1   0  -8 166.285 8.33210   4
   1   0   8 166.935 8.16540   4
  -2   0  -8 184.586 9.40301   3
  -2   0  -8 172.468 10.1967   6
  -2   0  -8 168.537 9.20085   4
   2   0   8 180.345 9.12363   4
  -2   0  -8 171.243 8.09579   5
   2   0   8 174.135 9.97583   6
  -3   0  -8 1.31234 1.09352   4
   3   0   8 -1.3288 1.04636   6
  -3   0  -8 0.95242 1.29357   6
  -3   0  -8 2.41307 1.14270   5
   3   0   8 -0.0186 0.84680   4
   3   0   8 -0.2661 0.42346   5
   4   0   8 370.486 17.5448   4
  -4   0  -8 371.983 16.9467   5
   4   0   8 342.555 19.0294   6
   4   0   8 364.518 15.2428   5
  -4   0  -8 360.435 18.0104   4
  -4   0  -8 365.620 19.7692   6
   5   0   8 38.6991 4.59635   4
  -5   0  -8 39.4260 5.74718   6
   5   0   8 33.6262 3.27716   5
  -6   0  -8 2.74524 2.53342   6
   6   0   8 2.82254 1.45331   5
   6   0   8 7.44563 2.54906   4
   7   0   8 34.1548 4.24515   5
   7   0   8 38.5193 5.40659   4
  -7   0  -8 36.6771 7.36497   6
  -7   0  -8 30.0998 5.02962   3
  -8   0  -8 30.7423 7.08742   6
   8   0   8 33.2377 5.83440   4
   8  -1  -8 5.10977 2.70177   4
   8  -1  -8 5.44135 2.55105   5
  -8  -1   8 3.10674 3.00276   6
  -8   1   8 13.5664 3.19974   3
   8   1  -8 0.74027 2.35406   5
   8   1  -8 2.75182 2.48023   4
  -8   1   8 9.60684 3.37474   6
   7  -1  -8 6.03188 2.46737   4
  -7  -1   8 10.7916 3.34984   6
   7  -1  -8 6.86572 2.22429   5
   7  -1  -8 10.9874 3.14083   6
  -7  -1   8 6.90325 2.51633   3
   7   1  -8 3.65317 2.24380   5
  -7   1   8 6.48312 2.19248   5
  -7   1   8 5.60691 2.59862   6
   7   1  -8 8.23104 2.47030   6
  -7   1   8 7.54656 2.45155   3
  -6  -1   8 1.02779 1.34332   3
   6  -1  -8 1.14611 1.27039   4
  -6  -1   8 -0.7883 1.21448   5
  -6  -1   8 -1.0276 1.83074   6
   6  -1  -8 1.61128 1.57378   5
   6  -1  -8 1.13581 1.87635   6
   6   1  -8 0.90562 1.45451   4
  -6   1   8 2.19917 1.54045   3
   6   1  -8 1.05987 1.50579   6
  -6   1   8 -0.0732 1.13458   5
   6   1  -8 -1.3202 1.00884   5
  -6   1   8 -0.2524 1.66709   6
  -5  -1   8 74.8558 5.69194   6
   5  -1  -8 63.7583 5.32383   5
   5  -1  -8 69.1133 5.29622   4
   5  -1  -8 59.8918 5.33879   6
  -5  -1   8 62.0645 4.35881   5
  -5  -1   8 68.6684 5.05224   3
   5   1  -8 69.3344 5.55050   5
   5   1  -8 58.9225 5.22289   4
  -5   1   8 65.4065 4.02340   5
  -5   1   8 68.2456 4.59323   3
  -5   1   8 75.4881 5.72999   6
   5   1  -8 63.8590 4.98783   6
  -4  -1   8 97.2386 5.80752   6
   4  -1  -8 87.4483 5.79684   6
   4  -1  -8 82.7471 5.53524   4
   4  -1  -8 84.5063 5.63723   5
  -4  -1   8 84.2217 5.38370   3
  -4   1   8 103.180 5.89410   6
   4   1  -8 78.4266 5.05906   6
   4   1  -8 85.8947 5.77983   5
   4   1  -8 98.3011 6.34204   4
  -4   1   8 92.0717 4.89430   3
  -4   1   8 92.6628 4.11767   5
   3  -1  -8 292.649 13.6321   5
   3  -1  -8 331.013 14.1252   4
   3  -1  -8 329.474 13.9077   6
  -3  -1   8 341.719 14.1469   3
  -3  -1   8 328.427 12.8937   5
  -3  -1   8 341.612 13.5128   6
   3   1  -8 335.505 14.2128   5
  -3   1   8 330.314 13.2230   3
   3   1  -8 321.057 14.1440   3
  -3   1   8 339.769 13.5321   6
   2  -1  -8 13.8904 1.37241   3
   2  -1  -8 10.4406 1.09416   6
  -2  -1   8 13.7813 1.61146   3
   2  -1  -8 12.4997 1.07393   5
   2   1  -8 13.5762 1.52189   5
   2   1  -8 9.80903 1.65287   3
  -2   1   8 11.9464 1.19300   3
   1  -1  -8 69.2101 3.52697   6
  -1  -1   8 71.1490 4.17433   3
   1  -1  -8 71.6686 3.80445   3
  -1  -1   8 69.2249 3.09255   6
   1  -1  -8 74.0478 3.92813   4
   1   1  -8 81.7489 4.45106   3
  -1   1   8 72.0268 3.82307   3
   0  -1  -8 15.0314 1.74188   4
   0  -1  -8 16.4583 1.83956   6
   0  -1   8 19.3333 1.95017   3
   0  -1   8 18.2525 1.86450   6
   0  -1  -8 16.9092 1.78870   3
   0   1  -8 15.1400 2.16234   4
   0   1  -8 17.3361 1.92492   3
   0   1   8 20.5560 1.88649   4
   0   1  -8 19.2769 1.94356   6
   0   1   8 19.5276 1.82359   6
   1  -1   8 225.621 11.2561   6
  -1  -1  -8 229.210 10.7340   3
   1  -1   8 233.800 10.7188   4
  -1  -1  -8 229.154 11.4589   6
  -1  -1  -8 227.145 10.8385   4
  -1   1  -8 240.360 9.80606   5
  -1   1  -8 215.490 10.6858   3
  -1   1  -8 226.507 10.7958   4
   1   1   8 227.078 10.9802   6
  -1   1  -8 232.746 11.4437   6
   1   1   8 239.881 10.6093   4
   2  -1   8 435.812 20.4720   6
   2  -1   8 463.415 19.3447   4
  -2  -1  -8 455.313 17.9975   5
  -2  -1  -8 434.374 19.4485   4
  -2  -1  -8 432.735 20.6555   6
  -2   1  -8 450.917 19.5047   3
  -2   1  -8 469.763 19.7307   4
   2   1   8 462.520 19.3454   4
  -2   1  -8 439.996 20.6616   6
   2   1   8 438.361 20.1448   6
  -2   1  -8 448.249 18.4356   5
  -3  -1  -8 7.38516 2.29874   6
  -3  -1  -8 4.32652 1.60253   4
  -3  -1  -8 7.13657 1.57882   5
   3  -1   8 4.06804 1.86164   6
   3  -1   8 6.74321 1.26048   5
   3  -1   8 8.93741 2.07914   4
   3   1   8 6.07785 0.67122   5
  -3   1  -8 8.74532 2.06903   4
   3   1   8 4.66489 1.50488   4
  -3   1  -8 4.63874 2.04651   6
  -3   1  -8 6.97083 1.59003   5
   3   1   8 4.87215 1.99399   6
  -3   1  -8 6.94424 1.85555   3
   4  -1   8 11.6807 3.29533   6
  -4  -1  -8 14.7910 2.57957   5
  -4  -1  -8 12.3614 2.76635   4
  -4  -1  -8 10.3757 3.17057   6
   4  -1   8 17.6009 2.09356   5
   4  -1   8 11.0006 2.45021   4
   4   1   8 14.4910 1.67036   5
   4   1   8 8.95064 2.97743   6
   4   1   8 15.3232 2.97458   4
  -4   1  -8 11.2342 2.47638   3
  -4   1  -8 10.0034 3.01416   6
  -4   1  -8 13.7524 2.44183   5
  -4   1  -8 11.0643 2.36267   4
   5  -1   8 99.3177 7.66433   4
  -5  -1  -8 101.650 7.66740   5
   5  -1   8 104.841 6.42936   5
  -5  -1  -8 106.010 9.75961   6
   5   1   8 113.814 7.01003   5
  -5   1  -8 108.293 9.60458   6
  -5   1  -8 107.879 8.19509   3
   5   1   8 99.4290 7.81967   4
  -6  -1  -8 13.8134 4.71506   6
   6  -1   8 16.9360 2.82021   5
   6  -1   8 15.2958 3.36089   4
  -6   1  -8 18.8036 3.64022   3
  -6   1  -8 12.7991 4.65050   6
   6   1   8 22.2816 4.16955   4
   6   1   8 18.1721 2.70436   5
   7  -1   8 2.52844 1.77399   5
   7  -1   8 1.20753 1.85640   4
  -7  -1  -8 0.02072 2.46538   6
   7   1   8 -0.1604 1.65408   5
  -7   1  -8 -4.7894 2.11764   6
   7   1   8 3.21430 2.09036   4
   8  -1   8 54.2209 5.58705   5
   8  -1   8 49.9325 6.39831   4
  -8  -1  -8 41.3056 8.74391   6
   8   1   8 51.7729 6.32386   4
  -8   1  -8 49.8502 9.33129   6
   8   1   8 46.5470 5.29865   5
  -8  -2   8 33.9402 5.88964   6
   8  -2  -8 40.9568 5.33405   5
   8  -2  -8 31.5183 4.88121   4
   8   2  -8 45.7327 6.05196   4
   8   2  -8 56.2896 6.64243   5
  -8   2   8 45.5804 5.07709   3
  -8   2   8 35.3055 9.36185   6
   7  -2  -8 39.8383 5.68618   6
   7  -2  -8 34.8085 4.70201   5
   7  -2  -8 28.3905 4.47117   4
  -7  -2   8 39.1624 5.57258   6
   7   2  -8 40.4520 5.09678   6
  -7   2   8 30.3872 4.19362   5
   7   2  -8 37.6240 4.95491   5
  -7   2   8 37.2175 4.01279   3
   7   2  -8 40.4544 5.08642   4
  -7   2   8 35.1261 5.43699   6
  -6  -2   8 268.337 12.6602   5
  -6  -2   8 266.070 14.5620   6
   6  -2  -8 270.844 14.1847   5
   6  -2  -8 239.810 14.3430   6
   6  -2  -8 242.059 13.2427   4
  -6   2   8 273.131 14.6615   6
   6   2  -8 263.385 13.6437   6
  -6   2   8 254.570 11.6081   5
  -6   2   8 259.349 12.0713   3
   6   2  -8 265.414 14.7211   4
   5  -2  -8 6.47167 1.71456   4
  -5  -2   8 4.06223 1.92589   6
   5  -2  -8 5.24505 1.98456   6
  -5  -2   8 5.26402 1.61027   5
   5  -2  -8 7.25083 1.94167   5
  -5  -2   8 6.83550 2.01314   3
   5   2  -8 7.21266 1.73079   6
   5   2  -8 10.4650 2.36287   5
  -5   2   8 8.42873 1.56167   3
  -5   2   8 7.11644 1.56713   5
   5   2  -8 6.70884 2.01305   4
  -4  -2   8 1035.74 40.1948   3
  -4  -2   8 1015.63 39.1312   5
   4  -2  -8 1002.92 40.0476   5
   4  -2  -8 1029.91 39.8168   4
  -4  -2   8 1038.58 40.2382   6
   4  -2  -8 1026.78 40.7110   6
   4   2  -8 999.103 41.0371   4
  -4   2   8 1065.72 40.2010   6
   4   2  -8 964.540 40.1529   3
   4   2  -8 996.879 40.4674   5
  -4   2   8 1065.93 38.4728   3
   3  -2  -8 381.317 16.1760   6
  -3  -2   8 378.020 15.1733   5
   3  -2  -8 346.217 15.4035   5
  -3  -2   8 403.780 16.4004   3
  -3  -2   8 388.764 15.5863   6
   3  -2  -8 347.184 15.4377   4
   3   2  -8 376.916 16.2429   5
   3   2  -8 386.364 16.4438   3
  -3   2   8 393.878 14.4872   3
   2  -2  -8 710.190 26.3096   6
   2  -2  -8 682.269 25.2805   3
  -2  -2   8 607.803 25.3343   6
   2  -2  -8 678.570 25.0548   5
  -2  -2   8 653.344 30.1978   3
  -2   2   8 702.108 25.2722   3
   2   2  -8 703.418 27.2119   3
   2   2  -8 681.899 26.4610   5
   1  -2  -8 165.519 7.14161   3
   1  -2  -8 168.867 7.28945   4
  -1  -2   8 169.645 8.27485   3
  -1  -2   8 169.417 7.25257   6
   1   2  -8 169.467 8.28024   3
   1   2  -8 163.083 7.47366   5
   0  -2   8 1498.64 56.4782   6
   0  -2  -8 1459.81 55.9339   3
   0  -2  -8 1430.19 56.3956   6
   0  -2   8 1476.61 56.4978   3
   0  -2  -8 1495.65 55.9346   4
   0   2  -8 1450.30 56.4809   4
   0   2  -8 1544.20 56.7126   3
   0   2   8 1543.18 55.8139   4
   0   2  -8 1546.26 56.3231   6
   1  -2   8 1000.27 39.7543   6
  -1  -2  -8 983.205 39.7560   6
   1  -2   8 1016.10 39.0023   4
   1  -2   8 988.937 39.1185   3
   1   2   8 1011.45 38.5884   4
  -1   2  -8 972.919 38.1166   5
  -1   2  -8 1000.47 39.1030   4
  -1   2  -8 1018.36 39.7621   6
   1   2   8 1002.68 39.4299   6
  -1   2  -8 1003.56 39.0972   3
   2  -2   8 404.745 18.7077   4
  -2  -2  -8 455.942 19.3051   4
  -2  -2  -8 438.620 17.5022   5
  -2  -2  -8 431.733 20.8048   6
   2  -2   8 440.597 20.4074   6
  -2   2  -8 461.952 19.3325   3
  -2   2  -8 399.407 18.1323   5
  -2   2  -8 467.962 19.4816   4
   2   2   8 449.552 19.8555   6
   2   2   8 438.397 19.1478   4
  -3  -2  -8 125.039 6.95965   5
   3  -2   8 125.438 9.04166   6
   3  -2   8 111.377 6.31436   5
  -3  -2  -8 128.654 9.17661   6
  -3  -2  -8 130.871 8.15394   4
   3  -2   8 139.146 7.95235   4
  -3   2  -8 132.491 9.38082   6
   3   2   8 119.881 7.72668   4
  -3   2  -8 136.635 8.21402   4
  -3   2  -8 136.610 8.08148   3
   3   2   8 125.120 8.57049   6
  -3   2  -8 120.901 7.24267   5
   4  -2   8 71.8487 7.49467   6
   4  -2   8 80.5810 6.03379   5
   4  -2   8 73.7321 6.04950   4
  -4  -2  -8 84.5665 5.79784   5
  -4  -2  -8 78.4595 7.69910   6
  -4  -2  -8 80.7964 6.55212   4
  -4   2  -8 74.8223 6.30358   4
   4   2   8 82.6996 7.04017   6
   4   2   8 73.4103 4.01608   5
  -4   2  -8 80.6741 6.48220   3
  -4   2  -8 79.6717 7.65222   6
   4   2   8 75.7863 6.16532   4
  -5  -2  -8 22.8819 4.79655   6
   5  -2   8 15.0568 3.20031   4
  -5  -2  -8 14.0393 2.73272   5
   5  -2   8 17.5834 2.53323   5
  -5   2  -8 12.8495 2.87616   3
   5   2   8 16.6227 3.33699   4
  -5   2  -8 16.9133 4.78797   6
   5   2   8 19.5196 2.18028   5
   6  -2   8 25.3224 4.35942   4
  -6  -2  -8 21.1606 5.18634   6
   6  -2   8 17.5488 2.91115   5
   6   2   8 19.2803 2.89423   5
   6   2   8 24.7316 4.46307   4
  -6   2  -8 14.0952 3.47554   3
  -6   2  -8 22.8155 5.15192   6
  -7  -2  -8 3.57719 3.17238   6
   7  -2   8 2.31960 1.80852   5
   7  -2   8 -0.7510 1.52823   4
   7   2   8 -0.5229 1.46859   5
  -7   2  -8 2.32086 1.62869   3
   7   2   8 -0.4148 1.37016   4
  -7   2  -8 -1.1770 2.87256   6
   8  -2   8 140.172 9.57068   5
  -8  -2  -8 151.937 15.2429   6
   8  -2   8 152.947 11.6478   4
   8   2   8 154.129 9.20424   5
   8   2   8 158.615 11.9851   4
  -8   2  -8 105.379 12.8058   6
   8  -3  -8 1.73221 2.45466   5
  -8  -3   8 1.18952 2.85250   6
   8   3  -8 2.00917 2.35346   4
   8   3  -8 -3.4517 1.73716   5
  -8   3   8 -0.5494 2.30435   5
  -8   3   8 -1.9858 2.03860   3
  -8   3   8 2.11478 2.51228   6
  -8   3   8 0.80616 1.53783   3
   7  -3  -8 24.8938 4.94067   6
   7  -3  -8 39.0242 4.91189   5
   7  -3  -8 31.4286 3.89760   4
  -7  -3   8 35.1589 5.37296   6
   7   3  -8 38.8198 4.82520   5
  -7   3   8 40.9118 5.40900   6
  -7   3   8 33.0020 3.33797   5
  -7   3   8 37.0141 4.08538   3
   7   3  -8 39.4784 5.77992   4
   6  -3  -8 163.298 10.1458   5
  -6  -3   8 170.969 10.0347   3
  -6  -3   8 162.075 10.5931   6
   6  -3  -8 167.977 11.1211   6
  -6  -3   8 153.461 8.96213   5
   6  -3  -8 159.515 9.20818   4
  -6   3   8 151.098 10.4090   6
   6   3  -8 157.215 10.3156   5
   6   3  -8 145.381 10.3403   4
  -6   3   8 158.721 7.61034   5
  -5  -3   8 100.494 7.40713   6
  -5  -3   8 100.182 6.11066   5
   5  -3  -8 100.656 6.84516   5
  -5  -3   8 96.4241 6.92831   3
   5  -3  -8 90.6474 5.99552   4
   5  -3  -8 94.3148 7.37461   6
   5   3  -8 96.9065 7.08744   5
   5   3  -8 97.8277 7.42217   4
  -5   3   8 104.914 7.16948   6
  -5   3   8 96.4303 5.02522   3
  -5   3   8 102.145 4.55873   5
  -4  -3   8 80.0168 5.44359   6
  -4  -3   8 78.8489 5.58407   3
   4  -3  -8 73.3953 5.10739   5
  -4  -3   8 82.9635 4.93649   5
   4  -3  -8 66.4640 4.49067   4
   4  -3  -8 71.7120 5.71700   6
   4   3  -8 71.4217 5.44247   5
  -4   3   8 82.5814 5.47518   6
  -4   3   8 78.3163 3.58492   3
   4   3  -8 82.2809 5.78158   3
   4   3  -8 77.8268 5.93425   4
  -3  -3   8 142.364 7.20992   5
   3  -3  -8 154.546 7.01858   4
  -3  -3   8 160.150 8.35849   3
   3  -3  -8 163.688 8.35903   6
   3  -3  -8 146.470 7.28763   5
  -3  -3   8 153.210 7.62810   6
   3   3  -8 155.895 8.68670   3
   3   3  -8 154.742 8.13038   5
   2  -3  -8 416.357 16.2370   5
  -2  -3   8 429.825 18.3421   3
   2  -3  -8 447.742 18.0404   6
   2   3  -8 450.237 18.0877   5
   2   3  -8 430.074 18.6474   3
   1  -3  -8 105.296 4.75756   3
  -1  -3   8 104.363 5.94777   3
   1  -3  -8 101.203 4.75520   4
  -1  -3   8 102.779 5.31536   6
   1   3  -8 110.030 5.63068   5
   1   3  -8 104.222 6.15072   3
   0  -3  -8 436.339 18.5815   6
   0  -3   8 441.405 18.6348   6
   0  -3   8 412.307 18.4613   3
   0  -3  -8 442.782 17.7739   4
   0   3  -8 441.991 18.7677   3
   0   3  -8 456.225 18.4026   6
   0   3   8 453.634 17.5994   4
   0   3  -8 451.263 18.7036   4
  -1  -3  -8 627.086 26.1531   6
  -1  -3  -8 610.568 25.1282   4
   1  -3   8 636.838 25.5617   3
   1  -3   8 541.949 27.4649   6
  -1   3  -8 584.908 25.2769   4
  -1   3  -8 632.748 25.8444   5
  -1   3  -8 637.452 25.6434   3
  -1   3  -8 660.006 26.2147   6
   1   3   8 639.877 24.8674   4
  -2  -3  -8 4.71458 1.48056   4
   2  -3   8 2.33914 1.13502   4
   2  -3   8 3.36220 1.61515   6
  -2  -3  -8 2.99026 0.85392   5
  -2  -3  -8 2.91096 1.41064   6
  -2   3  -8 1.42410 0.95431   4
  -2   3  -8 4.19496 1.76250   6
  -2   3  -8 5.60018 1.50048   3
   2   3   8 4.02309 1.36647   4
  -2   3  -8 4.12228 1.25301   5
   2   3   8 4.31738 1.58446   6
  -3  -3  -8 413.858 19.4248   4
   3  -3   8 389.122 20.6302   6
   3  -3   8 434.396 19.0434   4
  -3  -3  -8 425.615 18.0351   5
   3  -3   8 407.091 17.6942   5
  -3  -3  -8 428.712 21.2079   6
  -3   3  -8 418.184 20.9866   6
   3   3   8 433.319 20.3009   6
   3   3   8 424.871 19.2460   4
  -3   3  -8 421.843 19.5017   4
  -3   3  -8 442.055 19.4313   3
  -3   3  -8 421.902 18.7416   5
   4  -3   8 39.6903 5.74548   6
  -4  -3  -8 47.0411 4.19773   5
   4  -3   8 41.5066 3.77239   5
  -4  -3  -8 53.0324 6.08267   6
   4  -3   8 48.7519 4.63061   4
  -4  -3  -8 48.7856 5.01674   4
  -4   3  -8 48.6549 4.46449   5
  -4   3  -8 46.7335 4.79139   4
   4   3   8 49.3690 5.49744   6
   4   3   8 48.4494 4.96212   4
  -4   3  -8 42.7853 5.59380   6
   4   3   8 48.7868 2.50879   5
  -4   3  -8 39.8673 4.51263   3
  -5  -3  -8 21.2084 4.07980   5
  -5  -3  -8 19.7606 4.60563   6
   5  -3   8 21.0465 3.66412   4
   5  -3   8 22.5644 2.91038   5
   5   3   8 22.1566 2.23491   5
  -5   3  -8 15.7350 4.03983   6
  -5   3  -8 23.0623 3.95808   3
   5   3   8 22.7374 4.00432   4
  -6  -3  -8 6.63843 2.84311   6
   6  -3   8 4.95529 1.87102   5
   6  -3   8 3.52310 2.37174   4
   6   3   8 3.66288 1.74643   4
  -6   3  -8 3.85966 2.10043   3
  -6   3  -8 -0.6173 1.96728   6
   7  -3   8 5.04670 2.34514   4
  -7  -3  -8 10.4467 3.88918   6
   7   3   8 2.53387 1.93195   5
  -7   3  -8 9.48018 2.75752   3
  -7   3  -8 4.48939 3.57651   6
   7   3   8 5.92082 2.48761   4
   8  -3   8 31.0810 5.67414   4
  -8  -3  -8 37.9589 8.20360   6
   8  -3   8 30.4888 4.51500   5
  -8   3  -8 20.2632 6.19653   6
   8   3   8 34.8338 4.41928   5
   8   3   8 27.5945 5.41306   4
  -8  -4   8 10.1834 3.99986   6
   8  -4  -8 10.5186 3.47609   5
   8  -4  -8 11.1976 2.70970   4
  -8   4   8 8.93084 2.76383   3
  -8   4   8 14.5380 2.41751   3
  -8   4   8 14.0370 3.99613   6
   8   4  -8 14.9706 4.25505   4
   8   4  -8 10.2957 3.38109   5
  -7  -4   8 2.54356 2.01904   6
   7  -4  -8 -2.3476 1.43738   5
   7  -4  -8 -0.1420 1.12659   4
   7   4  -8 2.36789 1.95998   5
  -7   4   8 -2.3923 1.27802   5
  -7   4   8 -1.3829 0.96305   3
  -7   4   8 -2.6864 2.16129   6
  -7   4   8 0.41827 1.37676   3
   7   4  -8 0.35004 1.87355   4
   6  -4  -8 300.668 14.9542   4
  -6  -4   8 327.583 17.5245   6
   6  -4  -8 315.090 24.7921   6
   6   4  -8 301.604 16.8211   5
  -6   4   8 318.078 17.0746   6
  -6   4   8 373.852 15.5582   5
  -6   4   8 323.931 13.6924   3
  -6   4   8 333.917 13.6468   3
  -6   4   8 327.510 13.4283   5
   5  -4  -8 227.893 11.6501   5
   5  -4  -8 212.089 12.4667   6
  -5  -4   8 191.178 11.7039   6
  -5  -4   8 216.020 11.8672   3
   5  -4  -8 199.403 10.1319   4
  -5   4   8 224.343 11.9908   6
   5   4  -8 221.631 12.0920   5
   5   4  -8 213.357 12.6165   4
  -5   4   8 212.406 8.73887   3
  -5   4   8 220.712 8.87678   3
  -4  -4   8 731.586 32.4656   6
   4  -4  -8 819.932 33.6263   6
  -4  -4   8 835.244 33.0265   3
   4  -4  -8 809.028 32.1705   5
   4  -4  -8 756.141 30.7101   4
  -4  -4   8 795.693 31.6895   5
   4   4  -8 804.777 33.1625   3
   4   4  -8 801.400 32.9938   5
   4   4  -8 843.551 33.9703   4
  -3  -4   8 44.4645 3.41952   5
   3  -4  -8 45.6163 3.21453   5
  -3  -4   8 42.9802 3.49851   6
   3  -4  -8 45.1395 4.23117   6
  -3  -4   8 43.8715 3.87274   3
   3  -4  -8 40.9709 2.35591   4
   3   4  -8 39.2145 3.72720   5
   3   4  -8 39.8481 3.97032   3
   2  -4  -8 1448.22 52.5651   5
   2  -4  -8 1379.65 52.5751   5
   2  -4  -8 1460.93 54.7221   6
  -2  -4   8 1473.01 55.0156   3
   2   4  -8 1402.57 54.4601   5
   2   4  -8 1411.34 55.2584   3
  -1  -4   8 133.205 7.33435   3
   1  -4  -8 126.130 5.58404   4
  -1  -4   8 139.577 6.87810   6
   1   4  -8 127.581 7.78422   3
   1   4  -8 132.696 6.93580   5
   0  -4   8 69.1894 4.78076   3
   0  -4   8 69.6327 4.89537   6
   0  -4  -8 69.2609 3.98405   4
   0   4   8 67.5115 3.80098   4
   0   4  -8 73.3582 4.65870   5
   0   4  -8 73.0932 5.02757   3
   1  -4   8 239.770 12.5057   6
  -1  -4  -8 244.868 12.4576   6
  -1  -4  -8 249.576 9.27995   5
  -1  -4  -8 242.790 12.2784   4
   1  -4   8 242.147 11.8515   3
  -1   4  -8 250.568 12.4092   6
  -1   4  -8 243.341 11.9404   3
   1   4   8 248.162 11.1979   4
  -1   4  -8 237.664 11.3991   5
  -1   4  -8 251.297 11.8710   4
  -2  -4  -8 -0.0045 0.69391   4
  -2  -4  -8 1.07942 0.71646   5
   2  -4   8 2.23820 1.11676   3
   2  -4   8 -0.5138 1.07200   6
   2  -4   8 -0.0481 0.64725   5
  -2  -4  -8 1.91352 1.14269   6
   2  -4   8 -0.3095 0.61098   4
  -2   4  -8 -0.0549 1.08810   6
  -2   4  -8 1.30074 0.99164   5
   2   4   8 0.19425 0.64440   4
  -2   4  -8 1.83729 1.05796   4
  -2   4  -8 0.21643 0.78194   3
   3  -4   8 560.496 23.4764   5
   3  -4   8 563.666 24.4591   4
  -3  -4  -8 588.131 23.5798   5
   3  -4   8 557.136 26.6580   6
  -3  -4  -8 579.357 26.9547   6
  -3  -4  -8 570.292 25.0508   4
   3   4   8 611.810 26.1565   6
  -3   4  -8 564.180 24.7936   3
  -3   4  -8 564.850 25.0093   4
   3   4   8 581.849 24.8413   4
  -3   4  -8 512.586 24.0998   5
  -3   4  -8 577.521 26.7481   6
   4  -4   8 0.53140 1.26748   5
  -4  -4  -8 3.96770 1.99765   6
  -4  -4  -8 1.83859 1.29271   5
   4  -4   8 -0.4783 1.01628   4
   4  -4   8 3.39504 2.37104   6
  -4  -4  -8 1.86002 1.54780   4
   4   4   8 3.79906 1.96752   6
  -4   4  -8 -0.0901 1.05200   3
  -4   4  -8 3.29526 1.60676   5
  -4   4  -8 2.86984 2.21891   6
   4   4   8 1.57503 1.55300   4
  -4   4  -8 3.74429 1.67677   4
   5  -4   8 47.9978 4.47603   5
   5  -4   8 41.9439 4.72766   4
   5   4   8 45.3802 6.02428   4
  -5   4  -8 38.2673 10.0683   6
  -5   4  -8 56.4342 5.60732   3
   5   4   8 47.9266 3.07069   5
   6  -4   8 21.6720 3.95750   4
   6  -4   8 23.0070 3.28889   5
  -6  -4  -8 15.7840 4.55280   6
   6   4   8 16.4487 2.38609   5
   6   4   8 20.3125 4.27194   4
  -6   4  -8 21.5691 4.18381   3
  -6   4  -8 15.4409 4.85130   6
  -7  -4  -8 -4.8595 2.85578   6
   7  -4   8 1.57985 1.99084   5
   7  -4   8 4.18175 2.13365   4
  -7   4  -8 4.79451 3.60835   6
   7   4   8 -2.1911 1.92578   4
   7   4   8 0.18767 1.67677   5
  -7   4  -8 3.89771 2.25520   3
   8  -5  -8 10.9377 2.50839   4
  -8  -5   8 10.1357 4.17124   6
  -8   5   8 6.01464 2.11334   5
  -8   5   8 12.2296 3.98457   6
   8   5  -8 18.6892 4.32252   4
   7  -5  -8 48.8820 5.69113   5
  -7  -5   8 58.3731 6.95427   6
   7  -5  -8 48.7378 4.39173   4
  -7   5   8 53.8327 3.55524   5
  -7   5   8 46.5038 6.32875   6
   7   5  -8 48.1087 6.45461   4
   7   5  -8 46.6887 5.82064   5
  -7   5   8 51.2467 3.56451   3
   6  -5  -8 1.63945 1.04887   4
   6  -5  -8 -2.7133 2.26936   6
  -6  -5   8 3.59810 2.23222   6
   6  -5  -8 1.64744 1.47471   5
  -6   5   8 4.19960 2.09814   6
   6   5  -8 2.50231 2.07448   4
   6   5  -8 0.91230 1.81483   5
  -6   5   8 0.62453 0.70168   3
  -6   5   8 0.80140 0.88427   3
  -6   5   8 1.21767 0.69380   5
  -5  -5   8 59.5881 5.04583   5
  -5  -5   8 58.9561 5.85866   6
   5  -5  -8 61.7901 6.30110   6
   5  -5  -8 57.6104 5.24677   5
  -5  -5   8 71.2001 6.13082   3
   5  -5  -8 65.6614 4.17242   4
   5   5  -8 65.3088 5.84385   5
   5   5  -8 77.6484 6.76323   4
  -4  -5   8 17.3200 2.59620   5
   4  -5  -8 12.2225 2.88647   6
   4  -5  -8 14.4314 1.40832   4
  -4  -5   8 13.6730 2.60094   6
  -4  -5   8 13.6779 3.38677   3
   4  -5  -8 16.1293 2.56187   5
   4   5  -8 18.9736 3.35327   3
   4   5  -8 13.0005 2.70606   5
   4   5  -8 12.5832 2.90491   4
  -3  -5   8 123.407 6.84467   5
   3  -5  -8 126.218 8.02322   6
  -3  -5   8 126.217 7.80785   3
   3  -5  -8 117.988 6.51647   5
  -3  -5   8 138.178 7.49700   6
   3   5  -8 125.850 7.58180   5
   3   5  -8 115.794 7.73870   3
  -2  -5   8 133.434 7.65381   3
   2  -5  -8 125.818 5.80807   5
   2  -5  -8 127.201 5.92121   5
   2  -5  -8 129.653 7.59017   6
   2   5  -8 128.786 7.38527   5
   2   5  -8 137.372 8.14487   3
   1  -5  -8 233.354 9.74174   3
  -1  -5   8 237.135 11.2171   6
   1  -5  -8 232.337 9.10740   4
  -1  -5   8 230.242 11.4865   3
   1   5  -8 235.069 11.1835   5
   1   5  -8 248.583 12.0968   3
   0  -5   8 209.014 10.7590   3
   0  -5  -8 221.359 9.51481   4
   0  -5   8 205.407 10.9182   6
   0   5  -8 222.632 10.5037   5
   0   5  -8 189.555 10.3140   5
   0   5  -8 227.533 11.1914   3
   0   5   8 235.694 9.44671   4
  -1  -5  -8 149.358 6.24487   5
  -1  -5  -8 140.637 8.67672   6
  -1  -5  -8 147.008 6.23843   5
  -1  -5  -8 142.842 8.46863   4
   1  -5   8 135.752 8.71171   6
   1  -5   8 140.159 8.06419   3
  -1   5  -8 147.644 8.38046   3
  -1   5  -8 161.290 8.19372   5
  -1   5  -8 129.515 7.87397   4
   1   5   8 150.621 7.54620   4
  -1   5  -8 132.574 9.66657   6
  -2  -5  -8 171.348 8.09342   5
  -2  -5  -8 165.803 9.25623   4
   2  -5   8 160.014 10.4985   6
   2  -5   8 149.722 9.22717   3
   2  -5   8 167.790 8.93936   5
  -2  -5  -8 171.407 10.5769   6
   2   5   8 179.108 9.28915   4
  -2   5  -8 181.691 9.38893   5
  -2   5  -8 172.350 9.60577   3
  -2   5  -8 182.784 10.7676   6
  -2   5  -8 159.036 9.30365   4
  -3  -5  -8 166.783 8.96610   5
   3  -5   8 166.406 9.13708   5
   3  -5   8 167.874 9.66369   4
  -3  -5  -8 178.597 10.1963   4
  -3  -5  -8 177.216 11.6544   6
   3   5   8 180.357 10.1792   4
  -3   5  -8 181.022 11.6925   6
  -3   5  -8 172.988 10.0604   5
  -3   5  -8 173.051 10.1367   3
   4  -5   8 95.3305 6.83918   4
  -4  -5  -8 87.9817 6.24586   5
  -4  -5  -8 86.1313 7.07082   4
   4  -5   8 87.6459 6.30891   5
  -4  -5  -8 92.2787 8.53424   6
  -4   5  -8 85.1485 8.36857   6
   4   5   8 89.8635 7.07963   4
  -4   5  -8 87.3362 7.03513   4
  -4   5  -8 88.7426 6.98044   3
  -5  -5  -8 -3.3846 2.02041   6
   5  -5   8 1.34990 1.34539   5
   5  -5   8 1.55435 2.15696   4
   5   5   8 1.49959 0.71798   5
  -5   5  -8 0.64318 1.56770   3
   5   5   8 -0.1257 1.24868   4
  -5   5  -8 2.40642 2.12541   6
  -6  -5  -8 59.9684 7.96458   6
   6  -5   8 58.6717 5.75112   5
   6  -5   8 55.9362 5.89599   4
   6   5   8 62.0432 3.93617   5
   6   5   8 76.2427 7.22969   4
  -6   5  -8 52.3003 7.32728   6
  -6   5  -8 69.9231 6.80511   3
  -7  -5  -8 10.6538 4.42815   6
   7  -5   8 5.67360 2.62703   5
   7  -5   8 6.43567 2.58997   4
   7   5   8 10.4857 3.64336   4
  -7   5  -8 5.45662 2.55448   3
  -7   5  -8 8.38634 3.92454   6
   8  -6  -8 49.1381 6.58420   5
  -8  -6   8 57.5379 8.20550   6
   8  -6  -8 67.4404 5.36846   4
  -8   6   8 74.5726 8.32853   6
   8   6  -8 58.2146 7.09164   5
   8   6  -8 80.0300 9.92979   4
  -8   6   8 57.6673 4.15267   3
   7  -6  -8 22.5040 2.87849   4
   7  -6  -8 28.1720 4.62197   5
  -7  -6   8 16.8360 4.40460   6
   7   6  -8 25.3295 4.61546   5
  -7   6   8 20.8735 2.15343   3
  -7   6   8 20.7291 4.81240   6
  -7   6   8 25.4481 2.46362   3
   7   6  -8 17.1421 4.85567   4
   6  -6  -8 191.318 9.24209   4
   6  -6  -8 195.327 11.5787   5
  -6  -6   8 191.306 12.6494   6
   6   6  -8 179.447 12.6051   4
   6   6  -8 195.465 12.2646   5
   5  -6  -8 -0.8206 0.59516   4
   5  -6  -8 -0.4437 1.01461   5
  -5  -6   8 1.23037 1.57694   6
   5   6  -8 -0.6375 1.22435   4
   4  -6  -8 549.905 25.1661   6
  -4  -6   8 536.264 24.3430   3
  -4  -6   8 516.094 22.9154   5
   4  -6  -8 539.082 23.1350   5
  -4  -6   8 550.360 24.3279   6
   4   6  -8 548.452 24.7051   3
   4   6  -8 573.641 24.4214   5
   4   6  -8 528.060 24.9087   4
   3  -6  -8 28.1441 3.71203   6
  -3  -6   8 28.9412 3.31272   6
  -3  -6   8 29.9458 3.28339   5
   3  -6  -8 34.5737 3.02698   5
  -3  -6   8 39.7897 5.06648   3
   3   6  -8 34.0661 3.78858   5
   3   6  -8 36.6506 4.26448   3
   2  -6  -8 110.328 7.09830   6
  -2  -6   8 105.722 6.96575   3
  -2  -6   8 100.554 6.18772   5
   2  -6  -8 110.740 5.53045   5
   2  -6  -8 108.186 5.40379   5
   2   6  -8 115.909 6.99010   5
   2   6  -8 105.781 7.35109   3
   1  -6  -8 6.07147 1.11551   3
   1  -6  -8 5.38485 0.81175   5
  -1  -6   8 3.99451 1.48821   3
  -1  -6   8 4.49490 1.60402   6
   1  -6  -8 6.33693 0.82459   5
   1   6  -8 4.24537 1.72973   3
   1   6  -8 5.77535 1.71972   5
   0  -6   8 0.62297 1.06070   6
   0  -6  -8 1.65460 0.45101   5
   0  -6  -8 4.92206 1.17452   3
   0  -6  -8 2.15247 0.76471   4
   0  -6   8 0.58755 0.84753   3
   0   6  -8 1.96264 1.09193   5
   0   6   8 0.06404 0.52729   4
   0   6  -8 0.81811 1.16827   5
   0   6  -8 1.33710 1.03696   3
  -1  -6  -8 212.942 12.0863   6
   1  -6   8 217.354 12.3209   6
  -1  -6  -8 220.053 10.5998   4
  -1  -6  -8 231.954 9.68180   5
  -1  -6  -8 224.002 10.9886   3
   1  -6   8 216.088 11.4670   3
  -1  -6  -8 222.015 9.59046   5
  -1   6  -8 216.357 11.2343   5
  -1   6  -8 203.148 11.1335   4
  -1   6  -8 245.486 12.0078   3
  -1   6  -8 240.360 12.2387   6
   1   6   8 227.748 10.6332   4
   2  -6   8 575.376 29.0326   6
   2  -6   8 651.124 27.9694   3
  -2  -6  -8 654.268 29.4163   6
  -2  -6  -8 658.956 27.4608   4
   2  -6   8 698.303 27.4168   5
  -2   6  -8 638.350 27.9590   3
   2   6   8 674.781 27.5016   4
  -2   6  -8 635.777 27.6097   5
  -2   6  -8 684.320 28.0770   4
  -2   6  -8 692.224 29.4348   6
   3  -6   8 71.6154 7.30775   6
  -3  -6  -8 83.9664 6.32282   4
  -3  -6  -8 86.4319 5.53559   5
   3  -6   8 73.7832 5.62235   5
   3  -6   8 81.5032 6.28150   3
  -3  -6  -8 90.5701 7.81161   6
  -3   6  -8 68.2865 5.83335   5
  -3   6  -8 79.8541 6.29482   4
  -3   6  -8 85.3356 6.59216   3
  -3   6  -8 80.2151 7.45988   6
   3   6   8 76.4320 6.12192   4
   4  -6   8 41.4437 4.40587   5
   4  -6   8 41.4179 4.62352   4
  -4  -6  -8 50.9829 6.44865   6
   4   6   8 36.7950 4.83032   4
  -4   6  -8 40.5534 5.92246   6
  -4   6  -8 38.2796 4.56045   3
   5  -6   8 264.419 13.8259   5
  -5  -6  -8 266.393 17.6294   6
   5  -6   8 243.423 14.2635   4
  -5   6  -8 244.729 16.7214   6
  -5   6  -8 274.098 16.8247   3
   5   6   8 272.332 15.2483   4
  -6  -6  -8 16.4784 4.37761   6
   6  -6   8 26.3729 4.15316   5
   6  -6   8 23.9086 4.24328   4
   6   6   8 23.2305 4.57996   4
   6   6   8 15.6379 2.18866   5
  -6   6  -8 13.7972 5.06102   6
  -6   6  -8 24.7776 4.34242   3
   7  -6   8 90.6854 7.92080   5
   7  -6   8 104.821 9.00569   4
   7   6   8 95.3142 10.4983   4
   7   6   8 96.0989 5.26821   5
  -7   6  -8 100.731 8.97096   3
  -8  -7   8 18.9311 5.27456   6
   8  -7  -8 11.7407 3.52375   5
   8  -7  -8 16.4385 2.62972   4
   8   7  -8 21.6119 4.30622   5
   8   7  -8 22.4518 5.28931   4
   7  -7  -8 21.8196 2.76855   4
  -7  -7   8 29.5210 6.33784   6
   7  -7  -8 20.8204 4.06771   5
   7   7  -8 17.1556 4.33186   5
   7   7  -8 22.5450 4.94330   4
  -6  -7   8 60.0734 6.68465   6
   6  -7  -8 51.8793 3.53760   4
   6  -7  -8 54.8694 5.55222   5
   6   7  -8 50.1497 6.18500   4
   6   7  -8 57.0320 6.18743   5
   5  -7  -8 327.784 16.2452   5
   5  -7  -8 300.204 17.7681   6
  -5  -7   8 361.379 18.1365   6
   5   7  -8 314.161 17.8278   4
   5   7  -8 327.121 17.0927   5
  -4  -7   8 10.2262 2.60823   6
   4  -7  -8 13.2083 2.52151   5
  -4  -7   8 13.9333 2.64100   5
   4  -7  -8 14.9198 3.12672   6
   4   7  -8 8.95341 2.55550   5
   4   7  -8 12.0241 3.14248   4
   4   7  -8 9.94252 2.95115   3
   3  -7  -8 304.178 15.8991   6
  -3  -7   8 303.667 15.6783   5
   3  -7  -8 308.212 13.7789   5
  -3  -7   8 292.099 15.1546   3
   3   7  -8 314.333 15.1653   5
   3   7  -8 286.076 15.4244   3
   2  -7  -8 1.53292 0.87040   5
   2  -7  -8 2.33546 1.00647   5
   2  -7  -8 4.18995 1.80073   6
  -2  -7   8 3.06249 1.61958   3
  -2  -7   8 2.17284 1.29565   5
   2   7  -8 2.66488 1.78576   3
   2   7  -8 2.91815 1.65358   5
  -1  -7   8 98.0026 6.73794   6
   1  -7  -8 95.5638 4.95209   5
   1  -7  -8 98.8071 5.08361   5
  -1  -7   8 96.2036 6.69431   3
   1  -7  -8 98.4145 5.17710   3
   1   7  -8 96.8249 6.42012   5
   1   7  -8 101.581 7.21792   3
   1   7  -8 102.133 6.65481   5
   0  -7  -8 179.184 8.06272   5
   0  -7   8 176.274 10.0174   3
   0  -7   8 174.282 10.4807   6
   0  -7  -8 182.811 8.14524   5
   0  -7  -8 183.628 9.01937   3
   0   7  -8 187.455 10.5560   3
   0   7  -8 194.435 10.1501   5
   0   7   8 185.954 8.31901   4
   0   7  -8 177.895 9.76062   5
  -1  -7  -8 47.9086 3.34314   5
  -1  -7  -8 50.7372 3.81203   4
  -1  -7  -8 51.1636 3.46378   5
  -1  -7  -8 44.9232 4.77260   6
   1  -7   8 56.0979 5.59465   3
  -1  -7  -8 49.3651 4.13022   3
   1  -7   8 42.7039 4.86056   6
  -1   7  -8 50.9062 5.13884   5
  -1   7  -8 47.0337 4.39192   5
  -1   7  -8 46.4683 4.24415   4
  -1   7  -8 51.0794 4.78888   3
   1   7   8 46.1651 3.74035   4
  -2  -7  -8 51.2894 3.92734   5
   2  -7   8 47.7485 4.73014   3
  -2  -7  -8 50.1204 4.54989   3
  -2  -7  -8 48.0921 4.31684   4
  -2  -7  -8 42.2223 5.13552   6
  -2   7  -8 53.0531 4.76781   5
  -2   7  -8 50.9532 4.91855   3
  -2   7  -8 56.1904 5.59955   4
  -2   7  -8 49.4528 5.31281   6
   2   7   8 51.8988 4.61972   4
   3  -7   8 430.585 23.8432   6
  -3  -7  -8 478.334 23.6443   6
  -3  -7  -8 477.985 21.5686   3
  -3  -7  -8 475.715 20.1515   5
   3  -7   8 469.041 21.5532   3
  -3  -7  -8 447.046 22.9762   4
  -3   7  -8 433.937 21.1221   4
  -3   7  -8 463.147 21.4379   3
  -3   7  -8 437.257 22.7925   6
   3   7   8 451.889 21.1181   4
   4  -7   8 6.39488 2.12223   5
  -4  -7  -8 11.7775 4.07140   6
  -4  -7  -8 13.0322 2.42641   5
  -4   7  -8 11.0543 2.71983   3
   4   7   8 9.28057 2.91740   4
   5  -7   8 35.9375 5.67571   5
   5  -7   8 34.5326 4.64299   4
  -5  -7  -8 28.7660 5.81192   6
  -5   7  -8 32.8440 4.44287   3
  -5   7  -8 31.2341 6.35186   6
   5   7   8 35.0672 4.87604   4
   6  -7   8 15.5010 3.21140   4
   6  -7   8 7.84509 2.79182   5
  -6  -7  -8 4.19496 3.71787   6
  -6   7  -8 11.7550 2.99717   3
  -6   7  -8 16.7577 4.79087   6
   6   7   8 10.5581 3.35517   4
   7  -7   8 8.95200 2.87191   4
  -7  -7  -8 7.22382 3.87345   6
   7  -7   8 3.96926 2.34020   5
  -7   7  -8 7.93180 3.60072   6
   7   7   8 5.04390 2.80803   4
  -7   7  -8 12.9635 3.41189   3
   7  -8  -8 42.0555 3.81747   4
  -7  -8   8 44.4420 6.98007   6
   7  -8  -8 48.0048 5.80719   5
   7   8  -8 43.0223 7.19441   4
   7   8  -8 39.3555 6.16861   5
   6  -8  -8 31.9838 4.47219   5
  -6  -8   8 39.0032 5.59514   6
   6   8  -8 32.4404 4.87662   5
   6   8  -8 26.0716 5.36262   4
  -5  -8   8 260.759 14.9104   6
   5   8  -8 233.932 13.7546   5
   5   8  -8 225.222 14.1104   3
   5   8  -8 214.054 14.1329   4
   4  -8  -8 482.681 21.8836   5
   4  -8  -8 488.274 24.4901   6
  -4  -8   8 524.616 23.8274   6
   4   8  -8 488.821 23.7901   3
  -3  -8   8 7.48767 2.16507   5
   3  -8  -8 5.38452 1.60375   5
   3   8  -8 9.58819 2.48511   5
   3   8  -8 7.52288 2.30147   3
  -2  -8   8 888.537 38.0446   3
   2  -8  -8 961.130 36.2376   5
  -2  -8   8 921.015 37.1064   5
   2  -8  -8 904.368 35.8682   5
   2  -8  -8 941.441 34.5973   3
   2  -8  -8 972.765 38.9873   6
   2   8  -8 856.382 38.4104   3
   1  -8  -8 83.1239 4.97769   5
  -1  -8   8 72.0012 6.07316   3
   1  -8  -8 75.1747 4.65093   3
  -1  -8   8 79.8084 6.36858   6
   1   8  -8 80.4231 6.13861   5
   1   8  -8 78.4661 6.69572   3
   1   8  -8 86.6689 6.22983   5
   0  -8   8 151.981 9.32947   3
   0  -8  -8 163.463 7.93574   5
   0  -8  -8 166.589 8.47076   3
   0  -8  -8 163.097 7.94136   5
   0  -8   8 150.267 9.96154   6
   0   8  -8 166.331 9.49008   5
   0   8  -8 150.270 9.89512   3
   0   8   8 161.336 7.65339   4
   0   8  -8 166.332 9.45972   5
  -1  -8  -8 725.174 28.4345   5
  -1  -8  -8 765.335 28.8982   5
   1  -8   8 732.196 32.7500   6
   1  -8   8 681.484 30.2631   3
  -1  -8  -8 718.457 29.5978   3
  -1   8  -8 745.760 30.3354   5
  -1   8  -8 702.216 30.6966   3
  -1   8  -8 689.488 30.2548   5
  -1   8  -8 650.074 29.8127   4
   1   8   8 745.422 29.0929   4
   2  -8   8 24.7684 3.35224   3
  -2  -8  -8 19.9135 3.91799   6
   2  -8   8 20.3565 4.23652   6
  -2  -8  -8 26.4607 2.82641   5
  -2  -8  -8 27.8035 3.21541   4
  -2   8  -8 24.5387 3.72069   4
  -2   8  -8 28.2104 4.18759   5
  -2   8  -8 25.2997 3.99753   3
   2   8   8 30.7152 3.48217   4
  -3  -8  -8 895.605 40.1651   6
  -3  -8  -8 932.150 37.4655   4
  -3  -8  -8 916.095 36.3513   5
   3  -8   8 849.687 36.9396   5
   3   8   8 927.739 37.6072   4
  -3   8  -8 830.573 37.4063   3
  -3   8  -8 904.952 39.7016   6
  -4  -8  -8 0.77650 2.00796   6
   4  -8   8 1.28754 1.45132   5
  -4   8  -8 3.02057 2.32211   6
   4   8   8 1.06157 1.42946   4
   5  -8   8 73.5365 6.52817   5
  -5  -8  -8 73.1379 8.75913   6
  -5   8  -8 63.6240 8.12484   6
   5   8   8 77.3295 7.34278   4
  -5   8  -8 76.8727 7.04255   3
   6  -8   8 3.43536 1.98277   5
  -6  -8  -8 6.82563 3.36103   6
   6   8   8 8.77930 2.71253   4
  -6   8  -8 3.53543 3.80563   6
  -6   8  -8 2.94345 2.33905   3
   7  -8   8 13.8048 3.55406   4
  -7  -8  -8 17.3695 5.01444   6
   7  -8   8 10.7401 3.11054   5
  -7   8  -8 8.94566 4.29660   6
  -7   8  -8 18.4831 3.90690   3
   7   8   8 15.1483 3.58876   4
  -7  -9   8 4.59373 3.00135   6
   7   9  -8 4.02705 3.02467   4
   6  -9  -8 -0.2496 1.92885   5
   6   9  -8 -1.5510 1.70440   4
   6   9  -8 0.12700 1.97069   5
   5  -9  -8 126.076 9.01156   5
  -5  -9   8 165.458 11.3753   6
   5   9  -8 131.760 10.4049   3
   5   9  -8 141.581 10.1288   5
   5   9  -8 135.706 10.6646   4
   4  -9  -8 0.52331 1.32410   5
  -4  -9   8 1.23009 1.47163   6
   4   9  -8 -0.1859 1.87793   4
   4   9  -8 0.26811 1.91370   5
   4   9  -8 0.44398 1.50434   3
   3  -9  -8 571.492 23.8109   5
   3  -9  -8 532.140 26.2877   6
   3   9  -8 560.434 26.1641   3
   3   9  -8 542.543 24.9207   5
   2  -9  -8 147.691 8.21853   5
   2  -9  -8 159.239 10.4843   6
   2  -9  -8 156.870 8.41693   5
   2  -9  -8 152.694 7.13887   3
   2   9  -8 167.990 9.83801   5
   2   9  -8 158.926 10.5412   3
   1  -9  -8 229.921 11.2586   5
  -1  -9   8 250.443 13.6721   6
   1  -9  -8 254.747 11.6459   5
   1  -9  -8 252.332 11.3934   3
   1   9  -8 242.471 13.8844   3
   1   9  -8 247.922 13.0215   5
   0  -9  -8 158.149 8.14485   5
   0  -9  -8 148.775 7.83646   5
   0  -9  -8 154.955 8.45350   3
   0  -9   8 144.769 11.6020   6
   0  -9   8 156.138 9.88162   3
   0   9   8 151.339 7.48570   4
   0   9  -8 145.140 9.29229   5
   0   9  -8 162.175 10.1881   3
  -1  -9  -8 721.050 28.7621   5
   1  -9   8 653.662 31.9871   6
  -1  -9  -8 734.945 29.9229   3
  -1   9  -8 672.939 30.9076   3
  -1   9  -8 752.846 30.5838   5
  -1   9  -8 737.366 30.5224   4
  -2  -9  -8 3.23527 1.71237   6
  -2  -9  -8 7.32834 2.14939   3
  -2  -9  -8 4.77156 1.57530   5
   2   9   8 2.97524 1.69591   4
  -2   9  -8 7.03039 2.17461   4
  -2   9  -8 4.66289 2.26718   3
  -2   9  -8 4.03054 2.15191   5
  -3  -9  -8 68.1822 5.29662   5
   3  -9   8 60.5203 5.78497   5
  -3  -9  -8 63.6283 7.00140   6
  -3  -9  -8 66.4488 5.82724   4
  -3   9  -8 60.6426 5.86368   5
   3   9   8 63.7485 5.94885   4
  -3   9  -8 55.7006 6.00102   3
  -4  -9  -8 -2.3170 1.80163   6
   4  -9   8 1.49662 1.74847   5
  -4   9  -8 1.40045 1.44354   3
  -4   9  -8 2.32067 2.50400   6
   5  -9   8 1.32170 1.79074   5
  -5  -9  -8 -3.2142 1.73535   6
  -5   9  -8 0.65153 2.51477   6
  -5   9  -8 -0.1869 1.92226   3
   5   9   8 -0.6679 1.31182   4
   6  -9   8 24.6472 4.57043   5
   6   9   8 40.7993 5.60417   4
  -6   9  -8 38.4061 5.81604   3
  -6 -10   8 2.46334 2.97594   6
   6 -10  -8 2.90833 2.11237   5
   6  10  -8 1.95360 2.54915   5
   6  10  -8 3.85758 2.73184   4
   5 -10  -8 112.567 8.31070   5
  -5 -10   8 100.819 9.14970   6
   5  10  -8 103.575 9.61832   4
   5  10  -8 110.820 8.86826   5
   5  10  -8 108.335 9.31718   3
  -4 -10   8 50.6366 5.96744   6
   4  10  -8 58.2942 6.68678   3
   4  10  -8 61.9299 6.31171   5
   4  10  -8 47.7054 6.30245   4
   3 -10  -8 48.4285 4.60028   5
   3  10  -8 42.6442 6.44880   3
   3  10  -8 42.7899 5.22473   5
   2 -10  -8 452.653 20.6172   5
   2 -10  -8 488.647 21.0378   5
   2 -10  -8 477.749 19.3220   3
   2  10  -8 504.622 24.7546   5
   1 -10  -8 281.106 12.7379   3
   1 -10  -8 283.411 13.2483   5
  -1 -10   8 272.015 15.2196   6
   1 -10  -8 270.972 12.9785   5
  -1  10   8 282.897 10.7195   4
   1  10  -8 280.353 14.6108   5
   1  10  -8 262.853 15.2350   3
   0 -10  -8 666.502 27.1024   5
   0 -10   8 608.260 30.1459   6
   0 -10  -8 678.804 27.7271   3
   0 -10  -8 697.057 27.6379   5
   0  10  -8 608.679 29.4560   3
   0  10  -8 690.284 28.9918   5
   0  10   8 683.466 26.4305   4
  -1 -10  -8 476.194 20.2254   5
  -1 -10  -8 452.570 22.6843   3
   1  10   8 483.726 20.4375   4
  -1  10  -8 470.170 21.7216   5
  -1  10  -8 451.210 22.3983   3
  -2 -10  -8 39.2828 5.11708   6
  -2  10  -8 31.7754 5.17624   3
  -2  10  -8 30.7725 4.26688   5
   2  10   8 33.5713 3.98056   4
  -3 -10  -8 124.164 10.7625   6
   3 -10   8 106.247 8.28923   5
  -3  10  -8 117.256 9.04866   3
  -3  10  -8 126.171 8.92952   5
   3  10   8 128.230 8.73701   4
   4 -10   8 23.1311 4.09498   5
  -4 -10  -8 30.4908 5.88882   6
   4  10   8 21.2258 4.08044   4
  -4  10  -8 19.2694 4.11964   5
  -4  10  -8 21.7462 4.32788   3
   5 -10   8 43.7442 5.25584   5
  -5 -10  -8 29.7930 6.51440   6
  -5  10  -8 34.8865 5.72793   3
  -5  10  -8 35.6790 6.89525   6
   5  10   8 37.2272 5.12526   4
   6 -10   8 2.77573 2.30316   5
  -6 -10  -8 3.86990 2.93802   6
  -6  10  -8 6.17442 3.32329   3
  -6  10  -8 1.83100 4.34489   6
   6  10   8 2.76107 3.78578   4
  -6 -11   8 8.84009 3.62636   6
   6 -11  -8 7.52913 3.44148   5
   6  11  -8 2.92249 3.10052   5
   6  11  -8 -0.2765 3.17564   4
   5 -11  -8 146.174 10.3607   5
  -5 -11   8 159.299 11.8547   6
   5  11  -8 140.336 11.3663   3
   5  11  -8 136.786 11.4375   4
   4 -11  -8 33.5761 4.21994   5
  -4 -11   8 29.8431 6.00318   6
   4  11  -8 26.5463 5.18366   3
   4  11  -8 31.4106 5.06807   5
   4  11  -8 23.0129 4.98863   4
   3 -11  -8 222.492 12.6426   5
   3 -11  -8 225.445 9.67600   3
   3  11  -8 228.391 13.4271   5
   3  11  -8 238.830 14.5461   3
   2 -11  -8 4.99355 1.41820   3
   2 -11  -8 7.00602 1.99714   5
   2  11  -8 8.18544 2.46671   5
   2  11  -8 6.57397 2.81351   3
   1 -11  -8 44.2149 4.20794   3
   1 -11  -8 53.4021 4.63959   5
   1 -11  -8 44.8283 5.17102   5
  -1  11   8 50.7171 2.62195   4
   1  11  -8 47.3278 5.44397   5
  -1  11   8 56.8615 2.65711   4
   1  11  -8 50.4465 6.26352   3
   0 -11  -8 20.5030 2.91272   5
   0 -11  -8 16.5760 3.15570   3
   0 -11  -8 21.3248 3.02942   5
   0  11   8 15.5916 2.08232   4
   0  11  -8 17.4831 4.13943   3
   0  11  -8 13.4464 3.25705   5
  -1 -11  -8 1.62019 2.00870   3
  -1 -11  -8 1.99833 1.53410   5
   1  11   8 0.97358 1.19936   4
  -1  11  -8 -2.6550 1.67425   3
  -1  11  -8 -0.9369 1.80457   5
  -2 -11  -8 41.3989 5.68705   6
  -2 -11  -8 43.7561 4.47185   5
   2  11   8 40.3304 4.43187   4
  -2  11  -8 40.0116 5.17196   5
  -2  11  -8 41.4519 5.64430   3
  -3 -11  -8 5.63986 2.61518   6
  -3  11  -8 3.84542 2.72831   5
   3  11   8 11.3290 2.75989   4
  -3  11  -8 12.9832 3.35510   3
   4 -11   8 -1.9405 1.67054   5
  -4 -11  -8 -3.1423 2.12237   6
   4  11   8 -0.3190 1.72902   4
  -4  11  -8 -2.1058 1.96916   5
  -4  11  -8 2.06890 2.02847   3
   5  11   8 6.62150 2.43365   4
  -5  11  -8 -1.2237 2.36086   3
  -5  11  -8 -0.4676 2.51530   5
  -5 -12   8 -1.2055 2.50380   6
   5 -12  -8 3.04560 1.85202   5
   5  12  -8 3.27685 3.00105   4
   5  12  -8 -1.1656 2.36845   5
   4 -12  -8 5.44301 2.46919   5
  -4 -12   8 12.6837 3.35801   6
   4  12  -8 8.43547 3.32177   4
   4  12  -8 4.22820 2.71276   5
   4  12  -8 8.04093 3.06614   3
   3 -12  -8 23.8823 2.36370   3
   3 -12  -8 24.2163 3.55465   5
   3  12  -8 29.1467 5.26563   4
   3  12  -8 18.5863 4.02731   5
   3  12  -8 23.9639 4.88137   3
   2 -12  -8 5.01109 1.38689   3
   2  12  -8 6.11612 3.01463   3
   2  12  -8 3.23050 2.22171   5
   1 -12  -8 20.5682 2.91806   3
   1 -12  -8 18.9732 3.54562   5
   1 -12  -8 26.2357 3.65523   5
  -1  12   8 25.9081 1.70005   4
   1  12  -8 32.3046 4.37014   5
   1  12  -8 22.7976 4.69031   3
  -1  12   8 25.5920 1.73720   4
   0 -12  -8 2.75450 1.71507   5
   0 -12  -8 1.52857 1.70986   3
   0 -12  -8 0.84640 1.18883   5
   0  12   8 1.18340 1.00872   4
   0  12  -8 1.69250 2.63206   3
   0  12  -8 3.85813 2.12476   5
   1  12   8 13.6719 2.66324   4
  -1  12  -8 19.3365 4.23120   5
  -1  12  -8 18.1977 4.02359   3
  -2 -12  -8 6.74987 3.18052   6
   2  12   8 3.13994 1.95509   4
  -2  12  -8 3.34475 2.64762   5
  -2  12  -8 7.16092 3.45769   3
  -3 -12  -8 42.5405 6.60866   6
  -3  12  -8 36.1246 5.83242   3
  -3  12  -8 39.9011 5.26415   5
   3  12   8 45.4195 5.94570   4
  -4 -12  -8 -3.4992 2.50219   6
   4 -12   8 -2.6619 1.79708   5
  -4  12  -8 0.08878 1.98163   3
   4  12   8 1.62555 1.75451   4
  -4  12  -8 4.31275 2.59141   5
   5 -12   8 156.510 11.8970   5
  -5 -12  -8 177.665 15.0570   6
   5  12   8 169.141 12.2638   4
  -5  12  -8 136.163 11.2335   3
   5 -13  -8 64.5250 8.16634   5
  -5 -13   8 73.3704 8.56051   6
   5  13  -8 51.4555 7.70391   4
   4 -13  -8 3.77151 1.98009   5
  -4 -13   8 0.17134 2.38496   6
   4  13  -8 2.08585 2.37322   4
   4  13  -8 3.07881 2.44717   5
   3 -13  -8 64.9220 6.01036   5
   3  13  -8 51.7756 6.79862   4
   3  13  -8 48.7140 6.69113   3
   3  13  -8 58.0641 6.54209   5
   2 -13  -8 50.8527 4.39491   3
   2 -13  -8 59.0087 5.64131   5
   2  13  -8 63.6654 6.45743   5
   2  13  -8 57.3480 7.45984   3
   1 -13  -8 -1.5483 1.65382   5
   1 -13  -8 -0.1663 1.68938   3
   1  13  -8 -1.5766 1.76220   3
  -1  13   8 -0.0728 0.56954   4
  -1  13   8 -1.0283 0.51565   4
   1  13  -8 0.36589 1.54936   5
   0 -13  -8 13.8199 2.98043   5
   0  13  -8 20.6882 4.54783   3
   0  13   8 16.4816 2.46837   4
   0  13  -8 23.3315 4.29622   5
  -1  13  -8 15.4522 3.89479   3
   1  13   8 14.3414 2.80435   4
  -1  13  -8 13.5476 3.59275   5
  -2 -13  -8 2.56798 1.84208   6
  -2  13  -8 0.31549 2.20099   5
   2  13   8 1.22117 1.79265   4
  -2  13  -8 0.87632 2.61178   3
  -3 -13  -8 16.4514 4.46809   6
  -3  13  -8 28.5436 5.25658   3
   3  13   8 29.8794 4.61026   4
  -3  13  -8 27.1603 5.01861   5
  -4 -13  -8 5.79503 3.85201   6
   4  13   8 14.7866 3.69462   4
  -4  13  -8 0.28022 3.41039   3
  -4  13  -8 5.24784 3.44064   5
  -4 -14   8 -0.5997 2.53224   6
   4  14  -8 1.94996 3.14891   3
   4  14  -8 4.05306 2.74215   4
   4  14  -8 1.16550 2.84217   5
   3 -14  -8 35.1663 5.12094   5
   3  14  -8 34.3946 6.24317   4
   3  14  -8 19.9271 4.43464   5
   2 -14  -8 -2.5139 1.54195   3
   2 -14  -8 -0.0634 1.71132   5
   2  14  -8 0.96992 2.60303   3
   2  14  -8 -3.5796 2.09585   5
   1 -14  -8 1.92485 2.00716   5
   1 -14  -8 -2.1155 1.85644   3
   1  14  -8 -1.7735 2.52435   3
   1  14  -8 0.60750 1.71203   5
   0  14  -8 6.99163 2.67385   5
   0  14  -8 4.75422 2.89811   3
  -1  14  -8 87.1290 8.99124   3
  -1  14  -8 79.5630 7.72075   5
   1  14   8 92.3710 6.59711   4
  -2 -14  -8 74.2271 9.76534   6
  -2  14  -8 54.7738 7.09505   3
   2  14   8 56.4841 6.01249   4
  -3 -14  -8 203.519 16.0899   6
  -3  14  -8 171.667 13.0773   3
  -3  14  -8 176.371 12.5099   5
   3  14   8 195.476 12.2972   4
   2 -15  -8 0.85946 1.92409   5
   2  15  -8 2.99838 2.72439   5
   2  15  -8 -1.8231 2.41411   4
   2  15  -8 1.32878 3.25097   3
   1 -15  -8 246.882 14.6375   5
   1  15  -8 228.220 14.3257   5
   0  15  -8 44.9302 6.05890   5
   0  15  -8 35.9209 6.91487   3
  -1  15  -8 72.6043 8.50730   3
  -1  15  -8 86.9117 8.04853   5
   1  15   8 78.6860 6.41039   4
   8   0  -9 3.91643 2.40185   5
   8   0  -9 1.36069 1.56437   4
  -8   0   9 -1.5480 2.31247   6
   7   0  -9 -0.5495 1.46798   4
   7   0  -9 -0.4490 1.50198   5
  -7   0   9 -1.0941 2.37232   6
  -7   0   9 -1.2652 1.86944   3
   7   0  -9 -3.6116 3.43788   6
   6   0  -9 0.63790 1.42205   5
  -6   0   9 0.08395 2.03763   6
  -6   0   9 -1.5412 1.02703   5
   6   0  -9 1.51306 1.50010   4
   6   0  -9 0.79766 1.23568   6
  -6   0   9 -0.7830 1.45929   3
  -5   0   9 0.90284 1.11060   3
   5   0  -9 1.51314 1.33110   5
   5   0  -9 0.90307 1.20377   4
  -5   0   9 -1.3254 1.05632   6
   4   0  -9 0.50996 0.69798   4
  -4   0   9 0.26114 0.43444   5
   4   0  -9 1.86562 0.86602   6
  -4   0   9 2.25762 1.03777   3
   4   0  -9 0.90409 0.93480   5
   3   0  -9 0.07294 0.33005   6
  -3   0   9 0.72838 0.40041   6
  -3   0   9 1.13937 0.55976   3
   3   0  -9 -1.0069 0.50235   3
   3   0  -9 0.38686 0.57485   5
   2   0  -9 0.06431 0.43570   5
   2   0  -9 0.08341 0.59866   3
  -2   0   9 0.52491 0.47050   3
   1   0  -9 -0.7264 0.38316   3
   1   0  -9 0.38454 0.30218   6
  -1   0   9 -0.1463 0.40124   3
   0   0  -9 -0.3213 0.44609   6
   0   0  -9 -0.3163 0.46035   3
   0   0   9 -0.3957 0.36851   3
   0   0   9 0.25606 0.46011   6
  -1   0  -9 -0.2533 0.63959   6
  -1   0  -9 0.27776 0.33007   5
  -1   0  -9 0.95655 0.67975   3
   1   0   9 0.58957 0.68117   4
   1   0   9 0.18103 0.54107   6
  -1   0  -9 0.27842 0.58775   4
  -2   0  -9 -0.1859 0.57239   4
   2   0   9 0.97642 0.89373   4
  -2   0  -9 0.91523 0.60089   5
   2   0   9 -0.0263 1.16208   6
  -2   0  -9 -0.5681 0.67275   3
  -3   0  -9 -1.6095 1.17055   6
  -3   0  -9 0.15705 0.78179   3
   3   0   9 -0.8316 1.34250   6
  -3   0  -9 1.50109 0.92285   5
   3   0   9 -0.5719 0.84391   4
  -3   0  -9 -1.0883 0.87918   4
  -4   0  -9 0.32731 1.13790   4
   4   0   9 0.05150 0.67141   5
  -4   0  -9 -2.4344 1.12167   6
   4   0   9 -1.5934 1.55101   6
  -4   0  -9 -1.9536 0.87197   5
  -4   0  -9 0.79106 0.93369   3
   5   0   9 -1.2893 0.82344   4
  -5   0  -9 -0.2585 0.89786   3
  -5   0  -9 -4.4238 2.13407   6
   5   0   9 0.87697 1.12553   5
  -6   0  -9 -0.4210 2.45320   6
   6   0   9 1.00312 1.26443   5
  -6   0  -9 0.06204 1.51046   3
   6   0   9 -1.3519 1.39850   4
   7   0   9 0.25998 1.93672   4
  -7   0  -9 1.24377 1.57250   3
   7   0   9 1.52947 1.86941   5
  -7   0  -9 -3.7276 2.83536   6
   8   0   9 -0.7951 1.88709   4
   8   0   9 0.02291 2.37189   5
  -8   0  -9 3.20060 3.92408   6
  -8   0  -9 -1.6236 1.56902   3
  -8  -1   9 2.10774 2.62011   6
   8  -1  -9 -3.0967 1.96627   5
   8  -1  -9 2.39861 1.73738   4
   8   1  -9 1.31654 2.34469   5
  -8   1   9 -1.2634 3.02291   6
  -8   1   9 0.70553 2.69769   3
  -8   1   9 5.42584 2.50605   5
   8   1  -9 -3.4805 1.90947   4
  -7  -1   9 3.47408 3.32753   6
  -7  -1   9 10.6190 2.75113   3
   7  -1  -9 13.4231 3.38620   6
  -7  -1   9 9.51038 2.24187   5
   7  -1  -9 9.88621 2.69736   4
   7  -1  -9 8.64330 2.94094   5
   7   1  -9 12.3680 4.74778   4
  -7   1   9 12.8212 3.41051   6
   7   1  -9 7.08271 2.72273   5
  -7   1   9 11.0136 2.16645   5
   7   1  -9 6.46021 2.81965   6
  -7   1   9 18.4271 2.88772   3
  -6  -1   9 -1.6640 1.20870   6
   6  -1  -9 -0.0385 1.48178   6
  -6  -1   9 -1.1829 1.28298   5
   6  -1  -9 0.99071 1.42545   5
   6  -1  -9 -1.9587 1.13993   4
  -6  -1   9 0.42721 1.43769   3
  -6   1   9 1.96284 1.50552   6
  -6   1   9 0.62665 1.20245   5
  -6   1   9 4.02791 1.53664   3
   6   1  -9 0.17642 1.57314   4
   6   1  -9 0.29153 1.33563   6
   5  -1  -9 24.8719 3.28560   4
  -5  -1   9 24.6528 2.63997   5
   5  -1  -9 29.0983 3.47091   6
  -5  -1   9 31.5570 3.62218   6
   5  -1  -9 30.7657 3.45865   5
  -5  -1   9 27.1752 3.16842   3
  -5   1   9 30.7089 4.68608   3
   5   1  -9 25.8445 2.92934   6
  -5   1   9 28.4849 2.08487   5
   5   1  -9 25.8014 3.39735   5
   5   1  -9 33.7419 3.84785   4
  -5   1   9 34.6449 3.62933   6
  -4  -1   9 8.83770 1.77826   3
  -4  -1   9 3.18868 0.94152   5
   4  -1  -9 6.35142 1.44862   6
   4  -1  -9 5.66862 1.61532   4
   4  -1  -9 5.39562 1.39312   5
  -4  -1   9 3.85418 1.32475   6
   4   1  -9 3.45040 1.28468   5
   4   1  -9 4.89250 1.66707   4
   4   1  -9 5.74945 1.18153   6
   4   1  -9 6.41710 1.50893   3
  -4   1   9 6.99478 1.56362   6
  -4   1   9 5.62584 1.23582   3
  -3  -1   9 187.761 7.57240   6
   3  -1  -9 171.402 7.92778   3
  -3  -1   9 189.741 9.74280   3
   3  -1  -9 185.695 8.22005   6
   3  -1  -9 185.182 8.81555   4
   3  -1  -9 185.550 8.38147   5
  -3   1   9 191.841 7.94845   3
   3   1  -9 180.666 8.73472   5
   3   1  -9 159.319 8.62593   3
   2  -1  -9 19.3965 1.74748   3
   2  -1  -9 21.8075 1.43537   6
   2  -1  -9 20.4447 1.36132   5
  -2  -1   9 21.2041 2.03829   3
   2   1  -9 26.0587 2.46708   3
   2   1  -9 17.4849 1.80091   5
  -2   1   9 21.7479 1.72161   3
   1  -1  -9 911.675 34.7769   6
   1  -1  -9 937.113 35.1428   3
   1  -1  -9 965.104 35.3519   4
  -1  -1   9 857.228 34.0852   6
  -1  -1   9 924.304 35.6093   3
  -1   1   9 948.013 35.2267   3
   1   1  -9 937.560 35.8327   3
   0  -1  -9 1457.43 54.5029   3
   0  -1   9 1467.65 54.5924   6
   0  -1  -9 1454.32 54.5311   4
   0  -1   9 1456.76 54.8624   3
   0  -1  -9 1417.56 54.8075   6
   0   1  -9 1460.65 54.8770   3
   0   1  -9 1409.37 54.7752   4
   0   1  -9 1437.83 54.5902   6
   1  -1   9 264.813 12.7176   6
  -1  -1  -9 269.945 12.1971   4
  -1  -1  -9 273.471 12.2277   3
   1  -1   9 240.384 12.8293   4
  -1  -1  -9 262.755 12.8833   6
  -1   1  -9 246.939 12.1005   4
   1   1   9 263.985 11.9237   4
  -1   1  -9 265.920 12.4541   3
  -1   1  -9 270.030 11.0437   5
   1   1   9 255.493 12.3367   6
  -1   1  -9 262.554 12.8135   6
   2  -1   9 1445.84 56.3364   6
  -2  -1  -9 1411.85 56.5689   6
  -2  -1  -9 1418.13 55.1072   4
   2  -1   9 1297.51 54.4661   4
  -2  -1  -9 1440.06 53.1705   5
   2   1   9 1456.00 54.7724   4
  -2   1  -9 1397.79 58.7108   6
  -2   1  -9 1419.14 55.1599   4
   2   1   9 1434.79 55.8386   6
  -2   1  -9 1455.72 55.1198   3
  -3  -1  -9 230.612 12.2022   4
   3  -1   9 217.943 9.45509   5
  -3  -1  -9 215.394 10.6602   5
  -3  -1  -9 233.052 13.5755   6
   3  -1   9 223.730 13.2383   6
   3  -1   9 223.222 11.6770   4
   3   1   9 223.126 12.8698   6
  -3   1  -9 216.654 10.9719   5
  -3   1  -9 243.609 12.2667   3
   3   1   9 221.959 11.6640   4
  -3   1  -9 237.325 13.7543   6
  -3   1  -9 213.112 11.9565   4
  -4  -1  -9 244.022 12.3868   5
   4  -1   9 247.333 13.0930   4
   4  -1   9 245.022 10.9281   5
   4  -1   9 240.996 14.8575   6
  -4  -1  -9 246.962 13.6010   4
  -4  -1  -9 240.674 15.1344   6
  -4   1  -9 238.156 13.4820   4
   4   1   9 235.552 9.98234   5
  -4   1  -9 248.689 12.7787   5
  -4   1  -9 240.159 13.2780   3
   4   1   9 236.290 13.0374   4
   4   1   9 242.078 14.5141   6
  -4   1  -9 249.138 15.1901   6
  -5  -1  -9 200.359 14.4423   6
   5  -1   9 211.383 12.2009   4
   5  -1   9 186.948 9.80191   5
   5   1   9 192.408 12.2984   4
  -5   1  -9 203.347 12.3214   3
   5   1   9 206.141 9.38480   5
  -5   1  -9 207.018 14.5058   6
  -6  -1  -9 -0.4654 2.38948   6
   6  -1   9 2.87807 1.83512   4
   6  -1   9 2.46721 1.51194   5
   6   1   9 4.31698 1.46539   5
  -6   1  -9 2.38119 1.98248   3
   6   1   9 3.58168 1.93087   4
  -6   1  -9 4.12864 2.79903   6
   7  -1   9 44.5962 4.54851   5
   7  -1   9 46.4589 5.83350   4
  -7  -1  -9 43.3057 8.34399   6
  -7   1  -9 28.5146 7.09787   6
  -7   1  -9 53.0089 6.26834   3
   7   1   9 38.2392 3.93934   5
   7   1   9 40.2838 5.36743   4
   8  -1   9 34.0646 5.97801   4
  -8  -1  -9 22.1668 6.18123   6
  -8  -1  -9 26.3037 5.38556   3
   8   1   9 24.6733 5.28755   4
  -8   1  -9 30.8055 5.31138   3
   8   1   9 34.3618 4.47082   5
  -8   1  -9 24.4387 6.55276   6
   8  -2  -9 31.5245 4.34246   4
   8  -2  -9 26.7865 4.72047   5
  -8  -2   9 27.3796 5.07811   6
   8   2  -9 29.5161 5.29731   4
   8   2  -9 24.0554 4.76475   5
  -8   2   9 16.3739 4.96511   3
  -8   2   9 20.0757 4.74226   6
   7  -2  -9 14.0490 3.15955   5
   7  -2  -9 12.1295 2.83098   4
   7  -2  -9 16.8662 3.74261   6
  -7  -2   9 10.2014 3.62052   6
   7   2  -9 10.7266 3.10800   4
  -7   2   9 12.7858 2.60014   3
  -7   2   9 8.08329 3.04313   6
  -7   2   9 10.6011 2.00130   5
   7   2  -9 9.67921 2.76075   5
  -6  -2   9 51.2900 5.61257   6
  -6  -2   9 55.3774 4.90591   5
   6  -2  -9 52.5960 5.46353   6
   6  -2  -9 54.8661 4.90027   4
  -6  -2   9 50.6353 8.58994   3
   6  -2  -9 55.6724 5.31290   5
   6   2  -9 57.0772 5.86229   4
  -6   2   9 48.3925 5.43818   6
  -6   2   9 52.8521 4.13883   3
   6   2  -9 52.5663 6.20996   5
   6   2  -9 55.8930 4.98984   6
   5  -2  -9 -1.3500 0.74661   5
   5  -2  -9 -0.1536 0.85915   4
  -5  -2   9 3.23845 1.38002   3
   5  -2  -9 1.42115 1.59655   6
  -5  -2   9 0.39925 1.20283   6
  -5  -2   9 0.39888 1.09985   5
  -5   2   9 3.00183 1.51450   6
   5   2  -9 1.66147 1.23163   5
  -5   2   9 0.94494 0.87712   3
   5   2  -9 2.61084 1.41255   4
   4  -2  -9 63.3496 4.54120   5
  -4  -2   9 59.5704 3.79158   5
   4  -2  -9 65.1944 4.87395   6
   4  -2  -9 53.9321 4.18439   4
  -4  -2   9 62.7078 4.41268   6
  -4  -2   9 69.3451 4.85195   3
   4   2  -9 60.1726 4.73028   3
   4   2  -9 57.2976 4.72439   5
   4   2  -9 61.5498 5.05975   4
  -4   2   9 65.5632 3.44482   3
  -4   2   9 68.8454 4.43654   6
   3  -2  -9 10.5313 1.66034   6
   3  -2  -9 9.37939 1.43467   5
  -3  -2   9 8.30597 1.26850   6
  -3  -2   9 9.78910 1.82099   3
   3  -2  -9 9.88344 1.54396   4
  -3   2   9 8.78772 0.95417   3
   3   2  -9 10.4066 2.02115   3
   3   2  -9 7.77640 1.73219   5
   2  -2  -9 49.6181 2.69098   3
   2  -2  -9 47.1850 3.06052   6
  -2  -2   9 47.0228 3.53632   3
   2   2  -9 52.8171 4.01734   3
   2   2  -9 55.9482 3.52859   5
  -1  -2   9 38.5063 3.01471   3
  -1  -2   9 36.5054 2.35411   6
   1  -2  -9 31.8779 2.24632   3
   1  -2  -9 32.5044 2.42142   6
   1  -2  -9 34.4928 2.40580   4
   1   2  -9 37.9292 3.21532   3
   0  -2   9 125.017 6.75642   3
   0  -2  -9 115.360 6.19229   4
   0  -2  -9 123.879 6.32680   3
   0  -2  -9 118.580 6.65589   6
   0  -2   9 121.072 6.62543   6
   0   2  -9 120.329 6.46054   6
   0   2  -9 124.722 6.83008   3
   0   2  -9 130.101 6.87002   4
   0   2   9 132.082 6.25240   4
  -1  -2  -9 4.31967 1.27542   4
   1  -2   9 1.42354 1.51715   6
  -1  -2  -9 2.55234 1.26898   6
   1  -2   9 5.24673 1.34675   3
  -1   2  -9 3.73107 1.25894   3
   1   2   9 3.80127 1.09963   4
  -1   2  -9 1.79368 0.99541   4
   1   2   9 3.04303 1.05101   6
  -1   2  -9 1.69593 1.23799   6
  -1   2  -9 3.35916 0.98050   5
  -2  -2  -9 111.197 7.12975   4
   2  -2   9 114.739 8.10890   6
  -2  -2  -9 109.743 8.03596   6
   2  -2   9 131.749 7.40928   4
  -2  -2  -9 119.883 5.86391   5
  -2   2  -9 116.319 6.57638   5
  -2   2  -9 126.913 7.51168   4
  -2   2  -9 119.508 8.27472   6
   2   2   9 127.004 7.84387   6
  -2   2  -9 118.051 7.34054   3
   2   2   9 125.083 7.17350   4
   3  -2   9 131.213 7.95032   4
  -3  -2  -9 132.850 7.10285   5
  -3  -2  -9 125.407 8.20865   4
   3  -2   9 124.210 6.32330   5
   3  -2   9 123.452 9.23241   6
  -3  -2  -9 138.878 9.69008   6
  -3   2  -9 126.828 8.07798   3
  -3   2  -9 118.736 8.03784   4
  -3   2  -9 120.349 9.10971   6
   3   2   9 129.660 8.95618   6
   3   2   9 130.551 8.00695   4
  -3   2  -9 122.213 7.37592   5
  -4  -2  -9 69.2196 7.40891   6
  -4  -2  -9 67.4621 6.14931   4
   4  -2   9 71.3812 7.15307   6
   4  -2   9 68.3219 5.74604   4
  -4  -2  -9 66.5846 5.32681   5
   4  -2   9 65.7164 4.57885   5
   4   2   9 66.1324 6.68525   6
  -4   2  -9 70.9375 7.27412   6
  -4   2  -9 74.8662 6.30066   3
   4   2   9 68.9265 5.91959   4
  -4   2  -9 59.0096 5.69000   4
  -4   2  -9 72.4307 5.63293   5
  -5  -2  -9 3.00554 2.75476   6
   5  -2   9 1.32324 1.13712   5
   5  -2   9 -0.6434 1.63558   4
   5   2   9 3.45522 1.11562   5
   5   2   9 1.04122 1.76141   4
  -5   2  -9 3.63254 1.68379   3
  -5   2  -9 5.86256 2.46498   6
  -6  -2  -9 3.07298 2.74703   6
   6  -2   9 2.29370 1.82865   4
   6  -2   9 6.89322 1.99887   5
   6   2   9 4.03300 2.03973   4
  -6   2  -9 4.36817 3.24207   6
  -6   2  -9 -0.7919 1.40126   3
   6   2   9 1.68981 1.28169   5
  -7  -2  -9 21.2204 5.39673   6
   7  -2   9 19.8035 3.40470   5
   7  -2   9 16.4997 3.89196   4
   7   2   9 14.1215 3.66353   4
   7   2   9 22.7195 3.15486   5
  -7   2  -9 18.3201 4.20829   3
   8  -3  -9 4.34958 2.60952   5
   8  -3  -9 11.2564 2.62885   4
  -8  -3   9 7.32903 3.36038   6
   8   3  -9 7.55337 2.84823   5
  -8   3   9 -0.6363 2.47309   3
  -8   3   9 0.88148 3.60140   6
  -8   3   9 3.65614 2.26551   5
   8   3  -9 5.26030 3.13642   4
  -8   3   9 3.25012 1.65766   3
  -7  -3   9 2.10544 2.02342   6
   7  -3  -9 -0.1795 1.57327   5
   7  -3  -9 -2.5974 2.09341   6
   7  -3  -9 0.51909 1.13240   4
   7   3  -9 -1.2609 1.88280   4
  -7   3   9 0.54080 2.05292   6
   7   3  -9 1.37788 1.56795   5
  -7   3   9 1.36454 1.28247   5
  -7   3   9 0.38142 1.41891   3
   6  -3  -9 3.16274 2.29080   6
   6  -3  -9 6.86926 2.33431   5
  -6  -3   9 4.56078 2.64014   3
   6  -3  -9 3.58439 1.54063   4
  -6  -3   9 6.77297 2.32554   6
  -6  -3   9 5.24901 1.97569   5
  -6   3   9 9.63665 1.72384   3
   6   3  -9 4.20034 2.08782   4
   6   3  -9 7.64249 2.41278   5
  -6   3   9 4.35246 2.22855   6
  -5  -3   9 34.4237 3.25188   5
   5  -3  -9 37.5947 3.88322   5
  -5  -3   9 28.7323 3.90152   3
   5  -3  -9 33.7691 3.26187   4
  -5  -3   9 36.5266 4.03393   6
   5  -3  -9 35.6930 4.56867   6
   5   3  -9 30.4839 4.10411   4
   5   3  -9 30.6131 3.81996   5
  -5   3   9 36.1461 2.52304   3
  -5   3   9 37.7045 3.97336   6
   4  -3  -9 49.7971 3.69927   4
   4  -3  -9 62.4091 5.93186   6
  -4  -3   9 55.4089 3.86918   5
  -4  -3   9 58.3373 4.31886   6
   4  -3  -9 58.0325 4.28317   5
  -4  -3   9 62.4955 4.81480   3
   4   3  -9 61.6890 4.89943   3
   4   3  -9 45.1665 4.27343   5
   4   3  -9 54.5834 4.98790   4
   3  -3  -9 12.8127 2.18597   6
  -3  -3   9 11.2748 2.17711   3
   3  -3  -9 11.8702 1.61435   5
   3  -3  -9 10.8866 1.43251   4
  -3  -3   9 12.9816 1.77499   6
   3   3  -9 10.9522 2.13444   5
   3   3  -9 13.3314 2.56506   3
   2  -3  -9 409.209 15.7522   4
  -2  -3   9 404.854 17.4474   3
  -2  -3   9 404.874 15.9611   6
   2  -3  -9 419.121 16.9247   6
   2  -3  -9 396.611 15.1377   3
   2   3  -9 416.917 17.3440   5
   2   3  -9 386.674 19.2173   3
   1  -3  -9 20.5659 1.67080   3
  -1  -3   9 23.2833 2.09566   6
   1  -3  -9 23.7956 1.79062   4
  -1  -3   9 22.1708 2.50418   3
   1   3  -9 21.3711 2.26451   5
   1   3  -9 24.3342 2.71851   3
   0  -3   9 559.982 23.0607   6
   0  -3  -9 543.248 22.9873   6
   0  -3  -9 553.556 22.1995   4
   0  -3   9 535.337 22.9623   3
   0   3  -9 574.338 23.1535   4
   0   3   9 581.547 22.0137   4
   0   3  -9 545.387 24.5725   3
   0   3  -9 565.301 22.7095   6
  -1  -3  -9 395.096 16.9803   4
  -1  -3  -9 382.300 17.9791   6
   1  -3   9 383.130 17.3759   3
   1  -3   9 400.767 18.1479   6
  -1   3  -9 363.178 17.1702   4
  -1   3  -9 397.869 17.9151   6
  -1   3  -9 396.507 17.4986   3
   1   3   9 412.534 16.8095   4
  -1   3  -9 405.170 16.7550   5
   2  -3   9 393.030 19.3572   6
  -2  -3  -9 410.259 16.2549   5
  -2  -3  -9 395.330 18.0926   4
  -2  -3  -9 407.488 19.5606   6
   2  -3   9 423.036 18.1070   4
  -2   3  -9 373.629 17.3176   5
  -2   3  -9 380.604 18.1010   4
  -2   3  -9 410.068 18.3098   3
   2   3   9 398.205 18.6607   6
   2   3   9 421.174 17.9777   4
  -2   3  -9 417.548 19.5444   6
   3  -3   9 853.123 34.5758   5
   3  -3   9 892.200 36.3358   4
  -3  -3  -9 887.706 35.0728   5
  -3  -3  -9 880.514 38.8341   6
   3  -3   9 859.821 38.5148   6
  -3  -3  -9 914.319 36.9978   4
  -3   3  -9 879.885 35.9517   5
  -3   3  -9 914.259 38.8137   6
  -3   3  -9 874.998 36.6211   3
   3   3   9 912.498 37.8415   6
   3   3   9 898.773 36.5518   4
   4  -3   9 162.194 10.0967   4
   4  -3   9 162.267 12.0424   6
  -4  -3  -9 184.306 11.0652   4
  -4  -3  -9 175.613 12.4744   6
  -4  -3  -9 174.569 9.70070   5
   4  -3   9 180.144 9.12208   5
  -4   3  -9 182.376 10.8205   3
  -4   3  -9 165.949 10.0595   5
   4   3   9 188.339 10.8585   4
   4   3   9 172.878 11.6161   6
  -4   3  -9 184.395 12.6170   6
  -4   3  -9 168.714 10.6699   4
  -5  -3  -9 112.660 12.2893   6
   5  -3   9 116.717 7.09933   5
  -5   3  -9 102.998 9.57419   3
   5   3   9 110.286 5.07557   5
   6  -3   9 106.479 8.65136   4
  -6  -3  -9 129.511 11.7379   6
   6  -3   9 128.919 7.94339   5
  -6   3  -9 122.224 9.32830   3
  -6   3  -9 119.410 11.3432   6
   6   3   9 115.726 9.51808   4
   6   3   9 115.604 6.17665   5
  -7  -3  -9 21.7281 5.98448   6
   7  -3   9 14.9972 3.59437   4
   7  -3   9 11.7011 2.81700   5
  -7   3  -9 14.2494 5.19952   6
  -7   3  -9 17.1952 4.03556   3
   7   3   9 13.1773 2.87907   5
   7   3   9 12.3834 3.46029   4
   8  -4  -9 2.58092 2.71921   5
   8  -4  -9 0.94764 1.73710   4
  -8  -4   9 4.09267 3.10301   6
  -8   4   9 0.32636 1.52037   5
  -8   4   9 0.67915 2.89182   6
   8   4  -9 2.53730 2.25571   4
   7  -4  -9 3.10988 1.47281   4
  -7  -4   9 6.85771 2.99678   6
   7  -4  -9 5.89288 2.27463   5
  -7   4   9 2.77357 2.55993   6
   7   4  -9 5.11231 1.94855   5
  -7   4   9 3.23289 1.05767   3
  -7   4   9 2.13794 1.19142   5
   7   4  -9 7.21306 2.71955   4
  -6  -4   9 7.81863 2.25033   5
  -6  -4   9 6.00777 2.60456   6
   6  -4  -9 4.61773 1.54400   4
   6  -4  -9 4.91661 3.08716   6
   6   4  -9 9.57188 2.72904   5
  -6   4   9 8.01833 2.54274   6
  -6   4   9 7.15927 1.44753   3
  -6   4   9 5.08895 1.02944   3
   6   4  -9 10.0965 2.94094   4
  -5  -4   9 40.6546 5.08097   6
   5  -4  -9 38.7161 3.94741   5
   5  -4  -9 35.4152 4.47283   6
  -5  -4   9 33.8557 3.39146   5
   5  -4  -9 33.2509 3.05436   4
  -5  -4   9 40.2447 4.51938   3
   5   4  -9 35.9076 4.66039   4
   5   4  -9 36.8170 4.31940   5
   4  -4  -9 1.32218 0.64054   4
   4  -4  -9 2.52799 1.47091   6
  -4  -4   9 1.47457 1.22363   5
  -4  -4   9 0.76704 1.06763   6
  -4  -4   9 0.75487 1.56650   3
   4  -4  -9 1.56455 1.06398   5
   4   4  -9 0.22499 0.98770   3
   4   4  -9 -0.4986 1.08870   5
   4   4  -9 1.45147 1.33597   4
   3  -4  -9 18.0844 4.02407   6
   3  -4  -9 12.9399 1.65006   5
  -3  -4   9 15.3694 1.98531   5
  -3  -4   9 10.0698 2.30045   3
  -3  -4   9 11.6167 1.75869   6
   3  -4  -9 12.7849 1.18450   4
   3   4  -9 13.4883 2.58742   3
   3   4  -9 15.3529 2.53606   5
  -2  -4   9 6.62541 1.32097   6
   2  -4  -9 7.04054 0.68739   4
  -2  -4   9 7.06463 1.63612   3
   2  -4  -9 6.99857 0.62413   5
   2  -4  -9 5.89390 0.64578   4
   2  -4  -9 7.23762 1.64777   6
   2  -4  -9 6.15723 0.65883   5
   2   4  -9 5.71901 1.99235   3
   2   4  -9 7.29159 1.72727   5
  -1  -4   9 112.281 6.52542   3
   1  -4  -9 102.001 4.90785   4
  -1  -4   9 107.897 5.94279   6
   1  -4  -9 112.512 5.08843   3
   1   4  -9 99.9413 6.53762   3
   1   4  -9 108.604 6.88271   5
   0  -4  -9 325.101 15.2006   6
   0  -4   9 314.013 15.0556   3
   0  -4  -9 336.731 14.1453   4
   0  -4   9 337.371 15.3310   6
   0   4   9 349.594 13.9192   4
   0   4  -9 322.481 15.1403   4
   0   4  -9 348.772 15.0023   6
   0   4  -9 361.816 15.6783   3
   1  -4   9 20.5350 2.82441   6
  -1  -4  -9 14.2336 2.06984   4
  -1  -4  -9 11.7378 2.44163   6
   1  -4   9 14.2776 2.38143   3
  -1   4  -9 13.1354 2.57938   6
   1   4   9 15.4557 1.93008   4
  -1   4  -9 14.2422 2.24384   5
  -1   4  -9 16.1564 2.33923   4
  -1   4  -9 14.0498 2.42366   3
  -2  -4  -9 179.607 8.35566   5
  -2  -4  -9 197.223 11.4442   6
   2  -4   9 189.514 10.3428   3
  -2  -4  -9 181.042 9.94617   4
   2  -4   9 187.025 11.2575   6
  -2   4  -9 182.807 9.66750   5
  -2   4  -9 172.132 9.94944   4
  -2   4  -9 186.337 11.1615   6
  -2   4  -9 195.463 10.4026   3
   2   4   9 184.596 9.82756   4
   3  -4   9 145.567 8.54764   4
  -3  -4  -9 140.620 8.71556   4
  -3  -4  -9 124.491 9.64676   6
   3  -4   9 127.323 9.98080   6
  -3  -4  -9 139.535 7.40765   5
  -3   4  -9 115.703 7.84199   5
   3   4   9 138.172 8.45319   4
  -3   4  -9 117.567 8.31350   4
  -3   4  -9 143.102 10.1660   6
  -3   4  -9 139.990 8.65645   3
   4  -4   9 236.037 11.9304   5
  -4  -4  -9 245.573 15.7068   6
   4  -4   9 239.525 13.0581   4
  -4  -4  -9 250.125 13.9263   4
  -4  -4  -9 246.778 12.5504   5
  -4   4  -9 262.937 13.7551   3
   4   4   9 238.625 13.4120   4
  -4   4  -9 258.707 14.7298   5
  -4   4  -9 237.976 15.2899   6
  -5  -4  -9 135.384 11.5879   6
   5  -4   9 133.332 9.34781   4
   5  -4   9 132.549 8.12971   5
  -5   4  -9 122.726 11.0671   6
   5   4   9 142.903 9.85809   4
  -6  -4  -9 18.8059 5.15435   6
   6  -4   9 23.4762 4.16287   4
   6  -4   9 21.0994 3.38267   5
  -6   4  -9 14.2486 5.20175   6
   6   4   9 21.7971 2.09055   5
  -6   4  -9 22.2476 4.21276   3
   6   4   9 23.0336 4.20104   4
   7  -4   9 67.0509 7.18258   4
  -7  -4  -9 80.1083 9.78351   6
   7  -4   9 78.6862 6.56626   5
   7   4   9 63.2088 4.32781   5
  -7   4  -9 69.6268 9.28405   6
   7   4   9 86.8586 8.04224   4
  -7   4  -9 97.8926 8.52975   3
  -8  -5   9 39.4414 6.89688   6
   8  -5  -9 30.7731 4.95064   4
  -8   5   9 33.3758 3.12962   3
   8   5  -9 36.5429 6.76640   4
   8   5  -9 28.3546 5.26403   5
  -8   5   9 25.8639 5.73316   6
   7  -5  -9 1.87807 1.28893   4
   7  -5  -9 -1.8059 1.54477   5
  -7  -5   9 -2.8005 1.76407   6
  -7   5   9 -0.1440 0.76057   3
  -7   5   9 0.47971 2.16189   6
  -7   5   9 -0.0051 1.15251   3
   7   5  -9 -2.9580 1.35210   5
   7   5  -9 -1.4257 1.61309   4
   6  -5  -9 3.06877 2.76940   6
   6  -5  -9 3.37642 2.01787   5
  -6  -5   9 5.27386 2.52267   6
   6   5  -9 3.03268 1.87657   4
   6   5  -9 1.63600 1.68608   5
  -5  -5   9 100.956 6.46237   5
   5  -5  -9 103.121 7.94485   6
   5  -5  -9 96.2236 5.33743   4
  -5  -5   9 96.0381 7.33558   6
  -5  -5   9 102.460 7.73739   3
   5  -5  -9 88.7641 6.69583   5
   5   5  -9 90.6743 7.86483   4
   5   5  -9 106.044 7.55296   5
  -4  -5   9 9.57502 2.10017   6
   4  -5  -9 11.9339 1.19281   4
  -4  -5   9 12.7207 2.27584   5
   4  -5  -9 10.3295 2.60447   6
  -4  -5   9 8.48164 2.61545   3
   4  -5  -9 8.31353 1.84165   5
   4   5  -9 10.1756 2.37050   5
   4   5  -9 7.74971 2.26365   4
   4   5  -9 8.92943 2.28541   3
   3  -5  -9 390.097 16.2565   5
  -3  -5   9 388.395 16.5872   5
  -3  -5   9 387.219 17.7780   3
  -3  -5   9 359.101 16.8367   6
   3  -5  -9 405.102 18.1160   6
   3   5  -9 408.145 18.4084   3
   3   5  -9 381.349 17.5050   5
   2  -5  -9 6.09973 0.89427   5
   2  -5  -9 4.88603 1.56837   6
  -2  -5   9 9.61814 1.95048   3
   2  -5  -9 4.99097 0.85370   5
   2   5  -9 4.98483 1.71286   3
   2   5  -9 5.93974 1.80940   5
  -1  -5   9 2.27717 0.99217   6
  -1  -5   9 1.86888 1.11995   3
   1  -5  -9 1.64378 0.45746   4
   1  -5  -9 4.39369 0.83587   3
   1   5  -9 0.89748 1.01581   5
   1   5  -9 3.26078 1.56309   3
   0  -5   9 80.6400 5.75366   6
   0  -5   9 78.1136 5.50659   3
   0  -5  -9 75.4708 4.44760   4
   0   5  -9 81.0870 5.84326   3
   0   5   9 82.5345 4.34567   4
   0   5  -9 84.2985 5.33559   5
   0   5  -9 70.1349 5.13725   5
   1  -5   9 169.373 10.1569   6
  -1  -5  -9 173.085 10.1385   6
  -1  -5  -9 171.576 7.12034   5
  -1  -5  -9 178.347 8.97034   4
   1  -5   9 164.178 9.44886   3
  -1  -5  -9 175.219 7.14052   5
  -1   5  -9 182.439 9.87841   3
   1   5   9 179.886 8.78706   4
  -1   5  -9 165.790 9.36632   4
  -1   5  -9 176.020 9.26740   5
  -1   5  -9 183.020 10.0924   6
   2  -5   9 273.346 15.4558   6
  -2  -5  -9 298.538 12.5312   5
  -2  -5  -9 294.191 15.6167   6
  -2  -5  -9 291.613 14.0236   4
   2  -5   9 283.502 14.3353   3
   2   5   9 299.894 13.8926   4
  -2   5  -9 275.740 14.1834   4
  -2   5  -9 270.311 14.1785   3
  -2   5  -9 307.906 14.1386   5
  -2   5  -9 291.376 15.3860   6
  -3  -5  -9 333.461 16.0867   4
  -3  -5  -9 313.919 14.4895   5
   3  -5   9 335.729 14.8693   5
  -3  -5  -9 325.531 17.8878   6
   3  -5   9 287.805 15.2436   4
   3  -5   9 281.164 17.2008   6
  -3   5  -9 310.828 15.9760   4
  -3   5  -9 347.894 15.9270   5
  -3   5  -9 314.842 17.5054   6
   3   5   9 340.728 16.0133   4
  -3   5  -9 319.527 15.9906   3
   4  -5   9 277.293 15.3910   4
  -4  -5  -9 327.561 18.8594   6
  -4  -5  -9 318.125 15.4736   5
   4  -5   9 337.029 15.1170   5
  -4   5  -9 302.359 16.0640   3
  -4   5  -9 318.610 18.4663   6
   4   5   9 311.404 16.2480   4
  -5  -5  -9 291.621 18.6458   6
   5  -5   9 254.366 14.6739   4
   5  -5   9 273.667 13.9857   5
   5   5   9 287.478 15.7701   4
  -5   5  -9 271.013 17.6934   6
  -5   5  -9 294.456 15.7409   3
   6  -5   9 69.8477 5.99739   5
  -6  -5  -9 53.3248 7.84187   6
   6  -5   9 60.1765 6.13263   4
  -6   5  -9 60.0511 6.34250   3
   6   5   9 62.5468 7.00787   4
  -6   5  -9 54.9770 7.74979   6
   7  -5   9 40.7108 5.27450   5
   7  -5   9 43.7665 5.41782   4
  -7   5  -9 50.7431 6.24658   3
   7   5   9 39.1893 5.77274   4
  -8  -6   9 74.4783 9.33739   6
   8  -6  -9 70.6990 5.62946   4
   8  -6  -9 86.2148 8.06357   5
   8   6  -9 76.6694 8.75934   4
   8   6  -9 66.3313 7.94502   5
   7  -6  -9 23.1814 4.13650   5
  -7  -6   9 22.9309 4.50868   6
   7  -6  -9 23.1378 2.65973   4
   7   6  -9 21.1102 4.84991   4
   7   6  -9 24.0973 4.67846   5
  -6  -6   9 52.3722 5.81729   6
   6  -6  -9 42.8738 3.28267   4
   6  -6  -9 30.8401 5.78280   6
   6  -6  -9 45.3966 5.08814   5
   6   6  -9 49.3007 5.48645   5
   6   6  -9 44.2053 5.66714   4
   5  -6  -9 46.4244 2.82446   4
  -5  -6   9 47.2603 5.24451   5
   5  -6  -9 43.6982 4.55788   5
  -5  -6   9 53.4435 5.56413   6
   5  -6  -9 54.5468 6.04523   6
   5   6  -9 45.9759 5.38718   3
   5   6  -9 47.0316 5.20028   5
  -4  -6   9 6.15306 2.16120   6
   4  -6  -9 8.62259 1.98453   5
   4  -6  -9 11.1196 2.94802   6
  -4  -6   9 8.44185 2.55777   5
  -4  -6   9 7.92912 2.17215   3
   4   6  -9 7.80921 2.62643   3
   4   6  -9 9.54161 2.74452   4
   4   6  -9 5.27343 2.11164   5
  -3  -6   9 51.8188 5.01140   3
  -3  -6   9 43.2383 4.09700   6
  -3  -6   9 41.8280 3.92357   5
   3  -6  -9 49.8767 4.84477   6
   3   6  -9 50.7237 4.76263   5
   3   6  -9 45.4837 5.04267   3
   2  -6  -9 45.8247 2.90569   5
  -2  -6   9 45.7817 4.33780   3
   2  -6  -9 51.2918 4.55033   6
   2  -6  -9 47.4059 2.97906   5
   2   6  -9 52.7874 4.97188   3
   2   6  -9 45.2719 4.14305   5
   1  -6  -9 82.6461 4.35902   3
   1  -6  -9 81.1869 3.61246   5
  -1  -6   9 82.3633 5.89851   3
  -1  -6   9 80.5507 5.68460   6
   1  -6  -9 83.1759 3.66657   5
   1   6  -9 80.1942 5.56990   5
   1   6  -9 95.3583 6.74162   3
   0  -6   9 0.64538 1.50754   6
   0  -6  -9 1.93896 0.90942   4
   0  -6  -9 1.78438 0.42557   5
   0  -6   9 2.13118 1.23794   3
   0  -6  -9 1.95149 0.44259   5
   0   6  -9 1.19749 1.34945   3
   0   6  -9 1.98223 1.23874   5
   0   6   9 1.61819 0.72066   4
   0   6  -9 0.56126 1.24540   5
  -1  -6  -9 662.246 25.6439   4
   1  -6   9 623.855 26.6292   3
  -1  -6  -9 658.248 27.7433   6
  -1  -6  -9 617.670 24.0312   5
  -1  -6  -9 644.434 24.0839   5
   1  -6   9 610.334 27.5617   6
  -1   6  -9 660.635 27.3163   6
  -1   6  -9 567.849 26.5231   3
  -1   6  -9 527.977 25.7794   5
  -1   6  -9 634.060 26.5938   4
   1   6   9 654.450 25.5040   4
  -2  -6  -9 207.076 12.4728   6
  -2  -6  -9 209.683 10.8389   4
   2  -6   9 193.651 12.3647   6
   2  -6   9 178.658 10.8737   3
  -2   6  -9 216.963 12.4586   6
   2   6   9 210.961 10.8276   4
  -2   6  -9 218.596 11.6433   3
  -2   6  -9 191.277 11.1569   4
  -3  -6  -9 150.639 8.05123   5
  -3  -6  -9 136.779 10.4296   6
   3  -6   9 145.475 8.38973   5
   3  -6   9 132.865 8.97014   3
   3  -6   9 124.998 10.2702   6
  -3   6  -9 146.266 9.07276   5
  -3   6  -9 132.606 10.1218   6
  -3   6  -9 127.925 8.85068   4
   3   6   9 145.317 8.93833   4
  -3   6  -9 136.988 9.09149   3
  -4  -6  -9 199.320 11.1636   5
  -4  -6  -9 211.843 14.6843   6
   4  -6   9 201.145 11.6262   4
   4  -6   9 205.955 11.0425   5
  -4   6  -9 194.418 13.7440   6
   4   6   9 208.848 12.1500   4
  -4   6  -9 191.893 11.9670   3
  -5  -6  -9 0.91593 1.57670   6
   5  -6   9 -0.9079 1.54077   4
   5  -6   9 0.06496 1.37894   5
   5   6   9 -0.3063 1.35993   4
  -5   6  -9 1.37065 1.86313   3
  -5   6  -9 -1.3813 1.88590   6
   6  -6   9 32.9030 4.74818   4
   6  -6   9 41.2305 4.59382   5
  -6  -6  -9 34.7988 6.85795   6
   6   6   9 27.7372 5.40797   4
  -6   6  -9 38.2116 7.60910   6
  -6   6  -9 34.9325 5.05577   3
   7  -6   9 19.4252 3.72174   5
  -7  -6  -9 22.7997 6.58426   6
   7  -6   9 16.5901 3.84844   4
   7   6   9 19.7864 5.52168   4
  -7   6  -9 26.5318 4.95173   3
  -7   6  -9 23.1262 6.26389   6
   7  -7  -9 20.0534 4.01083   5
  -7  -7   9 13.1538 3.89259   6
   7   7  -9 18.7962 4.07520   5
   7   7  -9 20.7935 4.74228   4
   6  -7  -9 -0.3904 0.71587   4
   6  -7  -9 -0.8000 1.43704   5
  -6  -7   9 3.54174 2.45549   6
   6   7  -9 -1.2620 1.62168   4
   6   7  -9 -1.4557 1.64501   5
   5  -7  -9 31.3033 5.76675   6
  -5  -7   9 38.6020 4.99763   6
   5  -7  -9 40.3959 4.48097   5
   5   7  -9 39.4799 6.58215   3
   5   7  -9 36.3208 4.91555   5
   5   7  -9 28.2214 5.37164   4
   4  -7  -9 9.67430 2.05302   5
  -4  -7   9 7.60442 2.27979   6
   4  -7  -9 9.33420 2.54914   6
  -4  -7   9 10.9155 2.41234   5
   4   7  -9 4.93970 2.22800   4
   4   7  -9 8.23834 2.67654   3
   4   7  -9 4.62021 1.87176   5
  -3  -7   9 344.813 16.9149   3
   3  -7  -9 331.916 17.2585   6
   3  -7  -9 338.485 15.2169   5
   3   7  -9 362.238 17.6919   3
   3   7  -9 352.718 16.7765   5
  -2  -7   9 61.2486 5.45811   3
   2  -7  -9 78.7729 6.01200   6
   2  -7  -9 65.2463 4.08004   5
   2  -7  -9 64.8329 2.93057   3
   2  -7  -9 67.4100 4.02906   5
   2   7  -9 68.3168 5.51537   5
   2   7  -9 72.5296 6.24862   3
   1  -7  -9 277.525 11.2033   5
  -1  -7   9 266.579 13.5042   6
   1  -7  -9 270.798 11.4732   3
  -1  -7   9 244.591 13.5688   3
   1  -7  -9 276.237 11.0744   5
   1   7  -9 291.028 13.5128   5
   1   7  -9 236.025 14.0942   5
   1   7  -9 270.025 14.1519   3
   0  -7  -9 10.2608 1.43825   4
   0  -7  -9 11.3564 2.00753   3
   0  -7  -9 11.2158 1.33210   5
   0  -7   9 13.3573 2.86990   6
   0  -7   9 9.77716 2.11757   3
   0  -7  -9 10.9854 1.29890   5
   0   7  -9 14.7809 3.06343   3
   0   7  -9 13.9480 2.55473   5
   0   7  -9 13.7172 2.65475   5
   0   7   9 11.6790 1.48163   4
  -1  -7  -9 20.4894 3.64376   6
  -1  -7  -9 22.0305 2.14924   5
   1  -7   9 20.8281 3.44254   3
  -1  -7  -9 21.4338 2.89693   3
  -1  -7  -9 23.3720 2.59818   4
  -1  -7  -9 22.5358 2.16326   5
   1  -7   9 18.8837 3.72173   6
  -1   7  -9 23.1419 3.50286   4
  -1   7  -9 22.3845 3.13440   5
  -1   7  -9 18.0744 3.21256   3
  -1   7  -9 24.6293 3.34165   5
   1   7   9 23.4956 2.58677   4
  -2  -7  -9 164.405 8.25332   5
  -2  -7  -9 160.180 9.45414   3
   2  -7   9 144.085 10.8081   6
   2  -7   9 145.459 9.44140   3
  -2  -7  -9 169.292 11.1221   6
  -2  -7  -9 154.620 9.04245   4
  -2   7  -9 168.622 9.78447   4
  -2   7  -9 161.364 10.5481   6
   2   7   9 167.990 9.25975   4
  -2   7  -9 144.980 9.22989   5
  -2   7  -9 160.502 9.91984   3
  -3  -7  -9 2.28924 1.91226   6
   3  -7   9 1.94270 1.37773   5
  -3  -7  -9 3.64236 1.48099   5
  -3  -7  -9 5.30598 1.75376   3
  -3  -7  -9 4.75405 1.74111   4
  -3   7  -9 1.25595 2.46857   6
   3   7   9 4.05829 1.78124   4
  -3   7  -9 1.12941 1.71430   3
  -4  -7  -9 58.1028 5.18525   5
  -4  -7  -9 60.8424 7.02170   6
   4  -7   9 53.9019 5.02417   5
   4   7   9 54.4261 5.55339   4
  -4   7  -9 58.9010 7.00714   6
   5  -7   9 -0.3626 1.39778   5
   5  -7   9 1.50623 1.44661   4
  -5  -7  -9 2.39865 2.17536   6
  -5   7  -9 2.20296 1.98820   3
   5   7   9 2.20531 2.10483   4
  -5   7  -9 6.45253 2.77340   6
   6  -7   9 12.0199 3.21004   4
   6  -7   9 13.5845 3.23317   5
  -6  -7  -9 18.7382 6.01245   6
  -6   7  -9 20.3080 5.72009   6
  -6   7  -9 16.2711 4.01461   3
   6   7   9 13.8695 3.31001   4
   7  -7   9 4.69976 2.81334   5
  -7  -7  -9 5.86491 3.97037   6
   7  -7   9 5.24657 2.69765   4
  -7   7  -9 2.60181 2.71313   3
  -7   7  -9 7.84441 4.04887   6
   7   7   9 6.09681 3.32959   4
   7  -8  -9 65.9927 6.76104   5
  -7  -8   9 68.5215 8.23193   6
   7   8  -9 80.4327 9.49905   5
  -6  -8   9 42.7700 5.82440   6
   6  -8  -9 36.3765 4.67963   5
   6   8  -9 38.3114 6.45153   4
  -5  -8   9 3.05698 2.13628   6
   5   8  -9 1.95501 1.77864   3
   5   8  -9 7.37244 2.49784   5
   5   8  -9 2.06506 2.03373   4
   4  -8  -9 6.93162 2.11394   5
  -4  -8   9 4.31055 2.14107   6
   4  -8  -9 3.94767 2.83609   6
   4   8  -9 10.5261 2.80668   5
   4   8  -9 4.83637 2.45374   4
   3  -8  -9 16.0978 2.28544   5
  -3  -8   9 8.81068 2.32642   5
   3   8  -9 9.37039 2.75986   5
   3   8  -9 7.87488 2.69717   3
  -2  -8   9 22.3186 3.91449   3
   2  -8  -9 24.9201 3.96423   6
   2  -8  -9 27.1987 1.80504   3
   2  -8  -9 31.6103 2.83918   5
   2  -8  -9 21.5147 2.64874   5
   2   8  -9 26.4370 3.80373   5
   2   8  -9 24.3482 4.24034   3
   1  -8  -9 1071.01 42.7041   5
   1  -8  -9 1139.08 43.0103   5
   1  -8  -9 1116.50 42.9902   3
  -1  -8   9 1092.03 45.5416   3
  -1  -8   9 1118.57 45.7100   6
   1   8  -9 1195.71 45.3943   5
   1   8  -9 1177.96 45.6210   5
   1   8  -9 1117.49 46.2995   3
   0  -8  -9 45.8718 3.19655   5
   0  -8   9 47.2225 5.22505   6
   0  -8  -9 46.8908 3.25054   5
   0  -8   9 34.0525 4.51577   3
   0  -8  -9 45.7944 3.84042   3
   0   8  -9 46.9503 4.57214   5
   0   8   9 45.0022 3.13064   4
   0   8  -9 37.3950 4.70191   3
   0   8  -9 46.3997 4.42544   5
  -1  -8  -9 831.731 34.2774   6
  -1  -8  -9 780.836 30.8489   4
   1  -8   9 707.150 32.2575   3
  -1  -8  -9 773.191 31.6543   5
  -1  -8  -9 818.934 30.5738   5
  -1  -8  -9 758.342 31.5821   3
  -1   8  -9 734.118 32.7510   3
  -1   8  -9 771.761 32.3904   4
  -1   8  -9 663.689 31.8733   5
  -1   8  -9 816.747 32.4814   5
   1   8   9 792.068 31.0236   4
  -2  -8  -9 18.4520 2.51794   5
   2  -8   9 18.4009 4.10438   6
  -2  -8  -9 16.9509 3.68895   6
  -2  -8  -9 16.2168 3.20986   3
  -2  -8  -9 19.3078 2.85496   4
  -2   8  -9 17.3055 3.56910   3
  -2   8  -9 23.3185 3.54090   4
   2   8   9 20.2308 2.85532   4
  -2   8  -9 22.0253 3.73179   5
  -3  -8  -9 92.7392 6.93732   4
  -3  -8  -9 90.3752 8.68993   6
  -3  -8  -9 95.9900 6.44885   5
   3  -8   9 88.4875 6.71803   5
  -3   8  -9 76.6063 8.05142   6
  -3   8  -9 96.0394 7.65297   3
   3   8   9 95.3077 7.10341   4
   4  -8   9 2.50386 1.62408   5
  -4  -8  -9 3.51062 2.20451   6
  -4   8  -9 0.07048 1.83472   6
  -4   8  -9 3.88979 1.72905   3
   4   8   9 2.79393 2.00160   4
  -5  -8  -9 75.7763 8.87909   6
   5  -8   9 77.4399 6.42857   5
  -5   8  -9 62.3820 8.18312   6
  -5   8  -9 65.8039 6.69599   3
   5   8   9 70.2433 6.88854   4
   6  -8   9 75.1610 6.79359   5
  -6  -8  -9 74.3319 9.45238   6
   6   8   9 75.1457 7.71914   4
  -6   8  -9 60.4917 8.59097   6
  -6   8  -9 80.3995 7.38924   3
  -7  -9   9 13.2993 4.31307   6
   7   9  -9 10.2850 3.63337   5
   7   9  -9 9.35237 3.89888   4
   6  -9  -9 2.49385 1.99856   5
  -6  -9   9 3.00705 2.78039   6
   6   9  -9 -0.1373 2.54280   4
   6   9  -9 0.52142 2.25794   5
  -5  -9   9 98.3753 8.52499   6
   5  -9  -9 84.6249 7.01752   5
   5   9  -9 94.5851 8.48822   3
   5   9  -9 99.7731 8.30707   5
   5   9  -9 85.5846 8.71085   4
   4  -9  -9 0.99467 1.09900   5
  -4  -9   9 -0.4975 1.50041   6
   4   9  -9 2.82678 2.02858   5
   4   9  -9 0.28415 1.48066   4
   4   9  -9 3.36845 2.05999   3
   3  -9  -9 6.65523 1.84067   5
   3  -9  -9 7.96832 2.80247   6
   3   9  -9 7.43912 3.28088   5
   2  -9  -9 67.5317 3.79178   3
   2  -9  -9 75.0106 5.00250   5
   2  -9  -9 72.1154 6.78253   6
   2  -9  -9 70.9594 4.92388   5
  -2  -9   9 67.9750 6.22223   6
   2   9  -9 77.9345 6.16348   5
   2   9  -9 63.8357 6.50127   3
   1  -9  -9 157.316 7.89457   5
   1  -9  -9 146.234 7.57956   5
  -1  -9   9 131.387 9.39453   6
   1  -9  -9 147.856 8.62596   3
   1   9  -9 152.419 10.1944   3
   1   9  -9 144.437 9.19499   5
   0  -9  -9 280.589 12.3339   5
   0  -9  -9 254.234 11.8892   5
   0  -9   9 238.218 14.7067   6
   0  -9  -9 263.364 12.6719   3
   0   9  -9 265.679 13.8618   5
   0   9  -9 260.421 14.7506   3
   0   9   9 273.608 11.6641   4
  -1  -9  -9 9.51177 1.84673   5
   1  -9   9 11.1424 3.24886   6
  -1  -9  -9 10.5156 2.33824   3
  -1  -9  -9 5.65236 2.23767   6
  -1   9  -9 10.6240 2.54435   5
   1   9   9 7.56427 2.31888   4
  -1   9  -9 6.78909 2.62004   3
  -2  -9  -9 20.0800 2.85113   4
  -2  -9  -9 17.1622 3.89976   6
  -2  -9  -9 22.7238 2.84374   5
  -2  -9  -9 22.2751 3.54003   3
  -2   9  -9 17.8981 3.75900   3
   2   9   9 17.3638 3.08098   4
  -3  -9  -9 73.9644 6.16846   4
  -3  -9  -9 77.4052 7.92130   6
  -3  -9  -9 70.5122 5.62156   5
  -3   9  -9 64.7102 7.22081   6
  -3   9  -9 73.1676 7.01850   3
   3   9   9 69.6950 6.31425   4
  -3   9  -9 69.7276 6.50293   5
   4  -9   9 4.50743 1.99844   5
  -4  -9  -9 -0.6011 1.83689   6
  -4   9  -9 2.84455 2.02613   3
   4   9   9 4.74401 2.36633   4
  -4   9  -9 4.77815 2.68540   6
   5  -9   9 8.24214 2.55735   5
  -5  -9  -9 18.2538 4.73762   6
   5   9   9 10.1782 3.07447   4
  -5   9  -9 13.1344 3.74818   3
  -5   9  -9 3.00082 3.62844   6
  -6  -9  -9 35.0987 7.22566   6
   6  -9   9 42.7950 5.18696   5
  -6   9  -9 32.4433 6.10456   3
   6   9   9 30.5295 5.51565   4
  -6   9  -9 19.7204 5.46585   6
   6 -10  -9 4.23652 2.08363   5
  -6 -10   9 0.54343 2.84550   6
   6  10  -9 3.32877 2.50646   5
   6  10  -9 -0.5495 2.15051   4
   5 -10  -9 108.463 8.19266   5
  -5 -10   9 119.027 9.59474   6
   5  10  -9 106.355 8.95363   5
   5  10  -9 103.240 9.39006   3
   5  10  -9 109.552 9.78153   4
  -4 -10   9 38.5862 5.02492   6
   4  10  -9 21.3894 4.50851   4
   4  10  -9 25.4527 4.46061   5
   4  10  -9 20.6785 4.65153   3
   3 -10  -9 283.583 13.8814   5
   3  10  -9 267.456 15.9130   3
  -2 -10   9 93.9076 7.57883   6
   2 -10  -9 86.7177 6.03405   5
   2 -10  -9 88.2130 4.84519   3
   2 -10  -9 90.4993 6.12106   5
   2  10  -9 88.3567 7.85788   3
   2  10  -9 100.912 7.48771   5
   1 -10  -9 2.77919 1.41970   3
  -1 -10   9 7.31831 2.76272   6
   1 -10  -9 3.56931 1.32940   5
   1 -10  -9 4.42782 1.57223   5
   0 -10   9 54.5231 6.37394   6
   0 -10  -9 54.1238 4.27583   5
   0 -10  -9 56.6515 4.40952   5
   0 -10  -9 54.4851 4.61526   3
   0  10   9 59.1067 3.85792   4
   0  10  -9 59.4018 6.39324   3
   0  10  -9 48.9369 6.39512   5
  -1 -10  -9 11.4464 2.20613   5
  -1  10  -9 13.0871 3.08286   5
   1  10   9 9.28086 2.00566   4
  -2 -10  -9 26.7113 4.98210   6
  -2  10  -9 25.1931 4.31006   5
   2  10   9 23.7548 3.35965   4
  -2  10  -9 20.1686 4.03755   3
  -3 -10  -9 59.5576 7.11049   6
   3  10   9 62.6090 5.80722   4
  -3  10  -9 58.4429 6.10519   5
  -3  10  -9 47.4869 6.08065   3
   4 -10   9 113.974 8.25593   5
  -4 -10  -9 91.3178 9.89405   6
  -4  10  -9 88.1325 8.34560   3
   4  10   9 109.191 8.49245   4
  -4  10  -9 87.8966 7.79090   5
  -5 -10  -9 5.43761 3.67901   6
   5 -10   9 4.73832 2.22373   5
  -5  10  -9 2.10454 2.75815   3
  -5  10  -9 1.94562 3.19967   6
   5  10   9 6.83376 2.59106   4
   6 -10   9 42.7795 5.56124   5
  -6 -10  -9 61.0972 8.72955   6
  -6  10  -9 57.9276 7.46803   3
  -6  10  -9 34.9521 7.40565   6
   6 -11  -9 128.093 11.6189   5
  -6 -11   9 160.106 12.4376   6
   6  11  -9 113.318 11.1141   4
   5 -11  -9 10.3616 2.85926   5
  -5 -11   9 4.70358 2.65957   6
   5  11  -9 8.73129 3.35661   3
   5  11  -9 9.72454 3.53347   4
   5  11  -9 2.66500 2.54781   5
  -4 -11   9 21.4411 4.43136   6
   4 -11  -9 21.5051 3.71696   5
   4  11  -9 17.9908 4.46889   3
   4  11  -9 21.2245 4.44682   4
   4  11  -9 31.5670 5.35902   5
   3 -11  -9 14.3210 2.92879   5
   3  11  -9 15.8793 3.94365   3
   3  11  -9 12.9502 3.58940   5
   2 -11  -9 -3.6001 1.91689   5
   2 -11  -9 0.20588 1.10329   5
   2  11  -9 2.06703 1.69750   5
   2  11  -9 -0.8563 1.63980   3
   1 -11  -9 280.065 13.2577   3
   1 -11  -9 277.092 13.6027   5
   1 -11  -9 300.709 14.1349   5
   1  11  -9 275.330 15.1191   5
   1  11  -9 301.391 16.5502   3
   0 -11  -9 2.10960 1.23724   5
   0 -11  -9 -0.7079 1.71642   3
   0 -11  -9 1.87389 1.17230   5
   0  11  -9 1.86863 1.89186   3
   0  11   9 0.63480 0.97751   4
   0  11  -9 2.13115 2.01502   5
  -1 -11  -9 3.37957 1.87744   3
  -1  11  -9 -1.6170 1.67753   3
  -1  11  -9 -0.8362 1.22363   5
   1  11   9 2.04450 1.33902   4
  -2 -11  -9 136.097 8.72274   5
  -2 -11  -9 153.636 11.7144   6
  -2  11  -9 137.176 9.77661   5
  -2  11  -9 139.940 10.1946   3
   2  11   9 151.645 9.20529   4
  -3 -11  -9 8.27656 3.09701   6
  -3  11  -9 8.64658 3.08441   3
   3  11   9 8.97733 2.76408   4
  -3  11  -9 12.0614 3.31765   5
  -4 -11  -9 163.378 13.3027   6
   4 -11   9 150.702 10.4406   5
   4  11   9 161.123 10.6746   4
  -4  11  -9 120.975 10.2473   3
  -5 -11  -9 2.49593 3.00018   6
   5 -11   9 -0.4985 2.46210   5
  -5  11  -9 -0.4491 2.63290   3
   5  11   9 -1.0114 2.05095   4
   5 -12  -9 12.8473 3.25884   5
  -5 -12   9 7.41575 3.36399   6
   5  12  -9 7.20902 2.82477   5
   5  12  -9 11.8012 4.34743   4
   5  12  -9 13.1174 4.94587   3
  -4 -12   9 46.6079 5.91259   6
   4 -12  -9 42.3228 4.89705   5
   4  12  -9 34.2454 6.16147   4
   4  12  -9 37.5739 6.37748   3
   4  12  -9 39.8190 5.67784   5
   3 -12  -9 7.13164 1.14380   3
   3 -12  -9 7.64599 2.44971   5
   3  12  -9 4.21921 2.79028   5
   3  12  -9 6.91860 2.83956   3
   2 -12  -9 2.72606 1.36803   3
   2  12  -9 -2.2370 1.92823   5
   2  12  -9 1.23361 1.99481   3
   1 -12  -9 53.3131 4.51097   3
   1 -12  -9 57.8760 5.23580   5
   1 -12  -9 56.8134 5.11446   5
   1  12  -9 47.4152 6.95889   3
   1  12  -9 52.6072 5.70847   5
   0 -12  -9 96.4988 7.02278   5
   0 -12  -9 101.413 7.18898   3
   0 -12  -9 94.8336 6.51084   5
   0  12  -9 74.5409 7.78653   3
   0  12  -9 91.5084 7.61248   5
   0  12   9 86.6469 5.30350   4
  -1  12  -9 12.6726 3.44051   3
   1  12   9 13.3832 2.64804   4
  -1  12  -9 7.89728 3.17202   5
  -2 -12  -9 204.332 14.2933   6
   2  12   9 201.239 11.2046   4
  -2  12  -9 166.466 12.4454   3
  -3 -12  -9 25.6793 5.34387   6
  -3  12  -9 15.2856 3.91787   5
  -3  12  -9 19.8566 4.61115   3
  -4  12  -9 81.0053 8.36214   3
   4  12   9 84.4381 7.79815   4
   4 -13  -9 54.9447 6.25634   5
  -4 -13   9 55.5157 7.08221   6
   4  13  -9 63.1350 10.0549   4
   4  13  -9 51.2363 6.69432   5
   4  13  -9 48.5810 8.94762   3
   3 -13  -9 59.9595 3.62905   3
   3 -13  -9 67.7803 6.09328   5
   3  13  -9 66.5157 6.99145   5
   3  13  -9 49.5888 7.28435   3
   3  13  -9 60.6495 7.31566   4
   2 -13  -9 115.801 8.25361   5
   2 -13  -9 113.570 6.71501   3
   2  13  -9 122.721 10.2299   3
   2  13  -9 110.361 8.91470   5
   1 -13  -9 3.20368 1.94956   3
   1 -13  -9 3.12384 1.82997   5
   1  13  -9 6.93865 2.98982   3
   1  13  -9 1.42952 2.03036   5
   0 -13  -9 0.22986 2.00425   3
   0 -13  -9 1.76999 1.17247   5
   0  13  -9 -1.2371 1.67475   5
   0  13  -9 -3.0118 1.58602   3
   0  13   9 -1.0647 0.97534   4
  -1  13  -9 12.0592 3.77773   3
  -1  13  -9 3.31649 2.27741   5
   1  13   9 6.64521 2.00111   4
  -2 -13  -9 4.04694 2.04402   6
  -2  13  -9 -0.2680 2.32067   5
   2  13   9 -1.7207 1.41933   4
  -2  13  -9 -1.0010 2.56412   3
  -3  13  -9 -1.6641 2.22042   5
   3  13   9 1.26014 2.17152   4
  -3  13  -9 1.81989 2.26069   3
  -4 -13  -9 12.8779 4.08053   6
  -4  13  -9 10.8246 4.26727   5
   4  13   9 4.33441 2.92774   4
  -4  13  -9 10.5093 3.72127   3
   3 -14  -9 167.411 11.1422   5
   3  14  -9 151.372 12.3436   3
   2 -14  -9 7.01775 2.32871   3
   2 -14  -9 9.65920 2.75025   5
   2  14  -9 13.8233 4.23286   5
   2  14  -9 12.2837 4.04340   3
   1 -14  -9 41.6443 4.44714   3
   1 -14  -9 41.4738 4.93946   5
   1  14  -9 44.7541 5.79385   5
   1  14  -9 33.8706 6.08649   3
   0  14  -9 19.6191 5.06799   3
   0  14   9 19.7814 2.65579   4
   0  14  -9 10.1028 3.47399   5
   1  14   9 46.7260 4.74933   4
  -1  14  -9 43.7777 7.13781   3
  -1  14  -9 43.9955 6.10927   5
  -2  14  -9 8.02505 3.50333   3
   2  14   9 6.18516 2.49300   4
  -2  14  -9 3.93521 2.82520   5
  -3 -14  -9 2.50138 2.69497   6
   3  14   9 2.14147 2.41659   4
  -3  14  -9 -7.3758 2.87213   3
   2 -15  -9 53.6507 6.06723   5
   2  15  -9 62.2020 7.75371   3
   1 -15  -9 91.4414 7.83356   5
   1  15  -9 70.0524 9.16945   3
   1  15  -9 67.3381 7.67173   5
   0  15   9 157.902 8.03949   4
   0  15  -9 136.236 13.9967   3
  -1  15  -9 17.6155 5.59941   5
  -1  15  -9 31.3424 7.32825   3
   1  15   9 21.1965 3.55067   4
   8   0 -10 283.462 15.7312   4
   8   0 -10 272.119 15.8890   5
  -8   0  10 255.751 12.6449   5
  -8   0  10 212.234 16.1591   3
  -7   0  10 176.500 9.06559   5
  -7   0  10 187.343 11.7138   6
  -7   0  10 177.113 10.2868   3
   7   0 -10 188.615 11.0790   6
   7   0 -10 197.959 12.1546   5
   7   0 -10 182.223 11.6044   4
   6   0 -10 225.950 12.8436   4
   6   0 -10 225.488 12.0537   6
  -6   0  10 229.309 10.2027   5
  -6   0  10 242.100 12.7178   6
   5   0 -10 345.539 16.0019   4
  -5   0  10 323.521 14.8895   6
   5   0 -10 304.785 14.5648   6
  -5   0  10 328.312 14.5156   3
   5   0 -10 330.300 15.6943   5
  -5   0  10 320.487 12.7395   5
   4   0 -10 292.497 12.7586   6
   4   0 -10 330.177 14.1910   5
   4   0 -10 299.321 14.2791   4
  -4   0  10 300.315 14.4484   3
   3   0 -10 1.21920 0.82731   3
  -3   0  10 0.71209 0.58010   3
   3   0 -10 3.18666 1.01877   5
   2   0 -10 332.786 13.2392   5
  -2   0  10 330.151 13.8867   3
   2   0 -10 340.930 14.1960   3
  -1   0  10 164.309 7.60839   3
   1   0 -10 151.084 6.52009   6
   1   0 -10 149.502 7.69258   4
   1   0 -10 154.704 7.54338   3
   0   0 -10 82.4710 5.04491   6
   0   0 -10 82.7765 5.02202   3
   0   0  10 82.7672 4.73835   6
   0   0 -10 79.1611 4.96985   4
  -1   0 -10 2398.54 91.8820   6
   1   0  10 2532.06 90.9934   4
  -1   0 -10 2395.54 91.3386   3
  -1   0 -10 2425.51 89.0481   5
  -1   0 -10 2380.82 91.0773   4
  -2   0 -10 224.618 11.5136   3
  -2   0 -10 224.938 12.6585   6
  -2   0 -10 212.948 9.95672   5
  -2   0 -10 228.498 11.6658   4
   2   0  10 217.720 12.1522   6
   2   0  10 229.720 11.3094   4
   3   0  10 485.991 21.2851   4
   3   0  10 465.435 22.6504   6
  -3   0 -10 448.844 21.2819   3
  -3   0 -10 480.468 23.3674   6
  -3   0 -10 468.708 20.0556   5
  -3   0 -10 476.923 23.2936   4
   4   0  10 447.874 23.1707   6
   4   0  10 444.617 21.1924   4
  -4   0 -10 464.381 21.7912   3
  -4   0 -10 461.110 20.5803   5
  -4   0 -10 463.635 24.0366   6
   5   0  10 772.659 31.3803   5
  -5   0 -10 845.694 35.9119   3
   5   0  10 819.097 35.2516   4
  -6   0 -10 417.144 24.6503   6
   6   0  10 393.076 21.0925   4
  -6   0 -10 447.671 22.3102   3
   7   0  10 81.0681 5.58580   5
  -7   0 -10 66.6818 9.05618   6
   7   0  10 86.7177 8.05396   4
  -7   0 -10 75.7210 8.09664   3
  -8  -1  10 8.50953 3.60845   6
   8  -1 -10 8.99864 2.51206   4
   8  -1 -10 7.49577 2.88668   5
  -8   1  10 7.46922 3.51567   3
   8   1 -10 9.49762 3.22098   4
   8   1 -10 9.91501 3.33423   5
  -8   1  10 9.13144 3.73672   6
  -7  -1  10 14.9224 3.64002   6
   7  -1 -10 14.0776 3.36164   5
   7  -1 -10 10.7603 2.69917   4
  -7  -1  10 8.86523 2.63329   3
   7  -1 -10 8.94507 2.76478   6
   7   1 -10 7.31892 2.45029   5
  -7   1  10 13.0121 3.37255   6
  -7   1  10 7.83084 1.86188   5
   7   1 -10 11.7312 3.31288   4
  -7   1  10 12.4856 2.85289   3
   7   1 -10 11.8243 2.57961   6
  -6  -1  10 2.61343 1.88456   3
   6  -1 -10 -0.6425 1.12937   5
   6  -1 -10 4.01535 1.72802   6
   6  -1 -10 0.53227 1.27428   4
  -6  -1  10 0.04210 1.63365   6
  -6  -1  10 1.44880 1.21078   5
   6   1 -10 1.75441 1.54553   4
   6   1 -10 -0.5107 1.21582   6
  -6   1  10 4.61304 1.97650   6
  -6   1  10 -0.6195 1.27800   3
  -5  -1  10 80.7422 5.54902   3
  -5  -1  10 78.5205 5.48077   6
   5  -1 -10 79.5231 5.76320   4
   5  -1 -10 73.8370 5.72358   5
   5   1 -10 70.0318 5.95154   4
  -5   1  10 79.7126 5.43941   6
   5   1 -10 71.5319 5.80577   5
   5   1 -10 80.1640 5.06108   6
  -4  -1  10 194.482 8.73461   6
   4  -1 -10 193.566 9.78940   4
  -4  -1  10 186.945 9.32879   3
   4  -1 -10 186.868 9.52063   5
   4  -1 -10 182.286 9.04253   6
  -4   1  10 191.862 8.59336   3
   4   1 -10 189.543 10.2564   4
  -4   1  10 195.900 8.78191   6
   4   1 -10 183.086 9.48792   3
   4   1 -10 194.339 9.88290   5
   3  -1 -10 183.654 8.75344   5
   3  -1 -10 194.424 8.34257   6
   3  -1 -10 198.183 8.67642   3
  -3  -1  10 206.500 9.47715   3
  -3   1  10 207.167 8.57587   3
   3   1 -10 212.816 9.71608   3
   3   1 -10 173.043 9.90288   5
  -2  -1  10 0.98580 0.85216   3
   2  -1 -10 1.20883 0.40318   5
   2  -1 -10 0.20882 0.63260   3
  -2   1  10 -0.6778 0.40089   3
   2   1 -10 0.44554 0.65815   5
   2   1 -10 1.37067 0.99561   3
   1  -1 -10 21.0802 1.79007   6
   1  -1 -10 22.6437 2.10122   4
   1  -1 -10 21.7241 2.01362   3
  -1  -1  10 22.6715 2.31026   3
  -1  -1  10 19.6573 1.34871   6
  -1   1  10 22.0690 2.07140   3
   1   1 -10 23.4371 2.40392   3
   1   1 -10 20.9323 1.38065   6
   0  -1  10 187.404 8.89418   6
   0  -1 -10 188.692 8.88748   3
   0  -1  10 176.907 9.08752   3
   0  -1 -10 187.628 9.07491   4
   0  -1 -10 181.769 9.11256   6
   0   1 -10 186.468 9.18921   3
   0   1 -10 187.147 9.20475   4
   0   1 -10 183.668 8.92922   6
  -1  -1 -10 88.1795 5.55772   4
  -1  -1 -10 79.0213 5.87432   6
   1  -1  10 77.1155 5.21448   4
  -1   1 -10 83.5310 5.49385   4
  -1   1 -10 83.1568 5.86608   6
   1   1  10 83.3840 5.57609   6
   1   1  10 81.5521 5.84892   4
  -1   1 -10 80.7706 4.41220   5
  -1   1 -10 86.1251 5.56855   3
   2  -1  10 68.5894 4.94871   4
   2  -1  10 58.1323 5.38815   6
  -2  -1 -10 64.7938 5.03887   3
  -2  -1 -10 63.9541 3.87037   5
  -2  -1 -10 67.5545 5.17941   4
  -2  -1 -10 58.3770 5.60148   6
  -2   1 -10 69.1545 5.17665   3
   2   1  10 63.0601 4.86982   4
  -2   1 -10 63.3717 4.35160   5
  -2   1 -10 65.4829 5.18722   4
  -2   1 -10 69.5500 6.01605   6
   2   1  10 70.8317 5.66044   6
   3  -1  10 23.9151 3.09899   4
   3  -1  10 17.1905 3.59104   6
  -3  -1 -10 20.4618 3.93434   6
  -3  -1 -10 20.7483 2.49279   5
  -3  -1 -10 25.7193 3.42788   4
   3   1  10 20.8185 3.28893   4
  -3   1 -10 18.4641 3.88513   6
  -3   1 -10 21.6218 3.49841   3
  -3   1 -10 24.9738 2.85285   5
   3   1  10 17.2461 3.37087   6
   4  -1  10 210.961 13.9181   6
  -4  -1 -10 220.488 14.4388   6
  -4  -1 -10 219.762 14.3795   4
   4  -1  10 217.036 9.70484   5
   4  -1  10 219.720 12.3471   4
  -4  -1 -10 223.956 11.6310   5
   4   1  10 224.652 12.5010   4
   4   1  10 211.510 13.7019   6
  -4   1 -10 230.501 14.6723   6
  -4   1 -10 228.435 12.7968   3
   5  -1  10 1.44202 0.96989   5
   5  -1  10 -2.2714 1.16891   4
  -5  -1 -10 3.10981 2.49908   6
   5   1  10 3.19656 1.99876   4
   5   1  10 1.56328 0.88286   5
  -5   1 -10 4.72982 2.59786   6
  -5   1 -10 -0.2002 0.91379   3
  -6  -1 -10 181.124 14.5287   6
   6  -1  10 203.448 12.5928   4
   6  -1  10 184.709 9.53599   5
  -6   1 -10 179.450 14.7560   6
   6   1  10 169.648 8.70842   5
  -6   1 -10 185.374 12.4003   3
   6   1  10 189.044 12.3329   4
   7  -1  10 72.2212 5.74911   5
  -7  -1 -10 86.7833 10.0968   6
  -7  -1 -10 102.020 8.98541   3
   7  -1  10 79.6798 8.14783   4
   7   1  10 77.7207 7.59089   4
  -7   1 -10 65.9695 7.46176   3
  -7   1 -10 66.8652 9.09397   6
   8  -2 -10 130.462 10.1777   5
  -8  -2  10 123.053 9.89392   6
   8  -2 -10 121.386 9.03292   4
   8   2 -10 115.279 10.0609   4
  -8   2  10 121.138 8.52408   3
   8   2 -10 130.809 10.4128   5
  -8   2  10 114.229 10.0642   6
  -8   2  10 116.354 6.45152   5
   7  -2 -10 117.786 8.48626   4
  -7  -2  10 122.653 7.54061   5
   7  -2 -10 125.857 9.33972   5
  -7  -2  10 122.702 9.41628   6
   7   2 -10 127.386 9.65641   4
  -7   2  10 118.276 9.27117   6
  -7   2  10 136.347 7.20977   5
   7   2 -10 127.049 9.47583   5
  -7   2  10 134.301 7.64328   3
   6  -2 -10 55.0432 5.00905   4
  -6  -2  10 53.1891 8.32321   3
  -6  -2  10 59.1308 5.70277   6
  -6  -2  10 70.2688 4.62151   5
   6  -2 -10 60.6968 5.83942   5
   6  -2 -10 53.3002 5.51717   6
  -6   2  10 66.0211 5.58307   6
   6   2 -10 65.2529 5.88243   5
   6   2 -10 57.8746 5.79158   4
  -6   2  10 64.6676 5.00132   3
  -5  -2  10 88.5253 5.94295   6
  -5  -2  10 76.7833 4.85474   5
   5  -2 -10 82.4307 6.01684   5
  -5  -2  10 79.7465 5.98065   3
   5  -2 -10 86.1720 5.75168   4
   5  -2 -10 79.7665 6.08216   6
   5   2 -10 78.6892 6.52359   4
  -5   2  10 86.6204 4.63301   3
   5   2 -10 87.0697 6.36012   5
  -5   2  10 88.2830 5.89656   6
   4  -2 -10 16.2673 2.18146   4
  -4  -2  10 15.9733 2.48341   3
  -4  -2  10 17.6464 1.82655   5
   4  -2 -10 19.6438 2.49620   6
   4  -2 -10 20.6695 2.43149   5
   4   2 -10 15.4152 2.76377   4
  -4   2  10 16.8695 1.54505   3
   4   2 -10 13.5641 2.36073   3
   4   2 -10 17.1364 2.68274   5
   3  -2 -10 594.684 23.4612   6
   3  -2 -10 580.677 23.0304   5
   3  -2 -10 559.157 23.3620   4
  -3  -2  10 615.508 22.1908   6
  -3  -2  10 616.524 24.2365   3
  -3   2  10 617.445 22.3127   3
   3   2 -10 590.900 24.4707   3
   3   2 -10 538.101 23.7715   5
  -2  -2  10 285.734 12.6873   3
   2  -2 -10 286.324 11.4390   3
   2  -2 -10 289.421 11.7145   6
   2   2 -10 272.887 12.9101   3
   2   2 -10 273.937 12.1200   5
   1  -2 -10 207.342 8.91356   3
   1  -2 -10 203.974 9.03682   4
  -1  -2  10 201.452 8.66390   6
  -1  -2  10 199.922 9.69608   3
   1  -2 -10 195.781 9.02046   6
   1   2 -10 207.135 9.99574   3
   0  -2 -10 17.5235 1.96077   3
   0  -2 -10 17.8750 2.04065   4
   0  -2  10 17.5611 2.18050   6
   0  -2  10 15.6563 2.18511   3
   0  -2 -10 17.0403 2.14164   6
   0   2 -10 18.5281 2.05632   6
   0   2 -10 17.1117 2.22948   4
   0   2  10 18.9985 1.97026   4
  -1  -2 -10 731.402 29.4659   4
   1  -2  10 717.494 30.2850   6
  -1  -2 -10 719.973 30.4715   6
   1  -2  10 725.134 29.8281   3
  -1  -2 -10 714.896 29.5954   3
   1   2  10 756.627 29.8726   6
   1   2  10 762.610 29.2420   4
  -1   2 -10 730.368 29.8107   4
  -1   2 -10 735.390 30.3024   6
  -1   2 -10 717.516 29.7144   3
  -1   2 -10 700.350 28.4638   5
  -2  -2 -10 28.0460 3.73612   6
   2  -2  10 30.0756 3.32584   4
  -2  -2 -10 23.8607 2.07980   5
   2  -2  10 28.1379 3.62981   6
  -2  -2 -10 24.5958 3.14969   4
  -2   2 -10 24.7340 2.68374   5
  -2   2 -10 23.5019 3.45619   6
  -2   2 -10 27.8421 3.22517   3
  -2   2 -10 25.5200 3.07195   4
   2   2  10 27.0051 3.39732   6
   2   2  10 27.3357 2.96621   4
   3  -2  10 480.338 24.3935   6
   3  -2  10 487.708 22.5192   4
  -3  -2 -10 523.742 25.1275   6
  -3  -2 -10 524.195 23.4094   4
  -3  -2 -10 513.090 21.3808   5
  -3   2 -10 517.375 24.9213   6
  -3   2 -10 480.924 21.8891   5
  -3   2 -10 505.622 23.2431   4
  -3   2 -10 550.340 23.3792   3
   3   2  10 528.782 22.8810   4
   3   2  10 537.437 24.2546   6
   4  -2  10 1003.83 40.0964   5
   4  -2  10 991.172 45.3307   6
  -4  -2 -10 1069.49 41.9530   5
   4  -2  10 990.241 42.6103   4
  -4  -2 -10 1059.62 46.2107   6
  -4   2 -10 1126.54 43.6763   3
   4   2  10 1066.04 45.4782   6
  -4   2 -10 1064.21 42.4827   5
   4   2  10 1039.86 43.0775   4
  -4   2 -10 1036.17 45.8540   6
  -5  -2 -10 144.284 12.1179   6
   5  -2  10 140.819 9.59585   4
   5  -2  10 131.486 7.60532   5
  -5   2 -10 147.548 10.1414   3
   5   2  10 147.382 10.0627   4
  -5   2 -10 142.466 11.7866   6
  -6  -2 -10 233.890 17.4588   6
   6  -2  10 233.947 14.2542   4
   6  -2  10 248.120 12.1780   5
  -6   2 -10 229.808 16.8595   6
   6   2  10 247.782 14.8379   4
  -6   2 -10 262.012 15.2534   3
   7  -2  10 266.759 14.4565   5
  -7  -2 -10 314.210 21.4492   6
   7  -2  10 314.750 17.8091   4
   7   2  10 316.358 18.2859   4
  -7   2 -10 274.288 20.1748   6
  -7   2 -10 336.128 18.3265   3
   8  -3 -10 16.4655 3.79578   5
   8  -3 -10 15.4861 3.21202   4
  -8  -3  10 20.0953 4.86555   6
  -8   3  10 18.2566 2.70808   3
  -8   3  10 14.5632 4.14980   6
   8   3 -10 6.30225 3.11520   4
   7  -3 -10 5.99990 2.17442   4
   7  -3 -10 2.11994 2.23866   6
   7  -3 -10 6.22045 2.40212   5
  -7  -3  10 7.76648 2.84723   6
  -7   3  10 7.02882 2.14255   3
  -7   3  10 4.53854 2.38336   6
   7   3 -10 5.41718 2.51132   4
   7   3 -10 6.70769 2.61529   5
   6  -3 -10 34.7445 5.14514   6
   6  -3 -10 45.5965 5.69587   5
   6  -3 -10 35.2375 3.87097   4
  -6  -3  10 38.3888 4.80837   6
  -6  -3  10 41.2974 4.92238   3
  -6   3  10 38.3817 4.66338   6
   6   3 -10 44.2150 5.07800   4
  -6   3  10 37.6847 3.06804   3
   6   3 -10 38.8582 4.86908   5
  -5  -3  10 7.76574 1.69746   5
   5  -3 -10 7.29531 2.05843   5
   5  -3 -10 3.64309 2.10850   6
  -5  -3  10 9.11225 2.07726   6
  -5  -3  10 6.34017 2.04055   3
   5  -3 -10 7.74094 1.66554   4
   5   3 -10 5.97696 2.11739   4
   5   3 -10 3.26679 1.81084   5
  -5   3  10 6.37524 0.99668   3
  -4  -3  10 230.997 10.5703   6
  -4  -3  10 235.546 11.4307   3
   4  -3 -10 213.772 10.6462   5
  -4  -3  10 222.025 9.93622   5
   4  -3 -10 221.421 10.2234   4
   4  -3 -10 197.968 11.4003   6
   4   3 -10 226.936 11.6014   3
   4   3 -10 210.240 11.9865   4
   4   3 -10 225.401 11.4730   5
   3  -3 -10 21.5012 2.56682   6
  -3  -3  10 20.2458 2.60314   3
   3  -3 -10 23.0364 2.00372   5
   3  -3 -10 23.8903 2.05129   4
  -3  -3  10 17.7563 1.84013   6
   3   3 -10 23.1637 2.72854   5
   3   3 -10 27.2356 3.04909   3
   2  -3 -10 319.416 12.3699   3
   2  -3 -10 321.376 12.8583   4
  -2  -3  10 320.862 14.4538   3
   2  -3 -10 327.469 13.7279   6
  -2  -3  10 316.035 12.8049   6
   2   3 -10 315.994 14.8309   3
   1  -3 -10 9.71943 1.39809   6
  -1  -3  10 10.1187 1.57511   6
   1  -3 -10 11.3957 1.34504   4
  -1  -3  10 8.36185 1.80035   3
   1  -3 -10 8.16045 1.10909   3
   1   3 -10 8.50413 1.81806   3
   1   3 -10 9.80987 1.70583   5
   0  -3  10 722.394 28.8109   6
   0  -3  10 688.026 28.6874   3
   0  -3 -10 700.461 27.8871   4
   0  -3 -10 707.754 28.7804   6
   0  -3 -10 705.720 27.9329   3
   0   3 -10 729.444 28.3678   6
   0   3  10 745.709 27.7324   4
   0   3 -10 725.800 29.0166   3
   0   3 -10 642.440 28.5379   4
   1  -3  10 225.871 11.9153   3
  -1  -3 -10 246.802 11.6766   4
  -1  -3 -10 234.813 12.5690   6
   1  -3  10 242.971 12.6588   6
  -1   3 -10 264.491 12.3640   3
  -1   3 -10 225.892 11.8433   4
   1   3  10 254.198 11.4568   4
  -1   3 -10 253.579 12.5547   6
  -1   3 -10 240.610 11.2588   5
  -2  -3 -10 92.1890 6.35089   4
   2  -3  10 88.9318 7.26239   6
  -2  -3 -10 91.7978 4.84250   5
  -2  -3 -10 97.5213 7.47071   6
   2  -3  10 81.5905 6.03637   4
  -2   3 -10 99.3778 6.01663   5
  -2   3 -10 94.6103 7.33579   6
  -2   3 -10 99.6673 6.72932   4
  -2   3 -10 91.2229 6.57889   3
   2   3  10 101.811 7.02701   6
   2   3  10 98.2456 6.23912   4
  -3  -3 -10 100.100 7.26270   4
   3  -3  10 108.645 7.21846   4
  -3  -3 -10 97.0444 5.93536   5
  -3  -3 -10 94.9704 8.24236   6
   3  -3  10 91.2544 7.95935   6
  -3   3 -10 103.196 8.44266   6
  -3   3 -10 92.1352 6.96899   3
   3   3  10 99.0792 6.97034   4
  -3   3 -10 94.3957 6.57156   5
  -3   3 -10 108.979 7.55142   4
  -4  -3 -10 5.54701 2.68769   6
   4  -3  10 14.6352 2.93045   4
  -4  -3 -10 12.2170 2.43629   5
  -4   3 -10 6.70565 2.86942   6
   4   3  10 12.1070 2.81768   4
  -4   3 -10 10.4152 2.59550   3
  -4   3 -10 14.1518 2.82068   5
  -5  -3 -10 157.901 13.0112   6
   5  -3  10 170.410 10.6801   4
   5  -3  10 158.246 8.79397   5
  -5   3 -10 154.486 12.5037   6
   5   3  10 168.345 10.8805   4
  -5   3 -10 155.057 10.7225   3
   6  -3  10 139.888 10.1186   4
   6  -3  10 150.501 8.62036   5
  -6  -3 -10 137.538 12.5271   6
  -6   3 -10 156.706 10.9998   3
   6   3  10 132.252 10.1350   4
  -6   3 -10 123.797 11.8897   6
  -7  -3 -10 3.53195 3.54694   6
   7  -3  10 3.48414 2.20893   4
   7  -3  10 1.77637 2.13021   5
  -7   3 -10 1.84544 2.49488   3
  -7   3 -10 4.52958 3.14667   6
   7   3  10 2.03265 1.37705   5
   7   3  10 -4.1610 2.19191   4
  -8  -4  10 25.2315 5.21143   6
   8  -4 -10 21.0628 3.46152   4
  -8   4  10 21.5158 2.70312   3
   8   4 -10 20.1047 4.62327   5
   8   4 -10 17.5371 4.40969   4
  -8   4  10 18.8458 4.73571   6
   7  -4 -10 21.3998 3.88245   5
  -7  -4  10 15.6510 3.82484   6
   7  -4 -10 25.0216 3.32581   4
   7  -4 -10 22.8910 4.51030   6
   7   4 -10 23.0243 4.28069   5
   7   4 -10 20.6951 4.59939   4
  -7   4  10 29.8218 4.68825   6
  -7   4  10 25.9217 2.21622   3
  -7   4  10 21.3956 2.61719   3
  -6  -4  10 1.74068 1.51531   5
   6  -4 -10 -0.4806 0.98834   4
  -6  -4  10 0.54603 1.65729   6
   6  -4 -10 0.07532 2.29196   6
   6   4 -10 -1.3144 1.23950   4
   6   4 -10 -0.3454 0.97538   5
  -6   4  10 -0.0364 0.48642   3
  -6   4  10 -0.3508 0.63954   3
   5  -4 -10 85.4521 5.22371   4
   5  -4 -10 77.6194 6.61755   6
  -5  -4  10 90.0342 5.68080   5
  -5  -4  10 94.3850 6.73556   3
  -5  -4  10 89.4863 6.43588   6
   5  -4 -10 82.2133 6.14620   5
   5   4 -10 89.6598 7.46129   4
   5   4 -10 74.7894 6.44593   5
   5   4 -10 86.1911 6.69059   3
  -4  -4  10 208.310 10.1779   6
  -4  -4  10 197.598 10.6732   3
   4  -4 -10 184.741 8.81685   4
  -4  -4  10 197.975 9.47375   5
   4  -4 -10 199.153 9.96702   5
   4  -4 -10 196.705 10.8787   6
   4   4 -10 201.778 11.0935   3
   4   4 -10 193.832 10.7616   5
   4   4 -10 210.227 11.7741   4
   3  -4 -10 42.2970 2.49793   4
   3  -4 -10 41.4984 4.10643   6
  -3  -4  10 39.2587 3.80506   3
   3  -4 -10 40.3316 2.88769   5
  -3  -4  10 40.2165 3.15371   6
   3   4 -10 40.4116 4.07589   3
   3   4 -10 44.5521 3.96153   5
   2  -4 -10 12.2139 1.06126   4
  -2  -4  10 15.0643 2.45480   3
  -2  -4  10 11.5265 1.56191   6
   2  -4 -10 12.9173 1.92429   6
   2   4 -10 11.0431 2.52121   3
   2   4 -10 11.9940 2.15639   5
   1  -4 -10 -0.4881 0.39052   3
  -1  -4  10 -1.1824 0.70789   6
  -1  -4  10 1.20507 0.88931   3
   1  -4 -10 0.04347 0.34867   4
   1   4 -10 0.46869 0.90368   3
   1   4 -10 0.01930 0.79146   5
   0  -4  10 108.412 7.00422   3
   0  -4 -10 117.364 7.15495   6
   0  -4  10 115.592 7.20774   6
   0  -4 -10 117.679 6.26110   4
   0   4 -10 129.752 6.95796   6
   0   4 -10 125.125 7.48324   3
   0   4  10 127.271 6.11180   4
   0   4 -10 120.543 7.13514   4
   1  -4  10 149.309 9.25009   6
  -1  -4 -10 149.520 8.17390   4
  -1  -4 -10 159.958 9.38429   6
   1  -4  10 155.205 8.79011   3
  -1   4 -10 149.429 8.11397   5
  -1   4 -10 130.971 8.32197   4
  -1   4 -10 159.499 8.92919   3
   1   4  10 158.551 7.98743   4
  -1   4 -10 157.702 9.50726   6
   2  -4  10 1016.11 43.4571   6
   2  -4  10 935.126 41.8308   3
  -2  -4 -10 1067.84 43.7865   6
  -2  -4 -10 1051.62 39.5726   5
  -2  -4 -10 1055.91 41.8442   4
   2   4  10 1077.73 41.5514   4
  -2   4 -10 1090.21 41.5162   5
  -2   4 -10 1009.43 42.0840   3
  -2   4 -10 1048.95 42.2037   4
  -2   4 -10 1072.65 43.4976   6
   3  -4  10 126.401 8.37587   4
  -3  -4 -10 139.689 7.66099   5
   3  -4  10 136.943 10.5674   6
  -3  -4 -10 140.144 10.3486   6
  -3   4 -10 146.976 9.31523   4
  -3   4 -10 132.387 8.86583   3
  -3   4 -10 137.157 10.2074   6
   3   4  10 148.882 9.75612   6
   3   4  10 151.116 8.99832   4
   4  -4  10 160.616 9.06923   5
   4  -4  10 178.086 10.6377   4
  -4  -4 -10 170.202 12.7083   6
  -4  -4 -10 190.048 9.98668   5
  -4   4 -10 191.539 11.2334   3
  -4   4 -10 171.537 12.5164   6
   4   4  10 174.282 10.8051   4
  -5  -4 -10 288.848 18.9440   6
   5  -4  10 317.044 16.2795   4
   5  -4  10 294.531 14.3429   5
  -5   4 -10 302.449 16.5066   3
  -5   4 -10 280.742 18.5465   6
   5   4  10 309.884 16.6467   4
  -6  -4 -10 92.8562 10.4195   6
   6  -4  10 92.5949 7.86013   4
   6  -4  10 88.3284 6.66574   5
   6   4  10 91.8438 8.08374   4
  -6   4 -10 100.423 8.47267   3
  -6   4 -10 91.5218 9.86199   6
   7  -4  10 73.9411 7.28563   4
  -7   4 -10 78.0935 8.20797   3
   8  -5 -10 23.3405 4.71156   5
   8  -5 -10 13.7022 2.93260   4
  -8  -5  10 15.6125 4.54252   6
   8   5 -10 21.4600 4.80144   5
   8   5 -10 21.4205 5.51773   4
  -7  -5  10 67.2103 7.22025   6
   7  -5 -10 61.0162 6.45894   5
   7  -5 -10 70.6646 5.20902   4
   7   5 -10 65.8726 7.61548   4
   7   5 -10 74.0733 7.32872   5
   6  -5 -10 64.3588 5.95532   5
   6  -5 -10 50.1833 6.92966   6
   6  -5 -10 62.7469 4.40616   4
  -6  -5  10 66.2442 6.35270   6
   6   5 -10 64.1393 6.47566   5
   6   5 -10 67.8470 6.82804   4
   5  -5 -10 21.9416 3.30466   5
  -5  -5  10 18.6821 3.87192   6
  -5  -5  10 23.8098 3.20409   5
   5  -5 -10 24.1738 2.15701   4
  -5  -5  10 18.6639 3.55319   3
   5  -5 -10 17.5436 3.96746   6
   5   5 -10 12.8491 3.61361   4
   5   5 -10 22.6357 3.84132   3
   4  -5 -10 62.7257 4.72144   5
  -4  -5  10 64.2068 5.00676   6
  -4  -5  10 60.6103 5.51768   3
  -4  -5  10 69.9289 4.78479   5
   4  -5 -10 62.1044 3.23612   4
   4  -5 -10 65.7693 5.85864   6
   4   5 -10 62.8434 5.87080   4
   4   5 -10 67.6894 5.80717   3
   4   5 -10 70.6342 5.63096   5
   3  -5 -10 4.13937 1.64140   6
  -3  -5  10 3.20762 1.23854   6
   3  -5 -10 5.35228 1.21858   5
  -3  -5  10 4.07537 1.57029   3
   3   5 -10 6.41814 1.98832   5
   3   5 -10 6.90969 2.25156   3
  -2  -5  10 62.6792 4.99692   3
   2  -5 -10 62.1772 2.87117   5
   2  -5 -10 59.4796 2.85878   5
  -2  -5  10 63.8040 4.25072   6
   2  -5 -10 64.7093 4.77509   6
   2   5 -10 62.3725 4.79688   5
   2   5 -10 59.4791 5.25511   3
  -1  -5  10 19.2681 2.46363   6
  -1  -5  10 23.4860 2.74543   3
   1  -5 -10 22.1868 1.65000   4
   1   5 -10 21.4206 3.00480   3
   1   5 -10 20.8269 2.69728   5
   0  -5 -10 205.069 10.7547   6
   0  -5  10 187.075 10.2386   3
   0  -5  10 201.474 10.5406   6
   0  -5 -10 195.093 9.08071   4
   0   5 -10 197.320 10.3571   4
   0   5 -10 181.039 9.72781   5
   0   5 -10 190.899 10.0113   5
   0   5  10 203.689 8.84917   4
   0   5 -10 189.062 10.5128   3
   1  -5  10 50.8345 4.58508   3
  -1  -5 -10 53.9307 2.50888   5
  -1  -5 -10 57.6621 4.22814   4
  -1  -5 -10 53.4064 5.08430   6
  -1  -5 -10 52.6384 2.50017   5
   1  -5  10 55.0453 5.23743   6
  -1   5 -10 53.4639 4.74486   3
   1   5  10 55.6401 4.07410   4
  -1   5 -10 57.9175 4.68387   4
  -1   5 -10 53.8693 4.35525   5
  -1   5 -10 53.4608 4.81137   6
   2  -5  10 27.5575 4.29570   6
   2  -5  10 28.3019 3.52319   3
  -2  -5 -10 25.2508 3.26546   4
  -2  -5 -10 23.9919 2.29826   5
  -2  -5 -10 29.1823 4.04834   6
   2   5  10 29.4223 3.26479   4
  -2   5 -10 23.4226 3.22676   4
  -2   5 -10 23.6670 3.08328   5
  -2   5 -10 26.3998 4.04311   6
  -2   5 -10 29.2724 3.83010   3
  -3  -5 -10 9.78033 2.86104   6
  -3  -5 -10 7.62137 1.69754   5
   3  -5  10 8.56103 2.83679   6
  -3  -5 -10 7.31172 2.28988   4
  -3   5 -10 7.40746 2.68909   6
   3   5  10 9.06811 2.35670   4
  -3   5 -10 4.80333 1.73166   4
  -3   5 -10 6.55905 1.89470   5
  -3   5 -10 7.71926 2.29022   3
  -4  -5 -10 29.3990 4.14236   5
  -4  -5 -10 37.3750 5.49548   6
   4  -5  10 26.8712 3.36392   5
   4  -5  10 26.4229 3.85932   4
  -4   5 -10 27.5783 3.99425   3
   4   5  10 26.7751 3.82803   4
  -4   5 -10 35.9714 6.13260   6
   5  -5  10 161.490 10.4233   4
  -5  -5 -10 163.496 13.0584   6
   5  -5  10 145.650 8.92100   5
  -5   5 -10 127.028 11.5339   6
   5   5  10 154.396 10.5987   4
  -5   5 -10 163.182 10.8852   3
   6  -5  10 29.2675 4.06293   5
   6  -5  10 38.7589 5.17057   4
  -6  -5 -10 46.2270 6.88170   6
  -6   5 -10 36.0364 4.83077   3
  -6   5 -10 47.9303 7.15844   6
   6   5  10 40.7416 5.35658   4
  -7  -5 -10 87.1215 10.4172   6
   7  -5  10 79.4561 7.75867   4
  -7   5 -10 60.3234 9.08471   6
  -7   5 -10 73.6745 7.94312   3
   7   5  10 58.4582 8.42479   4
   8  -6 -10 177.798 9.79351   4
   8  -6 -10 189.698 12.8768   5
  -8  -6  10 178.578 13.7888   6
   8   6 -10 198.509 13.7848   5
   8   6 -10 172.893 13.7159   4
  -7  -6  10 28.5309 5.47842   6
   7  -6 -10 35.2910 3.18430   4
   7  -6 -10 38.2299 5.15048   5
   7   6 -10 30.7593 5.69572   4
   7   6 -10 29.2569 5.21832   5
  -6  -6  10 113.038 8.61444   6
   6  -6 -10 95.2176 8.84850   6
   6  -6 -10 103.087 5.52026   4
   6  -6 -10 104.403 7.89655   5
   6   6 -10 105.973 9.07142   4
   6   6 -10 103.006 8.51252   5
   5  -6 -10 9.73198 1.15073   4
  -5  -6  10 7.66689 2.34168   6
   5  -6 -10 12.3423 3.26209   6
   5  -6 -10 11.9674 2.62075   5
  -5  -6  10 6.64105 2.39413   5
   5   6 -10 9.18826 2.74471   5
   5   6 -10 8.12510 2.77704   4
   5   6 -10 12.8869 2.88005   3
  -4  -6  10 226.573 12.2376   6
  -4  -6  10 205.288 12.0529   3
   4  -6 -10 225.303 12.7790   6
   4  -6 -10 216.426 11.1142   5
   4   6 -10 228.673 12.4388   5
   4   6 -10 236.612 13.3734   4
   4   6 -10 233.879 13.0138   3
  -3  -6  10 5.96322 1.85543   3
   3  -6 -10 9.40330 2.29185   6
  -3  -6  10 6.79472 1.76906   6
   3   6 -10 6.53085 2.02038   5
   3   6 -10 8.08998 2.35859   3
   2  -6 -10 36.1592 2.39660   5
  -2  -6  10 33.8474 3.36925   6
   2  -6 -10 37.9187 2.41392   5
   2  -6 -10 44.3020 4.10922   6
   2   6 -10 33.7134 3.75588   5
   2   6 -10 38.2464 4.31100   3
   1  -6 -10 7.77058 0.86775   4
   1  -6 -10 10.1315 1.39488   3
  -1  -6  10 9.94429 2.13686   3
  -1  -6  10 6.38781 1.84772   6
   1   6 -10 10.0993 2.51376   3
   1   6 -10 7.39317 1.93616   5
   0  -6 -10 79.1379 4.88096   3
   0  -6  10 70.9179 5.94838   6
   0  -6  10 80.3618 6.10624   3
   0  -6 -10 81.6532 4.53395   4
   0   6 -10 82.8279 6.15610   3
   0   6 -10 61.5617 5.07318   5
   0   6  10 79.0364 4.33075   4
   0   6 -10 69.5106 5.25998   5
   1  -6  10 18.7737 3.05464   3
   1  -6  10 11.2490 3.09069   6
  -1  -6 -10 15.9661 3.14051   6
  -1  -6 -10 17.1435 1.55528   5
  -1  -6 -10 16.0180 2.49687   4
  -1  -6 -10 19.1144 1.57416   5
  -1   6 -10 19.7085 3.12978   6
  -1   6 -10 16.3073 2.72778   5
  -1   6 -10 17.8135 3.05388   4
   1   6  10 15.7722 2.19859   4
  -1   6 -10 17.6931 3.14871   3
   2  -6  10 195.850 11.2990   3
  -2  -6 -10 192.329 9.38988   5
  -2  -6 -10 201.909 12.4827   6
   2  -6  10 182.512 12.3003   6
  -2  -6 -10 202.117 10.7911   4
  -2   6 -10 195.235 11.4124   3
  -2   6 -10 204.750 12.1770   6
   2   6  10 207.934 10.7795   4
  -2   6 -10 197.792 11.0192   5
  -2   6 -10 219.165 11.5930   4
  -3  -6 -10 558.851 27.6028   6
  -3  -6 -10 568.173 23.6659   5
   3  -6  10 521.491 27.2664   6
  -3  -6 -10 555.296 25.1373   4
  -3   6 -10 570.946 27.2443   6
  -3   6 -10 550.751 25.4158   3
   3   6  10 593.732 25.1843   4
  -4  -6 -10 153.804 12.4287   6
  -4  -6 -10 150.000 9.14535   5
   4  -6  10 149.680 8.94919   5
   4   6  10 160.328 10.3457   4
   5  -6  10 71.0599 6.46595   4
  -5  -6 -10 63.9426 7.99607   6
   5  -6  10 64.2846 5.63280   5
  -5   6 -10 65.4797 6.54339   3
   5   6  10 79.9240 7.17705   4
  -5   6 -10 58.7709 7.77622   6
  -6  -6 -10 25.3442 5.98793   6
   6  -6  10 24.2719 4.52022   4
  -6   6 -10 25.0863 4.75519   3
   6   6  10 23.1081 4.69815   4
  -6   6 -10 17.2593 5.14389   6
  -7  -6 -10 111.563 12.3714   6
   7  -6  10 93.8556 7.45703   5
  -7   6 -10 72.4365 10.1625   6
   7   6  10 94.0849 9.13764   4
  -7   6 -10 78.6610 9.66528   3
  -7  -7  10 26.2136 5.49091   6
   7  -7 -10 31.7869 2.88460   4
   7  -7 -10 44.1860 5.19546   5
   7   7 -10 39.6353 5.91445   5
   7   7 -10 35.5125 6.12919   4
   6  -7 -10 195.135 8.75341   4
   6  -7 -10 229.812 12.8360   5
  -6  -7  10 240.316 14.1986   6
   6   7 -10 206.197 14.0209   4
   6   7 -10 207.054 13.3698   5
  -5  -7  10 202.085 12.4406   6
   5  -7 -10 202.727 11.4380   5
   5  -7 -10 201.078 13.1187   6
   5   7 -10 209.456 12.9353   3
   5   7 -10 206.024 13.3303   4
   5   7 -10 204.233 12.4927   5
  -4  -7  10 159.341 9.66685   6
   4  -7 -10 152.221 8.64117   5
   4  -7 -10 135.842 10.0449   6
  -4  -7  10 142.841 8.57860   5
   4   7 -10 162.439 10.4780   3
   4   7 -10 152.646 11.3750   5
   4   7 -10 146.901 10.5983   4
   3  -7 -10 189.159 9.23733   5
   3  -7 -10 190.865 11.2653   6
  -3  -7  10 168.407 10.9327   3
   3   7 -10 189.362 10.7333   5
   3   7 -10 186.526 11.3320   3
   2  -7 -10 4.31320 1.04908   5
   2  -7 -10 1.85286 1.68922   6
  -2  -7  10 1.72244 1.50106   3
  -2  -7  10 3.24402 1.57948   6
   2  -7 -10 4.38944 0.98888   5
   2   7 -10 0.89795 1.47649   5
   2   7 -10 6.54325 2.25608   3
   1  -7 -10 73.7614 3.80330   5
  -1  -7  10 67.8420 5.69101   3
  -1  -7  10 82.0985 5.98593   6
   1  -7 -10 80.5899 3.96673   5
   1  -7 -10 80.1082 4.44772   3
   1   7 -10 77.3620 5.89636   5
   1   7 -10 69.8761 5.75755   5
   1   7 -10 88.0828 6.78042   3
   0  -7 -10 367.079 15.5675   3
   0  -7 -10 353.147 14.0295   5
   0  -7 -10 361.078 14.8043   4
   0  -7  10 309.434 16.5476   3
   0  -7  10 340.909 17.3240   6
   0  -7 -10 355.144 14.0406   5
   0   7  10 365.322 14.6805   4
   0   7 -10 369.005 16.7383   5
   0   7 -10 357.938 17.4756   3
  -1  -7 -10 3.79555 1.35024   4
  -1  -7 -10 2.00325 0.93091   5
   1  -7  10 2.26268 1.90360   6
  -1  -7 -10 2.29929 1.34105   3
   1  -7  10 1.78943 1.54814   3
  -1  -7 -10 3.06636 1.55910   6
  -1  -7 -10 2.84684 0.86905   5
   1   7  10 3.07789 1.19029   4
  -1   7 -10 1.76173 1.44898   3
  -1   7 -10 3.66637 1.57536   5
  -1   7 -10 1.22326 1.47867   4
  -1   7 -10 4.37254 1.77902   5
  -2  -7 -10 449.245 19.6988   4
  -2  -7 -10 411.460 21.5788   6
   2  -7  10 406.464 21.7743   6
  -2  -7 -10 430.761 18.2267   5
  -2   7 -10 429.647 20.3542   4
   2   7  10 433.974 19.4481   4
  -2   7 -10 443.934 20.4355   5
  -2   7 -10 451.394 21.6401   6
  -2   7 -10 414.134 20.4017   3
  -3  -7 -10 72.4951 7.70717   6
  -3  -7 -10 74.2634 5.40572   5
  -3  -7 -10 76.8967 6.26542   4
  -3   7 -10 70.5288 6.54948   3
  -3   7 -10 66.9904 7.09436   6
   3   7  10 70.4092 5.86472   4
   4  -7  10 79.4868 6.31931   5
  -4  -7 -10 73.6392 8.28945   6
  -4  -7 -10 81.4873 6.47764   5
  -4   7 -10 85.4482 8.81525   6
   4   7  10 81.0455 7.03792   4
  -4   7 -10 86.2895 7.43003   3
  -5  -7 -10 47.1656 7.38546   6
   5  -7  10 48.3918 4.79720   5
   5   7  10 39.4641 5.56443   4
  -5   7 -10 45.7915 6.03942   3
  -5   7 -10 49.6098 7.79513   6
   6  -7  10 6.95194 2.77381   4
   6  -7  10 5.51273 2.65675   5
  -6  -7 -10 11.5556 4.22152   6
  -6   7 -10 6.65876 2.57993   3
  -6   7 -10 5.69412 3.60536   6
   6   7  10 7.51795 2.99803   4
   7  -8 -10 38.7359 5.57662   5
   7   8 -10 23.2827 5.48306   5
  -6  -8  10 36.0987 5.60158   6
   6  -8 -10 47.4117 5.20891   5
   6   8 -10 42.7341 6.01010   4
   6   8 -10 36.9523 5.08089   5
  -5  -8  10 226.595 13.7161   6
   5   8 -10 225.756 13.6506   5
   5   8 -10 223.901 14.5724   4
   5   8 -10 243.265 14.4921   3
   4  -8 -10 289.915 14.4971   5
  -4  -8  10 316.939 16.1061   6
   4  -8 -10 292.242 16.7532   6
   4   8 -10 296.100 16.9861   4
   4   8 -10 301.621 16.7829   3
   4   8 -10 309.919 16.0884   5
   3  -8 -10 99.6105 6.19870   5
   3   8 -10 100.158 7.50844   5
   3   8 -10 101.237 8.00487   3
  -2  -8  10 11.5297 2.81650   6
   2  -8 -10 15.3923 1.18316   3
   2  -8 -10 19.6110 3.39274   6
   2   8 -10 16.4209 3.32010   5
   2   8 -10 10.1084 2.70746   3
  -1  -8  10 83.3908 6.82097   6
   1  -8 -10 88.8245 5.11854   3
   1  -8 -10 85.3760 4.77146   5
   1  -8 -10 95.1126 4.97959   5
   1   8 -10 103.738 7.07573   5
   1   8 -10 77.0795 6.96885   3
   1   8 -10 79.7869 6.42526   5
   0  -8  10 94.2811 8.68462   3
   0  -8 -10 120.549 5.95705   5
   0  -8 -10 109.926 5.77850   5
   0  -8 -10 113.996 6.75593   3
   0  -8  10 109.616 8.30780   6
   0   8  10 120.308 5.91831   4
   0   8 -10 113.958 8.40535   3
   0   8 -10 128.535 8.01191   5
   0   8 -10 117.406 7.71615   5
  -1  -8 -10 8.40785 2.51529   6
   1  -8  10 14.9567 3.37005   6
  -1  -8 -10 14.5648 2.09592   4
  -1  -8 -10 15.5721 2.70304   3
  -1   8 -10 12.4906 3.19867   4
  -1   8 -10 9.65372 2.88124   3
  -1   8 -10 12.2865 2.82063   5
  -2  -8 -10 571.215 26.9857   6
   2  -8  10 487.553 26.7930   6
  -2  -8 -10 545.764 23.8770   4
  -2  -8 -10 562.021 22.9105   5
  -2  -8 -10 553.198 24.5550   3
   2   8  10 583.694 24.1255   4
  -2   8 -10 522.583 25.1420   3
  -3  -8 -10 112.080 7.90222   4
  -3  -8 -10 121.117 7.49399   5
  -3  -8 -10 124.999 12.1013   6
  -3   8 -10 104.538 9.71452   6
   3   8  10 118.749 8.15332   4
  -4  -8 -10 68.6883 7.96506   6
   4  -8  10 67.4415 5.76850   5
  -4   8 -10 59.3946 7.45491   6
  -4   8 -10 62.8835 6.32607   3
  -5  -8 -10 79.5779 9.00734   6
   5  -8  10 78.1626 6.50456   5
  -5   8 -10 64.5849 8.07656   6
  -5   8 -10 78.2410 7.44739   3
   5   8  10 68.5482 7.00803   4
   6  -8  10 99.8025 8.26077   5
  -6   8 -10 126.005 9.90693   3
   6   8  10 119.790 10.2513   4
  -7  -9  10 158.396 12.7337   6
   7  -9 -10 146.887 12.8495   5
   7   9 -10 167.113 13.4234   4
   7   9 -10 145.560 11.9110   5
   6  -9 -10 -1.8864 1.70807   5
  -6  -9  10 -3.6636 2.44301   6
   6   9 -10 3.66147 2.41491   4
   6   9 -10 4.94952 2.86558   5
   5  -9 -10 138.219 9.42923   5
  -5  -9  10 165.697 11.2735   6
   5   9 -10 160.770 11.8589   4
   5   9 -10 152.473 11.5784   3
   5   9 -10 147.604 10.7822   5
   4  -9 -10 91.4978 6.61066   5
  -4  -9  10 100.504 7.84053   6
   4   9 -10 97.9185 7.84465   5
   4   9 -10 73.2689 7.59166   4
   4   9 -10 88.7425 8.38043   3
   3  -9 -10 270.179 15.6087   6
   3  -9 -10 273.316 13.0829   5
   3   9 -10 272.736 14.6740   5
   3   9 -10 251.975 15.2035   3
   2  -9 -10 70.0177 6.75271   6
   2  -9 -10 71.1486 4.87657   5
   2  -9 -10 71.8725 3.64509   3
  -2  -9  10 71.0431 6.22591   6
   2  -9 -10 74.9847 4.94821   5
   2   9 -10 58.9956 6.71921   5
   2   9 -10 72.4734 6.87019   3
   1  -9 -10 273.376 12.1811   5
  -1  -9  10 251.150 14.4889   6
   1  -9 -10 269.278 11.9708   5
   1   9 -10 277.759 15.3208   3
   1   9 -10 268.908 14.1981   5
   0  -9  10 3.48079 2.65238   6
   0  -9 -10 5.70504 1.74662   3
   0  -9 -10 4.60003 1.27238   5
   0  -9 -10 2.53235 1.23138   5
   0   9 -10 7.95877 2.33477   5
   0   9 -10 7.59885 2.88951   3
   0   9  10 5.91191 1.21224   4
   1  -9  10 0.09584 1.86904   6
  -1  -9 -10 -1.1022 1.27077   3
  -1  -9 -10 -0.3487 1.29369   6
  -1  -9 -10 -1.3876 0.77861   5
  -1   9 -10 0.47632 1.72763   3
   1   9  10 -0.6039 0.91001   4
  -1   9 -10 -0.3393 1.41119   5
  -2  -9 -10 299.425 14.6806   4
  -2  -9 -10 316.227 20.0134   6
  -2  -9 -10 301.689 14.0853   5
  -2  -9 -10 298.954 15.4840   3
  -2   9 -10 288.673 15.5733   5
   2   9  10 293.058 14.7487   4
  -3  -9 -10 33.2303 3.85847   5
  -3  -9 -10 38.6223 5.58217   6
   3   9  10 31.3891 4.21746   4
  -3   9 -10 27.0904 5.50361   6
  -3   9 -10 26.6485 4.62569   3
   4  -9  10 155.945 10.4868   5
  -4  -9 -10 171.310 13.5320   6
  -4   9 -10 161.805 12.6993   6
   4   9  10 171.934 11.1175   4
  -4   9 -10 165.513 11.4568   3
  -5  -9 -10 51.2832 7.34517   6
   5  -9  10 52.7000 5.62219   5
  -5   9 -10 57.4292 6.59793   3
  -5   9 -10 35.1061 6.74397   6
   5   9  10 46.5619 5.80722   4
  -6  -9 -10 -0.4558 2.94677   6
   6  -9  10 4.90901 2.39015   5
   6   9  10 3.91262 3.25734   4
  -6   9 -10 -0.5570 1.82661   3
  -6   9 -10 -0.5039 2.37761   6
   6 -10 -10 2.42316 1.99244   5
  -6 -10  10 6.15865 2.80291   6
   5 -10 -10 108.756 8.24672   5
  -5 -10  10 118.540 9.72372   6
   5  10 -10 104.552 8.89340   5
   5  10 -10 104.653 9.83472   4
   5  10 -10 125.369 10.6812   3
  -4 -10  10 20.2481 3.90021   6
   4  10 -10 15.5371 3.81534   3
   4  10 -10 18.0975 3.65728   5
   4  10 -10 14.9486 3.99311   4
   3 -10 -10 520.549 22.3055   5
   3  10 -10 483.214 24.7844   3
  -2 -10  10 15.1263 3.84066   6
   2 -10 -10 18.0604 1.88183   3
   2 -10 -10 18.8693 2.87442   5
   2 -10 -10 18.5322 2.76987   5
   2  10 -10 18.7625 4.27141   3
   2  10 -10 19.5728 3.57700   5
   1 -10 -10 122.784 6.91097   5
   1 -10 -10 110.734 6.53461   5
   1 -10 -10 107.419 6.37430   3
  -1 -10  10 104.751 8.53556   6
   1  10 -10 118.054 9.08034   3
   1  10 -10 112.494 8.05780   5
   0 -10 -10 114.508 6.80368   5
   0 -10  10 113.120 9.79477   6
   0 -10 -10 123.898 7.45562   3
   0 -10 -10 134.074 7.38700   5
   0  10 -10 121.332 9.28820   3
   0  10 -10 126.286 8.79032   5
   0  10  10 123.725 6.28127   4
  -1 -10 -10 5.34466 1.62382   5
  -1 -10 -10 0.99691 1.80116   3
   1  10  10 5.57332 1.54404   4
  -1  10 -10 3.94370 2.26707   5
  -1  10 -10 2.81982 1.75061   3
  -2 -10 -10 38.5619 5.51329   6
  -2  10 -10 37.7651 5.15726   5
  -2  10 -10 39.8030 5.17417   3
   2  10  10 37.5149 4.16652   4
  -3 -10 -10 62.3676 7.29412   6
   3  10  10 58.2942 5.80836   4
  -3  10 -10 59.2677 6.20647   5
  -3  10 -10 67.3776 6.68832   3
  -4 -10 -10 52.9430 7.12682   6
   4  10  10 54.5045 5.84785   4
  -4  10 -10 49.4862 6.18476   3
  -4  10 -10 51.3480 6.15089   5
   5 -10  10 10.1948 3.05355   5
  -5 -10 -10 17.1419 5.67090   6
  -5  10 -10 6.50324 3.93937   6
   5  10  10 11.0262 3.05391   4
  -5  10 -10 13.2543 3.78700   3
  -6 -11  10 4.17481 3.27678   6
   6  11 -10 3.59601 3.37841   4
   6  11 -10 3.15298 3.01367   5
  -5 -11  10 68.4368 7.65834   6
   5 -11 -10 81.5485 6.95899   5
   5  11 -10 70.0744 8.05515   3
   5  11 -10 71.9698 8.10300   4
   4 -11 -10 102.166 7.68234   5
  -4 -11  10 125.389 9.44029   6
   4  11 -10 106.297 9.26820   3
   4  11 -10 104.823 9.28929   4
   4  11 -10 88.2009 8.32364   5
   3 -11 -10 33.6727 3.90708   5
   3  11 -10 26.0753 4.91977   3
   3  11 -10 31.4278 4.70912   5
   2 -11 -10 115.403 7.38421   5
   2 -11 -10 115.557 5.83184   3
   2  11 -10 104.287 9.50841   3
   1 -11 -10 18.9439 2.93117   5
   1 -11 -10 14.0367 2.51549   5
   1 -11 -10 15.2552 2.48600   3
   1  11 -10 14.6261 3.57749   5
   1  11 -10 19.3398 4.42459   3
   0 -11 -10 45.7937 3.83391   5
   0 -11 -10 41.2743 3.94551   5
   0 -11 -10 47.4808 4.53669   3
   0  11 -10 24.6531 4.34433   5
   0  11 -10 32.1622 5.69971   3
   0  11  10 34.1028 2.92577   4
  -1 -11 -10 16.0226 3.08612   3
  -1 -11 -10 9.99396 3.21490   6
   1  11  10 11.8906 2.25726   4
  -1  11 -10 16.0162 3.77825   5
  -1  11 -10 20.6555 4.46982   3
  -2 -11 -10 92.0361 9.24238   6
  -2 -11 -10 100.324 6.80624   5
  -2  11 -10 89.4353 8.12234   3
   2  11  10 97.0460 6.98866   4
  -2  11 -10 92.1759 7.73844   5
  -3 -11 -10 10.9093 3.74095   6
   3  11  10 9.70074 2.75740   4
  -3  11 -10 16.4663 3.96244   3
  -3  11 -10 17.8657 4.01986   5
  -4 -11 -10 33.9638 6.73491   6
  -4  11 -10 29.3537 5.93521   3
   4  11  10 37.2293 5.42549   4
  -4  11 -10 37.6377 5.76664   5
   5 -11  10 19.5735 3.81645   5
  -5 -11 -10 22.0350 5.90122   6
  -5  11 -10 14.7779 4.44836   5
  -5  11 -10 18.1450 4.56035   3
   5  11  10 23.3954 4.91624   4
   5 -12 -10 3.37666 2.21824   5
  -5 -12  10 3.78439 2.85828   6
   5  12 -10 5.18875 3.12782   4
   5  12 -10 3.61836 2.88456   3
   5  12 -10 1.46988 3.04645   5
  -4 -12  10 116.253 9.85657   6
   4 -12 -10 113.134 8.40598   5
   4  12 -10 103.019 9.62591   3
   4  12 -10 106.411 9.68718   4
   3 -12 -10 11.6400 2.69904   5
   3  12 -10 9.18450 3.11231   3
   3  12 -10 6.77617 2.93174   5
   2  12 -10 544.599 25.3368   5
   2  12 -10 510.007 26.5941   3
   1 -12 -10 50.6354 4.50448   3
   1 -12 -10 46.4528 4.57285   5
   1 -12 -10 49.1995 4.77138   5
   1  12 -10 51.6731 6.23739   3
   1  12 -10 47.6528 5.70898   5
   0 -12 -10 232.694 13.9978   3
   0 -12 -10 221.286 11.6371   5
   0 -12 -10 232.737 12.3451   5
   0  12 -10 221.006 13.3729   5
   0  12  10 231.389 10.2552   4
   0  12 -10 203.916 13.9916   3
  -1 -12 -10 9.93641 3.21683   6
  -1  12 -10 5.67421 2.74015   3
   1  12  10 12.2345 2.34758   4
  -1  12 -10 10.8033 3.51886   5
  -2 -12 -10 72.2745 7.97142   6
   2  12  10 62.0235 5.63801   4
  -2  12 -10 61.6849 7.41243   3
  -2  12 -10 65.1649 6.86916   5
  -3 -12 -10 21.4113 4.99483   6
   3  12  10 25.2006 5.31857   4
  -3  12 -10 18.7344 4.35135   5
  -3  12 -10 25.0754 5.24826   3
  -4 -12 -10 53.2120 7.85861   6
  -4  12 -10 43.8893 6.97322   3
   4  12  10 48.3773 6.23892   4
   4 -13 -10 3.87990 2.35314   5
  -4 -13  10 7.47629 3.01066   6
   4  13 -10 4.01064 3.18833   3
   4  13 -10 1.92738 3.19632   4
   3 -13 -10 17.5829 3.17665   5
   3  13 -10 12.3757 3.71996   5
   3  13 -10 10.2472 3.86314   3
   2 -13 -10 3.59852 1.60034   3
   2 -13 -10 2.49021 1.77159   5
   2  13 -10 2.22257 2.95225   3
   2  13 -10 8.97349 2.78180   5
   1 -13 -10 0.83700 1.30371   5
   1 -13 -10 4.33384 2.00514   3
   1  13 -10 5.79179 2.86961   3
   1  13 -10 -1.8988 2.03741   5
   0 -13 -10 44.1515 4.82982   3
   0 -13 -10 49.3361 4.83796   5
   0  13 -10 41.2627 6.77107   3
   0  13  10 49.0084 3.40786   4
   0  13 -10 35.0573 5.33136   5
  -1 -13 -10 51.8337 6.65547   6
  -1  13 -10 39.4192 5.60224   5
   1  13  10 43.9058 4.26485   4
  -1  13 -10 48.5366 6.66030   3
  -2 -13 -10 86.7050 9.54336   6
  -2  13 -10 94.9465 8.19005   5
  -2  13 -10 76.6123 8.65566   3
   2  13  10 81.1011 6.83465   4
  -3 -13 -10 100.609 12.5471   6
   3  13  10 104.000 8.32438   4
  -3  13 -10 77.6286 8.71653   3
  -3  13 -10 103.725 9.23558   5
   3 -14 -10 2.09768 2.36697   5
   3  14 -10 2.65025 2.84451   3
   3  14 -10 2.62367 2.81211   4
   2 -14 -10 76.7872 6.78874   5
   2  14 -10 71.3257 7.40917   5
   1 -14 -10 2.48380 1.60438   5
   1  14 -10 -0.7105 2.26520   3
   1  14 -10 1.35692 2.64146   5
   0  14  10 215.801 9.53187   4
   0  14 -10 192.936 14.4471   3
  -1 -14 -10 50.9048 7.36840   6
  -1  14 -10 38.7580 6.85211   3
  -1  14 -10 35.5192 5.86682   5
   1  14  10 45.4279 4.50740   4
  -2 -14 -10 65.6033 8.79988   6
   2  14  10 87.1594 6.90545   4
  -2  14 -10 51.7985 9.57385   3
   1 -15 -10 1.61417 2.37582   5
   1  15 -10 -5.0130 2.77499   3
   1  15 -10 4.35094 2.93860   5
   0  15 -10 10.9717 3.66732   3
   0  15 -10 2.74982 2.81382   5
   8   0 -11 -1.5760 1.96251   4
  -8   0  11 1.69730 3.39549   3
  -8   0  11 -0.1604 2.49107   6
   8   0 -11 1.50964 2.21965   5
  -8   0  11 -3.1350 2.14995   5
   8   0 -11 -4.0289 2.23739   6
   7   0 -11 -0.2778 1.64843   5
  -7   0  11 -0.7141 1.36755   5
   7   0 -11 -0.4986 1.57243   6
  -7   0  11 0.96408 1.92863   6
   7   0 -11 0.83032 1.53281   4
  -7   0  11 2.83767 2.21386   3
  -6   0  11 -1.1901 0.66875   5
   6   0 -11 0.24367 1.06291   6
   6   0 -11 0.10297 1.20553   4
  -6   0  11 -1.9510 1.32337   6
  -6   0  11 -2.2868 1.21558   3
   5   0 -11 1.87061 0.87315   6
   5   0 -11 -1.4100 1.20293   4
   5   0 -11 1.57093 1.27188   5
  -5   0  11 -1.1141 1.06826   3
  -5   0  11 -0.7087 1.00217   6
   4   0 -11 -0.4756 0.74154   4
   4   0 -11 0.78326 0.83593   3
   4   0 -11 0.99058 0.88849   5
   3   0 -11 -0.1666 0.80734   3
   3   0 -11 0.40356 0.76758   5
  -3   0  11 0.13491 0.69041   3
   2   0 -11 0.23451 0.80752   3
   2   0 -11 0.02252 0.49821   5
  -2   0  11 1.09332 0.62453   3
   1   0 -11 0.49983 0.38528   6
   1   0 -11 0.46857 0.60437   3
   1   0 -11 0.31092 0.61361   4
   0   0  11 1.69542 0.71034   6
   0   0 -11 0.09705 0.64114   6
   0   0 -11 -0.4806 0.61307   3
   0   0 -11 -0.3929 0.66951   4
  -1   0 -11 0.59452 0.93178   6
   1   0  11 -0.1048 0.63344   4
  -1   0 -11 0.24671 0.42793   5
  -1   0 -11 0.15671 0.58142   3
  -1   0 -11 -1.2399 0.51529   4
  -2   0 -11 0.74187 0.96164   4
  -2   0 -11 -0.8020 0.74016   3
   2   0  11 -0.1672 0.65183   4
   2   0  11 0.51272 1.17371   6
  -2   0 -11 -0.3590 0.59524   5
  -2   0 -11 0.22669 1.17050   6
   3   0  11 -2.6302 1.38532   6
  -3   0 -11 1.92475 1.68280   6
   3   0  11 0.19724 0.94596   4
  -3   0 -11 1.18930 0.95138   5
  -3   0 -11 -1.2449 0.98222   4
  -3   0 -11 -0.5001 1.10159   3
  -4   0 -11 -0.8775 1.04017   3
  -4   0 -11 3.70400 2.55233   6
   4   0  11 -0.7961 1.15002   4
  -5   0 -11 1.22414 1.57622   3
   5   0  11 -0.0607 1.19661   4
  -5   0 -11 -3.3841 1.55872   6
   6   0  11 -2.2945 1.83628   4
  -6   0 -11 0.39511 2.59939   6
   6   0  11 1.97000 1.22849   5
  -6   0 -11 -0.4839 1.30397   3
   7   0  11 -0.8656 2.10511   5
   7   0  11 -3.4126 1.52975   4
   8  -1 -11 171.334 11.9384   5
  -8  -1  11 173.273 11.8813   6
   8  -1 -11 164.782 11.0509   4
   8  -1 -11 144.550 11.0238   6
  -8   1  11 161.919 11.3925   6
   8   1 -11 149.540 10.3432   6
   8   1 -11 173.589 13.8255   5
   8   1 -11 177.328 12.0753   4
  -7  -1  11 1.38619 2.25836   3
  -7  -1  11 3.81176 2.30691   6
   7  -1 -11 -0.5897 1.74120   6
  -7  -1  11 -1.7088 1.55872   5
   7  -1 -11 4.52534 2.07635   5
   7  -1 -11 0.85837 1.71467   4
   7   1 -11 -0.7523 1.98484   4
   7   1 -11 1.05203 1.75274   5
  -7   1  11 1.44269 1.82118   3
   7   1 -11 1.90979 1.63373   6
  -6  -1  11 114.146 7.35533   6
  -6  -1  11 110.765 6.92340   3
   6  -1 -11 93.9261 7.18460   4
   6  -1 -11 103.819 7.02424   6
   6   1 -11 101.313 7.71671   5
   6   1 -11 92.0580 6.22042   6
   6   1 -11 91.7717 7.41638   4
   5  -1 -11 5.88390 1.78628   6
  -5  -1  11 10.6779 1.94768   6
  -5  -1  11 9.97741 2.23118   3
   5  -1 -11 9.12288 2.25379   4
   5  -1 -11 11.0800 2.26762   5
  -5   1  11 6.96928 1.77422   6
   5   1 -11 10.2133 2.29281   5
   5   1 -11 8.03396 2.37193   4
  -5   1  11 13.0998 2.43497   3
  -4  -1  11 284.930 12.5561   3
   4  -1 -11 259.756 13.8842   4
   4  -1 -11 276.892 11.7024   6
   4  -1 -11 275.044 12.6111   5
   4   1 -11 267.370 13.4248   4
  -4   1  11 278.949 11.5889   3
   4   1 -11 271.943 12.8731   5
   4   1 -11 248.985 12.4471   3
   3  -1 -11 260.101 11.3884   5
   3  -1 -11 269.655 11.4207   3
  -3  -1  11 276.824 12.0974   3
   3   1 -11 249.053 12.1847   3
  -3   1  11 282.327 11.3244   3
   2  -1 -11 777.166 29.9341   3
  -2  -1  11 789.215 30.4931   3
  -2   1  11 789.183 29.8071   3
   2   1 -11 747.607 30.6656   3
   2   1 -11 765.925 29.6833   5
  -1  -1  11 17.0658 2.14244   3
   1  -1 -11 16.2489 1.66390   6
   1  -1 -11 15.6062 2.19526   4
  -1  -1  11 16.0309 1.22961   6
   1  -1 -11 16.3261 1.87595   3
   1   1 -11 17.2500 1.27633   6
   1   1 -11 19.0643 2.21652   4
   1   1 -11 16.7476 2.06582   3
   0  -1 -11 70.6130 4.69149   4
   0  -1  11 73.8014 4.64964   6
   0  -1  11 74.5361 4.93180   3
   0  -1 -11 71.1535 4.65746   3
   0  -1 -11 76.8229 4.98553   6
   0   1 -11 74.7656 7.58675   3
   0   1 -11 68.0394 4.62846   6
   0   1 -11 76.7154 5.02402   4
  -1  -1 -11 176.535 9.09637   3
  -1  -1 -11 160.757 9.60243   6
   1  -1  11 178.361 9.15108   4
   1  -1  11 167.667 9.45697   6
  -1  -1 -11 172.052 9.14658   4
  -1   1 -11 176.199 9.24251   3
  -1   1 -11 165.419 7.80527   5
  -1   1 -11 157.282 9.02014   4
  -1   1 -11 166.388 9.59352   6
   1   1  11 179.684 8.99170   4
   1   1  11 171.857 9.20333   6
  -2  -1 -11 486.789 19.6242   5
  -2  -1 -11 491.905 23.0741   6
   2  -1  11 492.134 22.6724   6
  -2  -1 -11 479.487 21.7172   4
  -2  -1 -11 513.714 21.8268   3
   2  -1  11 482.741 21.3811   4
  -2   1 -11 489.621 21.6931   3
   2   1  11 505.799 22.3723   6
  -2   1 -11 492.018 21.8984   4
  -2   1 -11 452.485 20.0498   5
  -2   1 -11 496.314 22.9859   6
   2   1  11 492.550 21.3164   4
  -3  -1 -11 66.1625 4.76233   5
   3  -1  11 64.2457 5.48460   4
  -3  -1 -11 76.5602 6.09839   3
  -3  -1 -11 69.8030 6.96407   6
   3  -1  11 72.0911 6.78368   6
  -3  -1 -11 74.4784 6.08215   4
   3   1  11 65.6141 6.24859   6
  -3   1 -11 71.8262 6.77174   6
  -3   1 -11 62.7549 4.92420   5
  -3   1 -11 72.9058 6.09462   4
  -3   1 -11 70.2285 5.96401   3
   3   1  11 74.0072 5.83113   4
  -4  -1 -11 206.750 14.1161   6
  -4  -1 -11 195.026 12.0424   3
  -4  -1 -11 200.460 10.9629   5
   4  -1  11 210.281 12.0486   4
  -4   1 -11 193.177 13.6873   6
   4   1  11 217.850 12.2098   4
  -4   1 -11 204.157 11.2835   5
  -4   1 -11 212.095 12.3738   3
  -5  -1 -11 33.8940 4.42530   3
   5  -1  11 27.2157 4.57537   4
   5  -1  11 30.0377 2.64225   5
  -5  -1 -11 28.2744 5.69375   6
  -5   1 -11 27.2460 4.64770   3
  -5   1 -11 22.7727 5.33742   6
   5   1  11 31.0083 4.28353   4
   6  -1  11 359.623 19.2407   4
  -6  -1 -11 310.160 21.5669   6
  -6  -1 -11 374.156 19.8498   3
   6   1  11 352.506 19.1469   4
  -6   1 -11 338.750 21.9534   6
  -6   1 -11 385.085 19.9465   3
   7  -1  11 2.35396 1.73812   5
  -7  -1 -11 4.56913 2.64440   3
   7  -1  11 2.33259 2.59937   4
  -7  -1 -11 -1.0752 2.98541   6
   7   1  11 3.49778 2.67041   4
  -7   1 -11 -0.7137 2.43448   3
   7   1  11 4.73780 1.60579   5
  -7   1 -11 -0.2209 3.93420   6
   8  -2 -11 -2.7590 1.84811   5
  -8  -2  11 0.92883 2.95175   6
   8  -2 -11 2.56047 1.68279   4
  -8   2  11 0.82185 2.16229   6
   8   2 -11 3.48482 2.48605   4
  -7  -2  11 7.59659 2.74352   6
   7  -2 -11 1.03127 2.15205   6
   7  -2 -11 4.13802 2.09251   5
  -7  -2  11 2.79189 3.66623   3
   7  -2 -11 4.95748 2.19276   4
  -7   2  11 0.53895 1.92795   6
   7   2 -11 3.56045 2.44999   4
   7   2 -11 8.03451 2.62953   5
  -7   2  11 5.03347 2.03914   3
  -6  -2  11 13.0014 2.98402   6
  -6  -2  11 5.61733 1.71416   5
   6  -2 -11 8.71909 2.01017   4
   6  -2 -11 11.5132 2.67914   6
  -6   2  11 11.4486 2.73963   6
   6   2 -11 9.11886 2.70161   4
   6   2 -11 6.74940 2.29368   5
   5  -2 -11 292.565 13.9815   4
  -5  -2  11 299.543 14.1047   3
  -5  -2  11 290.174 13.4450   6
   5  -2 -11 294.499 14.3544   5
   5   2 -11 293.157 14.7650   5
   5   2 -11 284.515 15.0900   4
   4  -2 -11 42.9872 3.47509   6
   4  -2 -11 44.8155 3.55295   5
   4  -2 -11 34.7982 3.21886   4
  -4  -2  11 42.6389 3.79047   3
  -4  -2  11 39.5373 2.73130   6
   4   2 -11 40.7161 4.19125   4
  -4   2  11 41.2919 2.49131   3
   4   2 -11 34.0987 3.60195   5
   4   2 -11 41.3922 3.90669   3
   3  -2 -11 127.788 6.21191   6
  -3  -2  11 126.732 7.02927   3
   3  -2 -11 124.849 5.60822   3
   3  -2 -11 118.425 5.94444   5
   3   2 -11 121.944 7.52855   3
   3   2 -11 115.097 6.73821   5
  -3   2  11 132.598 5.60226   3
   2  -2 -11 118.996 5.59281   3
  -2  -2  11 119.443 6.63435   3
   2  -2 -11 120.602 5.90006   4
   2  -2 -11 108.850 5.33944   6
   2  -2 -11 114.982 5.52136   6
   2   2 -11 124.311 6.22495   5
   2   2 -11 106.646 7.04854   3
   1  -2 -11 73.2076 4.22628   3
  -1  -2  11 74.5809 4.92551   3
  -1  -2  11 71.5910 3.90789   6
   1  -2 -11 74.7449 4.41753   4
   1  -2 -11 74.5083 4.38102   6
   1   2 -11 72.7374 7.34074   3
   0  -2  11 164.064 8.71863   3
   0  -2 -11 167.364 8.32265   4
   0  -2 -11 162.646 8.18613   3
   0  -2 -11 165.858 8.75006   6
   0  -2  11 162.265 8.47529   6
   0   2 -11 167.576 8.84400   3
   0   2 -11 162.019 8.31493   6
   0   2 -11 160.374 8.69459   4
   1  -2  11 27.2088 3.17245   3
  -1  -2 -11 25.4665 3.15498   6
  -1  -2 -11 31.0679 3.00589   4
  -1  -2 -11 24.5821 2.87563   3
   1  -2  11 23.4375 3.21933   6
  -1   2 -11 24.7776 2.47235   5
  -1   2 -11 24.0441 2.92693   4
   1   2  11 28.7625 3.07075   6
  -1   2 -11 25.7299 3.00706   3
   1   2  11 26.8404 2.76041   4
  -1   2 -11 23.1563 3.10064   6
   2  -2  11 125.014 8.75292   6
  -2  -2 -11 128.627 7.96548   4
   2  -2  11 131.280 7.86015   4
  -2  -2 -11 126.757 6.17078   5
  -2  -2 -11 131.122 8.94695   6
  -2   2 -11 126.212 8.03662   4
   2   2  11 128.592 8.29418   6
   2   2  11 117.055 7.45036   4
  -2   2 -11 118.357 6.90590   5
  -2   2 -11 143.374 9.22175   6
  -2   2 -11 118.774 7.82119   3
  -3  -2 -11 79.4423 5.09876   5
  -3  -2 -11 72.9154 7.31117   6
  -3  -2 -11 76.2408 6.21591   4
   3  -2  11 63.5017 5.56397   4
   3  -2  11 67.8359 6.94549   6
  -3   2 -11 78.5311 7.18084   6
  -3   2 -11 74.5541 5.47920   5
  -3   2 -11 70.8901 6.10375   3
   3   2  11 89.6096 6.28957   4
  -3   2 -11 69.3772 6.06653   4
  -4  -2 -11 0.64702 1.25430   5
  -4  -2 -11 3.52035 2.40209   6
   4  -2  11 1.85147 1.29000   4
   4   2  11 9.35264 2.83710   4
  -4   2 -11 1.12650 1.56350   5
  -4   2 -11 1.24485 1.68044   3
  -4   2 -11 -0.0066 1.90116   6
   5  -2  11 22.9148 2.67526   5
  -5  -2 -11 23.6311 5.04132   6
   5  -2  11 27.2654 4.42990   4
  -5   2 -11 23.9697 5.69847   6
  -5   2 -11 23.5738 4.13553   3
   5   2  11 28.2566 4.04827   4
   6  -2  11 1.35934 1.51289   5
  -6  -2 -11 -0.0981 2.52189   6
   6  -2  11 3.82838 2.16796   4
   6   2  11 5.17316 2.33776   4
  -6   2 -11 2.86571 3.13882   6
  -6   2 -11 4.84564 2.21261   3
   7  -2  11 27.1050 5.85813   4
   7  -2  11 34.5288 4.11954   5
  -7   2 -11 39.1141 9.45782   6
  -7   2 -11 30.8073 5.32172   3
   8  -3 -11 108.265 7.80821   4
  -8  -3  11 93.5068 8.96355   6
  -8   3  11 84.7314 8.62250   6
   8   3 -11 82.6140 8.49830   5
   8   3 -11 105.650 9.44032   4
  -7  -3  11 65.1370 5.42678   5
  -7  -3  11 66.6428 6.59730   6
   7  -3 -11 53.4819 7.88071   6
   7  -3 -11 64.4578 5.49117   4
   7  -3 -11 61.4215 6.43685   5
   7   3 -11 67.3768 6.84632   5
   7   3 -11 66.9981 6.92252   4
  -7   3  11 68.7318 6.52761   6
  -6  -3  11 433.754 18.1757   5
  -6  -3  11 448.632 20.0813   3
   6  -3 -11 408.273 20.3107   6
   6  -3 -11 423.545 19.1581   4
   6   3 -11 455.192 21.2297   5
   6   3 -11 369.010 22.9422   4
   5  -3 -11 -0.1367 1.46659   6
  -5  -3  11 -1.0940 1.09205   6
   5  -3 -11 1.47370 1.20613   5
  -5  -3  11 0.88042 1.34078   3
  -5  -3  11 3.55651 1.32541   5
   5  -3 -11 -0.3348 0.87205   4
   5   3 -11 -0.0378 1.02115   5
   5   3 -11 -1.4534 1.23148   4
   4  -3 -11 664.854 27.4308   4
   4  -3 -11 706.393 28.0508   5
  -4  -3  11 709.185 27.3427   6
   4  -3 -11 696.594 28.5087   6
  -4  -3  11 687.574 28.6899   3
   4   3 -11 715.946 29.0678   5
   4   3 -11 670.161 28.9837   3
   3  -3 -11 170.072 8.53791   6
  -3  -3  11 179.665 9.23219   3
   3  -3 -11 172.408 7.70390   5
   3  -3 -11 165.404 7.83439   4
  -3  -3  11 168.247 7.25120   6
   3   3 -11 175.015 8.99621   5
   3   3 -11 167.597 9.48637   3
   2  -3 -11 387.299 15.9531   6
   2  -3 -11 396.290 15.3925   4
   2  -3 -11 396.628 14.9353   3
  -2  -3  11 335.766 14.6809   6
  -2  -3  11 390.540 14.9780   6
  -2  -3  11 370.652 16.7818   3
   2   3 -11 392.513 16.4097   5
   2   3 -11 395.268 17.4405   3
  -1  -3  11 92.6895 5.78395   3
   1  -3 -11 91.0174 4.94577   4
  -1  -3  11 97.1707 5.22823   6
   1  -3 -11 92.5268 4.82281   3
   1  -3 -11 89.1206 5.32711   6
   1   3 -11 90.2998 6.03217   3
   1   3 -11 90.4758 5.26488   5
   0  -3 -11 38.1125 3.54392   6
   0  -3  11 38.8938 3.53348   3
   0  -3  11 35.3227 3.41428   6
   0  -3 -11 33.9989 3.03939   3
   0   3 -11 41.8694 3.38806   6
   0   3  11 39.7262 3.00458   4
   0   3 -11 46.0344 3.97378   3
   0   3 -11 36.0744 3.50123   4
  -1  -3 -11 6.47404 2.15042   6
  -1  -3 -11 5.45191 1.48287   4
   1  -3  11 3.42936 1.43170   3
   1  -3  11 3.53339 1.92031   6
  -1   3 -11 6.92110 1.53268   5
  -1   3 -11 5.37998 1.69765   6
  -1   3 -11 2.10197 1.08824   4
  -1   3 -11 3.08435 1.23822   3
  -2  -3 -11 305.477 12.7758   5
  -2  -3 -11 281.462 16.0467   6
  -2  -3 -11 296.066 14.8815   4
   2  -3  11 318.350 15.0276   4
   2  -3  11 304.089 16.2333   6
   2   3  11 317.023 14.6484   4
  -2   3 -11 328.874 16.4668   6
  -2   3 -11 329.170 15.4008   3
   2   3  11 313.207 15.5147   6
  -2   3 -11 281.572 13.9846   5
  -3  -3 -11 6.62592 1.47755   5
  -3  -3 -11 7.18967 2.24567   4
   3  -3  11 6.84465 1.94139   4
  -3  -3 -11 2.81769 1.79655   6
   3  -3  11 1.86787 2.35744   6
  -3   3 -11 2.03000 1.48193   3
  -3   3 -11 6.86513 1.99827   5
  -3   3 -11 7.42825 2.25026   4
   3   3  11 4.10061 1.79003   4
   3   3  11 4.26937 2.02033   6
  -3   3 -11 7.91613 2.83337   6
  -4  -3 -11 292.464 13.8416   5
  -4  -3 -11 267.213 16.9578   6
   4  -3  11 258.411 14.3087   4
  -4   3 -11 278.510 15.0419   3
  -4   3 -11 269.593 16.9353   6
   4   3  11 265.774 14.6245   4
   5  -3  11 29.3429 3.17982   5
   5  -3  11 33.3887 4.53699   4
  -5  -3 -11 29.6288 6.07730   6
  -5   3 -11 18.8588 4.04394   3
  -5   3 -11 21.7099 5.49000   6
   5   3  11 36.7689 4.88914   4
   6  -3  11 146.544 10.3532   4
  -6  -3 -11 161.224 13.6107   6
   6  -3  11 142.264 8.42379   5
  -6   3 -11 146.819 10.8729   3
   6   3  11 147.750 10.6899   4
  -6   3 -11 135.538 12.7089   6
  -7   3 -11 1.41719 1.84759   3
  -8  -4  11 -1.4914 3.22463   6
   8  -4 -11 4.49212 2.03304   4
   8   4 -11 3.96767 2.57306   5
  -8   4  11 5.04431 1.40537   3
   8   4 -11 2.67971 2.54193   4
  -8   4  11 9.33533 3.55947   6
   7  -4 -11 25.8401 5.03783   6
  -7  -4  11 24.7331 4.48501   6
   7  -4 -11 23.6348 3.26698   4
   7  -4 -11 35.3547 4.78585   5
   7   4 -11 27.1495 4.94132   4
   7   4 -11 16.4123 3.79982   5
  -6  -4  11 29.5818 4.27856   6
   6  -4 -11 20.0019 4.16846   6
   6  -4 -11 32.0727 3.18240   4
   6  -4 -11 24.8674 4.70850   5
   6   4 -11 19.2252 4.05610   4
   6   4 -11 23.5140 4.29920   5
  -5  -4  11 51.3097 4.06700   5
   5  -4 -11 62.3057 5.54699   6
   5  -4 -11 53.8809 4.75805   5
  -5  -4  11 51.6420 4.60317   6
  -5  -4  11 48.2841 4.92496   3
   5  -4 -11 54.5497 3.94656   4
   5   4 -11 50.5441 5.60958   4
   5   4 -11 48.3028 4.89502   3
   5   4 -11 57.6506 5.42216   5
   4  -4 -11 387.319 16.6708   5
   4  -4 -11 368.619 17.5139   6
  -4  -4  11 396.491 17.7548   3
   4  -4 -11 349.435 15.4442   4
  -4  -4  11 384.000 16.4847   6
   4   4 -11 391.651 17.8593   5
   4   4 -11 383.386 18.0716   3
   3  -4 -11 120.811 5.21906   4
  -3  -4  11 126.668 7.47196   3
   3  -4 -11 111.755 5.33762   4
   3  -4 -11 119.222 5.73601   5
   3  -4 -11 116.737 6.93756   6
  -3  -4  11 99.9924 5.73538   6
   3   4 -11 107.368 6.94073   5
   3   4 -11 121.945 7.73533   3
   2  -4 -11 600.839 22.4948   4
   2  -4 -11 584.227 24.0083   6
   2  -4 -11 596.651 21.9320   3
  -2  -4  11 556.904 24.6266   3
  -2  -4  11 593.234 23.2409   6
   2   4 -11 592.702 24.3088   5
   2   4 -11 590.215 25.3577   3
  -1  -4  11 43.1452 3.47598   6
   1  -4 -11 41.6764 2.85554   4
   1  -4 -11 42.4849 2.81525   3
  -1  -4  11 43.2627 4.01187   3
   1   4 -11 45.7599 3.72417   5
   1   4 -11 47.3651 4.36370   3
   0  -4 -11 0.74423 0.75058   6
   0  -4 -11 -0.5150 0.43318   3
   0  -4  11 0.41641 0.70990   3
   0  -4 -11 0.36707 0.67606   4
   0  -4  11 0.77977 2.02292   6
   0   4 -11 0.43536 0.80769   3
   0   4  11 -0.0348 0.51919   4
   0   4 -11 -0.5469 0.72597   6
   0   4 -11 0.50777 0.90545   4
  -1  -4 -11 210.043 10.5266   4
   1  -4  11 223.009 11.8654   6
  -1  -4 -11 198.601 11.4877   6
   1  -4  11 209.601 11.0877   3
   1   4  11 189.832 13.3946   4
  -1   4 -11 205.096 11.0074   4
  -1   4 -11 198.811 11.0391   3
  -1   4 -11 202.338 11.8210   6
  -1   4 -11 212.654 10.4348   5
  -2  -4 -11 19.5037 1.84418   5
  -2  -4 -11 14.6456 3.25815   6
  -2  -4 -11 18.2172 3.04666   4
   2  -4  11 21.3893 3.79210   6
   2  -4  11 17.3885 3.08070   3
  -2   4 -11 20.0410 2.74393   5
   2   4  11 18.2389 2.54939   4
  -2   4 -11 17.0682 3.56284   6
  -2   4 -11 18.6850 3.22410   3
  -2   4 -11 19.3124 3.26403   4
   3  -4  11 1.98124 1.50229   4
  -3  -4 -11 -0.9078 0.90656   5
  -3  -4 -11 0.24981 1.24126   6
   3  -4  11 1.14264 1.69785   6
  -3  -4 -11 -0.8757 1.28902   4
   3   4  11 0.41942 1.28663   4
  -3   4 -11 1.12379 1.47704   3
  -3   4 -11 0.82605 1.39982   5
  -3   4 -11 0.66425 1.42865   6
  -4  -4 -11 2.70421 2.47200   6
  -4  -4 -11 -2.5527 1.38046   5
   4  -4  11 2.22283 1.24975   5
   4  -4  11 2.06179 1.55502   4
  -4   4 -11 1.57866 1.51813   3
  -4   4 -11 -0.0674 2.00370   6
   4   4  11 0.23687 1.58304   4
   5  -4  11 50.5455 4.35503   5
  -5  -4 -11 48.6072 7.39561   6
   5  -4  11 48.7128 5.40224   4
   5   4  11 44.7204 5.36138   4
  -5   4 -11 60.6454 6.34003   3
  -5   4 -11 56.8815 7.91086   6
   6  -4  11 25.5879 3.64159   5
   6  -4  11 36.1856 4.87732   4
  -6  -4 -11 27.2998 6.46533   6
   6   4  11 31.2907 5.44066   4
  -6   4 -11 31.0087 6.58948   6
  -6   4 -11 42.4503 5.44929   3
  -7  -4 -11 144.671 13.5565   6
   7  -4  11 105.579 7.79250   5
   7   4  11 134.694 10.6770   4
  -7   4 -11 125.703 12.7635   6
   8  -5 -11 245.407 15.2201   5
   8  -5 -11 247.373 12.5733   4
  -8  -5  11 241.428 15.2855   6
   8   5 -11 222.629 15.2921   5
  -7  -5  11 71.1543 7.16440   6
   7  -5 -11 71.0337 6.90425   5
   7  -5 -11 68.3056 5.02331   4
   7   5 -11 85.6225 7.89984   5
   7   5 -11 76.7769 8.02941   4
   6  -5 -11 226.633 10.6588   4
  -6  -5  11 224.914 12.8690   6
  -6  -5  11 212.665 11.6536   5
   6  -5 -11 237.851 13.0628   5
   6  -5 -11 234.067 15.9701   6
   6   5 -11 219.946 14.1440   4
   6   5 -11 226.726 13.5106   5
   5  -5 -11 6.78571 1.20895   4
   5  -5 -11 8.92412 2.31730   5
  -5  -5  11 5.05492 1.90061   5
  -5  -5  11 5.18338 1.95987   6
   5  -5 -11 10.2767 2.65628   6
   5   5 -11 8.24786 2.55235   3
   5   5 -11 10.6091 2.65526   5
   5   5 -11 11.7928 3.73813   4
   4  -5 -11 181.636 10.3307   6
  -4  -5  11 162.668 8.48745   5
   4  -5 -11 179.660 9.03094   5
  -4  -5  11 168.364 10.0012   3
  -4  -5  11 164.512 9.05021   6
   4  -5 -11 159.468 7.01008   4
   4   5 -11 166.251 9.88000   5
   4   5 -11 176.813 10.4442   3
  -3  -5  11 6.63443 1.49435   6
   3  -5 -11 7.26995 1.33130   5
  -3  -5  11 10.8192 2.58289   3
   3  -5 -11 8.19225 2.31015   6
   3   5 -11 7.68388 2.18167   5
   3   5 -11 8.19026 2.44200   3
  -2  -5  11 6.62682 1.50556   6
  -2  -5  11 2.28717 1.09903   3
   2  -5 -11 4.64834 1.45624   6
   2   5 -11 4.44141 1.66700   5
   2   5 -11 7.51728 2.33064   3
  -1  -5  11 162.737 8.69166   6
   1  -5 -11 162.912 7.27291   4
   1  -5 -11 161.398 7.42113   3
  -1  -5  11 161.454 9.16708   3
   1   5 -11 156.828 8.67118   5
   1   5 -11 168.300 9.63455   3
   0  -5 -11 35.9851 2.98644   4
   0  -5  11 38.4133 3.81404   3
   0  -5 -11 40.3862 3.94686   6
   0  -5  11 41.4641 4.02375   6
   0   5 -11 42.3043 4.01693   4
   0   5 -11 26.5895 3.20022   5
   0   5 -11 38.8561 4.03363   3
   0   5  11 37.1751 2.77699   4
   1  -5  11 24.1559 4.09702   3
  -1  -5 -11 21.3694 3.36152   6
   1  -5  11 25.5857 3.82635   6
  -1  -5 -11 28.4755 2.99526   4
  -1   5 -11 25.3177 2.96340   5
  -1   5 -11 21.8955 3.49895   3
  -1   5 -11 24.7499 3.16267   4
  -1   5 -11 25.6450 3.37291   6
   1   5  11 23.7006 3.07211   4
  -2  -5 -11 9.57875 2.25426   4
  -2  -5 -11 9.61066 1.53973   5
   2  -5  11 10.2275 3.14939   6
  -2  -5 -11 12.5425 3.16462   6
   2  -5  11 14.3897 2.88582   3
  -2   5 -11 8.86602 2.25255   3
  -2   5 -11 12.1037 2.60248   4
  -2   5 -11 13.9404 3.08512   5
   2   5  11 15.3942 2.70331   4
  -2   5 -11 9.11214 2.83668   6
  -3  -5 -11 441.389 18.7768   5
   3  -5  11 402.247 22.1497   6
  -3  -5 -11 437.153 20.7124   4
  -3  -5 -11 440.020 22.8437   6
  -3   5 -11 445.829 20.2375   5
   3   5  11 426.836 20.1759   4
  -3   5 -11 444.412 20.9521   3
  -3   5 -11 410.021 22.0387   6
   4  -5  11 69.4505 6.32069   4
   4  -5  11 69.8268 5.24838   5
  -4   5 -11 63.5488 7.70467   6
   4   5  11 73.9558 6.45398   4
  -4   5 -11 70.3527 6.93045   3
   5  -5  11 36.4864 4.52115   4
   5  -5  11 29.1056 3.50343   5
  -5  -5 -11 34.1200 6.39012   6
  -5   5 -11 41.3555 5.33564   3
   5   5  11 40.7012 5.11645   4
  -5   5 -11 24.5348 5.87448   6
  -6  -5 -11 32.0942 6.69174   6
   6  -5  11 28.6051 4.03368   5
   6  -5  11 30.2271 4.89724   4
  -6   5 -11 43.0460 5.35337   3
  -6   5 -11 23.7915 6.39303   6
   6   5  11 37.2383 5.09074   4
  -7  -5 -11 1.97859 3.36122   6
   7  -5  11 -0.6059 2.14845   4
   7   5  11 -1.8424 1.50429   4
  -7   5 -11 -0.3881 2.90604   6
  -7  -6  11 58.5284 6.94897   6
   7  -6 -11 62.3997 6.50740   5
   7   6 -11 54.7397 6.99305   4
   7   6 -11 61.3961 6.96305   5
   6  -6 -11 10.8526 2.88941   5
  -6  -6  11 15.8657 3.28088   6
   6  -6 -11 3.56306 3.15458   6
   6  -6 -11 8.19642 1.29674   4
   6   6 -11 8.47652 3.10528   4
   6   6 -11 10.4877 3.07359   5
   5  -6 -11 119.634 8.92541   6
   5  -6 -11 107.468 4.60310   4
   5  -6 -11 114.403 7.57663   5
  -5  -6  11 114.598 7.95960   6
  -5  -6  11 107.218 6.95378   5
   5   6 -11 99.2153 7.93204   5
   5   6 -11 102.092 8.63473   4
   5   6 -11 104.338 8.39760   3
   4  -6 -11 61.9717 4.86376   5
   4  -6 -11 67.4078 6.04920   6
  -4  -6  11 66.7494 5.38803   6
  -4  -6  11 66.5396 4.93923   5
   4   6 -11 70.8497 6.42328   3
   4   6 -11 68.8325 5.86936   5
  -3  -6  11 162.255 9.90200   3
   3  -6 -11 166.241 8.01879   5
  -3  -6  11 165.806 8.86632   6
   3  -6 -11 181.160 10.0766   6
   3   6 -11 157.334 9.48923   5
   3   6 -11 146.575 9.92085   3
   2  -6 -11 62.3792 3.17568   5
  -2  -6  11 64.2513 5.23554   3
   2  -6 -11 63.9732 5.19134   6
   2  -6 -11 62.9418 3.25966   5
  -2  -6  11 56.1991 4.80889   6
   2   6 -11 69.7562 6.11144   3
   2   6 -11 67.9525 5.38645   5
   1  -6 -11 92.7089 4.94187   3
  -1  -6  11 97.0797 6.48475   6
   1  -6 -11 91.9371 4.46128   4
  -1  -6  11 92.3247 6.68726   3
   1   6 -11 108.324 7.40874   3
   1   6 -11 99.6994 6.57166   5
   0  -6  11 156.264 9.40288   3
   0  -6  11 162.391 9.78349   6
   0  -6 -11 151.048 9.49963   6
   0  -6 -11 160.849 7.97885   4
   0   6 -11 159.367 9.39233   4
   0   6  11 176.168 7.83412   4
   0   6 -11 168.838 9.22772   5
   0   6 -11 160.720 9.81215   3
   0   6 -11 163.048 9.17830   5
  -1  -6 -11 238.442 9.68338   5
   1  -6  11 227.836 12.5972   3
  -1  -6 -11 242.890 11.6850   4
   1  -6  11 246.267 13.6197   6
  -1  -6 -11 238.850 9.68682   5
  -1  -6 -11 241.185 13.4278   6
   1   6  11 228.899 14.8378   4
  -1   6 -11 223.037 12.3469   4
  -1   6 -11 227.937 12.8050   3
  -1   6 -11 246.104 13.0209   6
  -2  -6 -11 118.032 6.24498   5
  -2  -6 -11 114.150 7.57770   4
  -2  -6 -11 112.540 8.96669   6
  -2   6 -11 103.355 7.79566   4
   2   6  11 122.849 7.47428   4
  -2   6 -11 121.200 7.89353   5
  -2   6 -11 123.833 8.92254   6
  -2   6 -11 108.387 8.09343   3
  -3  -6 -11 223.113 14.6413   6
  -3  -6 -11 222.291 11.2256   5
  -3  -6 -11 226.036 12.6797   4
  -3   6 -11 229.491 14.4313   6
  -3   6 -11 203.762 12.7166   3
   3   6  11 244.731 12.7408   4
  -4  -6 -11 36.1584 4.00557   5
   4  -6  11 39.0887 4.09048   5
  -4  -6 -11 40.1559 5.72564   6
   4   6  11 33.7209 4.51718   4
  -4   6 -11 33.4347 6.24327   6
  -4   6 -11 32.5727 5.05571   3
   5  -6  11 151.814 10.5217   4
  -5  -6 -11 149.197 13.0142   6
   5  -6  11 151.443 9.32474   5
  -5   6 -11 169.638 11.4075   3
  -5   6 -11 146.665 12.7591   6
   5   6  11 177.899 11.3387   4
   6  -6  11 1.50261 2.06991   5
   6  -6  11 0.64925 1.80957   4
  -6  -6 -11 5.54386 3.15392   6
   6   6  11 0.54523 1.71890   4
  -6   6 -11 2.38521 2.17914   3
  -6   6 -11 -0.1150 3.06150   6
   7  -7 -11 3.70462 2.01420   5
  -7  -7  11 2.84828 2.95607   6
   7  -7 -11 0.24480 0.97947   4
   7   7 -11 1.30441 1.81380   4
  -6  -7  11 317.320 17.0234   6
   6  -7 -11 288.842 15.8730   5
   6   7 -11 297.075 16.9464   5
   6   7 -11 293.557 17.8713   4
  -5  -7  11 -0.0781 1.66830   6
   5  -7 -11 -0.1382 1.46570   5
   5  -7 -11 -2.4262 2.37829   6
   5   7 -11 -0.2674 1.33960   3
   5   7 -11 0.08778 1.42458   4
   4  -7 -11 134.093 8.01094   5
  -4  -7  11 152.272 9.01707   6
  -4  -7  11 133.145 7.97992   5
   4  -7 -11 122.408 9.48031   6
   4   7 -11 148.575 9.89384   3
   4   7 -11 132.456 9.16446   5
   3  -7 -11 4.12570 1.20071   5
   3  -7 -11 5.46497 2.08862   6
   3   7 -11 3.32678 1.66005   5
   3   7 -11 5.20814 2.19887   3
   2  -7 -11 0.78909 1.43358   6
   2  -7 -11 0.52036 0.72076   5
   2  -7 -11 0.69383 0.59441   5
  -2  -7  11 1.45165 1.19633   6
  -2  -7  11 -0.2467 1.48902   3
   2   7 -11 -0.0526 1.47533   5
   2   7 -11 1.52338 1.80791   3
   1  -7 -11 3.96734 0.71912   5
   1  -7 -11 4.46343 0.71753   5
  -1  -7  11 3.53555 1.87000   6
  -1  -7  11 3.95341 1.70271   3
   1  -7 -11 4.73497 1.11526   3
   1   7 -11 1.69449 1.25929   5
   1   7 -11 2.99881 1.71472   5
   1   7 -11 2.60787 1.78624   3
   0  -7 -11 21.8564 3.14777   6
   0  -7  11 23.5339 3.70918   6
   0  -7 -11 20.5335 1.53434   5
   0  -7 -11 21.0090 2.16440   4
   0  -7 -11 23.3373 1.59915   5
   0  -7  11 22.2699 3.19633   3
   0  -7 -11 23.0346 2.59368   3
   0   7 -11 19.3167 3.14400   5
   0   7 -11 19.6971 3.45932   3
   0   7  11 21.1541 2.07327   4
   0   7 -11 22.5614 3.61581   4
   0   7 -11 22.2199 3.11274   5
  -1  -7 -11 460.710 22.2223   6
  -1  -7 -11 460.302 19.7992   4
  -1  -7 -11 472.093 20.3412   3
  -1  -7 -11 459.738 18.3128   5
   1  -7  11 423.030 21.9630   6
  -1  -7 -11 477.949 18.4002   5
  -1   7 -11 482.061 21.1147   5
  -1   7 -11 454.900 21.5930   3
  -1   7 -11 400.717 20.7943   4
  -1   7 -11 474.504 20.9466   5
  -2  -7 -11 11.3026 2.37991   4
   2  -7  11 11.6199 3.57505   6
  -2  -7 -11 10.9670 1.83701   5
  -2  -7 -11 10.0730 2.93859   6
   2   7  11 9.54983 2.18167   4
  -2   7 -11 10.5992 2.75255   3
  -3  -7 -11 382.621 17.2033   5
  -3  -7 -11 375.627 21.1524   6
  -3  -7 -11 365.918 18.4905   4
   3   7  11 384.764 18.4497   4
  -3   7 -11 375.530 20.4268   6
  -4  -7 -11 188.912 10.7296   5
  -4  -7 -11 183.177 14.0061   6
  -4   7 -11 193.067 12.1673   3
  -4   7 -11 184.077 13.7245   6
   5  -7  11 76.7432 6.29122   5
  -5  -7 -11 67.4114 8.56242   6
  -5   7 -11 63.7624 8.79952   6
   5   7  11 73.1892 7.37338   4
  -5   7 -11 67.2902 7.05320   3
   6  -7  11 124.239 8.87926   5
   6  -7  11 145.907 10.6113   4
  -6  -7 -11 125.626 15.4300   6
  -6   7 -11 149.181 11.1423   3
   6   7  11 129.559 10.7227   4
  -6   7 -11 109.954 11.7266   6
  -7  -8  11 9.98399 4.06053   6
   7  -8 -11 14.2932 3.63813   5
   7   8 -11 10.5154 4.18324   4
   7   8 -11 15.1664 4.16719   5
  -6  -8  11 25.8534 4.62938   6
   6  -8 -11 27.0525 4.34775   5
   6   8 -11 28.6231 5.71568   4
   6   8 -11 18.4379 4.09132   5
  -5  -8  11 34.8147 4.84975   6
   5   8 -11 32.9260 5.51646   3
   5   8 -11 39.2682 4.91304   5
   5   8 -11 24.9455 4.95702   4
  -4  -8  11 91.8813 7.16880   6
   4  -8 -11 80.4763 7.80399   6
   4  -8 -11 79.2735 5.92585   5
   4   8 -11 84.1312 7.91696   3
   4   8 -11 92.6392 7.35895   5
   3  -8 -11 134.932 7.45837   5
   3  -8 -11 128.126 13.5529   6
   3   8 -11 134.456 9.75277   3
  -2  -8  11 41.9601 4.51850   6
   2  -8 -11 47.5780 5.14515   6
   2  -8 -11 41.3456 3.21922   5
   2   8 -11 44.2283 5.31226   3
   2   8 -11 44.3176 4.87842   5
   1  -8 -11 79.8681 4.28421   5
   1  -8 -11 82.6319 4.44254   5
  -1  -8  11 59.7418 6.10554   6
   1  -8 -11 81.7010 4.70227   3
   1   8 -11 74.8447 6.88382   3
   1   8 -11 82.1570 6.45244   5
   0  -8 -11 45.1806 3.75904   3
   0  -8 -11 41.6975 2.89507   5
   0  -8 -11 39.0302 2.97069   4
   0  -8  11 39.9915 4.84686   6
   0  -8 -11 41.1836 2.85264   5
   0   8 -11 39.6462 4.50388   5
   0   8 -11 34.1891 4.61073   3
   0   8  11 40.8304 2.99513   4
   1  -8  11 14.8240 3.86995   6
  -1  -8 -11 17.3880 2.62782   4
  -1  -8 -11 15.6530 3.43078   6
  -1  -8 -11 18.7923 2.92493   3
  -1  -8 -11 20.0671 2.95186   5
  -1   8 -11 22.5422 4.05596   3
  -1   8 -11 17.4027 3.31144   5
   1   8  11 22.0566 2.66463   4
  -2  -8 -11 -0.7434 1.00263   5
  -2  -8 -11 0.99675 1.26726   4
  -2  -8 -11 0.14696 1.63094   6
  -2  -8 -11 2.12907 1.70871   3
   2   8  11 3.35782 1.45457   4
  -2   8 -11 0.01069 2.14745   3
  -3  -8 -11 176.390 13.0745   6
  -3  -8 -11 175.566 11.0025   4
  -3  -8 -11 167.395 9.65668   5
  -3   8 -11 180.566 11.6340   3
   3   8  11 188.392 10.9387   4
  -3   8 -11 171.017 18.3655   6
  -4  -8 -11 3.35075 2.65489   6
   4   8  11 3.76528 2.22196   4
  -4   8 -11 0.86362 2.42193   6
  -4   8 -11 3.30915 2.49725   3
   5  -8  11 49.8746 6.16041   5
  -5  -8 -11 49.1045 7.56719   6
   5   8  11 48.7302 6.02094   4
  -5   8 -11 40.5230 7.49043   6
  -5   8 -11 53.2379 6.51519   3
   6  -8  11 36.1726 5.19300   5
  -6  -8 -11 35.6297 7.37235   6
  -6   8 -11 32.5278 7.20902   6
   6   8  11 38.8562 6.15039   4
  -6   8 -11 25.9170 5.02226   3
   6  -9 -11 60.3905 6.10885   5
  -6  -9  11 69.5906 7.48451   6
   6   9 -11 60.8058 7.19190   5
   6   9 -11 55.6294 7.64555   4
  -5  -9  11 82.2129 7.44591   6
   5  -9 -11 73.5888 6.34971   5
   5   9 -11 71.4191 7.57860   3
   5   9 -11 84.8710 7.93057   5
   5   9 -11 85.8756 8.46852   4
   4  -9 -11 295.910 15.1246   5
  -4  -9  11 342.979 17.1158   6
   4   9 -11 305.887 17.5832   3
   4   9 -11 305.260 16.8139   5
   3  -9 -11 1197.21 48.8450   6
   3  -9 -11 1155.61 45.3491   5
  -3  -9  11 1104.41 46.6326   6
   3   9 -11 1151.47 48.7282   3
   3   9 -11 1167.68 47.6041   5
  -2  -9  11 137.570 9.42655   6
   2  -9 -11 173.132 10.6503   6
   2  -9 -11 160.297 8.14146   5
   2  -9 -11 149.919 6.40198   3
   2  -9 -11 145.669 7.81005   5
   2   9 -11 162.862 10.1001   5
   2   9 -11 139.979 10.7304   3
   1  -9 -11 977.304 36.6564   5
  -1  -9  11 903.276 39.7203   6
   0  -9 -11 1.48189 1.28613   3
   0  -9  11 0.18193 2.21024   6
   0  -9 -11 0.61514 0.78957   5
   0   9  11 0.44674 0.75156   4
   0   9 -11 3.76582 2.80839   3
   0   9 -11 0.22017 1.53908   5
  -1  -9 -11 49.0949 3.80649   5
  -1  -9 -11 44.4797 4.56131   3
   1  -9  11 47.0265 5.95654   6
  -1  -9 -11 45.2685 5.43461   6
  -1  -9 -11 45.8439 3.98950   4
  -1   9 -11 43.4767 5.03862   5
   1   9  11 49.8292 4.03607   4
  -1   9 -11 48.9364 6.65163   3
  -2  -9 -11 163.156 9.53465   4
  -2  -9 -11 154.205 12.1230   6
  -2  -9 -11 168.015 9.00623   5
  -2  -9 -11 159.025 11.6969   3
   2   9  11 179.220 9.83737   4
  -2   9 -11 151.530 10.7955   3
  -2   9 -11 161.780 10.4690   5
  -3  -9 -11 44.6940 4.23898   5
  -3  -9 -11 34.1704 6.19354   6
   3   9  11 41.0359 4.64315   4
  -3   9 -11 25.4453 5.12720   3
  -3   9 -11 35.7159 6.60282   6
  -4  -9 -11 9.64534 3.43080   6
  -4   9 -11 4.11281 3.38501   6
  -4   9 -11 9.85271 3.29455   3
   4   9  11 10.2207 2.80437   4
   5  -9  11 35.7268 4.89654   5
  -5  -9 -11 35.3066 7.08818   6
  -5   9 -11 34.8224 4.88195   3
   5   9  11 26.0637 4.72546   4
  -5   9 -11 30.0497 6.68123   6
   6 -10 -11 58.3499 6.08326   5
  -6 -10  11 53.6880 8.34579   6
   6  10 -11 38.7413 6.42909   5
   6  10 -11 53.0832 7.19585   4
  -5 -10  11 490.093 25.3337   6
   5 -10 -11 539.755 24.1268   5
   5  10 -11 482.533 26.2849   4
   5  10 -11 517.946 25.5571   5
  -4 -10  11 13.1259 3.10533   6
   4  10 -11 6.13851 2.61632   5
   4  10 -11 6.06568 2.76220   4
   4  10 -11 6.98718 2.87007   3
   3 -10 -11 101.374 6.78107   5
  -3 -10  11 89.8882 7.64396   6
   3  10 -11 92.7188 7.99250   5
   3  10 -11 101.770 8.77701   3
   2 -10 -11 0.78066 1.01054   5
  -2 -10  11 1.48057 2.13941   6
   2 -10 -11 0.18365 1.39646   5
   2 -10 -11 -1.5324 0.60308   3
   2  10 -11 -0.2994 1.69295   5
   2  10 -11 -0.3654 2.13978   3
  -1 -10  11 19.4413 4.50321   6
   1 -10 -11 27.9930 2.97992   5
   1 -10 -11 27.3211 2.93303   5
   1 -10 -11 33.8552 3.11063   3
   1  10 -11 30.0851 4.72579   5
   1  10 -11 24.9139 4.74469   3
   0 -10 -11 17.4371 2.53573   5
   0 -10 -11 21.6285 3.15510   3
   0 -10 -11 25.9746 2.86291   5
   0  10 -11 14.1695 3.31681   5
   0  10 -11 17.4582 3.79534   3
   0  10  11 25.2682 2.22588   4
  -1 -10 -11 87.9207 5.66233   5
  -1 -10 -11 94.1618 8.40773   6
  -1 -10 -11 78.9249 6.43578   3
  -1  10 -11 75.4654 7.31175   3
  -1  10 -11 76.9410 6.95536   5
   1  10  11 96.4939 5.97173   4
  -2 -10 -11 66.0671 5.36035   5
  -2 -10 -11 70.1931 7.48414   6
  -2  10 -11 62.4288 6.52109   5
  -2  10 -11 55.2420 6.73292   3
   2  10  11 67.2432 5.61617   4
  -3 -10 -11 51.4167 6.94333   6
  -3  10 -11 51.1189 5.99716   5
  -3  10 -11 59.6682 6.59849   3
   3  10  11 64.2489 5.99786   4
  -4 -10 -11 1.44504 2.27084   6
  -4  10 -11 -3.3873 2.00531   5
   4  10  11 0.42937 1.95927   4
  -4  10 -11 1.44443 2.56379   6
  -5 -10 -11 44.1029 7.85224   6
  -5  10 -11 31.9628 5.97588   3
   5  10  11 39.1809 6.28768   4
  -5 -11  11 9.29431 3.26288   6
   5 -11 -11 6.18860 2.58233   5
   5  11 -11 8.17443 3.23985   5
   5  11 -11 11.3891 3.46686   3
  -4 -11  11 61.2186 6.46615   6
   4 -11 -11 63.6110 5.72802   5
   4  11 -11 51.5321 6.81281   4
   4  11 -11 71.4610 7.35429   3
   4  11 -11 66.2419 6.92441   5
   3 -11 -11 2.29018 1.49005   5
   3  11 -11 6.10531 2.84915   3
   3  11 -11 2.40804 2.19758   5
   2 -11 -11 38.5090 2.74928   3
   2 -11 -11 39.0447 4.01570   5
   2 -11 -11 34.2127 4.79150   5
   2  11 -11 42.6197 6.52811   3
   2  11 -11 38.0678 5.04677   5
   1 -11 -11 93.3911 5.88990   3
   1 -11 -11 90.2662 6.00886   5
   1 -11 -11 97.4275 6.30293   5
   1  11 -11 84.9175 7.59133   5
   1  11 -11 79.7113 8.40253   3
   0 -11 -11 40.6544 4.21134   3
   0 -11 -11 42.4430 3.94604   5
   0 -11 -11 35.3472 3.69577   5
   0  11 -11 36.2338 5.09070   5
   0  11  11 35.3001 2.80192   4
   0  11 -11 27.0928 5.08183   3
  -1 -11 -11 340.138 19.3235   6
  -1 -11 -11 312.885 16.0284   3
  -1  11 -11 308.742 18.0617   3
   1  11  11 333.073 15.0254   4
  -1  11 -11 318.429 17.1401   5
  -2 -11 -11 1.99134 2.13252   6
  -2 -11 -11 1.64791 1.74877   5
  -2  11 -11 1.76640 2.38164   3
   2  11  11 2.45366 1.57875   4
  -2  11 -11 -0.5427 2.14350   5
  -3 -11 -11 54.2669 7.47861   6
   3  11  11 59.1654 5.69811   4
  -3  11 -11 56.6789 6.37570   3
  -3  11 -11 54.4193 6.32139   5
  -4 -11 -11 4.38409 2.78605   6
  -4  11 -11 7.36338 2.89064   5
  -4  11 -11 -0.6559 2.39770   3
   4  11  11 6.75597 2.49335   4
   5 -12 -11 5.70168 2.91435   5
  -5 -12  11 6.81693 2.99656   6
   5  12 -11 12.0557 3.47331   5
   5  12 -11 9.19195 3.99763   4
   5  12 -11 8.92489 3.60684   3
   4 -12 -11 17.2973 3.30204   5
  -4 -12  11 14.8300 3.60463   6
   4  12 -11 10.7945 3.70967   3
   4  12 -11 12.3329 3.87531   4
   4  12 -11 5.15750 3.26062   5
   3 -12 -11 2.26428 1.62285   5
   3  12 -11 -2.2262 1.84238   5
   3  12 -11 -3.8105 1.68693   3
   2 -12 -11 69.8687 4.36159   3
   2 -12 -11 58.0492 6.73765   5
   2  12 -11 68.2467 8.15296   3
   1 -12 -11 1.10470 1.40591   5
   1 -12 -11 1.70463 1.90825   5
   1 -12 -11 1.73659 1.64759   3
   1  12 -11 -0.4070 1.85385   3
   1  12 -11 1.28306 1.82610   5
   0 -12 -11 88.7269 6.40492   5
   0 -12 -11 85.6820 6.08507   5
   0 -12 -11 79.4228 7.35978   3
   0  12 -11 85.1523 7.43978   5
   0  12 -11 70.7872 7.78339   3
   0  12  11 76.3086 4.49693   4
  -1 -12 -11 17.0630 4.14128   6
  -1  12 -11 14.0810 3.71412   5
  -1  12 -11 14.3935 4.02935   3
   1  12  11 13.3557 2.47576   4
  -2 -12 -11 11.2613 3.50775   6
   2  12  11 11.6016 2.76676   4
  -2  12 -11 13.1894 3.61910   5
  -2  12 -11 3.00693 2.70123   3
  -3 -12 -11 17.8155 5.18802   6
   3  12  11 18.1644 3.64226   4
  -3  12 -11 14.9772 4.14156   5
  -3  12 -11 12.9993 4.38201   3
  -4 -12 -11 10.7623 3.93706   6
   4  12  11 14.2468 3.42965   4
  -4  12 -11 7.28745 3.63804   5
   4 -13 -11 12.7905 3.37498   5
  -4 -13  11 14.8758 3.87570   6
   4  13 -11 11.0382 3.54709   5
   4  13 -11 8.12375 3.47656   3
   4  13 -11 11.5140 3.59229   4
   3 -13 -11 18.2443 3.30670   5
   3  13 -11 19.0930 4.50334   5
   2 -13 -11 14.7146 2.94011   5
   2  13 -11 11.8875 3.78576   5
   2  13 -11 7.20779 3.41847   3
   1 -13 -11 296.031 14.8822   5
   1 -13 -11 287.932 13.4840   3
   1  13 -11 247.107 16.8308   3
   0 -13 -11 20.8954 3.59721   3
   0 -13 -11 13.6374 2.71764   5
   0  13 -11 2.30848 3.17588   3
   0  13  11 11.2826 1.72272   4
   0  13 -11 2.88982 2.98806   5
  -1 -13 -11 89.9828 9.25362   6
  -1  13 -11 85.1716 8.31219   5
   1  13  11 97.1836 6.23147   4
  -1  13 -11 82.2224 9.22306   3
  -2 -13 -11 10.1548 3.52893   6
   2  13  11 11.2130 2.78891   4
  -2  13 -11 13.7602 4.21305   3
  -2  13 -11 12.2292 3.53437   5
  -3 -13 -11 93.7833 10.7118   6
   3  13  11 106.252 8.24645   4
  -3  13 -11 74.2213 8.43147   5
   3 -14 -11 37.7054 5.17297   5
   3  14 -11 27.3043 5.94197   3
   3  14 -11 37.4961 6.07041   5
   3  14 -11 33.3397 6.16539   4
   2 -14 -11 -2.6687 1.58311   5
   2  14 -11 -1.7861 2.80113   3
   1 -14 -11 0.97486 1.43149   5
   1  14 -11 4.93440 2.85811   5
   0  14  11 21.4611 2.14562   4
   0  14 -11 24.4344 5.01235   5
   1  14  11 61.5001 4.98141   4
  -2 -14 -11 14.7873 4.26001   6
  -2  14 -11 15.6264 5.07823   3
  -2  14 -11 19.8759 4.55079   5
   2  14  11 17.4189 3.32703   4
  -8   0  12 3.02831 5.31576   3
   8   0 -12 4.02593 2.55233   4
  -8   0  12 3.60672 3.02315   6
  -7   0  12 52.6866 5.22197   6
   7   0 -12 41.9998 5.38650   5
   7   0 -12 39.1419 4.35538   6
   7   0 -12 43.0400 4.91947   4
  -7   0  12 40.4826 4.73771   3
   6   0 -12 67.7090 4.91675   6
   6   0 -12 73.7850 6.22226   5
   6   0 -12 72.8206 6.12680   4
  -6   0  12 65.1536 5.14331   6
  -6   0  12 75.5593 5.35164   3
   5   0 -12 643.892 27.5741   5
   5   0 -12 676.868 28.0489   4
   5   0 -12 587.594 25.1950   6
  -5   0  12 686.844 26.3414   3
   4   0 -12 109.971 6.68536   5
   4   0 -12 114.699 6.38872   3
  -4   0  12 126.120 6.37886   3
   4   0 -12 106.030 6.96242   4
   3   0 -12 1425.72 52.5432   5
   3   0 -12 1355.53 52.8099   3
   2   0 -12 72.1738 4.64959   3
   2   0 -12 70.3629 3.67945   5
   1   0 -12 647.411 26.1088   4
   1   0 -12 668.338 26.0639   3
   1   0 -12 622.332 24.6050   6
  -1   0  12 641.676 25.9623   3
   0   0 -12 169.948 8.82800   3
   0   0  12 165.128 8.22081   6
   0   0 -12 163.585 8.75690   4
   0   0 -12 166.112 8.71309   6
  -1   0 -12 68.0082 3.76804   5
   1   0  12 71.6682 5.32988   6
  -1   0 -12 71.8417 5.25893   3
  -1   0 -12 73.1758 5.79174   6
  -1   0 -12 70.0259 5.25586   4
   1   0  12 76.5103 5.21211   4
   2   0  12 251.433 13.8837   6
  -2   0 -12 265.107 13.4494   3
  -2   0 -12 270.850 14.7374   6
  -2   0 -12 252.532 13.4330   4
   2   0  12 276.580 13.3050   4
  -3   0 -12 529.237 22.2442   5
   3   0  12 520.946 23.4363   4
  -3   0 -12 532.040 23.9662   3
   3   0  12 478.550 26.8495   6
  -3   0 -12 537.066 25.9561   6
  -3   0 -12 501.354 23.9277   4
  -4   0 -12 826.594 34.8625   3
  -4   0 -12 759.974 36.9082   6
  -4   0 -12 762.888 32.9437   5
   4   0  12 821.760 34.3850   4
  -5   0 -12 2.65968 2.66825   6
   5   0  12 1.32065 2.11606   4
  -5   0 -12 0.30882 1.03241   3
  -6   0 -12 2.61216 2.20705   3
  -6   0 -12 3.81017 3.42830   6
   6   0  12 3.57060 2.42332   4
  -7   0 -12 49.5006 10.3151   6
   7   0  12 47.5599 6.41159   4
  -7   0 -12 59.6166 8.28258   3
   8  -1 -12 51.9312 5.68219   4
  -8  -1  12 34.3415 5.99251   6
   8   1 -12 38.5174 5.24972   4
  -8   1  12 45.6917 5.77025   6
  -7  -1  12 38.0804 5.06076   3
  -7  -1  12 42.7742 4.98264   6
   7  -1 -12 38.8257 4.77177   4
   7  -1 -12 50.1190 5.38442   5
   7  -1 -12 34.9993 4.26578   6
  -7  -1  12 38.2555 3.75471   5
  -7   1  12 36.5080 4.07130   3
  -7   1  12 36.9544 4.74888   6
   7   1 -12 37.2032 5.00041   4
   7   1 -12 39.4450 5.16169   5
  -6  -1  12 27.8843 3.56188   3
   6  -1 -12 20.0874 2.89416   6
  -6  -1  12 21.6352 3.30541   6
   6  -1 -12 21.0566 3.48750   4
  -6   1  12 23.5131 2.83183   3
  -6   1  12 25.4776 3.15571   6
   6   1 -12 17.4840 3.50002   4
   6   1 -12 17.3701 3.31010   5
   5  -1 -12 26.9674 3.31368   4
   5  -1 -12 29.6586 2.73340   6
  -5  -1  12 28.4095 2.65097   6
   5  -1 -12 31.6930 3.58143   5
  -5  -1  12 25.2747 3.32629   3
   5   1 -12 30.0236 3.70956   4
   5   1 -12 31.5884 3.75291   5
  -5   1  12 29.2552 3.40939   3
  -4  -1  12 60.3454 4.46285   3
   4  -1 -12 56.3665 4.49782   4
   4  -1 -12 59.2466 4.37147   5
   4  -1 -12 61.3719 3.24231   6
  -4   1  12 63.0923 3.78001   3
   4   1 -12 59.3121 5.08275   4
   4   1 -12 61.5082 4.69950   5
  -3  -1  12 72.9948 4.61644   3
   3  -1 -12 62.6591 4.08639   3
   3  -1 -12 65.1312 3.98136   5
  -3   1  12 70.9952 4.03382   3
   3   1 -12 71.2858 4.72986   5
   3   1 -12 74.0809 5.04262   3
   2  -1 -12 20.2939 2.20390   3
  -2  -1  12 19.6514 2.28316   3
  -2   1  12 20.2484 1.98639   3
   2   1 -12 19.3492 2.01422   5
   2   1 -12 18.2561 2.54176   3
   1  -1 -12 13.7397 1.64229   6
   1  -1 -12 14.8694 1.89943   3
   1  -1 -12 17.6853 2.12751   4
  -1  -1  12 15.9757 2.14692   3
   1   1 -12 11.8143 2.55351   3
   1   1 -12 14.1916 2.01600   4
   1   1 -12 15.1417 1.31502   6
   0  -1  12 -0.2586 0.76825   6
   0  -1 -12 1.22030 0.79571   4
   0  -1 -12 2.42296 0.98889   6
   0  -1  12 2.52740 0.90971   3
   0   1 -12 1.52126 0.97105   6
   0   1 -12 -0.0580 0.81592   3
   0   1 -12 1.23465 0.77260   4
  -1  -1 -12 124.074 8.10927   6
  -1  -1 -12 126.036 7.55771   4
   1  -1  12 127.544 7.85103   6
  -1  -1 -12 127.792 7.51350   3
   1   1  12 121.930 7.49657   6
   1   1  12 137.015 7.45042   4
  -1   1 -12 117.449 7.47618   3
  -1   1 -12 116.965 6.17082   5
  -1   1 -12 117.319 7.54716   4
  -1   1 -12 137.543 8.23507   6
  -2  -1 -12 4.88937 1.78537   3
  -2  -1 -12 4.66615 1.08987   5
   2  -1  12 2.39897 1.83562   6
   2  -1  12 6.40256 1.83411   4
  -2  -1 -12 3.68933 1.57639   4
  -2  -1 -12 4.25726 2.02289   6
  -2   1 -12 5.25380 2.14286   6
   2   1  12 4.24800 1.74817   6
   2   1  12 3.64816 1.48809   4
  -2   1 -12 6.13373 2.02840   3
  -2   1 -12 6.06726 1.35468   5
  -2   1 -12 5.12249 2.22070   4
   3  -1  12 187.971 13.8084   6
   3  -1  12 191.543 10.9232   4
  -3  -1 -12 180.310 12.4606   6
  -3  -1 -12 179.502 10.9661   3
  -3  -1 -12 188.959 9.67271   5
  -3  -1 -12 194.673 11.4601   4
  -3   1 -12 183.652 9.92433   5
  -3   1 -12 193.603 11.3245   3
   3   1  12 181.959 12.0826   6
   3   1  12 188.369 10.8567   4
  -3   1 -12 209.159 12.9403   6
  -3   1 -12 191.960 11.4141   4
   4  -1  12 297.817 15.4543   4
  -4  -1 -12 301.177 18.0877   6
  -4  -1 -12 289.623 15.8296   3
  -4   1 -12 290.123 15.7513   3
  -4   1 -12 288.311 17.7477   6
   4   1  12 290.295 15.3830   4
  -4   1 -12 272.067 14.4753   5
  -5  -1 -12 145.511 10.5197   3
  -5  -1 -12 149.393 12.5820   6
   5  -1  12 151.380 10.3512   4
   5   1  12 137.843 10.2472   4
  -5   1 -12 148.122 10.5743   3
  -5   1 -12 159.978 12.8698   6
   6  -1  12 25.5924 4.62515   4
  -6  -1 -12 22.4060 5.45958   6
  -6  -1 -12 19.9443 4.29294   3
  -6   1 -12 26.2594 4.67250   3
  -6   1 -12 9.57244 4.70324   6
   6   1  12 19.8437 3.95009   4
  -7  -1 -12 21.2150 4.34313   3
   7  -1  12 13.7989 3.99918   4
   7  -1  12 15.3030 3.08479   5
  -7  -1 -12 14.3066 6.78953   6
  -7   1 -12 15.7416 5.18755   6
  -7   1 -12 11.8123 3.85811   3
   7   1  12 12.1375 3.95958   4
   8  -2 -12 0.81360 1.67706   4
  -8  -2  12 -3.8736 2.62397   6
   8   2 -12 0.95784 2.26318   4
  -8   2  12 -3.3016 2.43743   6
   8   2 -12 4.04455 2.74115   5
  -7  -2  12 35.0666 6.97206   3
  -7  -2  12 51.8228 4.21650   5
   7  -2 -12 56.8988 5.69136   6
  -7  -2  12 62.9150 6.02256   6
   7  -2 -12 54.7598 5.32759   4
   7  -2 -12 62.9108 6.31543   5
  -7   2  12 66.9452 4.75244   3
  -7   2  12 57.0986 5.74146   6
   7   2 -12 64.6163 6.53305   5
   7   2 -12 61.4164 6.73350   4
  -6  -2  12 -0.9599 1.22307   6
   6  -2 -12 2.94880 1.31622   4
  -6  -2  12 -1.3722 1.88502   3
   6  -2 -12 1.63832 1.49402   6
   6   2 -12 2.41931 1.97487   4
  -6   2  12 0.41463 1.09819   3
   6   2 -12 -0.5173 1.37478   5
  -5  -2  12 74.9069 5.53780   3
  -5  -2  12 73.6032 4.57533   6
   5  -2 -12 72.6824 5.28479   4
   5  -2 -12 73.0302 5.60479   5
   5  -2 -12 71.2627 5.07423   6
   5   2 -12 64.4844 5.70156   5
  -5   2  12 69.4453 3.89096   3
   5   2 -12 72.2070 6.30704   4
   4  -2 -12 5.28677 1.59443   4
   4  -2 -12 7.19714 1.44139   6
   4  -2 -12 7.54147 1.61705   5
  -4  -2  12 9.42703 2.04973   3
  -4   2  12 7.96750 1.13728   3
   4   2 -12 5.74017 1.71939   3
  -3  -2  12 377.089 16.3575   3
   3  -2 -12 374.606 14.7663   3
   3  -2 -12 362.854 14.9299   5
   3  -2 -12 367.550 14.8683   6
   3   2 -12 345.901 15.9517   5
   3   2 -12 378.231 16.7806   3
  -3   2  12 384.358 14.7472   3
  -2  -2  12 36.5898 3.46903   3
   2  -2 -12 38.5328 2.78995   3
   2  -2 -12 39.0828 2.56165   6
   2  -2 -12 41.8527 3.10190   4
   2  -2 -12 40.2225 2.50973   6
   2   2 -12 43.2091 3.26653   5
   2   2 -12 40.0709 3.88038   3
  -1  -2  12 961.716 37.9163   3
   1  -2 -12 927.552 38.0546   4
  -1  -2  12 974.013 36.3036   6
   1  -2 -12 976.286 37.1862   6
   1  -2 -12 969.462 36.9638   3
   1   2 -12 906.178 37.9795   4
   1   2 -12 1012.29 38.3595   3
   0  -2 -12 75.5941 4.92050   3
   0  -2  12 80.6754 5.24334   6
   0  -2 -12 72.0681 4.94387   4
   0  -2 -12 78.1081 5.41161   6
   0  -2  12 73.7811 5.28270   3
   0   2 -12 78.6659 5.42754   4
   0   2 -12 79.2843 5.54104   3
   0   2 -12 81.8998 5.16646   6
  -1  -2 -12 69.1477 5.16604   3
  -1  -2 -12 65.0230 6.80545   6
  -1  -2 -12 67.7726 5.15422   4
   1  -2  12 70.9099 5.65864   6
   1  -2  12 77.3583 5.59897   3
   1   2  12 70.5478 5.23505   6
  -1   2 -12 71.2495 5.42832   4
   1   2  12 69.5910 4.93649   4
  -1   2 -12 71.3200 5.65119   6
  -1   2 -12 74.9256 5.47764   3
  -2  -2 -12 23.1809 3.23324   4
  -2  -2 -12 20.5154 1.98490   5
  -2  -2 -12 23.0183 3.14794   3
   2  -2  12 19.5359 3.51246   6
  -2  -2 -12 20.0751 3.68954   6
   2  -2  12 21.4716 2.92112   4
  -2   2 -12 15.4031 2.96955   4
  -2   2 -12 24.2808 3.71027   6
   2   2  12 23.0924 3.24483   6
   2   2  12 20.0632 2.79142   4
  -2   2 -12 19.8053 2.37778   5
  -2   2 -12 21.8795 3.00826   3
   3  -2  12 2.92187 1.54266   4
  -3  -2 -12 4.18625 1.60815   3
  -3  -2 -12 3.34657 1.92813   6
   3  -2  12 2.34468 1.87781   6
  -3  -2 -12 3.49054 1.24400   5
  -3  -2 -12 4.09650 1.81456   4
   3   2  12 2.24809 1.26289   4
   3   2  12 4.75067 2.06550   6
  -3   2 -12 1.87824 1.36157   5
  -3   2 -12 2.89087 1.96158   6
  -3   2 -12 3.72519 2.21466   4
  -3   2 -12 6.36165 2.01596   3
  -4  -2 -12 110.725 8.37621   5
  -4  -2 -12 113.947 10.0505   6
  -4   2 -12 122.296 7.98975   5
  -4   2 -12 113.736 10.0783   6
   4   2  12 111.785 8.20160   4
   5  -2  12 198.854 12.1971   4
  -5  -2 -12 187.078 14.6474   6
  -5   2 -12 185.555 14.2975   6
   5   2  12 196.802 12.2494   4
  -5   2 -12 193.849 12.6060   3
   6  -2  12 70.5031 6.83279   4
  -6  -2 -12 66.1854 8.89995   6
  -6   2 -12 58.8198 8.75246   6
   6   2  12 76.8755 7.53325   4
  -6   2 -12 61.8496 7.15529   3
   7  -2  12 14.5478 2.68661   5
  -7  -2 -12 11.4916 5.24163   6
  -7  -2 -12 13.9354 3.90140   3
   7  -2  12 4.65707 2.87367   4
  -7   2 -12 21.1690 5.92248   3
  -7   2 -12 9.09925 4.87256   6
   7   2  12 19.6817 4.45548   4
   8  -3 -12 2.08080 2.17551   4
  -8  -3  12 3.30338 2.90921   6
  -8   3  12 0.45899 2.87872   6
   8   3 -12 1.61985 2.62422   4
  -8   3  12 4.41838 1.51596   3
   8   3 -12 1.67133 2.55617   5
   7  -3 -12 4.86347 2.23740   5
   7  -3 -12 12.2847 2.88128   6
  -7  -3  12 4.38854 2.61780   6
   7  -3 -12 9.70420 2.22028   4
  -7   3  12 7.35484 1.28946   3
   7   3 -12 5.51229 2.92968   4
  -7   3  12 3.88678 1.42497   3
   7   3 -12 7.83163 2.58247   5
  -6  -3  12 187.717 8.83358   5
   6  -3 -12 183.644 10.0594   4
  -6  -3  12 187.469 10.1946   6
   6  -3 -12 166.781 10.5060   6
   6   3 -12 185.446 11.5725   5
   6   3 -12 166.782 13.0945   4
   5  -3 -12 14.7826 2.41043   4
  -5  -3  12 15.7331 2.44053   6
   5  -3 -12 12.1196 2.49847   6
   5  -3 -12 13.9492 2.62558   5
  -5  -3  12 17.2506 3.82865   3
   5   3 -12 15.9721 3.16623   4
   5   3 -12 14.8765 2.98515   5
   5   3 -12 12.9886 2.59755   3
  -4  -3  12 52.3493 4.71777   3
   4  -3 -12 50.9269 3.74194   4
  -4  -3  12 55.5945 3.15736   6
   4  -3 -12 45.6119 4.01924   6
   4  -3 -12 49.9346 3.92806   5
   4   3 -12 56.3334 5.01655   3
   4   3 -12 54.3010 4.75243   5
   3  -3 -12 1.58509 1.16809   6
   3  -3 -12 0.89506 0.88130   5
  -3  -3  12 0.15444 1.22274   3
   3  -3 -12 1.19129 0.98659   4
   3   3 -12 0.63291 1.55334   3
   3   3 -12 1.07560 1.44217   5
   2  -3 -12 736.101 28.1722   4
  -2  -3  12 699.382 29.5818   3
   2  -3 -12 737.338 28.5085   6
   2  -3 -12 737.188 27.7147   3
   2   3 -12 701.425 30.0796   3
   2   3 -12 758.209 29.1828   5
  -1  -3  12 40.3379 3.06129   6
   1  -3 -12 41.0978 2.92257   3
   1  -3 -12 40.4208 3.30805   6
   1  -3 -12 38.3481 2.98483   4
  -1  -3  12 40.2648 3.61771   3
   1   3 -12 41.3330 3.99600   3
   0  -3 -12 17.8967 2.22752   3
   0  -3  12 22.0551 2.86249   6
   0  -3 -12 15.4970 2.18231   4
   0  -3 -12 17.4934 2.58763   6
   0  -3  12 12.2935 2.44382   3
   0   3 -12 12.3261 2.65446   3
   0   3  12 18.5535 2.22231   4
   0   3 -12 15.7528 2.56690   4
   0   3 -12 18.9690 2.44467   6
   1  -3  12 3.44128 1.44044   6
   1  -3  12 1.15483 0.89747   3
  -1  -3 -12 1.77474 0.89593   4
  -1  -3 -12 2.70243 1.28830   3
  -1  -3 -12 3.77988 1.46988   6
  -1   3 -12 1.68591 1.02981   5
  -1   3 -12 1.53731 1.04840   3
  -1   3 -12 0.60485 1.03549   4
   1   3  12 5.47207 1.50938   4
  -1   3 -12 1.75539 1.68601   6
  -2  -3 -12 42.6033 2.83788   5
  -2  -3 -12 37.5869 4.16008   4
  -2  -3 -12 36.5681 4.76740   6
   2  -3  12 35.9721 4.72605   6
  -2   3 -12 38.9889 4.91003   6
   2   3  12 31.3411 3.64290   4
  -2   3 -12 45.5671 4.45042   4
  -2   3 -12 41.4826 4.33308   3
   2   3  12 37.0052 4.16312   6
  -2   3 -12 32.9862 3.37180   5
  -3  -3 -12 112.838 9.31991   6
   3  -3  12 103.333 7.51626   4
   3  -3  12 109.417 9.35481   6
  -3  -3 -12 103.375 7.92796   4
  -3  -3 -12 108.918 6.48737   5
   3   3  12 118.119 7.82372   4
  -3   3 -12 119.284 8.16544   3
  -3   3 -12 105.348 8.98387   6
   3   3  12 111.856 8.61872   6
  -4  -3 -12 1.13651 2.39912   6
   4  -3  12 0.22020 1.57102   4
  -4  -3 -12 2.65668 1.44954   5
  -4   3 -12 -0.8998 1.43330   3
  -4   3 -12 0.96691 2.00110   6
   4   3  12 3.15462 1.51533   4
   5  -3  12 6.49488 2.56555   4
  -5  -3 -12 8.59270 3.76153   6
  -5   3 -12 4.38787 2.00376   3
   5   3  12 10.4938 2.81424   4
  -5   3 -12 1.38944 2.84267   6
  -6  -3 -12 -1.1762 1.91174   6
   6  -3  12 1.70897 1.62178   5
   6  -3  12 3.90117 1.96007   4
  -6   3 -12 4.46179 2.99731   6
  -6   3 -12 5.70108 2.53443   3
   7  -3  12 4.31798 2.15315   5
   7  -3  12 3.97431 2.68359   4
  -7  -3 -12 -3.4120 2.85890   6
  -7   3 -12 2.59732 2.50902   3
   7   3  12 2.21012 2.12663   4
  -7   3 -12 6.23658 4.23015   6
  -8  -4  12 -0.6772 3.00019   6
   8  -4 -12 2.30068 2.31231   5
   8  -4 -12 -2.4225 1.43886   4
   8   4 -12 0.22817 2.07171   4
   8   4 -12 -0.5577 2.14118   5
  -7  -4  12 21.8143 4.08678   6
   7  -4 -12 18.0540 3.69244   5
  -7  -4  12 20.6033 3.56714   5
   7  -4 -12 21.8641 3.04304   4
   7  -4 -12 25.3502 4.75499   6
   7   4 -12 25.1477 4.43048   5
   7   4 -12 21.8750 4.69007   4
  -6  -4  12 63.8908 4.78877   5
   6  -4 -12 58.0879 5.96515   6
   6  -4 -12 59.7376 4.53260   4
   6  -4 -12 56.8918 5.85230   5
  -6  -4  12 65.6089 6.52143   6
   6   4 -12 63.9218 7.00396   4
   6   4 -12 56.4849 6.08858   5
   5  -4 -12 70.8940 5.96124   6
  -5  -4  12 69.5489 5.10531   6
   5  -4 -12 69.7285 4.61635   4
   5  -4 -12 78.0194 5.75946   5
   5   4 -12 68.3846 6.02071   3
   5   4 -12 78.2961 6.78984   4
   4  -4 -12 109.982 6.42259   5
  -4  -4  12 113.902 6.03161   6
   4  -4 -12 102.956 5.60670   4
   4  -4 -12 105.702 7.32356   6
   4   4 -12 114.140 7.54106   5
   4   4 -12 119.329 7.95266   3
   3  -4 -12 229.619 9.79945   5
   3  -4 -12 226.144 9.47750   4
   3  -4 -12 245.379 11.3686   6
  -3  -4  12 234.345 11.7968   3
  -3  -4  12 209.567 9.72645   6
   3  -4 -12 235.105 9.72296   4
   3   4 -12 221.274 12.1005   3
   3   4 -12 232.377 11.6176   5
   2  -4 -12 37.0642 3.24333   6
  -2  -4  12 29.6589 3.62093   3
   2  -4 -12 38.8091 2.47786   4
  -2  -4  12 36.4672 2.77019   6
   2  -4 -12 35.9569 2.10304   3
   2   4 -12 31.9186 3.34978   5
   2   4 -12 36.1609 4.04577   3
   1  -4 -12 153.840 8.23148   6
  -1  -4  12 148.118 8.59891   3
   1  -4 -12 153.351 7.33888   4
  -1  -4  12 154.385 8.04710   6
   1  -4 -12 147.355 7.15402   3
   1   4 -12 162.513 8.22983   5
   1   4 -12 148.395 8.91287   3
   0  -4 -12 1.96393 1.04024   6
   0  -4 -12 0.77522 0.62735   3
   0  -4  12 0.58181 0.99060   6
   0  -4 -12 -1.1041 0.54845   4
   0  -4  12 0.81277 1.15551   3
   0   4  12 2.65880 0.97486   4
   0   4 -12 0.96585 1.25029   3
   0   4 -12 -0.5089 0.77783   4
   0   4 -12 0.45081 0.92170   6
  -1  -4 -12 283.506 13.5075   4
   1  -4  12 260.201 15.2673   3
   1  -4  12 271.768 14.5618   6
  -1  -4 -12 280.755 14.7599   6
   1   4  12 299.769 13.2373   4
  -1   4 -12 280.574 14.3054   6
  -1   4 -12 280.209 14.1064   4
  -1   4 -12 260.445 13.0958   5
  -1   4 -12 306.689 14.5626   3
  -2  -4 -12 616.783 24.0929   5
  -2  -4 -12 630.367 28.6625   6
  -2  -4 -12 610.053 26.6613   4
   2  -4  12 562.112 26.7974   3
  -2   4 -12 605.309 26.0248   5
  -2   4 -12 610.340 28.0567   6
   2   4  12 647.135 26.3379   4
  -2   4 -12 627.733 27.2225   3
  -2   4 -12 631.497 27.2747   4
   3  -4  12 213.363 12.0230   4
  -3  -4 -12 224.008 12.5616   4
   3  -4  12 212.783 13.9381   6
  -3  -4 -12 213.097 10.5358   5
  -3  -4 -12 204.812 13.8315   6
  -3   4 -12 192.438 11.3992   5
  -3   4 -12 215.113 12.5182   3
  -3   4 -12 213.946 13.6581   6
   3   4  12 231.600 12.1715   4
   4  -4  12 171.084 10.8999   4
   4   4  12 190.918 11.3602   4
  -4   4 -12 183.599 11.5401   3
  -4   4 -12 169.552 12.9680   6
   5  -4  12 15.1120 2.54371   5
  -5  -4 -12 13.7144 4.26703   6
   5  -4  12 14.3295 3.31369   4
  -5   4 -12 17.1897 3.73292   3
   5   4  12 16.9809 3.69428   4
  -5   4 -12 17.3834 4.78450   6
  -6  -4 -12 73.2272 9.70569   6
   6  -4  12 79.1185 5.87344   5
   6  -4  12 76.7499 7.43600   4
   6   4  12 82.4471 7.76276   4
  -6   4 -12 87.1679 8.09854   3
  -6   4 -12 81.2135 10.0597   6
   7  -4  12 1.69313 2.39848   5
  -7  -4 -12 8.12447 4.72672   6
   7  -4  12 8.73685 3.27849   4
   7   4  12 4.47844 2.82355   4
  -7   4 -12 5.72080 2.87282   3
  -7   4 -12 7.73733 4.33626   6
   7  -5 -12 20.2062 2.54365   4
  -7  -5  12 16.6182 3.94215   6
   7  -5 -12 11.9290 4.77819   6
   7  -5 -12 12.5574 3.15778   5
   7   5 -12 13.6443 3.78644   5
   7   5 -12 17.0084 4.22488   4
   6  -5 -12 57.6756 4.07485   4
  -6  -5  12 64.3943 5.82881   6
  -6  -5  12 54.1625 4.87180   5
   6  -5 -12 67.6045 5.88182   5
   6  -5 -12 55.3626 6.26027   6
   6   5 -12 62.6095 6.33868   5
   6   5 -12 68.4237 7.40204   4
   5  -5 -12 83.6330 6.15898   5
  -5  -5  12 88.7775 5.45575   5
   5  -5 -12 79.1073 4.44799   4
   5  -5 -12 81.6214 6.87579   6
  -5  -5  12 79.2866 5.92306   6
   5   5 -12 80.3688 7.42768   4
   5   5 -12 84.6733 6.93804   5
   5   5 -12 83.3455 7.09207   3
   4  -5 -12 69.3204 3.41101   4
   4  -5 -12 74.6178 5.86007   6
  -4  -5  12 68.7910 4.87535   6
  -4  -5  12 77.2445 6.15979   3
   4  -5 -12 71.3696 3.30215   4
   4  -5 -12 64.5007 4.76529   5
   4   5 -12 73.6523 6.02749   5
   4   5 -12 72.4914 6.16793   3
  -3  -5  12 49.0007 3.66907   6
  -3  -5  12 53.3735 3.59337   6
   3  -5 -12 52.3000 4.66607   6
   3  -5 -12 50.5975 3.28018   5
  -3  -5  12 53.6122 4.76250   3
   3   5 -12 59.6011 5.54808   3
   3   5 -12 47.8414 4.54493   5
   2  -5 -12 39.1136 1.87138   3
  -2  -5  12 36.7629 3.21117   6
   2  -5 -12 35.8869 2.08052   4
  -2  -5  12 44.2884 5.09302   3
   2   5 -12 35.2910 4.32213   3
   2   5 -12 39.1306 3.87994   5
   1  -5 -12 25.8073 2.92463   6
  -1  -5  12 24.9712 4.10508   3
   1  -5 -12 21.0745 2.09174   3
  -1  -5  12 25.0335 3.09332   6
   1  -5 -12 27.3567 2.21522   4
   1   5 -12 26.8987 3.56634   3
   1   5 -12 30.2066 3.24437   5
   0  -5 -12 302.312 15.0361   6
   0  -5  12 297.837 14.9732   6
   0  -5  12 300.466 15.1764   3
   0   5 -12 294.183 15.1448   3
   0   5 -12 295.634 14.8769   4
   0   5  12 332.477 13.3457   4
   1  -5  12 2.42516 1.45409   3
  -1  -5 -12 2.28938 1.53635   6
  -1  -5 -12 1.68364 1.20939   4
  -1   5 -12 2.51665 1.45772   3
  -1   5 -12 2.47144 1.36234   4
  -1   5 -12 0.88196 1.46771   6
  -1   5 -12 -1.0446 0.97556   5
   1   5  12 2.37862 1.04441   4
  -2  -5 -12 26.3411 3.30242   4
  -2  -5 -12 29.2531 4.26836   6
   2  -5  12 31.0400 4.92380   6
  -2  -5 -12 29.2419 2.51023   5
  -2   5 -12 24.4027 4.52208   6
  -2   5 -12 35.5029 4.30373   3
  -2   5 -12 28.0579 3.57689   5
   2   5  12 28.2817 3.30897   4
   3  -5  12 7.95433 3.11607   6
  -3  -5 -12 10.9083 2.69160   4
  -3  -5 -12 7.99604 2.99044   6
  -3  -5 -12 7.73143 1.62214   5
  -3   5 -12 6.25921 2.86795   6
   3   5  12 6.64559 2.09949   4
  -3   5 -12 3.49795 2.00077   3
   4  -5  12 62.6314 5.96215   4
  -4  -5 -12 59.8263 7.20033   6
  -4  -5 -12 60.0990 6.05807   5
  -4   5 -12 48.0066 8.77660   6
   4   5  12 52.6172 6.59259   4
  -4   5 -12 68.4519 6.49292   3
   5  -5  12 165.203 10.8839   4
  -5  -5 -12 149.180 13.0637   6
   5  -5  12 157.359 8.94235   5
   5   5  12 156.372 10.9431   4
  -5   5 -12 148.318 13.1374   6
  -5   5 -12 160.084 11.2067   3
   6  -5  12 -0.6129 1.64275   5
   6  -5  12 -0.0658 2.17682   4
  -6  -5 -12 0.70894 1.97645   6
  -6   5 -12 -0.5392 1.71009   3
   6   5  12 1.27567 2.12148   4
  -6   5 -12 -1.0526 2.41602   6
   7  -6 -12 83.1686 7.60653   5
  -7  -6  12 79.1465 7.65959   6
   7  -6 -12 79.3862 4.97496   4
   7   6 -12 83.7674 8.52556   5
   7   6 -12 82.3619 8.67896   4
   6  -6 -12 21.7829 1.94492   4
   6  -6 -12 24.2840 4.00207   5
   6  -6 -12 21.1491 4.21539   6
  -6  -6  12 19.9097 4.02943   6
   6   6 -12 24.3783 5.19145   4
   6   6 -12 19.6708 4.05144   5
  -5  -6  12 511.935 22.9591   5
   5  -6 -12 562.348 23.9459   5
   5  -6 -12 553.189 25.3754   6
   5   6 -12 504.990 27.4106   3
   5   6 -12 562.440 26.5481   4
   4  -6 -12 18.7157 2.74444   5
   4  -6 -12 12.1589 3.05144   6
  -4  -6  12 16.3029 2.54954   6
   4   6 -12 11.1936 2.97674   3
   4   6 -12 14.6258 3.51740   5
   3  -6 -12 304.380 12.8930   5
   3  -6 -12 298.528 14.9023   6
  -3  -6  12 295.789 13.7348   6
   3   6 -12 281.726 14.7193   5
   3   6 -12 281.751 15.5797   3
   2  -6 -12 341.021 13.0789   5
  -2  -6  12 371.167 19.7957   6
  -2  -6  12 319.594 16.3312   3
   2  -6 -12 337.677 12.9964   5
   2   6 -12 347.090 17.2773   3
   2   6 -12 332.246 16.0835   5
   1  -6 -12 32.4448 2.26830   4
   1  -6 -12 30.3060 2.50352   3
  -1  -6  12 35.5544 3.70537   6
  -1  -6  12 31.1872 3.89990   3
   1  -6 -12 28.4263 2.56367   3
   1   6 -12 32.3518 3.69398   5
   1   6 -12 33.9556 4.14688   3
   0  -6  12 14.6485 3.02960   6
   0  -6  12 7.93379 2.33976   3
   0  -6 -12 9.44370 2.38321   6
   0  -6 -12 10.8685 1.98851   4
   0   6 -12 11.0222 2.56472   5
   0   6 -12 8.29823 2.16084   4
   0   6 -12 11.5984 2.47077   5
   0   6 -12 7.67200 2.53898   3
   0   6  12 12.6671 1.64000   4
   1  -6  12 149.016 10.2344   6
   1  -6  12 151.006 9.71351   3
  -1  -6 -12 159.228 10.4713   6
  -1  -6 -12 170.750 9.08984   4
  -1  -6 -12 168.988 6.86572   5
  -1  -6 -12 161.344 6.82426   5
  -1   6 -12 174.403 10.2558   6
   1   6  12 169.584 8.68779   4
  -1   6 -12 155.046 9.73647   4
  -1   6 -12 158.434 9.37881   5
  -1   6 -12 157.594 10.1189   3
  -2  -6 -12 5.99611 1.92992   4
   2  -6  12 6.79975 2.59472   6
  -2  -6 -12 1.93754 1.96554   6
  -2  -6 -12 4.74943 1.24133   5
   2   6  12 3.58316 1.56263   4
  -2   6 -12 7.66805 2.06748   5
  -2   6 -12 4.37773 2.33107   6
  -2   6 -12 1.97552 1.53405   3
  -3  -6 -12 9.41922 2.22756   5
  -3  -6 -12 9.06876 2.81798   4
  -3  -6 -12 6.65287 3.16160   6
  -3   6 -12 5.20393 3.15407   6
   3   6  12 8.14848 2.63664   4
  -4  -6 -12 61.3262 7.60561   6
  -4  -6 -12 51.3932 4.94797   5
   4   6  12 49.8573 6.89707   4
  -4   6 -12 54.3939 5.92060   3
  -4   6 -12 40.1818 6.33373   6
  -5  -6 -12 18.7922 4.89532   6
   5  -6  12 8.19458 2.63784   4
  -5   6 -12 1.00198 3.22754   6
   5   6  12 10.1136 3.05841   4
   6  -6  12 5.70588 2.08068   4
  -6  -6 -12 4.41334 3.70202   6
   6  -6  12 4.23641 2.06769   5
  -6   6 -12 7.65707 3.88329   6
   6   6  12 5.16888 2.28123   4
  -6   6 -12 5.18716 2.34417   3
   7  -7 -12 -2.4474 1.48223   5
  -7  -7  12 0.86193 2.87608   6
   7  -7 -12 0.40085 0.69722   4
   7   7 -12 -1.4178 2.21690   5
  -6  -7  12 4.91800 2.65427   6
   6  -7 -12 5.78054 2.55283   5
   6   7 -12 4.63760 2.76340   4
   6   7 -12 6.13145 2.34495   5
  -5  -7  12 1.16167 1.84018   6
   5  -7 -12 2.99106 2.42848   6
   5  -7 -12 1.25251 1.55290   5
   5   7 -12 3.76908 1.72629   5
   5   7 -12 -0.0383 2.08513   4
   5   7 -12 -2.1130 1.56539   3
   4  -7 -12 123.708 9.36214   6
   4  -7 -12 135.715 7.92061   5
  -4  -7  12 123.787 9.45855   6
   4   7 -12 145.778 9.55863   5
   4   7 -12 160.006 12.0141   3
  -3  -7  12 123.204 7.83049   6
   3  -7 -12 142.337 7.29996   5
   3  -7 -12 145.549 9.18366   6
   3   7 -12 149.473 9.21196   5
   3   7 -12 137.203 9.66260   3
   2  -7 -12 331.051 13.4887   5
   2  -7 -12 335.906 13.6505   5
  -2  -7  12 325.409 15.7134   6
   2   7 -12 358.487 16.5857   5
   2   7 -12 329.194 17.3156   3
  -1  -7  12 6.03461 2.08239   6
   1  -7 -12 3.77012 1.17073   3
   1  -7 -12 5.06420 0.63297   5
   1   7 -12 4.01135 1.92042   5
   1   7 -12 8.52046 2.41281   3
   1   7 -12 4.33185 1.65771   5
   0  -7 -12 0.33419 0.33975   5
   0  -7 -12 0.60586 0.37870   5
   0  -7 -12 0.72619 0.93445   3
   0  -7 -12 -0.3448 1.05976   6
   0  -7 -12 0.64971 0.76886   4
   0   7 -12 0.90263 1.22137   5
   0   7 -12 -0.1507 1.23219   3
   0   7  12 0.04713 0.75316   4
   0   7 -12 0.09920 1.31276   5
  -1  -7 -12 4.71267 1.12946   5
   1  -7  12 6.39228 2.70225   6
  -1  -7 -12 6.60495 2.12296   6
  -1  -7 -12 5.00214 1.08603   5
  -1  -7 -12 8.83663 1.86050   4
  -1   7 -12 4.92490 1.88227   5
  -1   7 -12 10.1214 3.02812   3
   1   7  12 4.78565 1.58146   4
  -2  -7 -12 15.9796 3.82182   6
  -2  -7 -12 16.1724 2.17075   5
   2  -7  12 11.5164 3.85217   6
  -2  -7 -12 10.0522 2.45198   4
   2   7  12 17.2691 2.85585   4
  -2   7 -12 12.4129 3.47079   6
  -2   7 -12 15.4109 3.35138   3
  -3  -7 -12 74.0770 7.38368   4
  -3  -7 -12 69.4937 9.26707   6
  -3  -7 -12 74.6872 5.36330   5
   3   7  12 75.3841 6.18900   4
  -3   7 -12 66.5749 7.24587   6
  -3   7 -12 63.4028 6.28732   3
  -4  -7 -12 53.5148 4.88040   5
  -4  -7 -12 40.4007 7.11256   6
   4   7  12 49.7669 5.71788   4
  -4   7 -12 40.8305 7.21267   6
  -4   7 -12 43.0395 5.90012   3
  -5  -7 -12 26.6034 5.73920   6
   5   7  12 22.4044 4.61418   4
  -5   7 -12 17.5900 4.00274   3
  -5   7 -12 18.6890 4.97709   6
  -6  -7 -12 68.4382 9.58582   6
  -6   7 -12 65.1007 7.65401   3
   6   7  12 59.1236 7.03980   4
   7  -8 -12 -0.3150 2.20076   5
  -7  -8  12 5.35981 3.24784   6
   7   8 -12 -0.6696 2.47438   5
   7   8 -12 -2.9851 2.08777   4
   6  -8 -12 30.1147 4.59484   5
  -6  -8  12 16.7167 3.91448   6
   6   8 -12 28.0299 4.87409   5
   6   8 -12 25.9392 5.35543   4
  -5  -8  12 -1.0245 1.83856   6
   5  -8 -12 2.78505 3.39640   6
   5   8 -12 1.68546 1.92441   4
   5   8 -12 1.79327 2.04555   3
   5   8 -12 0.90653 1.94945   5
   4  -8 -12 63.7462 4.96820   5
  -4  -8  12 55.5980 5.52775   6
   4  -8 -12 52.6836 6.49396   6
   4   8 -12 62.5134 6.16575   5
   4   8 -12 64.3306 6.49961   3
   3  -8 -12 99.2770 12.1101   6
  -3  -8  12 97.9349 7.01462   6
   3  -8 -12 106.283 6.25105   5
   3   8 -12 106.618 10.0598   3
   3   8 -12 99.7178 7.57409   5
   2  -8 -12 -1.3664 1.97939   6
  -2  -8  12 1.53972 1.62837   6
   2  -8 -12 1.95279 0.80577   5
   2  -8 -12 0.47012 0.87005   5
   2   8 -12 1.81928 1.55190   5
   2   8 -12 1.81482 1.98030   3
  -1  -8  12 48.2523 5.03877   6
   1  -8 -12 47.0520 2.88935   5
   1  -8 -12 44.5071 3.44625   3
   1  -8 -12 43.4072 2.91487   5
   1   8 -12 47.4847 4.95214   5
   1   8 -12 40.5773 5.35504   3
   0  -8 -12 5.40421 2.03785   6
   0  -8  12 4.25000 2.44444   6
   0  -8 -12 4.76061 1.11706   4
   0  -8 -12 4.38627 0.99042   5
   0  -8 -12 4.66782 1.00609   5
   0  -8 -12 4.59295 1.55197   3
   0   8  12 4.78279 1.18815   4
   0   8 -12 2.11232 1.89059   3
   0   8 -12 7.04295 2.38957   5
   1  -8  12 37.2319 5.95346   6
  -1  -8 -12 53.4528 5.98885   6
  -1  -8 -12 47.8375 3.49251   5
  -1  -8 -12 53.1294 4.78586   3
  -1  -8 -12 49.8437 4.23996   4
  -1   8 -12 49.6365 5.14997   5
  -1   8 -12 54.0791 7.20090   3
   1   8  12 55.3364 4.28022   4
  -2  -8 -12 130.054 8.61730   3
  -2  -8 -12 124.015 9.99517   6
  -2  -8 -12 121.832 8.03088   4
  -2  -8 -12 119.887 7.07510   5
  -2   8 -12 127.230 9.52680   3
   2   8  12 132.711 8.18543   4
  -3  -8 -12 3.47160 1.65193   5
  -3  -8 -12 -0.3527 2.07094   6
  -3   8 -12 2.55021 2.14158   6
  -3   8 -12 2.96404 2.22196   3
   3   8  12 2.41331 1.64415   4
  -4  -8 -12 11.9784 4.00552   6
  -4   8 -12 18.8413 4.07063   3
  -4   8 -12 10.0870 4.26819   6
   4   8  12 18.8598 3.67419   4
  -5  -8 -12 52.2352 7.41187   6
   5   8  12 51.3352 6.40108   4
  -5   8 -12 49.9236 7.17831   6
  -5   8 -12 46.7908 5.86150   3
  -6  -8 -12 1.24875 3.15487   6
   6  -8  12 0.48271 2.11994   5
  -6   8 -12 0.40870 2.79960   6
  -6   8 -12 3.56551 2.50479   3
  -6  -9  12 2.51880 2.71577   6
   6   9 -12 0.70489 2.42828   4
  -5  -9  12 31.6263 4.71182   6
   5  -9 -12 25.2084 4.14066   5
   5   9 -12 23.4514 4.92140   5
   5   9 -12 31.6566 5.67162   3
   5   9 -12 37.3194 6.14942   4
   4  -9 -12 103.118 6.98412   5
  -4  -9  12 93.7349 7.60065   6
   4   9 -12 105.874 8.42693   5
   4   9 -12 94.0058 8.75858   3
  -3  -9  12 34.7221 4.77419   6
   3  -9 -12 35.7808 3.61287   5
   3  -9 -12 36.8461 5.33794   6
   3   9 -12 47.7025 5.31962   5
   3   9 -12 47.9359 6.09929   3
   2  -9 -12 2.22695 2.11069   6
   2  -9 -12 2.74334 1.12124   5
  -2  -9  12 2.27035 2.24072   6
   2  -9 -12 2.60891 1.12232   5
   2   9 -12 -0.7689 1.57809   3
   2   9 -12 0.29470 1.60362   5
  -1  -9  12 2.29886 2.52397   6
   1   9 -12 0.97412 1.62483   5
   1   9 -12 2.87953 1.73066   3
   0  -9 -12 54.3855 4.43355   5
   0  -9  12 44.9765 5.61002   6
   0  -9 -12 49.8187 4.43709   3
   0   9 -12 44.0787 5.67665   3
   0   9 -12 48.0829 5.28980   5
   0   9  12 50.7682 3.48135   4
  -1  -9 -12 86.8428 5.38605   5
  -1  -9 -12 86.0344 5.68255   4
  -1  -9 -12 84.0384 8.01030   6
  -1   9 -12 89.3708 7.59607   3
   1   9  12 87.7049 5.74374   4
  -1   9 -12 82.6378 7.05252   5
  -2  -9 -12 10.7575 3.23258   6
  -2  -9 -12 10.6095 2.12568   5
   2   9  12 11.6628 2.52160   4
  -2   9 -12 16.2669 3.58936   5
  -2   9 -12 8.68275 3.29253   3
  -3  -9 -12 17.7777 2.98872   5
  -3  -9 -12 22.5017 5.26249   6
   3   9  12 20.9848 3.68526   4
  -3   9 -12 15.0702 4.45697   6
  -3   9 -12 17.0824 4.33510   3
  -4  -9 -12 5.79676 2.52962   6
  -4   9 -12 5.44454 3.43285   6
   4   9  12 2.89270 1.92253   4
  -4   9 -12 6.47398 2.59168   3
  -5   9 -12 69.7786 7.43211   3
  -5   9 -12 60.1325 9.02156   6
   5   9  12 94.9304 8.29009   4
  -6 -10  12 4.70520 3.33847   6
   6 -10 -12 5.19029 2.66176   5
   6  10 -12 12.2895 4.11783   4
   6  10 -12 6.93151 2.51626   5
  -5 -10  12 49.4558 6.31065   6
   5 -10 -12 60.7731 5.82128   5
   5  10 -12 66.2744 7.31992   5
   5  10 -12 64.6853 7.65643   4
   5  10 -12 56.4971 7.12676   3
  -4 -10  12 31.8254 4.51085   6
   4  10 -12 32.4018 5.85788   3
   4  10 -12 39.7473 5.53633   5
   3 -10 -12 3.70755 1.68039   5
  -3 -10  12 8.12091 2.77184   6
   3  10 -12 6.79056 2.71823   5
   3  10 -12 5.74919 2.55621   3
   2 -10 -12 -0.4488 1.19042   5
   2 -10 -12 1.69284 0.65324   3
  -2 -10  12 1.99901 2.48934   6
   2 -10 -12 -0.0960 1.09657   5
   2  10 -12 -0.6283 1.73525   5
   2  10 -12 3.28622 2.17509   3
  -1 -10  12 75.6419 7.57041   6
   1 -10 -12 84.5452 5.39080   5
   1 -10 -12 88.6468 5.29130   5
   1 -10 -12 88.5345 5.40542   3
   1  10 -12 72.6813 7.72314   3
   1  10 -12 79.7093 7.00470   5
   0 -10 -12 142.653 7.69319   5
   0 -10 -12 150.791 8.48300   3
   0 -10 -12 150.166 7.99365   5
   0  10  12 150.276 7.05551   4
   0  10 -12 140.154 9.65160   5
   0  10 -12 137.404 10.4931   3
  -1 -10 -12 32.2565 3.44860   5
  -1 -10 -12 38.0520 4.37179   3
  -1 -10 -12 44.0278 5.65803   6
  -1  10 -12 36.7830 4.93214   5
  -1  10 -12 32.1016 5.49806   3
   1  10  12 41.1659 3.66601   4
  -2 -10 -12 196.978 10.8331   4
  -2 -10 -12 202.112 13.9629   6
  -2 -10 -12 182.018 10.3477   5
  -2  10 -12 183.094 12.0678   5
  -2  10 -12 172.469 12.2354   3
   2  10  12 199.685 10.9080   4
  -3 -10 -12 1.60991 2.84182   6
  -3  10 -12 3.58540 2.35417   5
  -3  10 -12 9.39864 3.11057   3
   3  10  12 5.64987 2.39710   4
  -4 -10 -12 134.428 12.5536   6
  -4  10 -12 119.327 11.2286   6
  -4  10 -12 130.209 10.5721   3
   4  10  12 139.790 9.98214   4
  -5 -10 -12 4.26447 2.74266   6
   5  10  12 3.69297 2.73885   4
  -5  10 -12 7.72788 4.11168   6
   5 -11 -12 28.7153 4.85364   5
   5  11 -12 31.6562 6.88567   5
   5  11 -12 49.7488 6.93849   4
  -4 -11  12 142.347 10.5409   6
   4 -11 -12 141.594 9.29676   5
   4  11 -12 140.427 10.6644   5
   4  11 -12 129.465 11.2528   4
   4  11 -12 141.821 11.3261   3
   3 -11 -12 3.92843 1.73233   5
   3  11 -12 5.34625 2.67322   3
   3  11 -12 2.83496 2.25118   5
   2 -11 -12 175.003 7.53605   3
   2 -11 -12 159.270 9.32899   5
   2 -11 -12 188.481 9.85610   5
   2  11 -12 171.579 11.3069   5
   2  11 -12 169.547 12.1843   3
   1 -11 -12 55.8568 4.47015   5
   1 -11 -12 46.0401 4.04940   5
   1 -11 -12 50.0027 4.19369   3
   1  11 -12 45.0632 5.53650   5
   1  11 -12 40.1664 6.39071   3
   0 -11 -12 143.117 8.17515   3
   0 -11 -12 128.076 7.84944   5
   0 -11 -12 129.176 7.62134   5
   0  11 -12 120.404 9.93160   3
   0  11 -12 132.158 9.69345   5
   0  11  12 136.110 6.46686   4
  -1 -11 -12 0.50537 1.79462   3
  -1 -11 -12 0.51110 1.37629   5
  -1 -11 -12 0.39578 1.50857   6
  -1  11 -12 0.93566 2.08277   3
   1  11  12 2.56244 1.27524   4
  -1  11 -12 -2.0995 1.80427   5
  -2 -11 -12 103.294 9.67469   6
  -2 -11 -12 94.3524 6.75190   5
  -2  11 -12 85.4180 7.90697   5
  -2  11 -12 83.1323 8.25151   3
   2  11  12 96.2632 6.91923   4
  -3 -11 -12 3.11316 2.47256   6
  -3  11 -12 6.64641 2.61411   3
  -3  11 -12 4.80907 2.56264   5
  -4  11 -12 9.83714 3.92142   5
   4  11  12 14.8007 3.63680   4
  -4  11 -12 11.1253 3.81221   3
   4 -12 -12 1.87167 1.59193   5
  -4 -12  12 1.02254 2.07192   6
   3 -12 -12 6.88127 2.13995   5
   3  12 -12 7.72860 3.41362   3
   3  12 -12 1.63203 2.50751   5
   2 -12 -12 53.9167 5.37051   5
   2 -12 -12 56.9503 3.45204   3
   2  12 -12 52.8916 6.21468   5
   2  12 -12 57.4554 7.52774   3
   1 -12 -12 5.62647 1.77388   5
   1 -12 -12 6.63299 2.34939   5
   1 -12 -12 12.9206 2.30982   3
   1  12 -12 8.18084 2.96045   5
   1  12 -12 5.81085 2.70996   3
   0 -12 -12 139.788 8.69188   5
   0 -12 -12 141.427 9.10147   3
   0 -12 -12 147.218 8.47759   5
   0  12 -12 133.929 10.1241   5
   0  12 -12 126.721 10.8562   3
   0  12  12 147.250 6.68305   4
  -1 -12 -12 4.22026 2.06319   5
  -1 -12 -12 2.30605 2.74231   6
  -1  12 -12 -0.5440 2.07622   5
   1  12  12 -0.0975 1.18042   4
  -1  12 -12 4.08671 2.85390   3
  -2 -12 -12 3.97705 2.64811   6
  -2  12 -12 7.26576 3.45052   3
   2  12  12 5.09844 2.10635   4
  -2  12 -12 1.82496 2.55442   5
  -3 -12 -12 5.54625 3.46729   6
   3  12  12 7.45439 2.65483   4
  -3  12 -12 1.30393 2.84830   3
   4  13 -12 27.4140 5.70807   3
   3 -13 -12 -0.5831 1.79979   5
   3  13 -12 2.83519 3.25219   3
   2 -13 -12 46.3361 4.99890   5
   2  13 -12 44.1017 5.93784   5
   2  13 -12 36.2407 7.56712   3
   1 -13 -12 9.14455 2.31231   5
   1  13 -12 4.53389 3.30645   3
   1  13 -12 7.14929 3.35492   5
   0 -13 -12 31.1122 3.91094   5
   0  13 -12 21.5542 4.56108   5
   0  13  12 28.8905 2.21751   4
   0  13 -12 27.1842 5.69029   3
  -1 -13 -12 0.11194 1.97940   6
  -1  13 -12 1.35562 2.81284   5
   1  13  12 -0.6478 1.47854   4
  -1  13 -12 0.10677 3.39869   3
  -2  13 -12 13.1917 4.62194   5
   2  13  12 10.5065 2.84363   4
   2 -14 -12 21.9882 3.77452   5
   2  14 -12 13.8577 5.24841   3
   2  14 -12 9.96905 3.63452   5
   1 -14 -12 0.01129 1.79588   5
   1  14 -12 -0.3029 2.21179   3
   1  14 -12 -3.3587 2.68166   5
   0  14 -12 11.8264 5.12063   3
   0  14 -12 28.1074 5.31401   5
  -1 -14 -12 4.21794 2.88116   6
  -1  14 -12 1.82739 2.97348   5
   1  14  12 3.48671 1.85741   4
  -1  14 -12 2.74790 3.44060   3
   8   0 -13 3.01355 1.97761   4
  -8   0  13 2.75030 2.60014   6
   8   0 -13 3.43630 2.40095   5
  -7   0  13 -1.9537 1.88605   3
   7   0 -13 -1.3078 1.65728   5
   7   0 -13 2.35623 2.43757   4
   6   0 -13 2.36784 1.27138   4
  -6   0  13 -0.0285 1.39442   3
   6   0 -13 -1.2471 1.23130   5
  -6   0  13 0.97565 1.17777   6
   5   0 -13 -1.2229 1.12290   5
   5   0 -13 -0.2316 1.24882   4
  -5   0  13 -0.2852 0.90753   3
   4   0 -13 -0.3806 0.73431   3
  -4   0  13 0.01484 0.78241   3
   4   0 -13 0.14122 0.97667   4
   4   0 -13 -0.6575 0.75932   5
  -3   0  13 1.18210 0.78539   3
   3   0 -13 -1.4325 0.69785   5
   3   0 -13 -0.3404 1.06717   3
   2   0 -13 -0.3360 0.56125   5
  -2   0  13 -0.7192 0.71062   3
   2   0 -13 1.64715 1.14582   3
  -1   0  13 1.10746 0.72466   3
   1   0 -13 1.58733 0.93697   4
   1   0 -13 -0.1777 0.76613   3
   0   0 -13 1.31416 0.99023   3
   0   0 -13 0.57386 0.76493   4
   0   0 -13 -0.0373 1.04355   6
   0   0  13 -0.2726 0.53358   6
   1   0  13 0.13948 0.76283   4
  -1   0 -13 2.00349 1.08794   4
   1   0  13 -0.4585 0.75883   6
  -1   0 -13 -0.6218 0.47944   5
  -1   0 -13 0.35215 0.78547   3
  -1   0 -13 1.81041 1.50556   6
  -2   0 -13 2.09091 1.30188   4
  -2   0 -13 -0.3005 1.38856   6
   2   0  13 0.96064 1.01390   6
  -2   0 -13 0.25404 0.89425   5
  -2   0 -13 -0.7798 1.03354   3
   2   0  13 0.76989 1.03535   4
  -3   0 -13 1.34129 2.08370   6
  -3   0 -13 -0.2011 0.99078   5
  -3   0 -13 0.51107 1.16706   3
   3   0  13 1.78608 1.77192   6
   3   0  13 1.01388 1.45525   4
  -4   0 -13 0.38552 2.07109   6
   4   0  13 1.39595 1.48409   4
  -4   0 -13 0.79054 1.56107   3
   5   0  13 0.95983 1.65933   4
  -5   0 -13 -0.0396 1.58519   3
  -5   0 -13 -4.2863 2.02240   6
   6   0  13 1.96236 1.80744   4
  -6   0 -13 1.11162 1.69130   3
   7   0  13 1.16814 2.21961   4
  -7   0 -13 2.76137 2.63887   6
  -7   0 -13 0.03499 2.45517   3
   8  -1 -13 12.3419 3.22196   4
  -8  -1  13 11.5603 3.59974   6
   8   1 -13 13.0965 3.44548   4
  -8   1  13 6.66776 3.01498   6
   8   1 -13 6.74144 2.67387   5
   7  -1 -13 10.9309 2.65596   4
  -7  -1  13 4.46284 2.72560   3
   7  -1 -13 11.6118 2.49826   6
   7  -1 -13 11.3297 3.09348   5
   7   1 -13 9.77650 3.09852   5
  -7   1  13 11.8739 2.50669   3
  -7   1  13 10.3474 2.55672   6
   7   1 -13 10.7961 3.15840   4
   6  -1 -13 8.48092 2.27356   5
  -6  -1  13 7.49342 1.83511   6
   6  -1 -13 4.66611 1.90587   4
  -6  -1  13 2.36931 1.96291   3
   6   1 -13 6.62436 2.07506   5
   6   1 -13 7.64805 2.43648   4
  -6   1  13 3.54262 1.63172   3
   5  -1 -13 43.1256 4.21903   4
  -5  -1  13 44.2352 3.97051   3
   5  -1 -13 40.1682 2.85113   6
   5  -1 -13 53.4130 4.60898   5
   5   1 -13 38.7317 4.38525   4
   5   1 -13 42.6171 4.41131   5
  -4  -1  13 99.9700 5.92275   3
   4  -1 -13 93.0158 5.77217   5
   4  -1 -13 96.9864 5.26353   3
   4  -1 -13 92.6932 6.10337   4
   4   1 -13 92.8712 6.07278   5
  -4   1  13 89.5045 5.02500   3
   4   1 -13 91.1924 6.02571   3
   3  -1 -13 66.9302 4.23089   3
   3  -1 -13 69.4537 4.02859   5
  -3  -1  13 66.1128 4.60002   3
  -3   1  13 64.3245 3.99027   3
   3   1 -13 69.1541 4.54086   5
  -2  -1  13 884.055 35.7851   3
   2  -1 -13 947.712 35.4723   3
   2  -1 -13 926.901 35.6617   4
  -2   1  13 908.823 35.3185   3
   2   1 -13 892.025 40.0732   3
   2   1 -13 909.331 34.8717   5
   1  -1 -13 469.272 18.9884   4
   1  -1 -13 450.119 18.0865   6
   1  -1 -13 421.956 18.5289   3
  -1  -1  13 430.030 19.0230   3
   1   1 -13 437.757 17.2117   6
   1   1 -13 461.930 19.3618   3
   1   1 -13 441.434 19.2699   4
   0  -1  13 1183.51 46.5196   6
   0  -1  13 1213.29 47.4664   3
   0  -1 -13 1168.56 47.0083   4
   0  -1 -13 1246.57 47.0222   3
   0  -1 -13 1188.51 47.2255   6
   0   1 -13 1248.04 47.4756   3
   0   1 -13 1218.92 46.9056   6
   0   1 -13 1203.34 47.4280   4
  -1  -1 -13 877.374 42.2671   6
  -1  -1 -13 983.966 39.5919   4
  -1  -1 -13 1008.74 39.4704   3
   1  -1  13 984.368 39.8283   6
   1   1  13 1002.16 39.5393   6
  -1   1 -13 952.773 37.6056   5
   1   1  13 1053.01 39.3163   4
  -1   1 -13 982.068 39.5992   3
  -1   1 -13 970.204 39.7093   4
  -1   1 -13 996.519 40.2872   6
   2  -1  13 773.566 34.4004   6
   2  -1  13 844.556 33.5255   4
  -2  -1 -13 801.343 31.1852   5
  -2  -1 -13 788.159 33.4665   3
  -2  -1 -13 778.685 34.9869   6
  -2   1 -13 776.176 31.7362   5
   2   1  13 826.685 33.2429   4
  -2   1 -13 816.273 33.7076   3
   2   1  13 797.725 34.0759   6
  -2   1 -13 812.247 33.9981   4
  -2   1 -13 792.438 34.9538   6
  -3  -1 -13 851.815 35.1698   5
  -3  -1 -13 874.859 39.5110   6
   3  -1  13 874.620 38.8078   6
   3  -1  13 903.604 37.0387   4
  -3  -1 -13 936.346 40.1158   4
  -3  -1 -13 953.235 37.7872   3
   3   1  13 918.425 37.0494   4
   3   1  13 881.884 38.3570   6
  -3   1 -13 865.765 39.2905   6
  -3   1 -13 845.652 37.1703   3
  -3   1 -13 819.200 35.4944   5
  -4  -1 -13 558.476 26.0469   3
  -4  -1 -13 516.348 27.9851   6
   4  -1  13 544.040 25.4029   4
  -4  -1 -13 547.632 24.2819   5
  -4   1 -13 561.961 24.6814   5
  -4   1 -13 543.291 28.2588   6
   4   1  13 565.957 28.3352   4
  -4   1 -13 576.145 26.1982   3
   5  -1  13 252.235 14.3615   4
  -5  -1 -13 231.496 16.8344   6
  -5  -1 -13 234.583 14.5145   3
  -5   1 -13 240.782 16.8424   6
  -5   1 -13 241.190 14.7205   3
   5   1  13 224.360 13.9126   4
  -6  -1 -13 71.9933 8.94042   6
   6  -1  13 73.5385 7.28029   4
  -6  -1 -13 82.5032 8.14589   3
  -6   1 -13 80.5966 9.55605   6
   6   1  13 78.5005 7.89406   4
  -6   1 -13 65.3816 7.20971   3
  -7  -1 -13 0.30106 3.80823   6
   7  -1  13 4.17136 3.08965   4
  -7  -1 -13 14.7552 4.38582   3
  -7   1 -13 5.13731 2.58582   3
   7   1  13 9.50226 4.00758   4
  -7   1 -13 15.7553 5.22566   6
  -8  -2  13 6.52297 2.82440   6
   8  -2 -13 4.41116 2.10136   4
   8   2 -13 -0.1912 1.88190   5
   8   2 -13 3.94184 2.68758   4
   7  -2 -13 4.24633 2.09961   6
   7  -2 -13 7.88032 2.80531   5
   7  -2 -13 5.14644 2.01686   4
   7   2 -13 8.53023 2.77310   4
   7   2 -13 2.36267 2.02449   5
  -6  -2  13 29.1311 4.03488   3
   6  -2 -13 25.8651 3.29257   6
  -6  -2  13 27.9733 3.18163   6
   6  -2 -13 30.3801 3.76100   4
   6  -2 -13 31.0730 5.29990   5
  -6   2  13 19.4560 2.41215   3
   6   2 -13 39.7113 4.77419   4
   6   2 -13 31.4837 4.31636   5
   5  -2 -13 5.89663 1.45703   6
   5  -2 -13 2.57249 1.44377   5
  -5  -2  13 4.54855 0.95628   6
  -5  -2  13 6.40154 1.96933   3
   5  -2 -13 7.87004 1.75201   4
   5   2 -13 5.60464 1.91727   5
  -5   2  13 3.54492 0.95573   3
   5   2 -13 4.47104 1.64684   3
   5   2 -13 4.05022 1.66229   4
   4  -2 -13 108.324 5.49796   6
   4  -2 -13 114.042 6.80931   4
  -4  -2  13 110.918 6.84093   3
   4  -2 -13 111.712 6.39469   5
  -4   2  13 118.366 5.32428   3
   4   2 -13 109.757 7.08268   3
   4   2 -13 107.222 7.01153   5
   3  -2 -13 3.63802 0.57949   6
   3  -2 -13 3.39366 0.93843   5
  -3  -2  13 3.45461 1.16257   3
   3  -2 -13 2.47502 0.64018   6
   3  -2 -13 2.35202 0.85076   3
   3   2 -13 3.12723 1.45930   5
   3   2 -13 4.13697 1.64914   3
  -3   2  13 2.71356 0.86404   3
   2  -2 -13 4.15886 1.14685   3
  -2  -2  13 6.14240 1.54230   3
   2  -2 -13 8.73284 1.11194   6
   2  -2 -13 6.71535 1.11341   6
   2  -2 -13 7.78996 1.50252   4
   2   2 -13 7.03004 1.99952   3
   1  -2 -13 34.3400 2.91759   3
   1  -2 -13 33.5283 2.94590   4
  -1  -2  13 33.3632 3.43608   3
   1  -2 -13 31.8750 2.85642   6
  -1  -2  13 30.9488 2.29461   6
   1   2 -13 38.6430 3.71176   3
   1   2 -13 28.1828 3.21802   4
   0  -2 -13 53.9451 4.48748   6
   0  -2 -13 60.6298 4.41805   4
   0  -2  13 48.2467 4.01930   6
   0  -2 -13 53.6486 4.82934   3
   0  -2  13 51.4508 4.47111   3
   0   2 -13 50.6662 4.11265   6
   0   2 -13 56.7684 4.61398   3
   0   2 -13 57.8608 4.71033   4
  -1  -2 -13 0.83982 0.92686   3
  -1  -2 -13 2.71694 1.35010   6
   1  -2  13 1.79365 1.36081   6
  -1  -2 -13 1.32940 1.09453   4
   1   2  13 3.91406 1.26251   4
  -1   2 -13 0.11828 0.93434   3
  -1   2 -13 0.44586 0.80671   5
  -1   2 -13 1.59325 1.61114   6
  -1   2 -13 2.17690 1.12910   4
  -2  -2 -13 44.2467 4.46969   4
   2  -2  13 46.7500 4.54554   4
  -2  -2 -13 42.2560 5.20553   6
  -2  -2 -13 49.0535 4.74983   3
   2  -2  13 41.5576 5.09158   6
  -2  -2 -13 41.5994 3.08801   5
  -2   2 -13 42.2552 3.70520   5
   2   2  13 51.7947 4.99775   6
   2   2  13 51.0627 4.51087   4
  -2   2 -13 51.8510 4.83221   4
  -2   2 -13 52.6300 5.36376   6
  -2   2 -13 43.3158 4.37922   3
  -3  -2 -13 36.6583 4.54787   4
  -3  -2 -13 42.3546 4.64000   3
  -3  -2 -13 34.7463 5.09666   6
  -3  -2 -13 31.9911 3.22965   5
   3  -2  13 28.4282 3.84018   4
   3  -2  13 30.7148 4.68374   6
  -3   2 -13 25.6416 4.70680   6
   3   2  13 29.8820 3.83240   4
   3   2  13 35.8006 4.54301   6
  -3   2 -13 28.6733 3.43907   5
  -3   2 -13 33.8333 4.30100   3
   4  -2  13 91.7256 7.32416   4
  -4  -2 -13 82.8701 7.13977   3
  -4  -2 -13 84.3253 8.92246   6
  -4   2 -13 74.3563 6.94461   3
  -4   2 -13 68.1626 7.86535   6
  -5  -2 -13 255.184 15.0429   3
   5  -2  13 233.414 14.1539   4
  -5  -2 -13 228.495 16.8553   6
  -5   2 -13 258.652 17.3544   6
   5   2  13 245.601 14.5286   4
  -5   2 -13 246.200 15.0144   3
   6  -2  13 -1.5913 1.76025   4
  -6  -2 -13 5.05618 2.11166   3
  -6  -2 -13 -0.0728 2.51186   6
   6   2  13 -0.5604 1.64401   4
  -6   2 -13 -4.4302 2.95283   6
   7  -2  13 28.1841 4.92023   4
  -7  -2 -13 41.6315 5.88416   3
  -7  -2 -13 33.6081 7.37318   6
   7   2  13 29.6881 5.69140   4
  -7   2 -13 33.5497 5.78991   3
  -7   2 -13 36.4170 7.22579   6
   8  -3 -13 36.6764 4.33104   4
  -8  -3  13 44.4246 5.66814   6
   8  -3 -13 42.4152 6.07041   5
   8   3 -13 34.2475 6.09024   4
   8   3 -13 45.9130 6.12654   5
   7  -3 -13 2.09026 2.28799   6
   7  -3 -13 -2.2303 1.36732   4
   7  -3 -13 0.17614 1.65668   5
   7   3 -13 0.20299 1.56062   4
   7   3 -13 1.11291 2.15557   5
   6  -3 -13 2.30029 1.77011   6
   6  -3 -13 0.62721 1.21341   4
   6  -3 -13 -0.0257 1.62946   5
  -6  -3  13 0.01939 1.54901   6
  -6  -3  13 1.12636 2.06920   3
   6   3 -13 1.65399 1.80479   5
   6   3 -13 0.35097 2.03659   4
  -5  -3  13 94.9987 5.28620   6
   5  -3 -13 102.874 6.82414   5
   5   3 -13 107.916 7.66949   5
   5   3 -13 110.092 7.43447   3
   5   3 -13 114.083 8.26086   4
   4  -3 -13 315.164 13.7212   5
   4  -3 -13 294.454 13.4314   4
   4  -3 -13 300.176 13.5749   6
   4   3 -13 297.390 14.9272   3
   4   3 -13 313.570 14.8556   5
   3  -3 -13 165.858 8.08102   6
   3  -3 -13 178.975 7.91712   4
   3  -3 -13 162.295 6.82032   3
   3  -3 -13 167.857 7.41213   5
  -3  -3  13 173.376 9.30290   3
   3   3 -13 156.089 8.81543   5
   3   3 -13 168.644 9.70906   3
   2  -3 -13 651.449 26.2620   6
   2  -3 -13 685.384 25.8469   3
   2  -3 -13 675.629 26.3132   6
  -2  -3  13 644.055 27.6660   3
   2  -3 -13 680.250 26.2963   4
   2   3 -13 682.025 27.1036   5
   2   3 -13 664.142 28.2462   3
  -1  -3  13 52.7968 4.44489   3
   1  -3 -13 57.9910 3.68833   3
   1  -3 -13 46.6903 3.81179   6
  -1  -3  13 53.1092 3.58814   6
   1  -3 -13 53.6220 4.29559   4
   1   3 -13 47.3328 4.33606   4
   1   3 -13 50.0013 4.48480   3
   0  -3 -13 376.476 16.0941   4
   0  -3 -13 330.880 16.9148   3
   0  -3  13 344.040 16.6248   3
   0  -3  13 357.194 16.4402   6
   0  -3 -13 343.581 16.6462   6
   0   3 -13 372.707 16.0801   6
   0   3 -13 374.744 17.0674   3
   0   3 -13 373.494 16.9373   4
   1  -3  13 33.8929 4.12523   6
  -1  -3 -13 34.1128 3.66039   3
  -1  -3 -13 40.4533 4.48358   6
   1  -3  13 39.0737 4.33241   3
  -1  -3 -13 37.6503 3.64659   4
  -1   3 -13 38.1896 3.85237   4
   1   3  13 39.5914 3.63765   4
  -1   3 -13 39.7433 4.23377   6
  -1   3 -13 34.6195 3.22431   5
  -1   3 -13 40.3242 4.26399   3
   2  -3  13 567.550 26.8807   6
  -2  -3 -13 570.233 27.2464   6
  -2  -3 -13 586.484 25.5689   3
  -2  -3 -13 581.997 22.8450   5
  -2  -3 -13 564.222 25.5334   4
  -2   3 -13 610.613 27.1583   6
  -2   3 -13 551.423 25.7902   4
   2   3  13 613.858 25.2708   4
  -2   3 -13 569.046 25.8052   3
  -2   3 -13 584.880 24.5749   5
  -3  -3 -13 13.7161 3.66044   6
  -3  -3 -13 14.2169 3.26151   4
   3  -3  13 14.0926 4.05065   6
  -3  -3 -13 13.1106 2.18297   5
   3  -3  13 21.8621 3.67257   4
   3   3  13 15.8631 3.43326   6
   3   3  13 14.8153 2.96630   4
  -3   3 -13 13.7600 2.94745   3
  -3   3 -13 16.2751 2.84268   5
  -3   3 -13 15.1576 4.01279   6
   4  -3  13 228.085 13.2103   4
  -4   3 -13 233.449 16.1722   6
  -4   3 -13 228.983 13.6253   3
   4   3  13 221.312 14.9681   4
   5  -3  13 77.6945 7.06137   4
  -5  -3 -13 77.6593 9.12284   6
  -5   3 -13 76.2817 7.33454   3
  -5   3 -13 68.6970 8.99568   6
   5   3  13 78.7031 7.13784   4
   6  -3  13 -2.1730 1.33380   4
  -6  -3 -13 4.94962 3.00121   6
  -6   3 -13 2.87487 3.34878   6
  -6   3 -13 1.94420 2.25477   3
   6   3  13 -1.8534 1.78646   4
  -7  -4  13 0.44689 2.14837   6
   7  -4 -13 -1.7208 1.21495   4
   7  -4 -13 2.27488 3.16417   6
   7  -4 -13 3.14552 1.92233   5
   7   4 -13 -1.6533 1.81932   5
   7   4 -13 0.12558 2.42842   4
   6  -4 -13 219.625 12.6575   6
   6  -4 -13 254.958 13.2505   5
   6  -4 -13 226.099 11.2501   4
  -6  -4  13 234.128 11.8133   6
   6   4 -13 228.007 14.2372   4
   6   4 -13 213.685 13.3130   5
  -5  -4  13 1.52965 1.23264   6
   5  -4 -13 4.58630 1.15822   4
  -5  -4  13 3.88664 2.13200   3
   5  -4 -13 5.21970 1.78979   5
   5  -4 -13 4.55164 2.04440   6
   5   4 -13 5.00791 2.15452   4
   5   4 -13 4.53676 1.96578   5
   5   4 -13 4.47600 1.95113   3
  -4  -4  13 252.694 10.7685   6
   4  -4 -13 254.213 11.9828   5
   4  -4 -13 252.438 11.2198   4
  -4  -4  13 257.464 13.1801   3
   4   4 -13 264.704 13.4217   5
   4   4 -13 271.431 13.8928   3
  -3  -4  13 28.5894 3.38243   3
   3  -4 -13 21.3733 1.87715   4
   3  -4 -13 18.9689 2.58538   6
  -3  -4  13 18.8839 1.51464   6
  -3  -4  13 20.5939 1.58797   6
   3  -4 -13 19.2327 1.78271   4
   3  -4 -13 24.5400 1.88648   5
   3   4 -13 19.1398 3.33446   3
   3   4 -13 23.8570 3.07818   5
  -2  -4  13 19.1386 1.98400   6
  -2  -4  13 23.5853 2.93394   3
   2  -4 -13 19.5613 1.58603   3
   2  -4 -13 21.9454 2.48481   6
   2  -4 -13 15.7237 1.76180   4
   2   4 -13 17.4113 2.78460   5
   2   4 -13 16.6962 2.97942   3
  -1  -4  13 0.06153 0.91636   3
   1  -4 -13 0.20281 0.67071   4
   1  -4 -13 2.30562 0.78613   3
  -1  -4  13 -0.5977 0.92638   6
   1  -4 -13 1.26451 0.92670   6
   1   4 -13 0.49292 1.01579   3
   1   4 -13 -0.1875 0.92831   5
   0  -4 -13 6.15665 2.14767   6
   0  -4 -13 8.73112 1.74723   4
   0  -4  13 8.28604 2.17230   6
   0  -4 -13 9.87782 1.81515   3
   0   4 -13 9.51774 2.28622   3
   0   4  13 7.41036 1.50269   4
   0   4 -13 5.83984 1.73614   6
   0   4 -13 8.21028 2.04536   4
   1  -4  13 43.0005 4.86401   6
   1  -4  13 44.0525 4.45149   3
  -1  -4 -13 48.4095 4.22143   3
  -1  -4 -13 46.9642 4.21318   4
  -1  -4 -13 36.8171 4.45163   6
  -1   4 -13 43.3009 4.49846   3
  -1   4 -13 37.7990 3.67814   5
  -1   4 -13 47.5660 4.82303   6
   1   4  13 43.9432 3.87860   4
  -1   4 -13 40.0288 4.21946   4
  -2  -4 -13 -0.1110 1.66123   6
  -2  -4 -13 1.05696 0.99297   4
  -2  -4 -13 0.99144 0.71616   5
   2   4  13 1.27036 1.30324   4
  -2   4 -13 0.33576 1.62395   6
  -2   4 -13 1.83542 1.18667   5
  -3  -4 -13 520.704 21.8770   5
  -3  -4 -13 520.747 24.4213   4
   3  -4  13 501.460 25.9543   6
  -3  -4 -13 542.608 26.6976   6
  -3   4 -13 487.475 23.0600   5
  -3   4 -13 499.854 25.6714   6
   3   4  13 519.599 23.5557   4
  -3   4 -13 552.339 24.7174   3
  -4  -4 -13 145.506 12.3887   6
   4  -4  13 158.471 10.3798   4
  -4   4 -13 160.418 10.8238   3
  -4   4 -13 152.993 14.4365   6
   4   4  13 156.779 10.2577   4
   5  -4  13 195.049 12.3163   4
  -5  -4 -13 184.159 14.6843   6
  -5   4 -13 178.119 12.1431   3
   5   4  13 185.285 12.0743   4
  -5   4 -13 172.054 14.1981   6
   6  -4  13 28.9694 4.95224   4
  -6  -4 -13 14.4666 5.41675   6
   6   4  13 24.7789 4.80400   4
  -6   4 -13 34.0944 6.88586   6
  -6   4 -13 25.8281 4.78131   3
  -7  -5  13 -1.8730 2.53139   5
   7  -5 -13 5.91947 1.66483   4
   7  -5 -13 -0.8089 3.47825   6
  -7  -5  13 6.71293 2.89206   6
   7  -5 -13 10.3623 3.10214   5
   7   5 -13 2.07951 2.63117   4
   7   5 -13 7.22434 2.54582   5
   6  -5 -13 8.18089 3.01899   6
   6  -5 -13 13.8257 1.78541   4
  -6  -5  13 9.79446 2.72429   6
   6  -5 -13 11.1423 2.77455   5
   6   5 -13 12.1165 3.12928   4
   6   5 -13 7.46226 2.57481   5
  -5  -5  13 4.08928 1.64480   6
   5  -5 -13 11.0199 2.61178   6
   5  -5 -13 9.54993 2.30083   5
   5   5 -13 10.1302 2.75443   4
   5   5 -13 7.53430 2.55985   5
   5   5 -13 6.19015 2.38538   3
   4  -5 -13 135.770 7.40378   5
   4  -5 -13 133.703 8.37951   6
   4  -5 -13 127.242 5.55671   4
  -4  -5  13 130.088 6.57663   6
  -4  -5  13 134.032 7.03549   6
   4  -5 -13 128.043 5.71020   4
   4   5 -13 135.697 9.13956   3
   4   5 -13 142.338 8.93351   5
   3  -5 -13 80.7349 3.55897   4
   3  -5 -13 78.9404 5.85044   6
  -3  -5  13 80.0063 4.67652   6
   3  -5 -13 81.2080 4.34008   5
   3  -5 -13 76.4230 3.57385   4
  -3  -5  13 82.9303 4.77059   6
  -3  -5  13 83.1393 6.29949   3
   3   5 -13 75.3324 5.92861   5
   3   5 -13 90.1420 6.81242   3
   2  -5 -13 298.386 11.3272   3
  -2  -5  13 293.432 13.0223   6
  -2  -5  13 260.825 14.0946   3
   2  -5 -13 287.275 11.7070   4
   2  -5 -13 291.276 11.3268   3
   2   5 -13 299.368 15.1009   3
   2   5 -13 295.232 14.0502   5
   1  -5 -13 122.519 6.25597   4
  -1  -5  13 115.039 7.77829   3
  -1  -5  13 123.697 7.46781   6
   1  -5 -13 124.604 6.22774   3
   1   5 -13 111.283 7.96813   3
   1   5 -13 132.445 7.56870   5
   0  -5 -13 617.845 27.1251   6
   0  -5  13 598.784 26.8691   3
   0  -5 -13 665.087 25.6944   4
   0  -5  13 638.489 27.1947   6
   0  -5 -13 587.562 26.7681   3
   0   5 -13 618.110 27.0619   4
   0   5 -13 654.601 27.6196   3
   0   5  13 688.076 25.2085   4
   0   5 -13 541.966 25.9131   5
  -1  -5 -13 47.1150 5.24912   6
  -1  -5 -13 48.6333 4.40838   4
   1  -5  13 56.4052 5.63150   6
   1  -5  13 51.8096 5.09008   3
   1   5  13 52.1644 4.19209   4
  -1   5 -13 54.0701 4.53907   5
  -1   5 -13 45.8781 4.99924   3
  -1   5 -13 54.6188 5.17416   4
  -1   5 -13 53.1311 5.09516   6
  -2  -5 -13 131.297 6.68590   5
  -2  -5 -13 136.327 10.1680   6
   2  -5  13 118.883 14.5428   6
  -2  -5 -13 132.979 8.62313   4
  -2   5 -13 142.371 8.59406   5
  -2   5 -13 137.442 9.20299   3
  -2   5 -13 134.826 9.73261   6
   2   5  13 137.130 8.29883   4
  -3  -5 -13 283.267 13.4735   5
  -3  -5 -13 291.351 17.6795   6
  -3  -5 -13 287.951 17.2724   4
   3   5  13 293.255 15.0643   4
  -3   5 -13 281.864 16.9681   6
  -3   5 -13 290.435 16.2124   3
  -4  -5 -13 9.63579 2.31609   5
   4  -5  13 11.6858 2.84849   4
  -4  -5 -13 8.05996 3.62153   6
   4   5  13 11.3071 3.08406   4
  -4   5 -13 6.94038 3.47463   6
   5  -5  13 68.1611 6.43978   4
  -5  -5 -13 58.2060 8.41085   6
   5   5  13 64.0682 6.46733   4
  -5   5 -13 71.8064 7.18687   3
  -5   5 -13 56.1261 8.14772   6
  -6  -5 -13 5.15584 3.60800   6
   6  -5  13 7.26622 2.81413   4
   6   5  13 10.8902 3.16404   4
  -6   5 -13 0.24803 2.37669   3
  -6   5 -13 10.7487 4.12415   6
   7  -6 -13 12.8611 1.81228   4
   7  -6 -13 11.8666 3.48198   5
  -7  -6  13 13.2580 3.70260   6
   7   6 -13 9.01373 3.12705   4
   6  -6 -13 38.3365 2.34136   4
  -6  -6  13 37.2901 4.29371   5
  -6  -6  13 37.2392 4.68744   6
   6  -6 -13 44.6038 4.93882   5
   6  -6 -13 28.1912 6.14514   6
   6   6 -13 47.3543 6.13704   4
   6   6 -13 43.4216 5.34446   5
   5  -6 -13 1.98227 2.26621   6
   5  -6 -13 5.61672 2.02670   5
  -5  -6  13 5.37725 1.79928   6
   5   6 -13 8.18535 2.66478   5
   5   6 -13 6.57752 2.73526   4
   5   6 -13 4.19535 2.57271   3
  -4  -6  13 149.178 8.28164   6
   4  -6 -13 138.264 9.29603   6
   4  -6 -13 154.106 8.18513   5
   4   6 -13 147.977 9.93435   5
   4   6 -13 153.542 10.2852   3
  -3  -6  13 85.3801 5.67625   6
  -3  -6  13 99.3801 5.94862   6
   3  -6 -13 93.8795 5.21321   5
   3  -6 -13 97.8953 6.85870   6
   3   6 -13 98.6039 7.08336   5
   3   6 -13 111.933 8.19210   3
  -2  -6  13 87.3452 6.97145   3
   2   6 -13 98.5238 7.61704   3
   2   6 -13 108.871 7.12296   5
  -1  -6  13 244.828 12.7444   6
  -1  -6  13 244.317 13.2954   3
   1  -6 -13 260.235 10.7868   4
   1  -6 -13 250.046 10.9715   3
   1  -6 -13 241.891 10.9817   3
   1  -6 -13 251.099 12.9270   6
   1   6 -13 243.584 13.6922   3
   1   6 -13 261.803 12.8505   5
   0  -6 -13 167.822 8.59114   4
   0  -6  13 151.871 11.1175   3
   0  -6 -13 174.353 10.4439   6
   0  -6  13 171.633 10.4608   6
   0   6 -13 159.846 9.71618   5
   0   6 -13 179.263 9.81841   5
   0   6 -13 158.067 10.2445   3
   0   6  13 184.957 8.44331   4
   1  -6  13 286.470 16.0276   6
  -1  -6 -13 296.759 11.5234   5
  -1  -6 -13 307.455 14.3143   4
  -1  -6 -13 292.772 11.5023   5
  -1  -6 -13 296.015 16.0999   6
  -1   6 -13 290.886 15.5914   3
   1   6  13 309.540 13.8358   4
  -1   6 -13 280.187 14.5257   5
  -1   6 -13 285.963 15.1993   6
   2  -6  13 81.3915 7.82384   6
  -2  -6 -13 87.2906 6.44625   4
  -2  -6 -13 82.4596 4.89865   5
  -2  -6 -13 81.3676 7.69554   6
   2   6  13 90.3564 6.30097   4
  -2   6 -13 81.7962 7.37218   6
  -2   6 -13 66.2472 6.51358   3
  -3  -6 -13 217.199 15.7666   6
  -3  -6 -13 248.609 12.0256   5
  -3   6 -13 230.695 14.0864   3
  -3   6 -13 246.813 15.3957   6
   3   6  13 263.880 13.6430   4
  -4  -6 -13 8.37593 2.36424   5
  -4  -6 -13 5.63939 2.52365   6
  -4   6 -13 1.06935 1.86896   3
   4   6  13 0.51450 1.78889   4
  -4   6 -13 0.64344 2.65957   6
  -5  -6 -13 76.8719 9.10437   6
  -5   6 -13 79.2067 8.14395   3
   5   6  13 78.8677 7.30697   4
  -5   6 -13 58.2058 8.31778   6
  -6  -6 -13 21.5869 6.58468   6
   6   6  13 35.0707 5.96903   4
  -7  -7  13 14.5530 3.73913   6
   7  -7 -13 17.8609 3.93791   5
   7   7 -13 13.9757 3.94153   5
   7   7 -13 10.6305 4.92944   4
  -6  -7  13 12.8029 2.98857   6
   6  -7 -13 11.7201 2.85462   5
   6  -7 -13 12.1927 3.80631   6
   6   7 -13 16.7154 3.68725   5
   6   7 -13 8.18603 3.01913   4
  -5  -7  13 4.77265 1.85657   6
   5  -7 -13 1.45744 1.20590   5
   5   7 -13 2.88070 1.96052   3
   5   7 -13 3.48527 1.97175   4
   5   7 -13 2.28538 1.97911   5
  -4  -7  13 67.1904 5.37256   6
   4  -7 -13 83.2238 5.55504   5
  -4  -7  13 88.0867 6.24786   6
   4  -7 -13 71.6159 6.98996   6
   4   7 -13 72.1262 6.54020   5
   4   7 -13 75.1184 7.17813   3
  -3  -7  13 3.96491 1.76424   6
   3  -7 -13 7.03937 2.40944   6
  -3  -7  13 7.53191 1.83648   6
   3   7 -13 9.44770 2.93659   3
   2  -7 -13 181.890 7.82928   5
   2  -7 -13 177.361 7.69977   5
  -2  -7  13 177.322 10.0807   6
   2   7 -13 191.499 10.7628   5
   2   7 -13 185.530 11.5884   3
   1  -7 -13 4.15988 1.03236   3
  -1  -7  13 3.07009 1.99645   6
   1  -7 -13 4.15664 0.78808   4
   1  -7 -13 1.39013 0.93228   3
   1   7 -13 1.08499 1.63153   3
   1   7 -13 3.21478 1.54472   5
   1   7 -13 3.70392 1.80402   5
   0  -7  13 78.7028 6.70745   6
   0  -7 -13 76.6419 6.71958   6
   0  -7 -13 81.1882 5.50686   3
   0   7 -13 76.9213 6.89969   3
   0   7  13 86.8853 4.86765   4
   0   7 -13 82.8051 6.32051   5
   0   7 -13 66.8118 5.94402   5
  -1  -7 -13 404.969 20.1193   6
  -1  -7 -13 379.416 15.4142   5
  -1  -7 -13 395.150 15.4597   5
  -1  -7 -13 375.058 17.2859   4
   1  -7  13 360.335 26.2176   6
  -1   7 -13 362.236 19.1170   3
   1   7  13 390.512 17.0414   4
   2  -7  13 285.739 17.8655   6
  -2  -7 -13 298.138 16.6405   4
  -2  -7 -13 291.830 13.4352   5
  -2  -7 -13 312.170 17.7460   6
  -2   7 -13 311.898 17.0594   6
   2   7  13 311.233 14.9349   4
  -2   7 -13 300.477 16.3956   3
  -3  -7 -13 144.625 8.55357   5
  -3  -7 -13 153.312 12.1276   6
   3   7  13 158.683 10.0260   4
  -3   7 -13 146.714 10.6424   3
  -4  -7 -13 114.572 9.46981   5
  -4  -7 -13 134.029 11.7891   6
   4   7  13 131.355 9.33640   4
  -4   7 -13 129.853 11.1248   6
  -4   7 -13 128.847 9.91031   3
  -5  -7 -13 5.52736 3.01805   6
   5   7  13 7.99960 2.84614   4
  -5   7 -13 -0.4586 2.51821   6
  -5   7 -13 2.94190 2.88378   3
  -6  -7 -13 37.7158 7.46864   6
  -6   7 -13 30.5519 5.84473   3
  -6   7 -13 38.3930 7.78861   6
  -6  -8  13 4.02849 2.38078   6
   6  -8 -13 9.27240 2.51832   5
   6   8 -13 6.47807 2.61383   4
   6   8 -13 2.20837 2.73024   5
   5  -8 -13 11.5465 3.49117   6
  -5  -8  13 7.25962 2.66119   6
   5   8 -13 7.23620 3.00204   4
   5   8 -13 0.50482 2.07521   3
   5   8 -13 3.60548 2.34836   5
   4  -8 -13 3.39204 1.53534   5
   4  -8 -13 7.20761 2.99640   6
  -4  -8  13 0.61611 1.44469   6
  -4  -8  13 0.56899 1.98790   6
   4   8 -13 4.03012 2.47782   3
   4   8 -13 2.79716 2.24267   5
   3  -8 -13 116.904 10.6756   6
  -3  -8  13 114.469 7.70927   6
   3  -8 -13 124.358 6.86371   5
   3   8 -13 119.696 9.35755   3
   3   8 -13 121.716 8.66226   5
  -2  -8  13 65.6269 6.03344   6
   2  -8 -13 71.1914 4.23202   5
   2  -8 -13 73.7357 4.21709   5
   2   8 -13 74.5664 6.49991   5
   2   8 -13 67.5909 7.97900   3
   1  -8 -13 277.805 10.9497   5
   1  -8 -13 260.762 10.7704   5
  -1  -8  13 237.914 13.9451   6
   1  -8 -13 257.463 12.5344   3
   1   8 -13 279.321 15.9723   5
   0  -8 -13 74.2343 4.04023   5
   0  -8 -13 74.2344 5.26043   3
   0  -8  13 65.8982 6.64994   6
   0  -8 -13 75.3662 6.88020   6
   0  -8 -13 80.7266 4.12013   5
   0   8 -13 69.6945 7.29186   5
   0   8  13 82.3548 4.59014   4
  -1  -8 -13 150.864 7.41574   5
  -1  -8 -13 146.379 8.49878   4
  -1  -8 -13 156.279 10.8795   6
   1  -8  13 131.869 10.3836   6
  -1  -8 -13 148.430 9.04373   3
  -1   8 -13 158.654 9.95200   5
  -1   8 -13 143.828 10.2404   3
   1   8  13 158.936 8.41592   4
  -2  -8 -13 97.6604 8.04237   4
  -2  -8 -13 90.9297 5.81987   5
  -2   8 -13 88.9826 8.19897   3
   2   8  13 96.2062 6.72903   4
  -3  -8 -13 21.2127 3.18006   5
  -3  -8 -13 16.5288 4.42382   6
   3   8  13 20.5076 3.53398   4
  -3   8 -13 21.3395 4.93219   6
  -3   8 -13 19.3637 4.20842   3
  -4  -8 -13 -1.8710 2.41651   6
  -4   8 -13 2.81720 1.96555   3
  -4   8 -13 -2.1707 2.41759   6
   4   8  13 2.02851 1.80266   4
  -5  -8 -13 27.2947 6.58169   6
  -5   8 -13 29.5563 6.33805   6
   5   8  13 23.0014 4.54433   4
  -5   8 -13 29.5221 5.30777   3
   6  -9 -13 0.98431 1.82385   5
  -6  -9  13 3.55775 2.83055   6
   6   9 -13 -2.9985 2.13456   4
   6   9 -13 3.65027 2.25830   5
  -5  -9  13 251.576 14.8308   6
   5  -9 -13 278.942 14.2824   5
   5   9 -13 250.620 15.5942   5
   5   9 -13 260.425 16.6320   4
  -4  -9  13 117.101 8.23924   6
   4  -9 -13 136.703 8.11791   5
  -4  -9  13 122.102 8.75699   6
   4   9 -13 115.468 9.08028   5
  -3  -9  13 17.1994 3.69080   6
   3  -9 -13 19.2340 2.70071   5
   3  -9 -13 12.3901 3.54800   6
   3   9 -13 17.6672 3.69762   5
   3   9 -13 21.4240 4.11384   3
  -2  -9  13 219.446 13.0148   6
   2  -9 -13 246.659 11.0399   5
   2  -9 -13 224.014 10.6790   5
   2  -9 -13 245.887 14.1040   6
   2   9 -13 245.037 13.5629   5
   2   9 -13 237.325 14.4934   3
   1  -9 -13 137.026 6.87576   5
  -1  -9  13 128.516 11.4665   6
   1  -9 -13 154.765 8.49921   3
   1   9 -13 140.077 10.4434   3
   1   9 -13 141.782 9.46033   5
   0  -9  13 224.190 14.6763   6
   0  -9 -13 262.401 12.7075   3
   0  -9 -13 259.229 11.4152   5
   0  -9 -13 271.189 15.4477   6
   0   9  13 278.202 11.4052   4
   0   9 -13 262.316 14.2140   5
   0   9 -13 257.462 15.2488   3
  -1  -9 -13 1.29138 1.78501   3
  -1  -9 -13 -1.1948 1.03374   4
  -1  -9 -13 0.17761 1.46794   6
  -1  -9 -13 1.01572 1.19836   5
   1   9  13 0.57211 0.91380   4
  -1   9 -13 -0.1612 1.61763   3
  -1   9 -13 4.14259 2.27399   5
  -2  -9 -13 0.98908 1.60096   4
  -2  -9 -13 3.53941 1.49085   5
  -2  -9 -13 3.39779 2.01358   6
  -2   9 -13 3.22685 1.93040   3
  -2   9 -13 0.27297 1.77074   5
  -3  -9 -13 9.15177 3.48844   6
  -3  -9 -13 13.3400 2.49633   5
  -3   9 -13 10.1972 4.09283   6
  -3   9 -13 7.22153 3.27641   3
   3   9  13 3.31970 2.21012   4
  -4  -9 -13 0.54020 2.48738   6
  -4   9 -13 -1.7990 2.45041   6
   4   9  13 1.34867 2.10148   4
  -4   9 -13 1.04389 2.10328   3
  -5  -9 -13 47.0878 8.55459   6
   5   9  13 45.4525 6.22288   4
  -6 -10  13 -5.2107 2.23638   6
   5 -10 -13 87.0122 7.26416   5
  -5 -10  13 101.068 8.57777   6
   5  10 -13 76.4074 9.25276   5
   5  10 -13 101.985 9.46565   3
  -4 -10  13 12.1962 3.54464   6
  -4 -10  13 9.82758 2.65506   6
   4  10 -13 17.2334 4.21076   3
   4  10 -13 17.1442 3.98722   5
   3 -10 -13 25.9044 3.24959   5
  -3 -10  13 16.1983 3.90170   6
   3  10 -13 11.0592 3.71796   3
   3  10 -13 17.1455 3.73494   5
   2 -10 -13 35.0563 3.42953   5
  -2 -10  13 35.5219 5.11633   6
   2 -10 -13 38.8373 3.59294   5
   2  10 -13 41.8261 6.30615   3
   2  10 -13 38.4680 5.02249   5
  -1 -10  13 15.3080 4.81614   6
   1 -10 -13 26.6195 2.83126   5
   1 -10 -13 28.3916 2.87165   3
   1 -10 -13 24.3407 2.70849   5
   1  10 -13 22.8763 4.28040   5
   1  10 -13 21.7657 4.62909   3
   0 -10 -13 35.4431 3.97429   3
   0 -10 -13 27.7522 5.86715   6
   0 -10 -13 33.2234 3.28781   5
   0 -10 -13 40.7626 3.35172   5
   0  10 -13 36.0699 5.95799   3
   0  10  13 40.8093 2.84098   4
   0  10 -13 36.3784 4.62586   5
  -1 -10 -13 84.1479 6.56372   3
  -1 -10 -13 93.4651 8.87774   6
  -1 -10 -13 82.4272 5.53477   5
   1  10  13 84.5774 5.72042   4
  -1  10 -13 97.6321 7.83903   5
  -1  10 -13 78.1553 7.79352   3
  -2 -10 -13 30.5260 5.73685   6
  -2 -10 -13 40.2692 4.27729   4
  -2 -10 -13 35.3759 3.81599   5
   2  10  13 43.0867 4.38441   4
  -2  10 -13 37.6709 5.38249   5
  -2  10 -13 30.4796 5.42102   3
  -3 -10 -13 160.996 13.3654   6
  -3  10 -13 162.645 12.1928   3
   3  10  13 180.040 12.4848   4
  -3  10 -13 162.546 11.4899   5
  -4 -10 -13 0.64236 2.63132   6
   4  10  13 1.55999 2.48150   4
  -4  10 -13 -3.1386 2.47624   6
  -4  10 -13 2.82471 2.78412   3
  -5 -11  13 32.7669 5.49018   6
   5 -11 -13 52.8215 5.54041   5
   5  11 -13 31.9513 5.69173   5
   5  11 -13 47.1363 7.76406   4
   5  11 -13 42.6585 7.11086   3
   4 -11 -13 110.145 7.76397   5
  -4 -11  13 101.926 8.71373   6
   4  11 -13 107.458 10.0944   3
   4  11 -13 89.6163 8.79590   5
   3 -11 -13 1.25103 1.31180   5
   3  11 -13 -0.8859 1.75518   5
   3  11 -13 3.91570 2.41595   3
   2 -11 -13 201.586 10.5680   5
   2 -11 -13 220.133 10.9903   5
   2  11 -13 200.884 13.7172   3
   2  11 -13 194.007 12.7545   5
   1 -11 -13 4.40355 1.43636   5
   1 -11 -13 2.56806 1.61859   3
   1  11 -13 -0.1516 1.97126   3
   1  11 -13 2.04493 2.20947   5
   0 -11 -13 13.0201 2.72316   3
   0 -11 -13 18.5385 4.19179   6
   0 -11 -13 16.1072 2.61788   5
   0 -11 -13 20.2454 2.82557   5
   0  11 -13 14.3733 3.90046   3
   0  11 -13 10.7980 3.55594   5
   0  11  13 17.8834 1.78266   4
  -1 -11 -13 155.027 12.2950   6
  -1 -11 -13 148.675 8.61392   5
  -1  11 -13 157.570 11.7193   3
   1  11  13 164.040 8.65441   4
  -1  11 -13 153.915 10.7216   5
  -2 -11 -13 62.6634 7.69528   6
  -2 -11 -13 54.5396 5.10914   5
  -2  11 -13 53.7512 7.24656   3
  -2  11 -13 57.4623 6.57252   5
   2  11  13 66.2861 5.69084   4
  -3 -11 -13 63.5323 8.01737   6
   3  11  13 51.0445 5.69449   4
  -3  11 -13 49.2914 7.24725   3
  -3  11 -13 50.8868 6.65861   5
  -4 -11 -13 6.64948 3.99459   6
   4  11  13 11.7985 2.98951   4
  -4  11 -13 14.6155 4.17844   3
  -4  11 -13 15.3671 3.75198   5
  -4 -12  13 106.920 9.04101   6
   4 -12 -13 96.6125 7.40752   5
   4  12 -13 75.6925 9.34731   4
   4  12 -13 82.3602 8.63797   5
   4  12 -13 76.4847 9.08657   3
   3 -12 -13 60.6857 5.33925   5
   3  12 -13 34.4449 6.54079   3
   3  12 -13 48.0937 6.19268   5
   2 -12 -13 74.6908 6.83465   5
   2 -12 -13 77.3836 3.78313   3
   2 -12 -13 69.9480 6.28565   5
   2  12 -13 77.9617 7.55589   5
   2  12 -13 80.9761 8.62376   3
   1 -12 -13 17.8792 2.88170   5
   1 -12 -13 24.3020 3.31309   3
   1 -12 -13 19.0684 3.19164   5
   1  12 -13 20.2437 4.40084   5
   1  12 -13 19.7642 4.50067   3
   0 -12 -13 8.54865 2.06859   5
   0 -12 -13 6.21018 2.79964   6
   0 -12 -13 4.17076 2.25295   3
   0 -12 -13 8.57849 2.06766   5
   0  12  13 7.45510 1.19504   4
   0  12 -13 8.06849 3.30291   3
   0  12 -13 3.79340 2.82830   5
  -1 -12 -13 34.3743 4.35898   5
  -1 -12 -13 40.7360 6.20969   6
   1  12  13 35.7155 3.56784   4
  -1  12 -13 25.9844 5.54095   3
  -1  12 -13 37.3754 4.89450   5
  -2 -12 -13 3.63693 2.60020   6
   2  12  13 7.53137 2.26473   4
  -2  12 -13 -4.0971 2.34141   5
  -2  12 -13 2.26376 2.89285   3
  -3 -12 -13 70.4670 10.1991   6
  -3  12 -13 51.3898 6.98716   3
   3  12  13 58.7780 6.31503   4
  -3  12 -13 46.8566 6.47819   5
   3 -13 -13 81.3682 6.79934   5
   3  13 -13 65.6968 9.05195   3
   3  13 -13 68.6793 7.54395   5
   2 -13 -13 40.4882 4.63154   5
   2  13 -13 31.1844 6.52082   3
   1 -13 -13 -1.5610 1.36234   5
   0 -13 -13 152.188 9.65869   5
   0 -13 -13 154.075 9.67950   3
  -1 -13 -13 0.10859 2.28916   6
   1  13  13 2.03765 1.57822   4
  -1  13 -13 -0.8557 2.71504   5
  -2 -13 -13 -1.3789 2.86999   6
   2  13  13 -1.2743 2.06670   4
  -2  13 -13 1.67737 2.73685   5
  -2  13 -13 0.70512 3.15882   3
   1 -14 -13 178.415 10.8810   5
   1  14 -13 156.620 13.0026   3
   0  14 -13 41.1931 6.75098   5
   0  14 -13 38.6770 7.14940   3
   8   0 -14 20.8465 4.17625   5
   8   0 -14 25.2517 4.39196   4
  -8   0  14 20.6297 3.92162   6
   7   0 -14 199.481 12.8537   5
   7   0 -14 218.735 14.7821   4
   6   0 -14 2.41413 1.66603   5
  -6   0  14 1.13416 1.32310   3
   6   0 -14 -1.6922 1.31780   4
   5   0 -14 73.1655 5.92654   5
   5   0 -14 88.7221 6.54066   4
  -5   0  14 82.9874 5.30346   3
   4   0 -14 138.464 7.49848   3
   4   0 -14 141.424 7.79197   5
  -4   0  14 135.617 7.27374   3
   3   0 -14 659.894 27.0078   3
  -3   0  14 673.758 26.7258   3
   2   0 -14 2.06250 1.14957   3
   2   0 -14 3.47961 1.26266   4
   2   0 -14 3.89576 0.95815   5
  -2   0  14 1.28833 1.00099   3
  -1   0  14 29.8083 3.17683   3
   1   0 -14 32.1013 3.23693   3
   1   0 -14 32.5035 3.29576   4
   1   0 -14 36.3553 2.48899   6
   0   0 -14 1199.93 47.8848   4
   0   0  14 1247.22 46.9545   6
   0   0 -14 1212.69 47.7701   3
   0   0 -14 1213.00 47.5949   6
  -1   0 -14 317.346 15.2898   3
  -1   0 -14 313.164 17.8314   6
  -1   0 -14 324.948 15.5911   4
   1   0  14 313.996 15.2861   6
  -1   0 -14 314.138 13.1775   5
  -2   0 -14 945.444 38.6038   3
   2   0  14 958.398 38.2974   4
  -2   0 -14 937.910 40.1187   6
  -2   0 -14 916.056 38.7805   4
   2   0  14 903.839 39.0292   6
  -2   0 -14 915.763 36.2541   5
   3   0  14 7.44153 2.74773   6
  -3   0 -14 2.71463 2.24856   6
   3   0  14 6.35638 2.16028   4
  -3   0 -14 5.72257 1.78243   5
  -4   0 -14 412.084 27.3109   6
  -4   0 -14 476.858 21.3227   5
  -4   0 -14 474.115 22.8547   3
   4   0  14 461.423 22.2167   4
  -5   0 -14 319.459 17.3796   3
   5   0  14 266.977 15.9568   4
  -5   0 -14 287.011 19.2885   6
   6   0  14 30.6664 4.50871   4
  -6   0 -14 23.5838 6.39366   6
  -6   0 -14 27.9834 5.11897   3
   8  -1 -14 0.07848 2.01601   4
  -8  -1  14 -2.1086 2.95391   6
   8  -1 -14 4.89996 2.80310   5
   8   1 -14 5.82326 2.88371   4
   8   1 -14 10.5878 3.38246   5
   7  -1 -14 38.0635 4.76564   4
  -7  -1  14 36.5608 4.77299   3
   7  -1 -14 43.7185 5.41028   5
   7  -1 -14 41.7679 3.93450   6
  -7  -1  14 35.6641 3.87194   6
   7   1 -14 43.1544 5.59908   5
   7   1 -14 42.0083 5.45268   4
  -7   1  14 39.6914 3.98870   3
  -6  -1  14 -0.5338 1.51265   3
   6  -1 -14 0.33899 1.33481   5
   6  -1 -14 0.45900 0.85866   6
   6  -1 -14 1.31847 1.26529   4
   6   1 -14 2.17128 1.56334   4
  -6   1  14 0.59751 1.20446   3
   6   1 -14 1.41223 1.49301   5
   5  -1 -14 28.4052 3.39079   5
  -5  -1  14 29.3620 3.31139   3
   5  -1 -14 27.0610 3.58601   4
   5   1 -14 29.5612 3.93763   4
   5   1 -14 26.5721 3.56006   5
   4  -1 -14 28.2510 2.57608   3
   4  -1 -14 28.9375 3.19509   4
  -4  -1  14 26.5670 3.06136   3
   4  -1 -14 26.1450 2.95263   5
   4   1 -14 26.3685 3.30504   3
   4   1 -14 30.4228 3.35132   5
  -4   1  14 29.5485 2.60771   3
   3  -1 -14 24.3145 2.60897   3
  -3  -1  14 24.7471 2.86075   3
   3  -1 -14 21.8124 2.25442   5
   3   1 -14 23.6682 3.20384   3
  -3   1  14 20.7492 2.27857   3
   3   1 -14 21.5295 2.63252   5
  -2  -1  14 56.9395 4.49103   3
   2  -1 -14 56.7232 4.35917   4
   2  -1 -14 64.9424 4.37539   3
   2   1 -14 64.3430 5.00035   3
  -2   1  14 64.2997 4.32026   3
   2   1 -14 60.4931 3.91608   5
   1  -1 -14 84.8050 5.53784   3
   1  -1 -14 83.7380 4.77925   6
  -1  -1  14 79.3674 5.53762   3
   1  -1 -14 76.4368 5.25216   4
   1   1 -14 83.5513 4.08422   6
   1   1 -14 76.0849 5.60792   3
   1   1 -14 81.5892 5.63602   4
   0  -1 -14 21.0113 2.67143   4
   0  -1 -14 23.7367 2.86608   3
   0  -1  14 22.5005 2.53222   6
   0  -1 -14 18.7501 2.75627   6
   0  -1  14 25.0783 3.32559   3
   0   1 -14 20.3844 2.66787   6
   0   1 -14 17.3340 2.86540   3
   0   1 -14 18.4238 2.74028   4
  -1  -1 -14 154.250 9.79388   6
  -1  -1 -14 151.894 9.20281   4
   1  -1  14 162.785 9.43359   6
  -1  -1 -14 152.776 9.00813   3
   1   1  14 162.924 9.11926   6
  -1   1 -14 161.243 9.41449   3
   1   1  14 167.439 9.07127   4
  -1   1 -14 149.992 10.9829   6
  -1   1 -14 150.862 7.64061   5
  -2  -1 -14 35.3255 4.21705   4
   2  -1  14 33.2691 4.34940   6
  -2  -1 -14 33.4902 4.10466   3
   2  -1  14 31.3622 3.97261   4
  -2  -1 -14 32.3582 4.60657   6
  -2  -1 -14 32.7816 3.27567   5
  -2   1 -14 34.6485 4.10838   3
   2   1  14 32.0431 3.75043   4
  -2   1 -14 34.9552 4.82989   6
  -2   1 -14 35.4733 4.17293   4
   2   1  14 35.0967 4.26181   6
  -2   1 -14 34.7243 3.19907   5
   3  -1  14 311.913 15.7752   4
  -3  -1 -14 301.205 15.9129   3
  -3  -1 -14 318.285 18.0115   6
   3  -1  14 296.376 16.9496   6
  -3  -1 -14 309.891 14.1883   5
  -3   1 -14 292.447 17.4365   6
   3   1  14 305.115 15.6072   4
   3   1  14 293.561 16.6516   6
  -3   1 -14 283.774 14.3855   5
  -3   1 -14 302.941 15.9835   3
  -4  -1 -14 109.713 8.63472   3
   4  -1  14 102.306 8.18401   4
  -4  -1 -14 118.741 7.85029   5
  -4   1 -14 112.597 8.95527   3
   4   1  14 121.304 8.74748   4
  -4   1 -14 93.0457 11.6342   6
   5  -1  14 59.5098 6.12342   4
  -5  -1 -14 59.1587 6.59851   3
  -5  -1 -14 57.3483 7.69103   6
  -5   1 -14 50.8046 7.38056   6
  -5   1 -14 54.4918 6.26421   3
   5   1  14 61.9992 6.51367   4
   6  -1  14 17.9595 4.06817   4
  -6  -1 -14 15.3570 5.23398   6
  -6  -1 -14 13.1322 4.00811   3
   6   1  14 12.5074 3.49679   4
  -6   1 -14 18.8617 4.02503   3
  -6   1 -14 13.3770 4.62420   6
   8  -2 -14 28.7594 4.49639   4
  -8  -2  14 23.9665 4.65391   6
   8  -2 -14 45.6186 6.11967   5
   8   2 -14 28.1974 5.56016   4
   8   2 -14 43.1190 6.17340   5
   7  -2 -14 41.3098 4.58169   4
  -7  -2  14 24.9728 3.54492   6
   7  -2 -14 31.5897 3.90685   6
   7  -2 -14 24.0239 4.25170   5
   7   2 -14 22.5584 4.27941   4
   7   2 -14 34.6661 4.92795   5
   6  -2 -14 4.74423 1.72274   6
  -6  -2  14 2.22205 1.07247   6
   6  -2 -14 4.56870 1.90242   5
   6  -2 -14 4.65392 1.81209   4
   6   2 -14 5.61009 2.26612   5
  -6   2  14 4.68944 1.11497   3
   5  -2 -14 5.93236 1.75247   4
  -5  -2  14 3.61030 1.60021   3
   5  -2 -14 3.96061 1.09357   6
   5  -2 -14 3.62129 1.42758   5
   5   2 -14 1.84032 1.48578   3
  -5   2  14 2.67759 0.82831   3
   5   2 -14 3.20668 1.73406   5
   5   2 -14 5.36406 2.06282   4
   4  -2 -14 21.7981 2.47278   5
   4  -2 -14 22.0825 2.63959   4
  -4  -2  14 16.6745 2.72941   3
   4   2 -14 19.4503 3.06064   3
  -4   2  14 22.3551 1.87874   3
   4   2 -14 19.5271 2.88279   5
  -3  -2  14 1.36039 0.97666   3
   3  -2 -14 0.46136 0.78308   3
   3  -2 -14 1.78986 0.80810   5
   3   2 -14 1.37418 1.57259   3
   3   2 -14 -0.3150 1.08238   5
   2  -2 -14 476.572 20.0771   4
   2  -2 -14 500.884 19.8425   3
  -2  -2  14 476.254 20.8587   3
   2  -2 -14 486.031 18.9681   6
   2  -2 -14 486.410 18.7898   6
   2   2 -14 503.238 21.4828   3
   2   2 -14 476.522 20.0615   5
   1  -2 -14 618.461 24.8035   3
  -1  -2  14 595.990 23.6009   6
   1  -2 -14 623.548 24.9020   6
   1  -2 -14 613.527 25.0519   4
  -1  -2  14 600.183 25.7208   3
   1   2 -14 601.947 25.8553   4
   1   2 -14 632.556 26.1169   3
   0  -2  14 569.709 23.8011   6
   0  -2 -14 566.692 24.4809   6
   0  -2  14 551.846 24.4537   3
   0  -2 -14 563.488 23.9885   4
   0  -2 -14 575.091 23.7962   3
   0   2 -14 583.930 23.7948   6
   0   2 -14 563.406 24.5820   4
   0   2 -14 569.279 24.5781   3
   1  -2  14 176.596 10.4483   6
  -1  -2 -14 178.342 10.0549   4
  -1  -2 -14 183.633 10.0655   3
  -1  -2 -14 179.705 10.9097   6
  -1   2 -14 172.002 8.89437   5
  -1   2 -14 173.135 10.6302   6
  -1   2 -14 170.704 10.1862   3
  -1   2 -14 187.630 10.5587   4
   1   2  14 201.313 10.0364   4
  -2  -2 -14 257.590 11.2928   5
  -2  -2 -14 258.428 13.6356   3
  -2  -2 -14 241.298 13.6028   4
   2  -2  14 258.536 14.6641   6
  -2  -2 -14 244.336 14.8333   6
   2   2  14 278.398 13.4816   4
  -2   2 -14 279.942 16.0378   4
  -2   2 -14 263.350 12.4833   5
  -2   2 -14 261.491 14.7781   6
   2   2  14 245.034 13.8468   6
  -2   2 -14 251.476 13.7166   3
  -3  -2 -14 56.4785 4.33546   5
  -3  -2 -14 53.7852 6.56986   6
   3  -2  14 54.8032 5.26419   4
   3  -2  14 50.9321 6.48225   6
  -3  -2 -14 47.6802 5.20053   3
  -3   2 -14 64.6962 6.79570   6
   3   2  14 55.0732 5.27387   4
   3   2  14 46.0510 5.44292   6
  -3   2 -14 55.4104 5.58318   3
  -4  -2 -14 169.850 11.5909   3
  -4  -2 -14 174.254 15.7144   6
   4  -2  14 186.531 11.5901   4
  -4  -2 -14 170.892 10.1037   5
   4   2  14 179.935 11.4081   4
  -4   2 -14 190.669 11.9587   3
  -5  -2 -14 0.83913 2.62078   6
  -5  -2 -14 1.48456 1.57331   3
   5  -2  14 4.05519 2.04985   4
  -5   2 -14 3.16980 2.01444   3
  -5   2 -14 -1.5131 2.74133   6
   5   2  14 4.87907 2.12696   4
  -6  -2 -14 184.102 13.1994   3
   6  -2  14 183.644 12.5027   4
  -6  -2 -14 172.569 15.3325   6
  -6   2 -14 167.455 14.6040   6
  -6   2 -14 197.591 13.4539   3
   6   2  14 170.889 12.4833   4
   7  -3 -14 0.65424 1.84344   6
   7  -3 -14 3.10118 1.59635   4
  -7  -3  14 -0.1470 1.84084   6
   7  -3 -14 1.16968 1.83116   5
   7   3 -14 -1.1101 1.81878   4
   7   3 -14 -1.7997 1.91542   5
  -6  -3  14 78.5481 4.83347   6
   6  -3 -14 86.3818 6.04674   4
   6  -3 -14 91.0551 6.23301   6
   6  -3 -14 87.3849 6.88721   5
   6   3 -14 83.8453 7.33239   5
   6   3 -14 80.8650 7.60267   4
   5  -3 -14 20.5479 2.97576   5
  -5  -3  14 15.5474 3.00995   3
   5  -3 -14 24.7327 3.37723   4
   5  -3 -14 21.8122 2.81346   6
   5   3 -14 19.1541 3.69477   4
   5   3 -14 26.1769 3.63156   3
   4  -3 -14 70.4596 4.68916   5
   4  -3 -14 68.5293 4.62025   4
  -4  -3  14 70.0186 5.46648   3
   4  -3 -14 66.6316 4.32547   6
   4   3 -14 59.4819 5.32716   5
   4   3 -14 74.8491 5.95913   3
   3  -3 -14 5.11944 1.19099   6
   3  -3 -14 3.52321 0.76992   6
   3  -3 -14 3.96014 0.76464   3
  -3  -3  14 2.44125 1.32834   3
   3  -3 -14 3.07093 0.81862   5
   3   3 -14 4.06153 1.71579   5
   3   3 -14 3.10232 1.78056   3
   2  -3 -14 12.2501 1.69917   3
   2  -3 -14 11.6305 1.65605   6
  -2  -3  14 8.33357 2.24148   3
   2  -3 -14 13.7348 1.80543   6
   2   3 -14 12.6706 2.63323   3
   2   3 -14 13.8203 2.40573   5
  -1  -3  14 1.29782 1.04133   3
   1  -3 -14 2.27100 1.03928   6
   1  -3 -14 2.01956 0.99230   4
   1  -3 -14 1.31130 0.79883   3
  -1  -3  14 0.61533 0.75354   6
   1   3 -14 0.41955 1.17070   3
   0  -3 -14 8.77837 1.75250   3
   0  -3 -14 5.48281 1.66479   4
   0  -3 -14 7.55276 1.88858   6
   0   3 -14 5.43032 1.64839   6
   0   3 -14 5.33172 2.06633   4
   0   3 -14 7.35006 2.03852   3
   1  -3  14 27.7684 3.82892   6
  -1  -3 -14 28.0499 3.94150   6
  -1  -3 -14 29.1455 3.50958   3
   1  -3  14 21.7352 3.47604   3
  -1  -3 -14 35.7989 3.73990   4
  -1   3 -14 35.7243 4.09999   6
  -1   3 -14 26.8428 2.91986   5
  -1   3 -14 27.2019 3.80127   3
  -1   3 -14 30.2031 3.70140   4
   1   3  14 31.0449 3.33365   4
  -2  -3 -14 8.70752 2.53481   6
   2  -3  14 9.39617 2.95124   6
  -2  -3 -14 8.23875 2.18201   4
  -2  -3 -14 8.28142 1.43613   5
  -2  -3 -14 9.65636 2.24382   3
   2   3  14 12.9484 2.58901   4
  -2   3 -14 7.70636 1.95802   5
  -2   3 -14 8.12530 2.68782   6
  -2   3 -14 11.3592 2.59787   3
  -3  -3 -14 9.59371 3.26058   6
  -3  -3 -14 4.10105 1.76647   3
   3  -3  14 6.18836 2.77608   6
  -3   3 -14 3.20832 1.71318   5
  -3   3 -14 1.01203 2.45461   6
   3   3  14 10.4516 2.53307   4
  -4  -3 -14 28.1262 5.67646   6
  -4  -3 -14 45.5727 5.06201   3
  -4  -3 -14 29.0644 3.93484   5
   4  -3  14 44.5758 4.97559   4
   4   3  14 33.1746 4.29181   4
  -4   3 -14 33.8617 6.16066   6
  -4   3 -14 28.9839 4.85266   3
  -5  -3 -14 42.8914 5.18769   3
   5  -3  14 28.6628 4.83245   4
  -5  -3 -14 34.6891 6.70674   6
  -5   3 -14 45.2859 7.95499   6
   5   3  14 32.7372 4.87475   4
  -5   3 -14 42.6814 5.65053   3
  -6  -3 -14 -0.7852 3.13648   6
   6  -3  14 2.30134 2.47675   4
  -6  -3 -14 7.30288 2.70820   3
  -6   3 -14 6.90517 2.65793   3
  -6   3 -14 9.02630 3.24939   6
   6   3  14 5.66167 2.71535   4
   7  -4 -14 -0.7930 1.99386   6
  -7  -4  14 -1.9871 2.02740   6
   7  -4 -14 2.85734 1.92292   5
   7  -4 -14 -0.7846 1.31618   4
   7   4 -14 1.92888 2.28348   5
   7   4 -14 3.31408 2.42811   4
   6  -4 -14 97.4992 7.47862   5
   6  -4 -14 92.3252 7.22551   6
  -6  -4  14 90.9603 5.76596   6
   6  -4 -14 94.9253 6.15882   4
   6   4 -14 100.915 8.89388   4
   6   4 -14 102.779 8.24540   5
   5  -4 -14 7.81566 1.51715   4
   5  -4 -14 3.24862 1.83838   6
  -5  -4  14 3.33397 2.25909   3
   5  -4 -14 3.25048 1.46856   5
   5   4 -14 4.36548 2.01483   4
   5   4 -14 2.27769 1.90338   5
   5   4 -14 4.14915 1.97348   3
   4  -4 -14 92.9569 4.90729   4
   4  -4 -14 94.1583 5.66168   5
   4  -4 -14 85.1922 5.03267   4
   4  -4 -14 91.6325 5.99931   6
  -4  -4  14 92.3680 6.58643   3
   4   4 -14 97.6001 6.90919   5
   4   4 -14 98.0171 7.32881   3
  -3  -4  14 149.483 9.17074   3
   3  -4 -14 150.151 8.00887   6
   3  -4 -14 150.608 7.12394   4
   3  -4 -14 144.676 6.96442   4
   3  -4 -14 149.956 6.70643   5
   3   4 -14 141.834 9.26907   3
   3   4 -14 163.447 8.93493   5
   2  -4 -14 2.15563 1.16898   6
   2  -4 -14 -1.0791 0.45500   3
  -2  -4  14 -5.2297 2.18993   3
   2  -4 -14 -0.3330 0.64825   4
   2  -4 -14 0.47415 0.67529   6
  -2  -4  14 0.90766 0.69733   6
   2   4 -14 2.26870 1.35252   3
  -1  -4  14 -2.0590 0.89923   6
   1  -4 -14 0.93731 0.70817   3
   1  -4 -14 0.51852 0.90589   6
  -1  -4  14 1.41898 1.30421   3
   1  -4 -14 0.70916 0.78939   4
   1   4 -14 -1.2741 1.17307   3
   1   4 -14 -0.9431 1.19202   4
   1   4 -14 -0.8636 0.97397   5
   0  -4 -14 76.5794 5.98552   6
   0  -4  14 78.5523 5.90352   6
   0  -4 -14 80.3199 5.33662   4
   0  -4  14 76.1826 5.95814   3
   0  -4 -14 76.3465 5.17726   3
   0   4 -14 71.7199 5.88961   4
   0   4 -14 73.0624 6.02035   3
   0   4 -14 72.4882 5.32389   6
  -1  -4 -14 177.481 9.87998   4
  -1  -4 -14 171.874 10.9997   6
   1  -4  14 168.283 10.7545   6
  -1  -4 -14 178.073 9.87944   3
   1  -4  14 163.018 10.3484   3
  -1   4 -14 184.844 10.7267   3
  -1   4 -14 184.068 10.6337   6
  -1   4 -14 157.091 9.27681   5
   1   4  14 187.741 9.53399   4
  -2  -4 -14 229.655 14.2062   6
  -2  -4 -14 230.211 12.6187   4
  -2  -4 -14 229.538 12.4858   3
   2  -4  14 228.898 14.2633   6
  -2  -4 -14 222.821 9.98523   5
  -2   4 -14 229.436 13.0579   3
  -2   4 -14 208.411 13.2083   6
   2   4  14 232.056 12.0789   4
  -3  -4 -14 180.914 13.1304   6
  -3  -4 -14 176.860 9.45812   5
  -3   4 -14 181.294 12.9246   6
   3   4  14 203.492 11.3960   4
  -3   4 -14 183.167 11.7183   3
  -4  -4 -14 158.125 12.7219   6
  -4  -4 -14 172.471 9.80062   5
   4  -4  14 146.779 10.3772   4
  -4   4 -14 162.830 12.8674   6
   4   4  14 155.211 10.4602   4
  -4   4 -14 161.963 11.1245   3
   5  -4  14 121.177 9.65154   4
  -5  -4 -14 149.596 13.1701   6
  -5   4 -14 134.630 12.1804   6
   5   4  14 140.543 10.3079   4
  -5   4 -14 137.342 10.6233   3
  -6  -4 -14 19.8729 5.50569   6
   6   4  14 11.0196 3.75961   4
   7  -5 -14 27.5826 4.53245   5
   7  -5 -14 21.9627 2.83042   4
   7   5 -14 14.7140 4.81604   4
   6  -5 -14 93.7434 7.08219   5
   6  -5 -14 84.4983 4.95492   4
   6  -5 -14 85.0877 7.26795   6
  -6  -5  14 78.5351 5.77087   6
   6   5 -14 86.2425 8.15533   4
   6   5 -14 97.1573 8.03227   5
   5  -5 -14 4.41655 2.24480   6
   5  -5 -14 6.42881 2.05493   5
   5  -5 -14 3.95741 0.94162   4
  -5  -5  14 4.93300 1.58670   6
   5   5 -14 2.68784 2.07962   3
   5   5 -14 6.67020 2.32431   5
   5   5 -14 4.93536 2.14372   4
   4  -5 -14 11.2507 2.43987   6
   4  -5 -14 12.4334 2.14308   5
   4  -5 -14 10.5369 1.14296   4
  -4  -5  14 8.14486 1.44500   6
   4  -5 -14 12.2229 1.11724   4
   4   5 -14 8.54836 2.52194   5
   4   5 -14 9.12556 2.69479   3
  -3  -5  14 14.7001 1.73409   6
   3  -5 -14 17.4008 1.69403   5
   3  -5 -14 17.5137 1.43373   4
  -3  -5  14 18.0376 2.09964   6
  -3  -5  14 19.3511 3.24409   3
   3  -5 -14 18.2683 1.39757   4
   3  -5 -14 17.6153 2.82656   6
   3   5 -14 14.8115 2.86366   5
   3   5 -14 22.3118 3.81638   3
   2  -5 -14 25.8128 1.73278   3
  -2  -5  14 21.1391 2.56260   6
  -2  -5  14 15.2605 3.22009   3
   2  -5 -14 20.8844 1.88552   4
   2   5 -14 20.2558 3.68885   3
   2   5 -14 30.9522 3.49403   5
  -1  -5  14 216.181 11.3338   6
   1  -5 -14 208.223 11.2836   6
   1  -5 -14 204.383 9.55893   3
  -1  -5  14 199.277 11.3544   3
   1  -5 -14 207.041 9.71509   4
   1   5 -14 212.531 10.9685   5
   1   5 -14 215.762 12.1430   3
   0  -5 -14 53.7676 4.34213   3
   0  -5  14 48.3122 4.91034   3
   0  -5 -14 53.1462 5.10338   6
   0  -5  14 57.0698 5.25650   6
   0  -5 -14 52.9675 4.25742   4
   0   5 -14 55.7267 5.53333   3
   0   5 -14 51.9927 4.60271   5
   0   5  14 65.1913 4.27460   4
  -1  -5 -14 195.074 10.6417   4
   1  -5  14 176.681 11.8127   6
  -1  -5 -14 185.121 11.9423   6
  -1   5 -14 203.096 11.7542   3
   1   5  14 209.271 10.3122   4
  -1   5 -14 206.271 11.5490   6
  -2  -5 -14 201.778 12.9744   6
  -2  -5 -14 182.056 8.63561   5
   2  -5  14 180.841 12.3759   6
  -2  -5 -14 191.845 10.9987   4
  -2   5 -14 194.840 10.8187   5
  -2   5 -14 171.479 11.4083   3
   2   5  14 184.811 10.4939   4
  -2   5 -14 189.633 12.1378   6
  -3  -5 -14 174.855 12.9380   6
  -3  -5 -14 166.397 9.09064   5
  -3   5 -14 167.573 11.1168   3
   3   5  14 183.081 10.6554   4
  -3   5 -14 160.943 12.1720   6
  -4  -5 -14 0.70597 2.52782   6
  -4  -5 -14 4.33021 2.00878   5
  -4   5 -14 4.86826 2.47153   3
   4   5  14 5.36975 2.32257   4
  -4   5 -14 6.88045 3.55851   6
  -5  -5 -14 18.2976 4.98896   6
   5  -5  14 21.6131 4.31028   4
  -5   5 -14 18.1842 5.20952   6
  -5   5 -14 19.7753 3.99710   3
   5   5  14 26.3500 4.75864   4
  -6  -5 -14 1.61900 4.46832   6
   6  -5  14 0.32212 1.77936   4
  -6   5 -14 3.02160 2.30846   3
   7  -6 -14 76.8520 7.06249   5
  -7  -6  14 80.8770 6.91301   6
   7  -6 -14 74.0306 4.21312   4
   7   6 -14 85.5843 8.83603   4
   7   6 -14 76.8511 8.25948   5
   6  -6 -14 18.0197 4.15807   6
  -6  -6  14 14.2833 3.12185   6
   6  -6 -14 11.7242 2.82507   5
   6   6 -14 17.8088 4.29668   4
   6   6 -14 16.7106 4.14836   5
  -5  -6  14 10.4332 2.14839   6
   5  -6 -14 3.30995 2.52593   6
   5  -6 -14 8.46505 2.07496   5
   5   6 -14 8.98581 2.71260   3
   5   6 -14 14.9613 3.26697   5
   5   6 -14 5.76286 2.58280   4
   4  -6 -14 1.27918 1.94979   6
  -4  -6  14 5.36738 1.62624   6
  -4  -6  14 4.35954 1.60055   6
   4  -6 -14 3.45417 1.51844   5
   4   6 -14 6.89687 2.59978   3
   4   6 -14 3.72311 2.16689   5
  -3  -6  14 41.6552 3.62291   6
  -3  -6  14 41.7703 3.44079   6
   3  -6 -14 47.5344 4.64017   6
   3  -6 -14 41.7626 3.02025   5
   3   6 -14 40.1919 4.83597   3
   3   6 -14 47.6784 4.83223   5
   2  -6 -14 5.00097 0.71423   3
  -2  -6  14 3.59286 1.71918   6
   2  -6 -14 5.49739 0.76777   3
   2   6 -14 4.11121 2.01730   5
   2   6 -14 3.72436 2.03032   3
   1  -6 -14 320.538 13.4892   3
   1  -6 -14 303.481 15.3751   6
   1  -6 -14 305.544 13.2489   4
  -1  -6  14 326.309 15.4832   6
   1   6 -14 322.841 16.6624   3
   1   6 -14 305.078 15.1617   5
   0  -6  14 78.7692 6.85262   6
   0  -6 -14 81.2546 6.75896   6
   0  -6 -14 82.6048 5.38778   4
   0  -6 -14 85.4524 5.58467   3
   0   6 -14 78.9782 6.76647   3
   0   6 -14 82.0385 6.14406   5
   0   6  14 89.2983 5.17004   4
   0   6 -14 76.5278 6.08611   5
  -1  -6 -14 298.048 16.8316   6
  -1  -6 -14 321.023 12.0253   5
  -1  -6 -14 304.760 14.9116   4
  -1  -6 -14 323.219 12.0424   5
   1  -6  14 296.627 16.6833   6
   1   6  14 334.372 14.6886   4
  -1   6 -14 276.183 15.0808   5
  -1   6 -14 321.147 16.6977   3
  -1   6 -14 313.269 16.0901   6
  -2  -6 -14 167.066 12.0890   6
  -2  -6 -14 168.054 8.31779   5
  -2  -6 -14 173.942 10.4167   4
   2  -6  14 160.902 12.1074   6
   2   6  14 188.879 10.1881   4
  -2   6 -14 167.082 11.4433   6
  -2   6 -14 178.669 11.4179   3
  -3  -6 -14 65.3754 5.09485   5
  -3  -6 -14 86.1184 8.53142   6
  -3   6 -14 62.5173 6.53629   3
   3   6  14 70.2846 6.03680   4
  -3   6 -14 64.1115 7.47173   6
  -4  -6 -14 170.481 9.93751   5
  -4  -6 -14 153.360 12.8516   6
   4   6  14 163.926 10.7052   4
  -4   6 -14 139.267 12.5243   6
  -4   6 -14 163.897 11.5455   3
  -5  -6 -14 6.21483 3.13487   6
  -5   6 -14 2.53626 2.47618   3
   5   6  14 4.28731 1.99444   4
  -5   6 -14 5.47220 3.11650   6
   6  -6  14 74.7825 7.46930   4
  -6  -6 -14 75.8309 9.72432   6
   6   6  14 64.6696 7.17109   4
  -6   6 -14 61.4818 9.45970   6
  -6   6 -14 70.4975 7.91731   3
  -7  -7  14 1.74331 2.95387   6
   7  -7 -14 2.88184 2.17454   5
   7   7 -14 3.12039 2.77263   5
   7   7 -14 -2.1449 2.33878   4
   6  -7 -14 39.4117 6.04628   6
  -6  -7  14 33.3797 4.63729   6
   6  -7 -14 25.6278 4.24345   5
   6   7 -14 30.9766 5.47332   3
   6   7 -14 26.2527 5.43653   4
   6   7 -14 26.7162 4.92249   5
   5  -7 -14 2.15506 2.69523   6
   5  -7 -14 0.76302 1.51990   5
  -5  -7  14 -0.0445 1.72670   6
   5   7 -14 3.14245 2.17182   3
   5   7 -14 1.62595 1.69369   5
   5   7 -14 0.77863 1.79930   4
  -4  -7  14 134.523 7.77673   6
  -4  -7  14 139.518 8.18779   6
   4  -7 -14 136.613 7.86782   5
   4  -7 -14 141.700 9.45393   6
   4   7 -14 132.055 10.0968   3
   4   7 -14 152.283 9.94326   5
   3  -7 -14 22.5929 3.52435   6
  -3  -7  14 20.8166 2.78718   6
  -3  -7  14 19.8561 3.15565   6
   3   7 -14 26.9720 3.84651   5
   2  -7 -14 58.5834 3.03716   5
   2  -7 -14 61.0983 3.15918   5
  -2  -7  14 63.5699 5.33399   6
   2   7 -14 61.0427 6.27747   3
   2   7 -14 62.9079 5.63262   5
   1  -7 -14 135.462 6.18976   4
   1  -7 -14 130.002 7.53151   3
  -1  -7  14 127.174 8.56433   6
   1  -7 -14 133.689 6.75067   3
   1  -7 -14 128.224 8.63203   6
   1   7 -14 129.629 9.53046   3
   1   7 -14 128.512 8.51840   5
   0  -7 -14 10.9373 1.85160   4
   0  -7 -14 8.78342 2.46454   6
   0  -7  14 11.5065 3.25732   6
   0   7 -14 7.53769 2.71623   3
   0   7  14 12.0041 1.87114   4
   0   7 -14 11.1703 2.90375   5
  -1  -7 -14 363.165 16.6763   4
  -1  -7 -14 360.782 14.4691   5
   1  -7  14 337.096 19.0325   6
  -1  -7 -14 357.714 14.4561   5
  -1  -7 -14 370.914 19.2924   6
  -1   7 -14 343.548 18.4887   3
   1   7  14 368.839 16.2622   4
  -2  -7 -14 7.20583 2.15994   4
  -2  -7 -14 7.00503 2.69693   6
  -2  -7 -14 10.2369 1.82915   5
  -2   7 -14 5.03928 2.43356   3
  -2   7 -14 11.6144 3.39796   6
   2   7  14 8.19609 2.26136   4
  -3  -7 -14 130.588 7.84249   5
  -3  -7 -14 126.769 11.2002   6
  -3   7 -14 128.793 10.6645   6
   3   7  14 134.980 9.01368   4
  -3   7 -14 124.214 9.67762   3
  -4  -7 -14 8.68983 3.11163   6
  -4   7 -14 3.86898 3.18819   6
  -4   7 -14 3.68631 2.38810   3
   4   7  14 3.61575 2.28204   4
  -5  -7 -14 71.3027 8.97572   6
  -5   7 -14 45.4752 8.09660   6
  -5   7 -14 57.1501 6.72036   3
   5   7  14 60.9964 6.66418   4
  -6  -8  14 114.323 8.51512   6
   6  -8 -14 117.295 8.67851   5
   6   8 -14 119.466 10.0692   3
   6   8 -14 97.1097 10.1392   4
  -5  -8  14 59.1135 5.82557   6
   5  -8 -14 59.2361 7.09901   6
   5   8 -14 60.7680 6.58981   3
   5   8 -14 62.9827 6.79327   5
   5   8 -14 61.8443 6.84309   4
  -4  -8  14 2.33828 1.78360   6
   4  -8 -14 -0.1717 2.55221   6
   4  -8 -14 2.14897 1.20668   5
  -4  -8  14 -0.5803 1.29428   6
   4   8 -14 -0.7271 1.75174   5
   4   8 -14 2.29259 2.29517   3
   3  -8 -14 136.148 11.3593   6
  -3  -8  14 128.977 8.32016   6
   3  -8 -14 132.060 7.24683   5
   3   8 -14 137.238 9.40279   5
   3   8 -14 144.331 10.6901   3
  -2  -8  14 3.48451 2.54701   6
   2  -8 -14 8.23076 1.46156   5
   2  -8 -14 9.14090 1.40925   5
   2   8 -14 9.46464 2.84696   5
   2   8 -14 10.2777 3.25834   3
   1  -8 -14 67.8634 3.52586   5
   1  -8 -14 70.6817 4.38446   3
  -1  -8  14 63.7407 6.14833   6
   1  -8 -14 68.6270 3.47344   5
   1   8 -14 60.3509 6.50733   3
   1   8 -14 74.0592 6.28256   5
   0  -8 -14 62.6922 3.51985   5
   0  -8  14 55.1061 6.59268   6
   0  -8 -14 67.7449 6.56831   6
   0  -8 -14 67.2457 4.99684   3
   0  -8 -14 64.0360 4.47063   4
   0  -8 -14 65.6892 3.53407   5
   0   8 -14 77.2794 6.32031   5
   0   8  14 71.4898 4.33638   4
   0   8 -14 58.5563 6.61484   3
  -1  -8 -14 350.059 14.6643   5
  -1  -8 -14 352.436 15.5447   5
   1  -8  14 315.151 18.8239   6
  -1  -8 -14 360.033 17.0982   3
  -1  -8 -14 351.110 19.1197   6
  -1  -8 -14 364.289 16.3158   4
  -1   8 -14 314.660 18.1168   3
  -1   8 -14 346.007 17.6292   5
   1   8  14 361.794 15.9262   4
  -2  -8 -14 147.351 8.14828   5
  -2  -8 -14 145.759 11.6357   6
  -2  -8 -14 156.598 9.61434   4
   2   8  14 160.413 9.32971   4
  -2   8 -14 145.936 10.9641   3
  -3  -8 -14 81.6248 8.83526   6
  -3  -8 -14 76.4365 6.12604   5
  -3   8 -14 79.5973 7.67702   3
  -3   8 -14 78.0962 8.55079   6
   3   8  14 97.6560 7.24996   4
  -4  -8 -14 116.795 11.6142   6
  -4   8 -14 89.1393 9.05199   3
   4   8  14 119.021 8.85343   4
  -4   8 -14 106.348 10.1667   6
   5   8  14 20.7577 4.48083   4
  -5   8 -14 16.8376 5.24079   6
  -6  -9  14 12.5375 3.55969   6
   6  -9 -14 8.86648 2.98618   5
   6   9 -14 7.75677 3.48616   4
   6   9 -14 4.69218 3.76765   3
   6   9 -14 14.5457 3.85614   5
  -5  -9  14 38.2744 5.20280   6
   5   9 -14 22.9263 4.87594   5
   5   9 -14 32.3789 5.83611   3
   5   9 -14 22.0346 5.01030   4
  -4  -9  14 8.22362 3.05727   6
  -4  -9  14 5.98412 2.21794   6
   4  -9 -14 14.7466 2.68909   5
   4   9 -14 13.0498 3.15286   5
   4   9 -14 0.51979 2.64267   3
   3  -9 -14 98.5429 6.05953   5
  -3  -9  14 88.2495 7.12203   6
   3  -9 -14 99.8778 8.64100   6
   3   9 -14 86.2836 7.45890   5
   3   9 -14 92.7936 8.49124   3
   2  -9 -14 14.2318 3.74293   6
   2  -9 -14 20.3403 2.26897   5
  -2  -9  14 10.8755 3.10371   6
   2   9 -14 14.1553 3.19538   5
   2   9 -14 20.5020 4.57702   3
  -1  -9  14 44.5868 8.56636   6
   1  -9 -14 59.5826 4.25134   3
   1  -9 -14 56.0537 3.52400   5
   1   9 -14 49.1296 5.85398   3
   1   9 -14 54.0127 5.60791   5
   0  -9 -14 82.0045 5.78526   3
   0  -9 -14 88.6680 7.85968   6
   0  -9  14 75.4606 7.67895   6
   0  -9 -14 85.6585 4.86582   5
   0   9 -14 85.1011 7.13908   5
   0   9  14 95.6020 5.09142   4
   0   9 -14 83.7420 7.88008   3
  -1  -9 -14 102.732 6.40139   4
  -1  -9 -14 97.5847 5.70223   5
  -1  -9 -14 101.479 7.22996   3
  -1  -9 -14 94.0648 9.05918   6
  -1   9 -14 88.0166 7.61696   5
  -1   9 -14 79.2702 8.08560   3
   1   9  14 103.516 6.29527   4
  -2  -9 -14 38.4960 4.35357   4
  -2  -9 -14 31.5069 5.84513   6
  -2  -9 -14 40.8290 3.70663   5
   2   9  14 39.1350 4.17460   4
  -2   9 -14 40.8642 5.35252   3
  -2   9 -14 31.3478 4.67967   5
  -3  -9 -14 201.822 14.8542   6
  -3  -9 -14 186.604 10.5279   5
  -3   9 -14 159.396 12.2413   3
   3   9  14 178.440 12.6355   4
  -3   9 -14 192.329 13.8095   6
  -4  -9 -14 13.0163 4.40326   6
  -4   9 -14 20.6128 4.80109   3
   4   9  14 17.4247 3.68932   4
  -4   9 -14 25.0932 5.89492   6
  -5  -9 -14 11.7267 4.58742   6
  -5   9 -14 7.28120 2.62422   3
   5   9  14 5.08766 3.15991   4
  -5   9 -14 2.07666 3.02814   6
  -5 -10  14 102.658 8.65642   6
   5 -10 -14 99.8984 7.76220   5
   5  10 -14 77.3611 9.96660   4
   5  10 -14 108.922 9.82713   5
   5  10 -14 108.384 9.70659   3
  -4 -10  14 2.46712 3.39505   6
  -4 -10  14 5.28847 2.38751   6
   4  10 -14 7.04614 3.06240   3
   4  10 -14 2.82044 2.25032   5
  -3 -10  14 55.2989 6.79808   6
   3 -10 -14 68.1843 5.10887   5
   3  10 -14 68.7903 7.79958   3
   2 -10 -14 17.2059 2.49927   5
  -2 -10  14 7.06596 3.09929   6
   2 -10 -14 16.0605 2.54856   5
   2  10 -14 14.0805 4.06242   3
   2  10 -14 10.7454 2.84573   5
   1 -10 -14 155.791 8.01530   5
   1 -10 -14 146.829 7.70520   5
  -1 -10  14 135.744 10.8239   6
   1 -10 -14 159.313 8.02182   3
   1  10 -14 146.281 11.4226   3
   1  10 -14 160.675 10.5847   5
   0 -10 -14 5.95443 1.52091   5
   0 -10 -14 7.25850 1.65729   5
   0 -10 -14 2.90973 1.79683   3
   0 -10 -14 7.82857 2.56546   6
   0  10 -14 1.89277 2.35746   3
   0  10  14 5.79816 1.27060   4
   0  10 -14 9.75348 3.12665   5
  -1 -10 -14 47.9750 3.95630   5
  -1 -10 -14 49.5925 6.33693   6
  -1 -10 -14 52.7838 5.10597   3
  -1  10 -14 43.9444 5.65451   5
   1  10  14 47.8000 4.17195   4
  -1  10 -14 53.6465 6.51906   3
  -2 -10 -14 13.0178 3.89180   6
  -2 -10 -14 13.5500 2.61325   5
  -2 -10 -14 13.9813 2.75465   4
   2  10  14 15.5849 2.74812   4
  -2  10 -14 10.3064 3.34249   5
  -2  10 -14 11.2694 3.69879   3
  -3 -10 -14 14.9014 4.50021   6
  -3  10 -14 12.3016 3.61308   5
  -3  10 -14 5.24742 3.66365   3
   3  10  14 11.4704 2.85996   4
  -4  10 -14 1.41580 3.70034   3
   4  10  14 7.76390 3.17280   4
  -5 -11  14 19.6162 4.64557   6
   5  11 -14 21.3898 5.14159   5
   5  11 -14 28.0471 5.82273   4
   5  11 -14 23.5545 5.77322   3
  -4 -11  14 6.49608 2.65848   6
   4 -11 -14 0.26776 1.57967   5
   4  11 -14 2.65051 2.92427   3
   3 -11 -14 56.1698 4.96052   5
   3  11 -14 51.1868 7.12702   3
   2 -11 -14 1.13455 1.37642   5
   2 -11 -14 2.76063 1.80963   5
   2  11 -14 0.86617 2.78329   3
   2  11 -14 0.48385 2.22091   5
   1 -11 -14 -0.8419 1.46320   5
   1 -11 -14 1.41863 1.48418   3
   1 -11 -14 -1.1905 1.19875   5
   1  11 -14 1.77379 2.02840   5
   1  11 -14 4.39464 2.62166   3
   0 -11 -14 1.34451 1.29081   5
   0 -11 -14 6.41094 1.75061   5
   0 -11 -14 2.24032 2.21873   6
   0 -11 -14 1.92985 1.84684   3
   0  11 -14 1.36121 2.92759   3
   0  11 -14 3.53408 2.61214   5
   0  11  14 2.89838 1.03132   4
  -1 -11 -14 97.8435 9.29240   6
  -1 -11 -14 94.1089 6.22514   5
   1  11  14 99.3091 6.15161   4
  -1  11 -14 89.2579 8.15084   5
  -1  11 -14 87.4546 8.70644   3
  -2 -11 -14 42.5072 6.49826   6
  -2 -11 -14 35.0431 4.36374   5
  -2  11 -14 31.5931 5.42020   5
  -2  11 -14 48.8752 6.51442   3
   2  11  14 37.0251 4.40000   4
  -3 -11 -14 179.460 14.5661   6
   3  11  14 170.357 10.9903   4
  -3  11 -14 165.504 12.2349   5
  -4 -12  14 28.7879 5.05258   6
   4 -12 -14 16.0365 3.28627   5
   4  12 -14 14.1155 4.33950   5
   4  12 -14 23.3406 5.44049   3
   3 -12 -14 181.261 10.3651   5
   3  12 -14 156.021 12.2568   5
   2 -12 -14 32.9452 4.46877   5
   2  12 -14 38.4780 5.72937   5
   2  12 -14 26.2976 5.46348   3
   1 -12 -14 81.6351 6.64501   5
   1 -12 -14 74.5984 5.39271   3
   1 -12 -14 75.2279 5.72809   5
   1  12 -14 66.7560 8.41386   3
   1  12 -14 70.5124 7.41953   5
   0 -12 -14 5.27439 2.49311   3
   0 -12 -14 4.45207 2.28451   5
   0 -12 -14 3.61992 2.40434   6
   0 -12 -14 8.66161 2.13788   5
   0  12 -14 4.02254 2.87188   5
   0  12 -14 -1.3442 2.74025   3
  -1 -12 -14 4.14515 2.18418   5
  -1 -12 -14 0.88585 2.32748   6
  -1  12 -14 -0.5117 2.60119   3
  -1  12 -14 1.51498 2.83939   5
   1  12  14 2.44727 1.52755   4
  -2 -12 -14 0.59384 1.94996   6
   2  12  14 -1.7939 1.41128   4
  -2  12 -14 -2.3175 2.42436   5
   2 -13 -14 33.9575 4.31627   5
   2  13 -14 30.3647 6.55281   3
   2  13 -14 28.6315 5.17640   5
   1 -13 -14 30.1597 3.78894   5
   1  13 -14 27.9781 5.30795   5
   1  13 -14 23.8504 5.24147   3
   0 -13 -14 10.6092 3.29054   6
   0 -13 -14 12.5587 2.59840   5
   0  13 -14 8.61605 4.25948   3
   0  13 -14 1.28870 3.22366   5
  -1 -13 -14 3.33554 2.74020   6
  -1  13 -14 2.75166 2.90140   5
  -1  13 -14 -0.1778 3.16992   3
   1  13  14 -3.1367 1.56165   4
   7   0 -15 -0.2530 1.56720   4
   7   0 -15 0.02725 2.05002   5
  -7   0  15 -1.1963 2.11558   3
   6   0 -15 2.51679 1.69319   5
  -6   0  15 0.34794 1.42679   3
   6   0 -15 2.59945 1.44972   4
  -5   0  15 0.51051 1.31332   3
   5   0 -15 0.30142 1.16594   5
   5   0 -15 3.55405 1.62523   4
   4   0 -15 -0.2571 1.02879   3
  -4   0  15 -0.2256 0.96951   3
   4   0 -15 1.29665 1.09045   5
   3   0 -15 2.73005 1.93703   3
  -3   0  15 0.74890 1.02714   3
  -2   0  15 0.48125 0.89616   3
   2   0 -15 0.13725 1.07661   3
   2   0 -15 -0.2237 0.86211   4
   1   0 -15 1.89611 1.34302   3
   1   0 -15 -0.9560 1.04135   4
  -1   0  15 0.42615 1.13836   3
   1   0 -15 -0.5476 0.67767   6
   0   0  15 0.14882 0.84541   6
   0   0 -15 -0.4757 1.12102   3
   0   0 -15 -0.0264 0.97735   6
   0   0 -15 -1.8805 0.73402   4
   1   0  15 0.00378 1.03936   6
  -1   0 -15 -0.6301 1.09469   4
  -1   0 -15 -1.0832 0.53691   5
  -1   0 -15 0.81751 1.65643   6
  -1   0 -15 1.14561 1.23931   3
  -2   0 -15 0.30098 1.83234   6
   2   0  15 -1.8207 1.23198   4
   2   0  15 -0.3240 1.34542   6
  -2   0 -15 1.64744 1.73410   4
  -2   0 -15 -0.2718 0.93291   5
  -2   0 -15 1.20532 1.27619   3
   3   0  15 -0.1660 2.04309   6
  -3   0 -15 -1.2027 1.03972   3
   3   0  15 3.15632 1.57724   4
  -3   0 -15 2.55673 1.90999   6
  -3   0 -15 0.17945 0.96035   5
  -4   0 -15 -0.3347 2.07413   6
   4   0  15 -1.9401 1.57014   4
  -4   0 -15 0.73116 1.68174   3
  -5   0 -15 -2.0135 1.41839   3
   5   0  15 -3.3847 1.55307   4
  -5   0 -15 -0.1827 2.85114   6
  -6   0 -15 2.35189 2.60592   6
   7  -1 -15 171.700 10.6475   4
   7  -1 -15 160.974 11.2438   5
  -7  -1  15 158.659 9.68867   3
  -7   1  15 159.709 8.58790   3
   7   1 -15 151.151 10.8793   4
   7   1 -15 180.833 11.7736   5
   6  -1 -15 5.34197 1.98896   5
  -6  -1  15 -0.5801 1.60819   3
   6  -1 -15 4.47205 1.74606   4
   6   1 -15 0.33278 1.36398   5
  -6   1  15 -0.2397 1.16321   3
   6   1 -15 2.37262 1.49166   4
   5  -1 -15 119.552 7.78242   5
  -5  -1  15 136.391 7.60631   3
   5  -1 -15 126.421 8.15535   4
   5   1 -15 120.652 7.55646   3
   5   1 -15 123.822 8.60746   4
   5   1 -15 130.816 8.39751   5
   4  -1 -15 17.1089 2.56758   5
  -4  -1  15 22.5760 2.91694   3
   4  -1 -15 18.6526 2.19627   3
   4   1 -15 23.6111 3.08363   3
   4   1 -15 21.0908 2.88276   5
   3  -1 -15 443.436 17.7956   5
   3  -1 -15 457.099 18.5371   3
  -3  -1  15 431.137 18.9040   3
  -3   1  15 414.608 18.3267   3
   3   1 -15 440.790 19.4175   3
   3   1 -15 441.376 18.5183   5
   2  -1 -15 9.67599 2.00754   4
   2  -1 -15 10.0033 1.96480   3
  -2  -1  15 11.4730 2.00918   3
   2   1 -15 12.3939 1.84180   5
   2   1 -15 10.0560 2.25261   3
   2   1 -15 14.3021 2.60741   4
   1  -1 -15 339.839 14.3746   6
   1  -1 -15 334.114 15.4204   4
  -1  -1  15 341.748 15.7281   3
   1  -1 -15 349.448 15.2904   3
   1   1 -15 341.299 15.8271   3
   1   1 -15 329.770 15.7499   4
   1   1 -15 324.831 13.4309   6
   0  -1  15 72.8170 5.01847   6
   0  -1 -15 72.5901 5.38196   3
   0  -1 -15 77.1333 5.63079   6
   0  -1 -15 76.0392 5.57239   4
   0   1 -15 79.0258 6.80752   4
   0   1 -15 77.3043 5.44535   6
   0   1 -15 78.3205 5.82402   3
  -1  -1 -15 41.1402 4.69163   6
   1  -1  15 47.5350 4.77667   6
  -1  -1 -15 40.6049 4.33451   3
   1   1  15 41.5631 4.17194   6
  -1   1 -15 38.8026 4.29140   4
  -1   1 -15 45.1556 4.48446   3
  -1   1 -15 45.6481 4.84726   6
  -2  -1 -15 109.205 8.61921   6
  -2  -1 -15 90.8205 7.46524   4
   2  -1  15 107.321 7.56564   4
   2  -1  15 89.1552 7.73042   6
  -2  -1 -15 108.391 7.76160   3
   2   1  15 111.747 7.58760   4
  -2   1 -15 105.343 7.61491   3
  -2   1 -15 105.566 8.54308   6
   2   1  15 109.776 8.05941   6
  -2   1 -15 106.024 6.35543   5
  -3  -1 -15 10.2554 1.96799   5
  -3  -1 -15 12.4838 2.98853   3
  -3  -1 -15 7.26321 3.00741   6
   3  -1  15 9.77265 2.95265   6
  -3   1 -15 7.35338 2.15538   5
   3   1  15 7.06460 2.95058   6
   3   1  15 8.76149 2.35696   4
  -3   1 -15 5.63411 2.89376   6
  -4  -1 -15 15.7145 3.26412   3
   4  -1  15 11.7685 3.26734   4
  -4  -1 -15 10.6782 3.67886   6
  -4  -1 -15 16.4059 2.99420   5
  -4   1 -15 7.83387 3.27353   6
   4   1  15 11.4118 3.05365   4
  -4   1 -15 11.1530 3.14957   3
   5  -1  15 130.278 9.74416   4
  -5  -1 -15 134.875 10.3195   3
  -5  -1 -15 125.652 12.2496   6
  -5   1 -15 126.676 10.1080   3
  -5   1 -15 127.549 11.6783   6
   5   1  15 124.602 9.61640   4
  -6  -1 -15 7.39117 4.22151   6
  -6   1 -15 16.2433 4.92953   6
   7  -2 -15 0.62667 1.60134   4
   7  -2 -15 1.65111 2.05687   5
   7   2 -15 0.39701 2.04529   5
   7   2 -15 1.35190 2.11411   4
  -7   2  15 -0.1975 1.23029   3
   6  -2 -15 19.4648 2.12543   6
  -6  -2  15 17.0566 3.39039   3
   6  -2 -15 24.4540 3.64581   5
   6  -2 -15 26.1265 3.56548   4
  -6   2  15 21.8433 2.08154   3
   6   2 -15 20.3688 4.20184   4
   6   2 -15 30.9424 4.68773   5
  -5  -2  15 1.26941 1.53647   3
   5  -2 -15 1.10825 1.45698   4
   5  -2 -15 5.20920 1.69079   5
   5   2 -15 3.32299 1.56444   3
   5   2 -15 2.86456 1.80504   5
   5   2 -15 6.76762 2.11557   4
  -5   2  15 2.77081 0.83244   3
   4  -2 -15 7.91651 1.64470   5
   4  -2 -15 5.55147 1.60827   4
  -4  -2  15 3.75117 1.60139   3
   4   2 -15 7.88108 2.24141   3
   4   2 -15 7.70215 2.12605   5
  -4   2  15 5.77141 1.13758   3
   3  -2 -15 26.4839 2.21758   5
   3  -2 -15 24.2876 2.64237   4
   3  -2 -15 23.9855 2.38964   3
  -3  -2  15 25.8160 3.30986   3
   3   2 -15 31.6996 3.84545   3
   3   2 -15 23.8795 2.88471   5
   2  -2 -15 5.11966 0.88108   6
   2  -2 -15 4.84079 1.40380   4
   2  -2 -15 5.86326 0.95409   6
  -2  -2  15 5.76641 1.65283   3
   2  -2 -15 7.01588 1.57554   3
   2   2 -15 5.36229 1.60494   5
   2   2 -15 7.87846 2.32336   3
  -1  -2  15 1.94374 0.75082   6
  -1  -2  15 2.41611 1.21244   3
   1  -2 -15 1.02061 0.97685   4
   1  -2 -15 2.08137 1.00749   6
   1   2 -15 1.41708 1.18326   3
   0  -2 -15 3.63148 1.38919   4
   0  -2  15 2.56150 1.30844   6
   0  -2 -15 4.68078 1.64344   6
   0  -2 -15 4.43472 1.45913   3
   0   2 -15 5.00580 1.69845   4
   0   2 -15 1.18378 1.22567   6
   0   2 -15 4.98666 1.70131   3
  -1  -2 -15 5.72337 1.80599   6
   1  -2  15 1.71931 1.68858   6
  -1  -2 -15 5.32647 1.65188   4
  -1  -2 -15 2.06801 1.30425   3
   1   2  15 4.15083 1.48755   4
  -1   2 -15 2.36724 1.20226   5
  -1   2 -15 2.18861 1.51848   6
  -1   2 -15 2.45507 1.64440   3
  -1   2 -15 1.32408 1.30767   4
  -2  -2 -15 38.4840 4.47011   4
  -2  -2 -15 31.6885 2.73465   5
   2  -2  15 30.1952 4.41545   6
  -2  -2 -15 30.3912 4.63651   6
  -2  -2 -15 37.4686 4.25318   3
   2   2  15 39.8551 4.26979   4
   2   2  15 36.9708 5.08734   6
  -2   2 -15 31.9271 3.38742   5
  -2   2 -15 31.6096 4.00790   3
  -2   2 -15 29.3298 4.50970   6
  -3  -2 -15 25.1542 4.93272   6
  -3  -2 -15 20.9537 3.84230   3
   3  -2  15 13.5856 4.65486   6
  -3  -2 -15 25.6535 3.00243   5
   3  -2  15 19.0987 3.56267   4
  -3   2 -15 26.8720 5.04166   6
  -3   2 -15 20.8146 3.77222   3
  -3   2 -15 24.1235 3.51240   5
   3   2  15 22.4767 3.84904   4
  -4  -2 -15 37.0206 4.95653   3
   4  -2  15 34.2194 4.87612   4
  -4  -2 -15 51.0957 6.91846   6
  -4  -2 -15 48.2022 4.59488   5
  -4   2 -15 38.1355 6.64420   6
  -4   2 -15 40.3918 5.27449   3
   4   2  15 40.9255 4.96882   4
  -5  -2 -15 36.3352 7.11728   6
   5  -2  15 55.0662 6.21096   4
  -5  -2 -15 52.1622 6.31280   3
  -5   2 -15 49.9458 7.82028   6
   5   2  15 54.7302 6.27117   4
  -5   2 -15 55.5344 6.59203   3
   6  -2  15 58.1073 8.61460   4
  -6  -2 -15 47.4157 9.26913   6
  -6   2 -15 73.7673 9.36368   6
   7  -3 -15 45.4042 5.75033   6
   7  -3 -15 55.3834 5.17770   4
   7  -3 -15 53.7349 5.87539   5
   7   3 -15 65.1423 7.03165   4
   7   3 -15 48.1269 6.15773   5
   6  -3 -15 116.381 8.27824   5
   6  -3 -15 118.379 7.50074   4
   6   3 -15 106.548 9.02065   4
   6   3 -15 142.087 9.52176   5
   5  -3 -15 33.5244 3.71700   5
   5  -3 -15 31.5065 3.31723   4
   5  -3 -15 30.6675 2.71991   6
  -5  -3  15 34.9784 4.49638   3
   5   3 -15 34.7250 4.88076   4
   5   3 -15 29.2301 3.97366   3
   5   3 -15 34.2961 4.10312   5
   4  -3 -15 0.82759 0.73587   6
   4  -3 -15 0.08292 0.95046   4
   4  -3 -15 1.96513 0.98294   5
  -4  -3  15 3.70155 1.80381   3
   4   3 -15 -0.2813 1.43501   5
   4   3 -15 -0.3322 1.34753   3
   3  -3 -15 87.5451 4.66359   6
   3  -3 -15 90.4506 4.52648   6
   3  -3 -15 91.8277 4.51860   3
  -3  -3  15 86.2633 6.29646   3
   3  -3 -15 88.2739 5.19274   4
   3  -3 -15 91.1796 4.51179   5
   3   3 -15 97.6926 7.01800   3
   3   3 -15 92.8436 6.19782   5
   2  -3 -15 175.684 8.29246   3
   2  -3 -15 175.163 8.39977   6
   2  -3 -15 175.317 8.17612   6
   2  -3 -15 165.478 8.55700   4
  -2  -3  15 166.984 9.62645   3
   2   3 -15 183.230 9.25077   5
   2   3 -15 185.979 10.4463   3
   1  -3 -15 64.3869 4.92831   6
   1  -3 -15 68.3914 4.81948   4
   1  -3 -15 70.6400 4.62526   3
  -1  -3  15 72.6802 4.34437   6
   1   3 -15 71.7579 5.83278   3
   1   3 -15 68.3066 5.59699   4
   0  -3 -15 146.306 8.19265   3
   0  -3 -15 129.149 9.84740   6
   0  -3 -15 140.957 8.29838   4
   0  -3  15 135.251 8.44038   6
   0  -3  15 137.774 8.88170   3
   0   3 -15 153.997 9.30788   3
   0   3 -15 135.740 8.90315   4
   0   3 -15 142.167 8.14357   6
  -1  -3 -15 24.8421 3.88053   6
   1  -3  15 38.0658 4.55072   6
  -1  -3 -15 28.0568 3.61149   4
  -1  -3 -15 29.5836 3.58957   3
   1  -3  15 29.4371 4.19702   3
  -1   3 -15 33.9154 4.25213   6
  -1   3 -15 29.0640 3.14593   5
  -1   3 -15 27.8933 3.76938   3
   1   3  15 34.4563 3.62999   4
  -2  -3 -15 6.63088 1.87039   3
  -2  -3 -15 7.17521 2.23244   4
   2  -3  15 6.11839 2.63171   6
  -2  -3 -15 5.36444 1.34336   5
  -2  -3 -15 5.50571 2.37896   6
  -2   3 -15 5.36920 2.36546   6
   2   3  15 5.74918 1.97452   4
  -2   3 -15 5.95779 1.78186   5
  -2   3 -15 4.78896 1.77764   3
  -3  -3 -15 209.296 10.5672   5
  -3  -3 -15 212.262 14.3952   6
  -3  -3 -15 205.695 12.6979   3
  -3   3 -15 204.614 12.6685   3
   3   3  15 213.733 12.1784   4
  -3   3 -15 210.565 14.1971   6
  -3   3 -15 192.371 11.3496   5
  -4  -3 -15 6.60332 2.78657   6
  -4  -3 -15 6.06011 2.39436   3
   4  -3  15 11.6715 3.00871   4
  -4  -3 -15 3.84774 1.93053   5
   4   3  15 7.34059 2.36262   4
  -4   3 -15 7.31503 2.30310   3
  -4   3 -15 5.82829 3.23060   6
  -5  -3 -15 111.988 11.7851   6
   5  -3  15 119.643 9.55064   4
  -5  -3 -15 123.504 9.81203   3
  -5   3 -15 112.998 11.2648   6
  -5   3 -15 126.847 9.84477   3
   6  -3  15 0.33223 1.91328   4
  -6  -3 -15 -0.8644 2.00467   3
  -6   3 -15 5.86255 4.67221   6
  -6   3 -15 3.84589 2.64700   3
   7  -4 -15 -1.7402 1.20620   4
  -7  -4  15 -2.7149 1.57238   6
   7  -4 -15 -0.7044 1.92840   5
   7   4 -15 -3.1958 2.62500   4
   6  -4 -15 2.98765 1.85038   6
   6  -4 -15 -1.0774 1.50684   5
   6  -4 -15 3.26108 1.41258   4
   6   4 -15 0.08763 1.74193   5
   6   4 -15 -0.7337 2.14323   4
   5  -4 -15 3.93802 1.25360   4
   5  -4 -15 3.33305 1.70411   5
   5  -4 -15 7.28642 2.21756   6
   5   4 -15 5.34543 2.54084   4
   5   4 -15 8.23797 2.24956   3
   5   4 -15 6.50530 2.21877   5
   4  -4 -15 19.6857 2.10816   4
   4  -4 -15 16.5786 2.58282   6
   4  -4 -15 14.3239 1.86890   4
   4  -4 -15 16.9470 2.28713   5
  -4  -4  15 15.9754 3.11298   3
   4   4 -15 18.2145 3.56407   3
   4   4 -15 10.4001 2.90150   5
   3  -4 -15 68.3087 4.01830   4
   3  -4 -15 66.1337 4.14877   6
  -3  -4  15 62.1169 5.47596   3
   3  -4 -15 60.6722 3.46600   5
   3  -4 -15 62.9772 4.51523   6
   3   4 -15 72.5724 5.48679   5
   3   4 -15 67.7376 5.96189   3
  -2  -4  15 67.8373 5.61273   3
   2  -4 -15 69.1983 3.91574   3
   2  -4 -15 66.4517 4.30979   4
   2  -4 -15 61.9933 4.50707   6
   2  -4 -15 64.8846 4.54892   6
   2   4 -15 70.7607 6.12496   3
   2   4 -15 69.7844 5.21389   5
   1  -4 -15 4.85502 1.21610   3
  -1  -4  15 4.38575 1.87992   3
   1  -4 -15 2.95627 1.21836   4
   1  -4 -15 5.31481 1.55039   6
  -1  -4  15 3.31116 1.40960   6
   1   4 -15 3.11389 1.40870   4
   1   4 -15 4.59674 2.05380   3
   0  -4  15 8.26013 2.20525   3
   0  -4  15 6.44872 1.85772   6
   0  -4 -15 6.84165 2.14937   6
   0  -4 -15 9.92087 1.97351   4
   0  -4 -15 6.86596 1.62968   3
   0   4 -15 10.0589 2.43253   3
   0   4 -15 3.62783 1.46099   5
   0   4 -15 3.74587 1.54372   6
   1  -4  15 105.676 7.89093   6
  -1  -4 -15 87.9758 7.59551   6
  -1  -4 -15 105.340 7.04424   3
  -1  -4 -15 101.192 6.94907   4
  -1   4 -15 96.7511 7.46391   3
   1   4  15 106.350 6.58185   4
  -1   4 -15 83.9051 6.17771   5
  -1   4 -15 93.0034 7.18381   6
  -2  -4 -15 16.7258 3.07355   3
  -2  -4 -15 13.3514 1.85513   5
   2  -4  15 16.2875 3.56445   6
  -2  -4 -15 10.5525 2.98301   4
  -2  -4 -15 12.7840 3.27823   6
   2   4  15 21.3880 3.05828   4
  -2   4 -15 13.1255 3.32546   6
  -2   4 -15 17.2170 2.84483   5
  -3  -4 -15 3.70715 1.54208   5
  -3  -4 -15 0.77654 2.43920   6
   3   4  15 1.00074 1.60087   4
  -3   4 -15 4.16308 2.05876   6
  -3   4 -15 3.11105 1.87826   3
  -4  -4 -15 11.8249 2.44287   5
   4  -4  15 10.0654 2.93589   4
  -4  -4 -15 13.0091 3.85012   6
  -4   4 -15 6.79064 2.95565   6
   4   4  15 12.4693 2.95727   4
  -4   4 -15 6.30052 2.59729   3
  -5  -4 -15 5.07040 3.47858   6
   5  -4  15 0.92020 1.53976   4
   5   4  15 -0.0977 2.08819   4
  -5   4 -15 -0.4436 3.40907   6
   6  -4  15 10.5264 3.08562   4
  -6  -4 -15 22.9914 5.93316   6
  -6  -4 -15 20.9380 4.27539   3
  -6   4 -15 16.9793 4.77409   3
   6   4  15 12.6704 4.03567   4
  -6   4 -15 14.4964 5.75262   6
  -7  -5  15 68.7687 5.58250   6
   7  -5 -15 87.2346 7.70278   5
   7   5 -15 77.6980 8.46988   5
   6  -5 -15 3.82104 1.14239   4
  -6  -5  15 4.13080 1.47223   6
   6  -5 -15 -0.3789 2.24101   6
   6  -5 -15 -1.3150 1.63799   5
   6   5 -15 -1.5366 2.27209   4
   6   5 -15 -1.1253 1.90734   5
   5  -5 -15 109.557 7.22045   5
   5  -5 -15 102.706 7.33506   6
   5  -5 -15 103.060 5.19699   4
   5  -5 -15 105.932 5.08318   4
   5   5 -15 120.948 8.50271   5
   5   5 -15 95.5539 8.45183   4
   5   5 -15 112.293 8.62876   3
   4  -5 -15 10.2118 1.14024   4
   4  -5 -15 11.7720 2.42199   6
   4  -5 -15 7.74091 1.08078   4
   4  -5 -15 8.07180 1.74416   5
   4   5 -15 3.92537 2.44936   5
   4   5 -15 6.15625 2.70444   3
   3  -5 -15 -1.6630 1.22152   6
   3  -5 -15 0.76420 0.52714   4
   3  -5 -15 0.33349 0.51128   4
   3  -5 -15 0.74785 0.58915   5
   3   5 -15 -0.4491 1.34616   3
   3   5 -15 2.62707 1.68039   5
   2  -5 -15 10.0707 1.97467   6
  -2  -5  15 15.4433 3.05889   3
   2  -5 -15 13.0202 1.63589   4
   2  -5 -15 12.0201 1.34878   3
  -2  -5  15 12.0090 2.03969   6
   2   5 -15 13.1669 3.10462   3
   2   5 -15 12.0160 2.69315   5
  -1  -5  15 2.46277 1.92799   6
   1  -5 -15 0.52367 0.86345   3
   1  -5 -15 1.08875 1.23252   6
   1   5 -15 3.11151 1.74399   5
   1   5 -15 -1.7701 1.55798   3
   0  -5 -15 31.5106 3.31950   4
   0  -5 -15 35.2674 3.30717   3
   0  -5  15 31.3280 4.06702   6
   0  -5 -15 32.2814 4.01588   6
   0   5 -15 26.0003 4.34046   3
   0   5 -15 28.5517 4.06214   5
  -1  -5 -15 10.6643 2.32936   3
  -1  -5 -15 12.2597 2.49044   4
   1  -5  15 12.1053 3.18033   6
  -1  -5 -15 12.2527 3.15706   6
   1   5  15 11.9802 2.32799   4
  -1   5 -15 12.3343 2.99020   6
  -1   5 -15 6.82551 1.93338   5
  -1   5 -15 7.85082 2.59002   3
  -2  -5 -15 441.670 22.8638   6
   2  -5  15 424.547 22.4123   6
  -2  -5 -15 412.817 20.3884   4
  -2  -5 -15 437.248 17.6877   5
  -2   5 -15 384.219 20.7672   3
   2   5  15 461.818 20.0914   4
  -2   5 -15 444.790 21.9602   6
  -3  -5 -15 50.2415 4.21062   5
  -3   5 -15 47.5164 6.92380   6
  -3   5 -15 51.8802 5.93863   3
   3   5  15 54.2444 5.44909   4
  -4  -5 -15 118.978 7.94587   5
  -4  -5 -15 101.567 10.3301   6
  -4   5 -15 105.022 9.17168   3
   4   5  15 116.214 8.62830   4
  -4   5 -15 113.057 10.4875   6
   5  -5  15 99.3707 8.74580   4
  -5  -5 -15 109.748 11.5966   6
  -5   5 -15 112.874 9.87756   3
   5   5  15 113.937 9.44467   4
  -5   5 -15 106.348 10.8404   6
   6  -5  15 1.13197 1.54956   4
  -6  -5 -15 3.71282 3.08965   6
  -6   5 -15 6.39203 3.16806   3
   6   5  15 0.21187 2.26012   4
  -6   5 -15 2.48006 3.30972   6
   7  -6 -15 4.91054 2.60489   5
   7   6 -15 0.41090 2.58897   5
   6  -6 -15 15.7073 3.38065   5
  -6  -6  15 13.0403 2.58856   6
   6  -6 -15 8.66513 3.23297   6
   6   6 -15 5.49255 3.50106   4
   6   6 -15 14.5423 3.85689   5
   6   6 -15 7.47330 3.11607   3
  -5  -6  15 45.6469 3.54895   6
  -5  -6  15 45.9545 3.83777   6
   5  -6 -15 45.2316 5.11871   6
   5  -6 -15 53.2971 4.77869   5
   5   6 -15 47.7069 5.64586   3
   5   6 -15 57.1798 5.99007   5
   5   6 -15 54.4273 6.13257   4
  -4  -6  15 1.84268 1.12635   6
  -4  -6  15 5.04298 1.48706   6
   4  -6 -15 3.21938 2.14995   6
   4  -6 -15 4.50246 1.55333   5
   4   6 -15 3.42204 2.07909   5
   3  -6 -15 38.7466 2.69776   5
   3  -6 -15 37.6162 4.12627   6
  -3  -6  15 33.6216 2.94609   6
  -3  -6  15 33.1690 3.20150   6
   3   6 -15 34.1846 4.61914   3
  -2  -6  15 100.243 6.63039   6
   2  -6 -15 106.230 4.63493   3
   2  -6 -15 107.372 4.65352   3
   2  -6 -15 101.445 4.70068   4
   2  -6 -15 98.8615 6.76607   6
   2   6 -15 93.1197 7.97541   3
   2   6 -15 107.313 7.38078   5
   1  -6 -15 49.0155 3.53536   3
   1  -6 -15 51.0766 4.78200   6
   1  -6 -15 44.9912 3.38073   4
  -1  -6  15 49.3330 4.84205   6
   1   6 -15 44.3760 4.55016   5
   1   6 -15 36.1912 4.88710   3
   0  -6  15 46.4456 5.26671   6
   0  -6 -15 40.4815 3.80871   3
   0  -6 -15 40.9247 3.71589   4
   0  -6 -15 42.5367 4.76100   6
   0   6 -15 37.5069 4.71875   3
   0   6 -15 41.8916 4.36145   5
   0   6 -15 43.5185 4.32147   5
   1  -6  15 44.3153 5.58975   6
  -1  -6 -15 54.9335 5.88772   6
  -1  -6 -15 46.8667 4.41833   4
  -1   6 -15 38.5421 5.11874   3
   1   6  15 54.6870 4.38566   4
  -1   6 -15 47.2483 5.27313   6
   2  -6  15 10.0071 3.62695   6
  -2  -6 -15 16.7787 2.10795   5
  -2  -6 -15 16.7335 3.13639   4
  -2  -6 -15 21.8785 4.38616   6
  -2   6 -15 11.2598 2.95494   3
   2   6  15 17.3133 2.99497   4
  -2   6 -15 16.5636 3.73094   6
  -3  -6 -15 105.071 9.96948   6
  -3  -6 -15 93.9796 6.33080   5
  -3   6 -15 92.2075 8.35057   3
   3   6  15 99.3153 7.54311   4
  -3   6 -15 101.004 13.9435   6
  -4  -6 -15 67.1275 7.15408   5
  -4  -6 -15 84.7747 9.47605   6
  -4   6 -15 77.7181 7.83280   3
   4   6  15 82.6853 7.17982   4
  -4   6 -15 70.2018 8.51498   6
  -5  -6 -15 1.08513 3.54865   6
   5   6  15 2.96475 2.16031   4
  -5   6 -15 -0.9600 3.25897   6
  -5   6 -15 -1.0641 1.94751   3
  -6  -7  15 3.69530 2.36972   6
   6  -7 -15 -2.7125 1.73141   5
   6  -7 -15 4.44442 3.32407   6
   6   7 -15 2.72226 2.63469   4
   6   7 -15 -4.3340 2.03282   3
   6   7 -15 -1.7290 1.32682   5
   5  -7 -15 52.8683 4.85914   5
  -5  -7  15 37.3413 4.19050   6
   5  -7 -15 49.4379 5.99624   6
   5   7 -15 38.4225 5.70285   4
   5   7 -15 43.2759 5.98419   3
   5   7 -15 55.5501 6.00875   5
  -4  -7  15 177.929 9.54702   6
   4  -7 -15 175.250 11.1262   6
   4  -7 -15 184.601 9.66825   5
   4   7 -15 193.951 12.5668   3
   4   7 -15 198.773 11.9300   5
  -3  -7  15 -0.1851 1.02657   6
   3  -7 -15 -0.2481 1.98883   6
   3   7 -15 -2.4719 1.38782   5
   3   7 -15 2.35869 2.27258   3
  -2  -7  15 55.0056 5.14223   6
   2  -7 -15 60.6254 2.80216   5
   2   7 -15 55.3187 6.67285   3
   1  -7 -15 69.9244 4.42944   3
   1  -7 -15 67.9875 5.97489   6
   1  -7 -15 72.4477 4.06417   4
  -1  -7  15 75.4304 6.45056   6
   1   7 -15 65.2576 6.98300   3
   1   7 -15 65.1474 6.92871   5
   0  -7 -15 -0.3378 1.54999   6
   0  -7  15 4.22749 2.42681   6
   0  -7 -15 1.36638 1.10721   4
   0  -7 -15 1.83550 1.08009   3
   0   7 -15 3.21352 1.97098   3
  -1  -7 -15 39.7126 2.60496   5
  -1  -7 -15 38.3570 2.57676   5
   1  -7  15 40.3394 5.93239   6
  -1  -7 -15 30.9751 3.79712   4
  -1  -7 -15 38.2368 5.25507   6
   1   7  15 37.8157 3.70036   4
  -1   7 -15 40.7086 5.47472   3
  -2  -7 -15 3.58759 1.28034   5
  -2  -7 -15 -1.7808 1.46504   4
  -2   7 -15 0.06216 2.30492   6
   2   7  15 0.50849 1.22808   4
  -2   7 -15 3.61645 1.85245   3
  -3  -7 -15 100.925 10.3476   6
  -3  -7 -15 116.030 7.19986   5
  -3   7 -15 107.193 9.11440   3
  -3   7 -15 106.763 9.71102   6
   3   7  15 109.233 8.33205   4
  -4  -7 -15 1.66050 2.66313   6
   4   7  15 -1.0973 1.62523   4
  -4   7 -15 -2.7018 1.77637   3
  -4   7 -15 7.02541 3.04347   6
  -5  -7 -15 71.9275 10.9834   6
  -5   7 -15 50.6839 8.85386   6
   5   7  15 79.7939 7.90634   4
  -5   7 -15 67.9650 7.82485   3
  -6  -8  15 36.0086 5.07394   6
   6  -8 -15 34.3598 4.65938   5
   6   8 -15 47.1127 6.64406   3
   6   8 -15 36.1414 5.23954   5
   6   8 -15 32.6339 7.19104   4
   5  -8 -15 -3.5216 3.01205   6
  -5  -8  15 -3.5276 2.27820   6
   5   8 -15 1.49042 1.88811   3
   5   8 -15 0.22180 2.13569   5
   5   8 -15 -1.3263 1.42336   4
  -4  -8  15 26.8870 4.01513   6
   4  -8 -15 27.9629 4.90872   6
   4  -8 -15 26.8110 3.30799   5
   4   8 -15 32.2686 4.53897   5
   4   8 -15 23.8378 4.79797   3
   3  -8 -15 3.53611 1.23995   5
  -3  -8  15 2.13199 2.17859   6
   3  -8 -15 -2.0194 2.57849   6
   3   8 -15 6.21992 2.45552   5
   3   8 -15 11.4657 3.34192   3
   2  -8 -15 0.56983 0.59279   5
   2  -8 -15 2.35035 0.84002   5
  -2  -8  15 1.09337 1.96370   6
   2   8 -15 -2.4538 1.50994   5
   2   8 -15 3.00264 2.48333   3
   1  -8 -15 128.893 5.38441   5
  -1  -8  15 111.201 8.55465   6
   1  -8 -15 123.433 5.30527   5
   1  -8 -15 131.267 9.08434   6
   1  -8 -15 119.050 6.46864   3
   1  -8 -15 121.955 7.15292   3
   1   8 -15 124.521 8.70398   5
   1   8 -15 111.759 9.32664   3
   0  -8 -15 8.68765 2.12942   3
   0  -8 -15 4.79180 2.23368   6
   0  -8 -15 7.94867 1.06497   5
   0  -8 -15 4.83874 1.47200   4
   0  -8 -15 6.15980 0.95485   5
   0   8 -15 1.25289 2.35661   3
   0   8  15 8.03643 1.53144   4
   0   8 -15 4.71380 2.52534   5
  -1  -8 -15 142.429 7.00216   5
  -1  -8 -15 144.383 9.01988   3
  -1  -8 -15 139.292 8.40925   4
   1  -8  15 128.338 10.8098   6
  -1  -8 -15 135.296 10.5988   6
   1   8  15 162.767 8.42446   4
  -1   8 -15 139.555 9.70499   5
  -1   8 -15 128.216 10.0821   3
  -2  -8 -15 74.1390 5.03781   5
  -2  -8 -15 69.5853 7.67853   6
  -2  -8 -15 63.5013 5.93042   4
   2   8  15 70.2512 5.79698   4
  -2   8 -15 65.4086 7.35671   3
  -3  -8 -15 12.1465 4.19355   6
  -3   8 -15 12.3504 3.78102   6
  -3   8 -15 16.3289 3.84281   3
  -4  -8 -15 2.09280 2.47706   6
   4   8  15 10.0835 2.88465   4
  -4   8 -15 10.9123 3.09155   3
  -4   8 -15 9.14901 3.26898   6
  -5  -8 -15 36.5120 7.44810   6
  -5   8 -15 33.9263 6.28186   3
   5   8  15 43.5602 5.85855   4
  -5   8 -15 41.1343 8.90485   6
  -5  -9  15 92.2233 7.44886   6
  -5  -9  15 83.2944 7.70119   6
   5  -9 -15 93.3281 7.00793   5
   5   9 -15 71.9106 8.77967   4
   5   9 -15 103.744 9.22772   3
   4  -9 -15 1.60978 1.29176   5
  -4  -9  15 -0.8555 1.47743   6
  -4  -9  15 1.27423 2.43192   6
   4   9 -15 1.71378 2.10114   5
   4   9 -15 0.82491 2.62012   3
   3  -9 -15 164.566 12.1364   6
  -3  -9  15 146.812 9.91696   6
   3  -9 -15 171.344 8.77290   5
   3   9 -15 168.522 12.2037   3
   3   9 -15 166.102 10.9223   5
   2  -9 -15 110.440 10.9774   6
   2  -9 -15 132.538 6.65795   5
  -2  -9  15 112.199 8.77398   6
   2   9 -15 131.955 9.27937   5
   2   9 -15 125.476 10.3631   3
   1  -9 -15 11.6073 1.67068   5
   1  -9 -15 12.2868 2.80392   6
   1  -9 -15 13.8417 2.16462   3
   1  -9 -15 14.8142 2.11890   3
   1  -9 -15 12.4776 1.68482   5
   1   9 -15 11.4019 3.21295   5
   1   9 -15 11.3474 3.47615   3
   0  -9 -15 264.397 11.5919   5
   0  -9 -15 271.514 15.9907   6
   0  -9 -15 273.814 12.8562   4
   0  -9  15 241.435 15.4549   6
   0  -9 -15 277.675 13.2275   3
   0   9 -15 259.022 16.0625   3
   0   9 -15 264.109 14.8738   5
  -1  -9 -15 21.5000 3.02510   4
  -1  -9 -15 18.0935 4.22621   6
  -1  -9 -15 20.9785 2.51155   5
  -1  -9 -15 18.2914 3.39584   3
  -1   9 -15 18.6212 3.90620   5
  -1   9 -15 16.0094 4.14179   3
   1   9  15 14.3190 2.60512   4
  -2  -9 -15 56.1270 4.58994   5
  -2  -9 -15 56.1976 5.22669   4
  -2  -9 -15 56.2143 7.35509   6
  -2   9 -15 43.0043 6.74174   3
  -2   9 -15 52.7063 6.07924   5
   2   9  15 67.5585 5.38167   4
  -3  -9 -15 31.8796 4.20998   5
  -3  -9 -15 30.2165 5.95593   6
  -3   9 -15 27.7859 5.35821   3
  -3   9 -15 25.9911 5.47659   6
   3   9  15 24.6762 4.02036   4
  -4  -9 -15 13.4765 4.67043   6
   4   9  15 11.6758 3.15358   4
  -4   9 -15 12.4744 5.17794   6
  -5 -10  15 23.5072 4.22200   6
   5 -10 -15 13.3711 2.98803   5
   5  10 -15 12.5951 3.82295   5
   5  10 -15 13.8784 4.36061   4
  -4 -10  15 14.0125 3.19488   6
   4  10 -15 17.7031 4.03016   5
   4  10 -15 14.3294 4.67524   3
   3 -10 -15 8.02954 1.85909   5
   3  10 -15 10.9562 3.87191   3
   3  10 -15 8.34446 2.55877   5
  -2 -10  15 12.0706 4.06662   6
   2 -10 -15 13.5352 2.20143   5
   2 -10 -15 12.8075 2.11964   5
   2  10 -15 13.6372 4.04709   3
   2  10 -15 9.27840 2.96879   5
   1 -10 -15 102.617 5.76429   5
  -1 -10  15 80.5961 8.27524   6
   1 -10 -15 98.9584 6.06571   3
   1 -10 -15 100.143 5.90756   5
   1 -10 -15 101.077 5.72433   3
   1 -10 -15 87.6787 9.34262   6
   1  10 -15 105.347 8.30082   5
   1  10 -15 107.078 9.28974   3
   0 -10 -15 1.87879 1.42156   5
   0 -10 -15 0.70122 1.11488   5
   0 -10 -15 1.51408 1.70567   3
   0 -10 -15 0.11776 1.76639   6
   0  10 -15 5.72714 2.45126   5
   0  10 -15 2.13982 2.54958   3
  -1 -10 -15 9.06048 2.06188   4
  -1 -10 -15 6.79436 3.04667   6
  -1 -10 -15 8.09769 1.94407   5
  -1  10 -15 6.26397 3.37887   3
   1  10  15 8.90612 2.16028   4
  -1  10 -15 4.99165 2.57917   5
  -2 -10 -15 17.3718 4.50136   6
  -2 -10 -15 25.7581 3.54928   4
  -2  10 -15 19.5510 4.12776   3
   2  10  15 17.4327 3.22999   4
  -2  10 -15 18.5006 4.15653   5
  -3 -10 -15 90.6681 10.3215   6
  -3  10 -15 71.8748 8.49882   3
   3  10  15 95.7451 7.51439   4
  -4 -10 -15 142.751 13.4951   6
   4  10  15 163.870 11.0694   4
  -4  10 -15 140.299 12.3528   3
  -4 -11  15 11.6414 3.32665   6
   4 -11 -15 17.3571 3.12330   5
   4  11 -15 10.7844 3.91665   5
   4  11 -15 10.9232 4.47129   3
   3 -11 -15 67.2061 5.52543   5
   3  11 -15 55.3970 8.01340   3
   2 -11 -15 157.558 8.82880   5
   2 -11 -15 162.752 8.80322   5
   2  11 -15 151.998 12.2059   3
   2  11 -15 158.649 11.3324   5
   1 -11 -15 16.8557 3.57939   6
   1 -11 -15 20.9296 2.99762   5
   1 -11 -15 23.1927 3.11772   3
   1 -11 -15 22.5579 2.93510   5
   1  11 -15 16.4196 4.04505   3
   1  11 -15 12.0229 3.72025   5
   0 -11 -15 93.5637 9.08299   6
   0 -11 -15 91.6620 5.94335   5
   0 -11 -15 100.877 6.38842   5
   0  11 -15 97.1495 9.42675   3
   0  11 -15 91.1391 8.20143   5
  -1 -11 -15 -1.6752 2.14280   6
  -1 -11 -15 1.22260 1.71443   5
  -1  11 -15 0.41900 1.76259   5
  -1  11 -15 -0.1284 1.99409   3
   1  11  15 2.89964 1.57620   4
  -2 -11 -15 23.5916 5.17130   6
  -2 -11 -15 25.3324 3.65308   5
   2  11  15 27.4972 3.84863   4
  -3  11 -15 13.8610 4.06192   5
  -3  11 -15 19.3619 4.72039   3
   3  11  15 20.1921 3.66018   4
   3 -12 -15 3.93048 1.82553   5
   3  12 -15 1.18823 2.56080   5
   3  12 -15 -4.0180 2.18473   3
   2  12 -15 4.49590 2.85656   5
   1 -12 -15 -2.4459 1.29333   5
   0 -12 -15 9.05835 2.75015   5
   0 -12 -15 0.06921 2.56633   6
   0 -12 -15 10.6919 2.69994   3
   0 -12 -15 6.43852 2.09166   5
  -1 -12 -15 7.39516 3.24761   6
  -1  12 -15 4.29963 3.18428   3
  -1  12 -15 14.8591 3.89710   5
   1  12  15 7.94720 2.08299   4
  -2  12 -15 37.5925 6.43407   5
  -2  12 -15 36.6198 6.94082   3
   2  12  15 42.6628 4.85635   4
   1 -13 -15 3.11295 1.70081   5
   1  13 -15 6.30469 3.28116   3
   1  13 -15 4.94028 2.20561   5
   0 -13 -15 121.740 8.15106   5
   0 -13 -15 113.343 10.4349   6
   0  13 -15 114.953 9.94902   5
   0  13 -15 120.080 11.0255   3
   7   0 -16 27.9001 4.62365   5
   7   0 -16 13.5944 3.84042   4
  -7   0  16 16.7095 4.47374   3
   6   0 -16 217.110 12.7807   5
  -6   0  16 225.389 11.0867   3
   6   0 -16 230.016 13.0642   4
   5   0 -16 0.68022 1.40554   4
  -5   0  16 0.01080 1.19574   3
   5   0 -16 6.10765 1.93429   5
  -4   0  16 543.888 22.5822   3
   4   0 -16 573.448 23.1570   5
   4   0 -16 516.711 22.8098   3
   3   0 -16 698.825 28.9186   3
   3   0 -16 705.940 28.0017   5
  -3   0  16 717.116 28.7045   3
   2   0 -16 1723.10 66.7548   4
  -2   0  16 1712.23 66.4155   3
   2   0 -16 1787.01 66.7016   3
   1   0 -16 2666.00 99.8494   3
   1   0 -16 2593.22 97.6557   6
   1   0 -16 2696.78 100.112   4
   0   0 -16 448.068 19.6259   6
   0   0 -16 458.969 20.0489   3
   0   0 -16 408.571 21.4843   4
   1   0  16 689.348 29.1942   6
  -1   0 -16 721.572 29.6731   3
  -1   0 -16 678.572 29.7189   4
  -1   0 -16 651.232 26.8128   5
  -1   0 -16 688.803 30.1436   6
   2   0  16 25.7138 4.22235   6
   2   0  16 21.8042 3.64563   4
  -2   0 -16 24.2477 2.65514   5
  -2   0 -16 23.5694 4.40165   6
  -2   0 -16 21.9637 3.84850   3
   3   0  16 181.125 11.6991   4
  -3   0 -16 205.747 10.8753   5
  -3   0 -16 216.691 14.2327   6
  -3   0 -16 209.602 12.5212   3
   4   0  16 168.407 11.3151   4
  -4   0 -16 171.379 13.3773   6
  -4   0 -16 190.806 12.3738   3
   5   0  16 49.1090 6.27090   4
  -5   0 -16 53.6640 6.83038   3
  -5   0 -16 60.6002 7.89767   6
  -6   0 -16 14.4760 3.73623   3
   6   0  16 17.1868 4.25852   4
  -7  -1  16 2.85154 2.97339   3
   7  -1 -16 2.83001 2.44114   4
   7  -1 -16 2.90100 2.35012   5
   7   1 -16 8.86267 3.02218   4
   7   1 -16 9.98533 3.14478   5
   6  -1 -16 -2.5681 1.21713   4
  -6  -1  16 1.85533 1.98517   3
   6  -1 -16 0.00353 1.53130   5
   6   1 -16 1.17371 1.85925   5
  -6   1  16 0.43658 1.36915   3
   5  -1 -16 48.7624 4.48160   4
  -5  -1  16 30.3392 3.85604   3
   5  -1 -16 38.1150 4.07619   5
   5   1 -16 36.1581 3.90372   3
   5   1 -16 35.0416 4.35125   4
   5   1 -16 36.3217 4.33497   5
   4  -1 -16 3.77258 1.31414   3
  -4  -1  16 5.08985 1.41664   3
   4  -1 -16 1.60178 1.23403   5
   4   1 -16 4.65426 1.65192   5
  -4   1  16 3.40573 1.30883   3
   4   1 -16 2.68076 1.59090   3
   3  -1 -16 59.2651 4.52132   3
   3  -1 -16 61.2991 4.01450   5
   3  -1 -16 65.2697 4.87536   4
  -3  -1  16 63.6094 4.96097   3
   3   1 -16 62.1463 4.60238   5
  -3   1  16 66.3135 4.46073   3
   3   1 -16 71.3088 5.37441   3
   2  -1 -16 4.45089 2.00297   3
  -2  -1  16 4.85186 1.86397   3
   2  -1 -16 9.81985 1.98014   4
   2   1 -16 4.33902 2.10358   4
   2   1 -16 10.8064 2.53253   3
  -1  -1  16 16.7869 2.99929   3
   1  -1 -16 22.3014 2.82140   3
   1  -1 -16 19.6767 2.25523   6
   1  -1 -16 28.7804 3.11497   4
   1   1 -16 18.9855 3.19429   3
   1   1 -16 23.4545 1.83418   6
   0  -1 -16 94.4336 6.47242   6
   0  -1 -16 95.9450 6.54274   4
   0  -1 -16 89.9728 6.31788   3
   0   1 -16 92.9441 6.12802   6
   0   1 -16 86.1231 6.51506   4
   0   1 -16 83.3771 6.41927   3
  -1  -1 -16 677.174 30.2261   6
  -1  -1 -16 702.088 29.8173   4
  -1  -1 -16 665.457 26.3516   5
  -1  -1 -16 681.460 29.2925   3
   1  -1  16 666.309 29.2609   6
  -1   1 -16 685.673 29.6671   3
  -1   1 -16 677.742 27.3484   5
  -1   1 -16 684.327 29.8896   4
  -1   1 -16 702.250 30.0357   6
   1   1  16 707.119 29.2487   6
   2  -1  16 -1.9702 1.51071   6
  -2  -1 -16 0.08865 0.87400   5
  -2  -1 -16 1.08254 1.44760   6
  -2  -1 -16 -1.4391 0.80649   3
  -2   1 -16 1.18902 1.27347   3
   2   1  16 -0.7178 1.05422   4
  -2   1 -16 -0.2376 1.02033   5
  -2   1 -16 1.39083 1.66496   6
   3  -1  16 161.997 10.3306   4
  -3  -1 -16 146.657 11.8690   6
  -3  -1 -16 155.045 8.84211   5
  -3  -1 -16 162.634 10.6505   3
  -3   1 -16 156.828 11.7901   6
   3   1  16 157.518 10.2509   4
  -3   1 -16 154.443 10.5936   3
  -4  -1 -16 11.3956 2.93498   3
  -4  -1 -16 10.7782 3.77547   6
   4  -1  16 11.1378 3.09657   4
   4   1  16 10.4826 2.89592   4
  -4   1 -16 13.0630 3.32323   3
  -4   1 -16 17.4389 4.40358   6
  -5  -1 -16 53.5560 7.76227   6
   5  -1  16 44.0240 5.68720   4
  -5  -1 -16 41.2053 5.79914   3
  -5   1 -16 52.5436 7.19935   6
  -5   1 -16 35.9824 6.03609   3
   5   1  16 53.0966 5.91600   4
  -6  -1 -16 1.53906 1.93716   3
   6  -1  16 -1.9054 1.78615   4
   6   1  16 9.39763 2.92334   4
  -6   1 -16 4.04166 2.62238   3
   7  -2 -16 20.9136 3.55152   4
   7  -2 -16 21.4934 4.00652   5
   7   2 -16 22.2308 4.36683   5
   7   2 -16 14.9311 4.01905   4
   6  -2 -16 171.982 10.2329   4
   6  -2 -16 191.162 11.1636   5
  -6  -2  16 179.700 10.4746   3
   6   2 -16 184.585 11.9719   4
  -6   2  16 180.722 7.60449   3
   6   2 -16 167.166 11.1354   5
   5  -2 -16 193.747 10.6694   4
   5  -2 -16 197.897 10.7355   5
   5   2 -16 204.224 12.1606   4
   5   2 -16 188.470 10.8654   3
  -5   2  16 199.055 8.47032   3
  -4  -2  16 517.554 22.9560   3
   4  -2 -16 538.873 22.7637   4
   4  -2 -16 538.837 20.9918   3
   4  -2 -16 544.263 22.1161   5
   4   2 -16 492.338 23.1446   3
   4   2 -16 549.310 23.2090   5
   3  -2 -16 32.6560 2.45983   5
   3  -2 -16 29.5246 3.12611   4
  -3  -2  16 32.4404 3.64958   3
   3  -2 -16 29.6138 2.78921   3
   3   2 -16 28.7760 3.27270   5
   3   2 -16 23.1172 3.69974   3
  -2  -2  16 841.276 35.6583   3
   2  -2 -16 886.765 35.0244   4
   2  -2 -16 897.490 34.6546   3
   2   2 -16 845.259 36.0254   4
   2   2 -16 943.986 36.6160   3
   2   2 -16 870.561 34.5935   5
   1  -2 -16 7.09491 1.77736   4
  -1  -2  16 7.75138 1.18442   6
   1  -2 -16 7.12045 1.80660   3
   1  -2 -16 8.56720 1.75838   6
   1   2 -16 6.12527 2.17712   4
   1   2 -16 7.23172 2.07357   3
   0  -2  16 435.752 20.5128   3
   0  -2 -16 458.765 20.1825   4
   0  -2 -16 440.865 20.2775   6
   0  -2 -16 444.995 19.7156   3
   0   2 -16 448.907 20.6092   3
   0   2 -16 441.625 20.6277   4
   0   2 -16 442.504 19.4402   6
  -1  -2 -16 0.63695 1.23539   3
  -1  -2 -16 -2.0463 1.26430   4
  -1  -2 -16 -1.1770 1.15091   6
   1  -2  16 1.83196 1.64346   6
  -1   2 -16 0.58644 1.45098   6
  -1   2 -16 -1.6064 1.18781   3
  -1   2 -16 -1.2932 0.77936   5
  -2  -2 -16 14.9207 3.59321   6
  -2  -2 -16 7.59175 2.17035   3
  -2   2 -16 3.65631 2.42237   6
   2   2  16 10.0585 2.42087   4
  -2   2 -16 9.40684 2.13461   5
   2   2  16 12.2046 2.97313   6
  -2   2 -16 11.0599 2.74688   3
  -3  -2 -16 158.997 12.3242   6
  -3  -2 -16 181.141 9.43086   5
   3  -2  16 167.394 10.8079   4
  -3  -2 -16 181.529 11.2865   3
  -3   2 -16 180.463 12.6800   6
  -3   2 -16 162.858 9.93511   5
   3   2  16 177.144 11.1643   4
  -3   2 -16 175.796 11.3997   3
   4  -2  16 4.32022 1.96595   4
  -4  -2 -16 7.27483 2.94736   6
  -4  -2 -16 2.62568 1.78668   5
  -4  -2 -16 5.05024 2.20502   3
   4   2  16 3.15805 2.13205   4
  -4   2 -16 5.34504 2.93324   6
  -4   2 -16 6.87517 2.30472   3
  -5  -2 -16 3.36024 1.93431   3
   5  -2  16 1.28026 1.99777   4
  -5  -2 -16 -0.1752 3.15656   6
   5   2  16 -1.3290 1.78049   4
  -5   2 -16 -0.4401 2.99409   6
  -5   2 -16 -0.5692 1.31631   3
  -6  -2 -16 135.929 11.3260   3
   6  -2  16 135.804 11.1661   4
  -6  -2 -16 131.796 14.0314   6
  -6   2 -16 126.085 11.0786   3
   6   2  16 131.858 10.4192   4
   7  -3 -16 36.8184 5.11574   5
   7  -3 -16 36.8516 4.09644   4
   7   3 -16 37.1012 6.14308   4
   7   3 -16 39.7013 6.97888   5
   6  -3 -16 22.2967 3.72824   5
   6  -3 -16 20.4425 2.11222   6
   6  -3 -16 14.6267 2.78107   4
   6   3 -16 14.2062 3.59545   5
   6   3 -16 19.1934 4.19954   4
  -5  -3  16 5.29335 2.12534   3
   5  -3 -16 2.42604 1.59951   5
   5  -3 -16 3.92552 1.66308   4
   5   3 -16 8.51909 2.54371   5
   5   3 -16 0.38779 1.78441   4
   5   3 -16 4.68540 1.87052   3
   4  -3 -16 2.91044 1.18992   4
   4  -3 -16 3.45787 1.18328   5
  -4  -3  16 0.55196 1.63556   3
   4   3 -16 0.61249 1.48604   5
   4   3 -16 -2.5486 1.47965   3
   3  -3 -16 13.7802 1.54028   5
  -3  -3  16 10.3863 2.38469   3
   3  -3 -16 12.4822 2.04639   4
   3  -3 -16 12.3709 1.59847   3
   3   3 -16 12.7842 2.58146   5
   3   3 -16 14.3395 3.03490   3
   2  -3 -16 93.5105 5.41201   3
  -2  -3  16 89.7045 6.54357   3
   2  -3 -16 91.8429 5.04316   6
   2  -3 -16 96.2592 5.72360   4
   2  -3 -16 95.2155 5.31482   6
   2   3 -16 92.1055 7.07437   3
   2   3 -16 93.4444 6.06533   5
   1  -3 -16 2.74228 1.15442   3
   1  -3 -16 3.48999 1.17873   6
  -1  -3  16 3.34701 1.04196   6
   1  -3 -16 3.60924 1.28765   4
  -1  -3  16 4.80605 1.70398   3
   1   3 -16 1.62909 1.35270   4
   1   3 -16 4.15325 1.88829   3
   0  -3 -16 39.1163 3.67064   3
   0  -3 -16 39.0994 4.46708   6
   0  -3  16 34.8098 3.81165   6
   0  -3 -16 43.5664 4.08766   4
   0  -3  16 36.3265 3.94856   3
   0   3 -16 30.9026 3.49460   6
   0   3 -16 32.8998 4.06812   3
  -1  -3 -16 66.7843 5.50832   3
  -1  -3 -16 62.3128 6.10921   6
   1  -3  16 56.1782 5.73906   6
  -1   3 -16 59.1559 4.69381   5
  -1   3 -16 69.9258 6.11025   3
  -1   3 -16 59.1761 5.79557   6
   1   3  16 68.0144 5.31273   4
  -2  -3 -16 13.0716 3.05900   6
  -2  -3 -16 6.20951 2.71563   4
  -2  -3 -16 10.1333 1.59016   5
  -2  -3 -16 11.9782 2.61376   3
   2  -3  16 5.87904 2.82318   6
  -2   3 -16 5.91790 2.84127   6
   2   3  16 10.8906 2.57656   4
  -3  -3 -16 1.03764 1.85764   6
  -3  -3 -16 1.94176 1.36382   5
  -3   3 -16 -2.9042 2.15667   6
  -3   3 -16 2.68877 1.88005   3
  -4  -3 -16 13.4063 4.02888   6
  -4  -3 -16 11.2963 2.62792   5
   4  -3  16 4.50352 1.99942   4
  -4  -3 -16 9.47190 2.68225   3
  -4   3 -16 8.49498 2.74935   3
  -4   3 -16 9.76101 3.87632   6
   4   3  16 8.38639 2.92646   4
   5  -3  16 52.6258 6.56605   4
  -5  -3 -16 47.6731 6.65228   3
  -5  -3 -16 57.2782 8.22746   6
  -5   3 -16 52.6965 6.49478   3
  -5   3 -16 48.8187 7.71716   6
   5   3  16 55.0690 6.01655   4
   6  -3  16 10.8892 3.60269   4
  -6  -3 -16 12.2664 5.08105   6
  -6  -3 -16 10.3789 3.43732   3
  -6   3 -16 -0.5369 4.08688   6
  -6   3 -16 8.68651 3.37270   3
   6   3  16 15.0833 3.83762   4
   7  -4 -16 -0.7594 2.47387   5
   7  -4 -16 -1.3927 1.25553   4
   7   4 -16 -2.6160 2.43289   4
   7   4 -16 -0.6391 2.70360   5
   6  -4 -16 230.814 12.4622   4
   6  -4 -16 240.191 13.3083   5
   6   4 -16 240.013 14.2879   5
   5  -4 -16 11.9609 2.04683   6
   5  -4 -16 11.2841 1.80505   4
   5  -4 -16 18.7125 2.70541   5
   5   4 -16 12.2999 2.84421   3
   5   4 -16 7.74069 2.87402   4
   5   4 -16 6.76352 2.62640   5
   4  -4 -16 189.007 9.02685   4
  -4  -4  16 159.134 12.0478   3
   4  -4 -16 190.855 9.12819   6
   4  -4 -16 189.971 9.32719   5
   4   4 -16 201.296 11.6244   3
   4   4 -16 199.037 11.4221   5
   3  -4 -16 79.7919 4.01716   5
   3  -4 -16 76.9078 4.92672   6
  -3  -4  16 75.6552 6.31020   3
   3  -4 -16 83.2771 4.76008   6
   3   4 -16 76.4957 6.61912   3
   3   4 -16 78.8237 5.98465   5
   2  -4 -16 284.306 13.3943   6
  -2  -4  16 273.185 14.5971   3
   2  -4 -16 303.951 12.6142   3
   2  -4 -16 298.965 13.2374   6
   2  -4 -16 291.091 13.0681   4
   2   4 -16 311.201 15.6354   3
   2   4 -16 296.612 14.1821   5
   1  -4 -16 8.68937 1.78127   3
  -1  -4  16 9.78934 1.86456   6
   1  -4 -16 11.5693 2.27734   6
  -1  -4  16 9.01717 2.18565   3
   1  -4 -16 8.36596 1.80857   4
   1   4 -16 9.83383 2.79462   3
   1   4 -16 10.1393 2.28724   5
   0  -4 -16 306.795 15.5938   6
   0  -4 -16 296.704 14.3995   4
   0  -4 -16 297.820 14.1297   3
   0  -4  16 307.397 15.0634   6
   0   4 -16 286.613 14.2000   5
   0   4 -16 295.564 14.1203   6
   0   4 -16 301.947 15.8159   3
  -1  -4 -16 1.93813 1.41314   4
  -1  -4 -16 1.76091 1.71338   6
   1  -4  16 -0.5394 1.75036   6
  -1  -4 -16 2.99384 1.27118   3
   1   4  16 0.79225 1.04456   4
  -1   4 -16 1.57256 1.47514   3
  -1   4 -16 1.26591 1.52491   6
  -1   4 -16 0.09688 1.37034   5
   2  -4  16 111.525 9.29644   6
  -2  -4 -16 106.346 9.24682   6
  -2  -4 -16 105.708 8.15806   4
  -2  -4 -16 116.016 5.97517   5
  -2  -4 -16 110.590 7.99231   3
   2   4  16 120.099 7.82684   4
  -2   4 -16 118.263 9.03367   6
  -2   4 -16 108.873 7.40313   5
  -2   4 -16 99.7185 8.28743   3
  -3  -4 -16 5.88588 1.66872   5
  -3  -4 -16 3.39099 2.12268   3
  -3   4 -16 0.16215 2.15724   6
  -3   4 -16 5.20639 2.00947   3
  -4  -4 -16 63.8548 8.10695   6
  -4  -4 -16 67.1730 6.68195   3
  -4  -4 -16 61.4484 5.46426   5
  -4   4 -16 53.7412 6.28891   3
   4   4  16 59.5207 6.39623   4
  -4   4 -16 58.9391 7.53422   6
   5  -4  16 5.13953 2.51092   4
  -5  -4 -16 2.89393 3.32723   6
  -5  -4 -16 4.47339 2.24434   3
  -5   4 -16 5.41366 2.47037   3
   5   4  16 4.06932 2.32848   4
  -5   4 -16 9.49016 4.30515   6
   7  -5 -16 1.93625 2.18129   5
   7   5 -16 4.23086 3.19110   4
   7   5 -16 4.18320 2.86168   5
   6  -5 -16 47.3138 5.29603   6
   6  -5 -16 48.2366 5.41464   5
   6  -5 -16 52.2987 3.45120   4
   6   5 -16 57.6376 6.42775   5
   6   5 -16 52.1742 5.95979   3
   6   5 -16 66.8748 7.39216   4
   5  -5 -16 26.7322 2.07768   4
   5  -5 -16 26.7425 2.09960   4
   5  -5 -16 26.2190 3.42330   5
   5  -5 -16 23.2906 3.51828   6
   5   5 -16 32.0335 4.47551   5
   5   5 -16 21.8572 4.43991   4
   5   5 -16 29.9662 4.82931   3
   4  -5 -16 20.7450 2.59084   5
   4  -5 -16 26.9235 1.97263   4
   4  -5 -16 25.1551 1.94293   4
   4   5 -16 26.9558 4.00086   5
   4   5 -16 25.4849 4.31950   3
   3  -5 -16 128.925 8.93288   6
   3  -5 -16 122.463 5.72151   5
   3  -5 -16 123.853 5.88586   4
   3  -5 -16 126.028 5.91767   4
   3  -5 -16 125.339 6.99574   6
   3   5 -16 109.382 8.61043   3
   3   5 -16 131.407 8.41500   5
   2  -5 -16 84.9600 5.80417   6
  -2  -5  16 78.5037 4.77381   6
   2  -5 -16 85.9283 4.90418   4
   2  -5 -16 84.9642 4.41680   3
   2   5 -16 84.2081 7.11889   3
   2   5 -16 86.0125 6.26211   5
   1  -5 -16 646.565 26.5973   4
   1  -5 -16 660.528 26.3266   3
   1  -5 -16 673.216 28.2765   6
  -1  -5  16 606.272 29.0669   6
   1   5 -16 690.169 27.9792   5
   0  -5 -16 10.4370 2.70632   6
   0  -5  16 9.74960 2.93747   6
   0  -5 -16 11.8135 2.04286   3
   0  -5 -16 10.3432 2.12012   4
   0   5 -16 9.11077 2.19380   5
   0   5 -16 10.9435 3.04464   3
  -1  -5 -16 122.586 7.93594   4
   1  -5  16 117.564 9.11919   6
  -1  -5 -16 123.512 7.92393   3
  -1  -5 -16 110.321 8.95781   6
  -1   5 -16 94.7480 7.16799   5
   1   5  16 124.055 7.44763   4
  -1   5 -16 109.609 8.82372   3
  -1   5 -16 120.231 8.39298   6
  -2  -5 -16 22.3700 3.70887   3
   2  -5  16 22.4262 4.79297   6
  -2  -5 -16 26.1637 4.95838   6
  -2  -5 -16 22.7593 2.38444   5
  -2  -5 -16 26.8400 3.84483   4
  -2   5 -16 20.3715 3.92532   3
  -2   5 -16 17.0091 4.09818   6
   2   5  16 25.0446 3.44606   4
  -3  -5 -16 1.55573 1.56789   5
  -3  -5 -16 6.32883 2.01738   3
  -3  -5 -16 1.87724 2.16431   6
  -3   5 -16 5.18201 2.30738   3
   3   5  16 4.50038 2.52753   4
  -4  -5 -16 29.4151 5.92093   6
  -4  -5 -16 35.3122 4.59656   5
  -4   5 -16 28.5065 5.39941   3
   4   5  16 45.5253 5.33193   4
  -4   5 -16 30.9319 6.14795   6
  -5  -5 -16 46.4696 7.18362   6
   5   5  16 36.2744 5.25290   4
  -5   5 -16 22.9766 6.11562   6
   6  -6 -16 59.9844 6.87161   6
   6  -6 -16 73.5165 6.47007   5
   6   6 -16 80.7728 7.41638   5
   6   6 -16 78.5737 7.39149   3
   6   6 -16 77.1901 8.23404   4
   5  -6 -16 0.85520 2.36705   6
   5  -6 -16 1.90496 1.48208   5
   5   6 -16 0.96846 1.99751   5
   5   6 -16 2.36523 2.18834   3
   5   6 -16 2.46200 1.87414   4
   4  -6 -16 323.081 14.6682   5
   4  -6 -16 322.385 15.9607   6
   4   6 -16 309.471 17.3497   3
   4   6 -16 345.024 17.1689   5
  -3  -6  16 91.1252 4.84083   6
  -3  -6  16 87.5670 5.11328   6
   3  -6 -16 94.9010 6.69291   6
   3  -6 -16 95.5660 4.77529   5
   3   6 -16 85.8129 7.03083   5
   2  -6 -16 174.552 9.93359   6
   2  -6 -16 188.294 7.62009   3
   2  -6 -16 181.180 7.59843   3
   2  -6 -16 171.724 7.78745   4
  -2  -6  16 173.805 9.37310   6
   2   6 -16 186.106 12.1194   3
   2   6 -16 173.383 10.4717   5
   1  -6 -16 130.903 6.78418   3
  -1  -6  16 119.501 8.17441   6
   1  -6 -16 123.425 8.35406   6
   1   6 -16 130.298 8.39779   5
   1   6 -16 118.614 10.8189   3
   0  -6 -16 227.737 13.4565   6
   0  -6 -16 231.096 11.6218   3
   0  -6  16 233.148 13.2547   6
   0  -6 -16 234.382 11.7052   4
   0   6 -16 246.154 12.7072   5
   0   6 -16 226.254 13.7206   3
   1  -6  16 31.8190 7.65790   6
  -1  -6 -16 23.4955 4.34420   6
  -1  -6 -16 25.9665 3.46316   3
  -1  -6 -16 21.6023 3.29827   4
  -1   6 -16 27.0304 3.89213   6
  -1   6 -16 16.0604 3.82272   3
   1   6  16 24.4150 3.07274   4
  -2  -6 -16 3.85679 1.74002   4
  -2  -6 -16 0.69323 1.98020   6
  -2   6 -16 -1.6032 2.08347   6
  -2   6 -16 0.40070 1.34869   3
   2   6  16 1.57433 1.38352   4
  -3  -6 -16 4.08654 1.63947   5
  -3  -6 -16 -0.1411 2.39732   6
   3   6  16 4.37034 2.06820   4
  -3   6 -16 -1.3819 2.16817   6
  -3   6 -16 6.13635 2.67554   3
  -4  -6 -16 33.9320 6.62752   6
  -4   6 -16 25.1767 5.03294   3
   4   6  16 34.6741 4.54175   4
  -4   6 -16 21.2158 5.50658   6
  -5  -6 -16 25.9103 6.12542   6
  -5   6 -16 24.3969 5.58918   6
   5   6  16 20.9132 4.56339   4
  -5   6 -16 19.9381 4.58201   3
  -6  -7  16 -2.3634 1.76799   6
   6  -7 -16 -1.0077 1.58266   5
   6   7 -16 4.71114 3.24327   5
   6   7 -16 -2.9226 2.63980   4
   6   7 -16 -2.1674 2.25182   3
   5  -7 -16 95.6660 8.12066   6
  -5  -7  16 87.8491 5.58702   6
   5  -7 -16 102.441 7.10887   5
   5   7 -16 109.108 9.17668   3
   5   7 -16 95.4550 8.89811   4
   5   7 -16 110.135 8.90014   5
  -4  -7  16 79.8590 5.16771   6
   4  -7 -16 88.0976 5.78514   5
  -4  -7  16 70.1132 5.25409   6
   4  -7 -16 90.8739 7.01105   6
   4   7 -16 98.0475 8.57653   3
   4   7 -16 90.3699 7.51989   5
  -3  -7  16 391.567 17.6559   6
   3  -7 -16 425.907 19.8241   6
  -3  -7  16 388.866 17.9879   6
   3   7 -16 435.701 20.4792   5
   3   7 -16 449.597 21.8145   3
  -2  -7  16 60.8421 5.40317   6
   2  -7 -16 58.3100 5.20263   6
   2   7 -16 54.6067 6.32315   3
   2   7 -16 62.3166 5.87378   5
   1  -7 -16 117.686 6.55770   3
  -1  -7  16 115.325 8.32205   6
   1  -7 -16 118.517 6.38705   3
   1  -7 -16 119.844 6.12108   4
   1  -7 -16 118.059 8.35732   6
   1   7 -16 118.564 9.52678   3
   1   7 -16 119.171 8.43001   5
   0  -7 -16 45.6556 3.90322   4
   0  -7 -16 46.6356 5.28977   6
   0  -7  16 41.8971 5.69763   6
   0  -7 -16 41.5119 4.06615   3
   0   7 -16 38.0520 5.17726   3
   0   7 -16 35.5808 4.76117   5
  -1  -7 -16 29.6172 3.66019   4
  -1  -7 -16 35.6112 2.43854   5
  -1  -7 -16 31.5799 3.82654   3
   1  -7  16 26.4271 4.84704   6
  -1  -7 -16 37.7949 5.26930   6
   1   7  16 44.3145 3.87069   4
  -1   7 -16 36.0347 5.66092   3
  -2  -7 -16 25.3660 5.08343   6
  -2  -7 -16 24.8608 4.06090   4
  -2  -7 -16 31.9052 3.17094   5
  -2   7 -16 24.2161 4.67826   3
  -2   7 -16 32.1223 5.00764   6
   2   7  16 32.9890 3.84281   4
  -3  -7 -16 -2.0928 1.66319   5
  -3  -7 -16 3.11791 2.82731   6
  -3   7 -16 1.10935 2.39419   6
  -3   7 -16 5.13343 2.32717   3
  -4  -7 -16 98.0533 10.8089   6
   4   7  16 95.7759 8.26028   4
  -4   7 -16 110.982 9.34822   3
  -4   7 -16 82.2003 9.56132   6
  -5  -7 -16 15.7149 5.32335   6
   5   7  16 12.7323 3.83199   4
  -5   7 -16 13.5437 4.46354   3
   6  -8 -16 40.0355 5.24461   5
   6   8 -16 32.8816 6.72418   4
   6   8 -16 33.3638 6.05131   3
   6   8 -16 49.9467 6.52436   5
  -5  -8  16 -0.5375 1.65115   6
  -5  -8  16 0.30383 3.19925   6
   5  -8 -16 -0.1732 1.73431   5
   5   8 -16 -0.7252 1.75627   3
   5   8 -16 -0.9876 2.09921   5
   5   8 -16 6.44457 2.64200   4
  -4  -8  16 34.6662 3.94722   6
  -4  -8  16 38.4177 4.46597   6
   4  -8 -16 40.4106 6.20128   6
   4  -8 -16 45.1870 4.10570   5
   4   8 -16 42.1759 6.08996   3
   4   8 -16 46.3657 5.54285   5
  -3  -8  16 63.7660 5.78851   6
   3  -8 -16 64.8080 4.38625   5
  -3  -8  16 65.1999 5.83966   6
   3  -8 -16 64.6794 7.60125   6
   3   8 -16 73.8389 6.77891   5
   3   8 -16 55.6951 6.65107   3
   2  -8 -16 29.0368 2.15369   5
   2  -8 -16 27.7812 2.13210   5
  -2  -8  16 23.6574 4.12099   6
   2  -8 -16 27.4297 3.77856   6
   2   8 -16 20.8731 4.63788   3
   2   8 -16 24.9718 4.36909   5
   1  -8 -16 12.1078 2.89900   6
  -1  -8  16 13.0801 3.28719   6
   1  -8 -16 12.5040 1.89984   3
   1  -8 -16 9.10919 1.65009   3
   1  -8 -16 11.9216 1.37252   4
   1   8 -16 11.4219 3.10087   5
   1   8 -16 11.2402 3.35568   3
   0  -8  16 33.9728 5.70291   6
   0  -8 -16 34.8389 3.80388   3
   0  -8 -16 37.4681 2.18038   5
   0  -8 -16 32.5192 2.08659   5
   0  -8 -16 31.7318 3.27354   4
   0  -8 -16 39.9873 5.08476   6
   0  -8 -16 27.4089 3.53391   3
   0   8 -16 35.6502 5.99415   3
   0   8 -16 33.0487 4.72800   5
  -1  -8 -16 57.5232 5.13794   4
  -1  -8 -16 58.8304 5.57655   3
  -1  -8 -16 62.8516 3.99989   5
   1   8  16 69.4448 4.93049   4
  -1   8 -16 57.7810 6.19278   5
  -1   8 -16 57.2766 6.42432   3
  -2  -8 -16 68.4337 4.78509   5
  -2  -8 -16 66.8356 5.97493   4
  -2  -8 -16 61.6464 7.38459   6
  -2   8 -16 55.6831 6.72332   3
   2   8  16 73.0617 5.90148   4
  -3  -8 -16 72.5088 8.49487   6
  -3   8 -16 55.7422 6.92189   3
   3   8  16 74.9588 6.23493   4
  -3   8 -16 61.7619 7.19173   6
  -4  -8 -16 4.64447 3.28707   6
   4   8  16 2.56167 1.90916   4
  -4   8 -16 -0.9994 3.03777   6
  -5  -9  16 118.129 8.63199   6
   5  -9 -16 151.214 9.18954   5
   5   9 -16 136.017 11.4676   4
   5   9 -16 140.660 10.9095   5
   5   9 -16 139.043 11.3471   3
  -4  -9  16 4.15920 1.91856   6
   4  -9 -16 6.36801 1.85532   5
  -4  -9  16 -1.6536 2.61613   6
   4   9 -16 0.18527 1.83086   5
   4   9 -16 1.07024 2.76203   3
  -3  -9  16 124.398 9.03392   6
   3  -9 -16 121.654 11.5587   6
   3  -9 -16 140.914 7.65537   5
   3   9 -16 142.819 11.3271   3
   3   9 -16 158.009 10.4698   5
   2  -9 -16 11.9676 2.09179   5
   2  -9 -16 10.5429 1.89868   5
  -2  -9  16 10.9132 3.24493   6
   2   9 -16 17.3184 3.75321   5
   2   9 -16 13.9411 3.66750   3
  -1  -9  16 139.064 15.2893   6
   1  -9 -16 149.139 6.98316   5
   1  -9 -16 158.961 7.16128   5
   1  -9 -16 134.656 10.1506   6
   1  -9 -16 155.974 7.87486   3
   1  -9 -16 152.789 7.63017   3
   1   9 -16 140.815 11.0215   3
   1   9 -16 161.928 10.6405   5
   0  -9  16 43.0320 6.74983   6
   0  -9 -16 60.0332 4.12136   4
   0  -9 -16 49.0743 4.74186   3
   0  -9 -16 58.5260 3.67395   5
   0   9 -16 58.9741 6.15686   5
   0   9 -16 53.4327 6.68116   3
  -1  -9 -16 61.4783 6.81174   6
  -1  -9 -16 56.7227 4.16780   5
  -1  -9 -16 57.6190 4.72491   4
  -1  -9 -16 58.1485 5.57657   3
   1   9  16 45.4651 4.20389   4
  -1   9 -16 42.1711 6.17429   3
  -1   9 -16 44.5043 5.79831   5
  -2  -9 -16 41.5825 6.11181   6
  -2  -9 -16 49.0236 4.30898   5
  -2   9 -16 39.9802 5.50804   5
  -2   9 -16 49.0267 6.52608   3
   2   9  16 42.8340 4.49322   4
  -3  -9 -16 8.30506 2.68933   5
  -3  -9 -16 5.63956 3.81910   6
  -3   9 -16 9.34911 3.82623   3
   3   9  16 7.96974 2.29012   4
   4   9  16 52.3393 6.09792   4
  -4   9 -16 32.8383 6.37372   3
  -4   9 -16 42.9466 7.98503   6
  -4 -10  16 76.2193 6.80092   6
   4  10 -16 78.5129 8.73859   3
  -3 -10  16 17.0024 6.03873   6
   3  10 -16 10.8618 3.88760   3
   3  10 -16 15.8529 3.96824   5
   2 -10 -16 32.6508 3.29188   5
  -2 -10  16 24.3927 5.26220   6
   2 -10 -16 32.6744 3.19045   5
   2  10 -16 34.3942 5.03047   5
   2  10 -16 24.8817 5.35382   3
   1 -10 -16 42.8729 3.92466   5
   1 -10 -16 32.5880 5.03338   6
   1 -10 -16 39.3494 3.49999   5
  -1 -10  16 38.5959 6.24370   6
   1 -10 -16 42.5607 3.78481   3
   1 -10 -16 45.5246 3.46442   3
   1  10 -16 40.6116 6.61437   3
   1  10 -16 43.5969 5.41581   5
   0 -10 -16 23.4444 2.65807   5
   0 -10 -16 26.4053 3.47919   3
   0 -10 -16 32.7308 4.86444   6
   0 -10 -16 16.3660 2.43092   5
   0  10 -16 29.2869 5.30831   3
   0  10 -16 27.1033 4.67723   5
  -1 -10 -16 45.1886 4.19411   4
  -1 -10 -16 31.5919 5.84083   6
  -1 -10 -16 41.9428 3.74952   5
  -1  10 -16 32.0092 6.09940   3
  -1  10 -16 33.0827 5.53979   5
   1  10  16 37.2159 3.72031   4
  -2 -10 -16 1.62436 1.75192   6
  -2  10 -16 -0.5767 2.61280   5
  -2  10 -16 -2.2463 2.19866   3
   2  10  16 -0.9825 1.49593   4
  -3 -10 -16 144.570 13.3931   6
   3  10  16 151.409 10.0542   4
  -3  10 -16 144.657 11.8492   3
  -3  10 -16 145.049 11.1980   5
   4 -11 -16 24.5495 3.87536   5
  -4 -11  16 19.8721 4.05120   6
   4  11 -16 24.5757 5.44722   3
   4  11 -16 15.4825 4.52649   5
   3 -11 -16 7.71062 2.05581   5
   3  11 -16 9.46522 3.13173   5
   2 -11 -16 1.96224 1.73581   5
   2 -11 -16 1.55689 1.24526   5
   2  11 -16 2.48834 2.67224   5
   2  11 -16 -0.1708 2.01606   3
   1 -11 -16 91.1634 5.62535   3
   1 -11 -16 82.9544 5.54679   5
   1 -11 -16 85.4331 5.55861   5
   1 -11 -16 84.0037 7.95175   6
   1  11 -16 80.4619 8.84841   3
   1  11 -16 84.5898 8.04534   5
   0 -11 -16 25.5030 3.09337   5
   0 -11 -16 24.1496 4.73069   6
   0  11 -16 27.0458 5.66729   3
   0  11 -16 21.1819 4.39841   5
  -1 -11 -16 284.275 18.1718   6
  -1 -11 -16 252.894 13.5094   5
   1  11  16 287.453 13.0270   4
  -2 -11 -16 21.2871 5.08768   6
   2  11  16 17.0807 3.20949   4
  -2  11 -16 15.5769 4.23898   5
  -2  11 -16 16.9226 4.79972   3
   2  12 -16 91.6017 9.36330   3
   2  12 -16 86.8294 8.69300   5
   1 -12 -16 425.314 18.7880   5
   1  12 -16 419.890 22.1076   5
   1  12 -16 380.544 23.0668   3
   0 -12 -16 3.22909 1.85909   5
   0 -12 -16 4.61354 2.40824   6
   0  12 -16 0.26878 3.06039   3
   0  12 -16 7.87523 3.30578   5
  -1 -12 -16 293.693 19.5068   6
  -1  12 -16 286.946 17.4552   5
   1  12  16 314.684 13.8162   4
  -1  12 -16 301.960 19.0738   3
   7   0 -17 0.70331 1.76917   4
   7   0 -17 1.97529 2.32411   5
  -6   0  17 -1.3867 1.49301   3
   6   0 -17 -1.8370 1.40942   5
   6   0 -17 -0.2541 1.54254   4
  -5   0  17 2.15929 1.46065   3
   5   0 -17 -0.7309 1.03444   5
   5   0 -17 1.46161 1.51992   4
   4   0 -17 -1.4764 1.13065   3
   4   0 -17 1.69808 1.26470   5
  -4   0  17 0.12148 1.19989   3
  -3   0  17 3.22540 1.51815   3
   3   0 -17 0.82717 1.18879   5
   3   0 -17 1.79830 1.52245   4
   3   0 -17 0.38339 1.11867   3
  -2   0  17 0.16866 1.18621   3
   2   0 -17 -0.1689 1.54674   3
   2   0 -17 4.08706 1.68791   4
   1   0 -17 1.69750 0.83048   6
   1   0 -17 0.37260 1.37855   4
   1   0 -17 0.17735 1.52318   3
   0   0 -17 1.23394 1.32150   3
   0   0 -17 -1.1733 1.14778   6
  -1   0 -17 -0.3604 1.21966   3
   1   0  17 1.08738 1.45067   6
  -1   0 -17 -0.4519 1.26395   6
  -1   0 -17 0.71026 0.83218   5
  -2   0 -17 0.66579 0.99244   5
  -2   0 -17 -1.2827 1.33374   6
   2   0  17 0.27666 1.58654   6
  -2   0 -17 0.78177 1.42846   3
  -3   0 -17 -0.6775 2.05265   6
  -3   0 -17 -0.3625 1.25025   3
   3   0  17 3.17098 1.87142   4
  -4   0 -17 -3.2589 2.21872   6
  -4   0 -17 -1.7661 1.71577   3
   4   0  17 -0.8926 1.64548   4
  -5   0 -17 1.37731 1.62498   3
  -5   0 -17 -2.3873 2.20938   6
   5   0  17 1.02570 2.08787   4
   7  -1 -17 13.3498 3.21774   5
   7   1 -17 11.2909 3.17852   4
   7   1 -17 7.23761 3.07572   5
   6  -1 -17 66.1919 6.00684   4
  -6  -1  17 69.8009 5.68297   3
   6  -1 -17 64.1330 5.85766   5
   6   1 -17 72.8282 6.74822   4
   6   1 -17 64.7817 6.19953   5
  -5  -1  17 6.60281 2.23598   3
   5  -1 -17 1.90144 1.84178   4
   5  -1 -17 2.83924 1.77457   5
  -5   1  17 6.53224 1.89523   3
   5   1 -17 7.98684 2.28418   4
   5   1 -17 5.16407 1.93400   3
   4  -1 -17 341.521 15.2420   3
   4  -1 -17 343.417 15.6341   5
  -4  -1  17 348.552 16.0916   3
  -4   1  17 351.843 15.2347   3
   4   1 -17 359.316 16.5321   3
   4   1 -17 359.230 16.3173   5
  -3  -1  17 15.0989 2.64252   3
   3  -1 -17 16.7976 2.80101   4
   3   1 -17 14.2963 2.34710   5
  -3   1  17 10.8300 2.20520   3
   3   1 -17 16.8772 2.96694   3
  -2  -1  17 494.008 22.3709   3
   2  -1 -17 520.046 22.2952   4
   2  -1 -17 539.145 22.0964   3
   2   1 -17 513.278 22.7659   3
   2   1 -17 504.408 22.6833   4
   2   1 -17 524.219 21.0699   5
   1  -1 -17 89.4305 5.21772   6
   1  -1 -17 94.1523 6.39017   4
   1  -1 -17 86.8786 6.08033   3
  -1  -1  17 85.9240 7.72060   3
   1   1 -17 91.3386 6.57535   3
   1   1 -17 100.412 6.82262   4
   1   1 -17 89.1982 4.41441   6
   0  -1 -17 148.349 8.96686   3
   0  -1 -17 147.699 8.96078   6
   0  -1 -17 155.048 9.21727   4
   0  -1  17 155.735 9.19776   6
   0   1 -17 147.632 8.54547   6
   0   1 -17 151.005 9.46685   4
   0   1 -17 145.472 9.18778   3
  -1  -1 -17 110.570 7.76321   3
  -1  -1 -17 107.081 7.92335   4
  -1  -1 -17 121.272 8.69020   6
  -1  -1 -17 111.360 5.69603   5
   1  -1  17 116.213 7.85609   6
  -1   1 -17 124.507 8.30375   3
  -1   1 -17 114.397 8.19998   6
  -1   1 -17 104.977 6.27180   5
  -2  -1 -17 3.10449 2.05874   6
   2  -1  17 5.31374 2.45406   6
  -2  -1 -17 6.31979 1.55476   5
  -2  -1 -17 6.78573 2.20736   3
   2   1  17 5.47156 1.98565   4
   2   1  17 5.20542 2.15559   6
  -2   1 -17 3.38508 2.25485   6
  -2   1 -17 3.77274 1.68059   5
  -3  -1 -17 180.833 13.2065   6
  -3  -1 -17 187.967 10.1367   5
   3  -1  17 182.963 11.5934   4
  -3  -1 -17 183.903 11.8675   3
  -3   1 -17 173.641 11.7827   3
  -3   1 -17 174.670 12.8519   6
  -3   1 -17 195.166 10.6807   5
   3   1  17 196.426 11.7048   4
   4  -1  17 13.8093 3.53301   4
  -4  -1 -17 9.19654 4.29940   6
  -4  -1 -17 13.3522 3.56034   3
  -4   1 -17 9.78576 2.92571   3
  -4   1 -17 9.17298 3.79216   6
   4   1  17 19.4724 3.85497   4
   5  -1  17 1.57027 2.17997   4
  -5  -1 -17 1.31365 2.59125   3
  -5  -1 -17 7.92021 3.53051   6
   5   1  17 4.56107 2.29626   4
  -5   1 -17 3.72214 3.96979   6
  -5   1 -17 0.72749 2.27512   3
   7  -2 -17 56.0805 6.71729   5
   7  -2 -17 60.3830 5.62856   4
   7   2 -17 58.0043 6.85747   4
   7   2 -17 53.3230 7.62473   5
  -6  -2  17 1.51512 2.33497   3
   6  -2 -17 -2.0156 1.57322   5
   6  -2 -17 -3.0215 1.46255   4
   6   2 -17 3.14351 2.06941   4
   6   2 -17 -0.2826 1.73883   5
  -5  -2  17 240.540 12.7531   3
   5  -2 -17 252.582 12.9005   4
   5  -2 -17 262.268 12.9634   5
   5   2 -17 257.694 13.2620   3
   5   2 -17 234.972 13.2879   5
  -4  -2  17 20.5891 3.84717   3
   4  -2 -17 23.7548 2.22127   3
   4  -2 -17 21.8890 2.75804   5
   4  -2 -17 24.3323 2.96604   4
   4  -2 -17 21.6775 2.80704   4
   4   2 -17 20.5393 3.42624   5
   4   2 -17 22.1568 3.56893   3
   3  -2 -17 11.0251 1.95958   3
   3  -2 -17 16.5177 1.88727   5
  -3  -2  17 11.4654 2.56697   3
   3  -2 -17 12.1359 2.14705   4
   3   2 -17 15.7911 3.10506   3
   3   2 -17 19.2829 2.84096   5
   2  -2 -17 110.519 6.81336   4
   2   2 -17 105.062 7.25348   4
   2   2 -17 117.585 7.92884   3
   2   2 -17 107.289 6.43675   5
  -1  -2  17 80.9339 6.11840   3
   1  -2 -17 81.4436 5.63240   3
   1  -2 -17 90.5103 6.09893   4
   1  -2 -17 85.1479 5.45854   6
   1   2 -17 80.3816 6.39212   4
   1   2 -17 85.0252 6.58582   3
   0  -2 -17 128.106 8.53210   6
   0  -2  17 125.372 7.46533   6
   0  -2 -17 129.880 7.93524   3
   0  -2  17 113.390 8.08817   3
   0  -2 -17 122.809 8.13886   4
   0   2 -17 143.469 8.83388   3
   0   2 -17 118.864 7.48494   6
  -1  -2 -17 90.8598 4.51877   5
  -1  -2 -17 102.095 7.22497   3
  -1  -2 -17 91.3857 7.07716   4
   1  -2  17 103.602 7.49463   6
  -1  -2 -17 95.6367 7.71766   6
  -1   2 -17 95.5125 7.39148   3
  -1   2 -17 94.3134 7.35692   6
  -1   2 -17 89.7180 5.92902   5
  -2  -2 -17 238.325 11.9271   5
  -2  -2 -17 240.555 14.8604   6
   2  -2  17 241.433 14.4213   6
  -2  -2 -17 246.959 13.6451   3
   2   2  17 256.542 13.3804   4
  -2   2 -17 228.908 13.6934   3
  -2   2 -17 237.602 14.5024   6
  -2   2 -17 231.232 12.0846   5
  -3  -2 -17 1.48452 1.41817   3
  -3  -2 -17 0.20463 1.26629   5
  -3  -2 -17 7.68072 2.98941   6
  -3   2 -17 1.56054 1.68606   3
  -3   2 -17 2.94943 2.73175   6
  -3   2 -17 -0.3008 1.74153   5
   3   2  17 0.14788 1.84597   4
  -4  -2 -17 1.09920 1.62392   3
   4  -2  17 -0.9550 1.68791   4
  -4  -2 -17 -3.0664 2.54134   6
  -4   2 -17 -0.7231 1.14704   3
   4   2  17 1.19582 1.96811   4
  -4   2 -17 2.52197 2.55775   6
   5  -2  17 0.78589 1.82964   4
  -5  -2 -17 0.10206 2.02288   3
  -5  -2 -17 -2.0872 2.56286   6
  -5   2 -17 -5.9205 2.51800   6
   5   2  17 3.79344 2.10142   4
  -5   2 -17 2.01295 2.37157   3
   7  -3 -17 0.35777 2.11569   5
   7  -3 -17 -1.1369 1.78112   4
   7   3 -17 -1.6162 2.39879   4
   7   3 -17 1.02630 2.78869   5
   6  -3 -17 38.9560 4.16383   4
   6  -3 -17 50.1047 5.09807   5
   6   3 -17 46.0399 5.49782   5
   6   3 -17 55.1731 6.38820   4
   5  -3 -17 103.135 6.91093   5
   5  -3 -17 94.0516 6.42689   4
  -5  -3  17 82.6584 7.38600   3
   5   3 -17 107.133 7.65708   3
   5   3 -17 108.716 8.67074   4
   5   3 -17 111.967 7.91541   5
   4  -3 -17 181.257 9.26641   4
   4  -3 -17 199.809 9.41381   5
  -4  -3  17 182.751 10.6185   3
   4  -3 -17 181.457 9.53642   4
   4   3 -17 184.412 11.0450   3
   4   3 -17 193.800 10.7681   5
   3  -3 -17 703.397 26.7014   3
   3  -3 -17 693.172 26.2463   5
   3  -3 -17 674.014 27.5708   4
  -3  -3  17 641.889 28.9109   3
   3   3 -17 709.307 30.0004   3
   3   3 -17 686.538 28.6221   5
   2  -3 -17 150.401 7.34880   6
   2  -3 -17 150.191 8.12943   4
   2  -3 -17 148.418 7.73880   3
  -2  -3  17 129.904 8.75817   3
   2  -3 -17 148.658 7.05430   6
   2   3 -17 157.959 9.84543   3
   2   3 -17 155.383 8.44824   5
   1  -3 -17 647.063 26.5607   6
   1  -3 -17 652.398 26.1340   3
  -1  -3  17 615.460 24.6747   6
  -1  -3  17 616.068 27.4147   3
   1  -3 -17 607.722 26.3513   4
   1   3 -17 651.737 28.0345   3
   0  -3 -17 96.2178 7.42760   6
   0  -3  17 106.571 7.01357   6
   0  -3 -17 101.944 7.04845   4
   0  -3 -17 117.567 7.21712   3
   0   3 -17 105.729 6.72592   6
   0   3 -17 109.385 7.97186   3
   1  -3  17 187.962 11.4886   6
  -1  -3 -17 192.534 12.0282   6
  -1  -3 -17 189.969 11.1320   4
  -1  -3 -17 192.026 10.7748   3
  -1   3 -17 195.051 11.3895   6
  -1   3 -17 179.211 11.3407   3
  -1   3 -17 169.423 9.74097   5
  -2  -3 -17 13.7762 2.19344   5
  -2  -3 -17 10.5345 2.61379   3
   2  -3  17 11.9999 3.21796   6
  -2  -3 -17 7.61903 3.11435   6
  -2   3 -17 11.1961 2.36763   5
  -2   3 -17 13.0876 3.66455   6
   2   3  17 12.0086 2.86427   4
  -2   3 -17 6.53754 2.68840   3
  -3  -3 -17 10.4349 2.20266   5
  -3  -3 -17 7.03851 2.37347   3
  -3   3 -17 12.7977 3.11411   3
  -3   3 -17 9.19193 3.28269   6
   3   3  17 9.11534 2.88406   4
  -4  -3 -17 10.4271 3.49083   6
  -4  -3 -17 11.6478 3.07686   3
   4  -3  17 9.47640 3.04263   4
   4   3  17 9.24780 2.62167   4
  -4   3 -17 14.3962 3.74043   3
  -4   3 -17 6.79984 3.15054   6
  -5  -3 -17 -0.5866 3.44255   6
  -5  -3 -17 2.89840 2.17441   3
   5   3  17 -3.8166 1.81926   4
  -5   3 -17 5.34958 3.11030   6
   6  -4 -17 19.6608 3.59643   5
   6  -4 -17 22.2709 2.91377   4
   6  -4 -17 17.3228 2.30922   6
   6   4 -17 18.7850 4.00410   5
   6   4 -17 16.0025 4.03099   4
   5  -4 -17 11.8188 1.62622   6
   5  -4 -17 11.3576 1.83890   4
   5  -4 -17 10.8801 2.45539   5
   5  -4 -17 11.9327 1.91493   4
   5   4 -17 13.4108 3.14063   5
   5   4 -17 10.2390 3.01499   3
   5   4 -17 5.02130 2.73624   4
   4  -4 -17 6.16132 1.86790   4
   4  -4 -17 9.66559 1.76409   4
   4  -4 -17 12.9709 1.65582   6
   4  -4 -17 9.69213 1.80700   5
   4  -4 -17 11.3930 1.31485   6
   4   4 -17 10.9946 3.07110   3
   4   4 -17 15.3047 3.72345   5
   3  -4 -17 160.818 7.67582   6
   3  -4 -17 165.364 7.01153   5
   3  -4 -17 161.124 7.99702   4
   3  -4 -17 163.272 6.64773   3
   3  -4 -17 142.549 7.63753   6
   3   4 -17 160.261 10.4537   3
   3   4 -17 163.672 9.48513   5
   2  -4 -17 4.90208 1.42731   6
   2  -4 -17 4.51064 1.54684   4
   2  -4 -17 4.90354 1.58095   6
   2  -4 -17 3.53544 1.20397   3
   2   4 -17 4.24040 2.45313   3
   2   4 -17 4.69474 2.00294   5
  -1  -4  17 140.778 7.63183   6
   1  -4 -17 142.633 8.18575   4
   1  -4 -17 146.582 8.82589   6
   1  -4 -17 151.760 8.03350   3
   1   4 -17 153.006 9.94580   3
   1   4 -17 156.037 8.76719   5
   0  -4  17 22.6194 3.61836   6
   0  -4 -17 30.7587 3.92202   6
   0  -4 -17 29.7289 3.45048   4
   0  -4 -17 26.0933 3.13896   3
   0   4 -17 29.6970 4.16289   3
   0   4 -17 26.7069 3.22989   5
   0   4 -17 15.6792 3.80306   6
  -1  -4 -17 12.9186 3.53797   6
  -1  -4 -17 18.4197 3.29122   4
   1  -4  17 19.7051 3.97303   6
  -1  -4 -17 20.4302 3.36941   3
  -1   4 -17 20.2690 3.79738   3
   1   4  17 25.0658 3.29999   4
  -1   4 -17 22.0493 3.29896   5
  -1   4 -17 29.9264 4.11551   6
  -2  -4 -17 27.5201 2.68823   5
  -2  -4 -17 33.0868 4.35576   3
  -2  -4 -17 36.4021 5.24290   6
  -2   4 -17 20.7261 4.24304   6
   2   4  17 25.5886 4.06740   4
  -2   4 -17 23.4759 4.27446   3
  -3  -4 -17 3.16063 2.54218   6
  -3  -4 -17 2.45312 1.53191   5
  -3  -4 -17 0.92685 1.55472   3
   3   4  17 3.59803 1.74787   4
  -3   4 -17 -1.0657 1.37343   3
  -4  -4 -17 51.1047 6.39236   3
  -4  -4 -17 38.5734 6.86385   6
   4   4  17 49.1297 5.81546   4
  -4   4 -17 42.5557 5.79135   3
  -4   4 -17 45.6460 6.74317   6
   5  -4  17 3.99864 2.34934   4
  -5  -4 -17 1.06554 2.76219   6
  -5   4 -17 1.14723 3.89219   6
  -5   4 -17 -0.0988 1.81375   3
   5   4  17 4.38358 2.63750   4
   6  -5 -17 12.4491 1.73347   4
   6  -5 -17 14.6369 3.03267   5
   6   5 -17 6.91856 3.48024   4
   6   5 -17 14.5130 3.45504   5
   6   5 -17 17.1822 3.58279   3
   5  -5 -17 74.2426 4.06058   4
   5  -5 -17 78.5061 5.80843   5
   5  -5 -17 73.9426 3.99721   4
   5   5 -17 70.7070 7.20038   4
   5   5 -17 85.8429 7.48635   3
   5   5 -17 82.0438 7.21693   5
   4  -5 -17 51.7092 4.47142   6
   4  -5 -17 54.9055 3.14994   4
   4  -5 -17 52.6429 4.00547   5
   4  -5 -17 54.3509 3.20516   4
   4   5 -17 56.2906 5.56701   5
   3  -5 -17 95.2270 4.90671   4
   3  -5 -17 93.9090 4.92299   4
   3  -5 -17 89.4334 4.50247   5
   3  -5 -17 94.7827 5.73614   6
   3   5 -17 94.3556 7.93457   3
   2  -5 -17 60.2694 4.71088   6
   2  -5 -17 62.5240 3.76888   3
   2  -5 -17 61.1271 4.79125   6
  -2  -5  17 57.7411 3.43546   6
   2   5 -17 60.8698 5.47963   5
   2   5 -17 68.9727 6.52889   3
  -1  -5  17 321.893 18.0115   6
   1  -5 -17 363.910 17.6551   6
   1  -5 -17 377.938 16.4331   4
   1   5 -17 405.500 17.7273   5
   0  -5 -17 -0.9330 1.34559   6
   0  -5 -17 -0.3446 1.09006   4
   0  -5 -17 0.62002 0.92216   3
   0  -5  17 -1.9521 1.91861   6
   0   5 -17 -0.3968 1.30943   3
   0   5 -17 0.53934 1.27616   5
  -1  -5 -17 279.935 14.4923   3
  -1  -5 -17 281.477 14.6854   4
  -1  -5 -17 287.790 16.4634   6
   1  -5  17 274.590 16.1121   6
  -1   5 -17 293.782 15.9965   3
  -1   5 -17 269.238 15.7582   5
   1   5  17 304.489 14.1681   4
  -1   5 -17 278.622 15.0331   6
  -2  -5 -17 53.0789 6.31513   6
   2  -5  17 41.5680 8.24521   6
  -2  -5 -17 47.5909 5.18999   3
  -2  -5 -17 48.8869 3.56567   5
   2   5  17 50.0453 5.00402   4
  -2   5 -17 49.0235 5.58968   3
  -2   5 -17 43.4782 5.60641   6
  -3  -5 -17 66.4946 8.20295   6
  -3  -5 -17 76.1553 6.94551   3
  -3  -5 -17 74.3618 5.46700   5
  -3   5 -17 69.3628 7.21505   3
   3   5  17 80.3163 6.76144   4
  -3   5 -17 67.4401 7.52897   6
  -4  -5 -17 19.7349 3.88711   3
  -4  -5 -17 24.5158 5.78099   6
  -4   5 -17 16.6693 4.05268   3
   4   5  17 21.0498 4.15411   4
  -4   5 -17 20.2777 4.92024   6
  -5  -5 -17 5.68607 4.32644   6
  -5   5 -17 8.16493 4.27736   6
  -5   5 -17 5.57510 3.05194   3
   5   5  17 5.28591 2.58393   4
   6  -6 -17 3.36888 1.93523   5
   6   6 -17 3.71523 2.89676   3
   6   6 -17 2.69468 2.99749   4
   5  -6 -17 137.603 9.11271   6
   5  -6 -17 147.725 8.82737   5
   5   6 -17 152.021 11.3733   4
   5   6 -17 143.021 10.4341   5
   5   6 -17 156.595 10.7539   3
   4  -6 -17 -1.3257 1.90517   6
   4  -6 -17 2.41879 1.44713   5
   4   6 -17 6.37177 2.40723   5
   4   6 -17 3.58308 2.23957   3
   3  -6 -17 62.6330 3.60362   5
   3  -6 -17 65.7213 5.70551   6
   3  -6 -17 68.0237 5.47582   6
   3   6 -17 68.4968 6.19536   5
   3   6 -17 61.1590 6.73872   3
   2  -6 -17 9.11861 2.14671   6
   2  -6 -17 9.29690 1.33771   3
  -2  -6  17 8.44162 1.97169   6
   2  -6 -17 9.10865 1.43978   4
   2  -6 -17 10.3600 1.39764   3
   2   6 -17 10.1323 3.19624   3
  -1  -6  17 30.8603 4.34339   6
   1  -6 -17 28.7818 3.34188   3
   1  -6 -17 28.5023 3.07023   4
   1  -6 -17 35.1121 4.04934   6
   1   6 -17 29.4430 4.82612   3
   1   6 -17 28.8481 4.07114   5
   0  -6 -17 15.4245 2.61640   3
   0  -6  17 16.4076 3.65939   6
   0  -6 -17 13.6671 3.09392   6
   0  -6 -17 11.1866 2.34021   4
   0   6 -17 14.8706 3.61372   3
  -1  -6 -17 27.4532 3.56502   3
   1  -6  17 17.0860 4.28311   6
  -1   6 -17 24.2924 4.29031   6
  -1   6 -17 22.0918 4.41159   3
   1   6  17 24.8065 3.26953   4
  -2  -6 -17 72.7749 6.63809   3
  -2   6 -17 76.3111 7.48659   3
  -2   6 -17 65.1578 7.02114   6
   2   6  17 78.8274 6.23955   4
  -3  -6 -17 6.23624 2.24913   3
  -3  -6 -17 7.05560 3.16842   6
  -3  -6 -17 1.63362 1.58805   5
  -3   6 -17 6.10674 2.38624   3
  -3   6 -17 6.46378 3.10657   6
   3   6  17 3.74255 1.94564   4
  -4  -6 -17 77.1381 9.51165   6
  -4   6 -17 71.1267 8.72041   6
   4   6  17 79.6088 7.17445   4
  -4   6 -17 63.6806 7.33562   3
  -5  -6 -17 0.41824 1.79228   3
  -5  -6 -17 8.06884 4.23496   6
  -5   6 -17 -0.8692 2.27792   3
   5   6  17 -6.0147 2.63795   4
   6  -7 -17 13.5821 3.31295   5
   6   7 -17 12.8752 4.04963   4
   6   7 -17 10.0119 3.63287   5
   6   7 -17 14.9068 4.10717   3
   5  -7 -17 51.4194 5.78188   6
   5  -7 -17 59.4028 5.92283   5
   5   7 -17 52.7675 6.88840   4
   5   7 -17 52.6787 6.24822   3
   5   7 -17 56.2568 6.53360   5
   4  -7 -17 0.17225 1.08020   5
   4  -7 -17 -1.0911 1.96178   6
   4   7 -17 -1.7341 1.53641   5
   4   7 -17 0.70578 1.80154   3
   3  -7 -17 127.487 8.23798   6
  -3  -7  17 103.173 6.09683   6
  -3  -7  17 113.380 6.66594   6
   3   7 -17 113.065 9.26728   3
   3   7 -17 122.316 8.83793   5
  -2  -7  17 14.1984 3.38256   6
   2  -7 -17 17.6922 3.07079   6
   2   7 -17 17.5724 3.69030   5
   2   7 -17 15.8354 4.08425   3
   1  -7 -17 146.252 7.66037   3
  -1  -7  17 143.389 9.66724   6
   1  -7 -17 153.770 7.70713   4
   1  -7 -17 156.510 7.99645   3
   1  -7 -17 155.437 10.0143   6
   1   7 -17 155.280 9.86272   5
   1   7 -17 140.576 10.8416   3
   0  -7 -17 168.691 11.4624   6
   0  -7 -17 172.131 9.61879   3
   0  -7 -17 181.217 9.52502   4
   0  -7  17 174.783 11.7207   6
   0   7 -17 168.183 11.8671   3
   0   7 -17 193.706 11.2531   5
  -1  -7 -17 245.333 10.2351   5
  -1  -7 -17 259.299 13.3182   3
  -1  -7 -17 237.485 15.2280   6
   1  -7  17 241.749 15.3260   6
  -1  -7 -17 224.796 13.9130   4
   1   7  17 272.658 12.6382   4
  -1   7 -17 218.090 14.3864   3
  -2  -7 -17 108.151 9.33479   3
  -2  -7 -17 85.8919 9.14178   6
  -2  -7 -17 104.698 6.19364   5
   2   7  17 122.809 7.80973   4
  -2   7 -17 94.8666 8.61794   3
  -2   7 -17 91.1668 9.05955   6
  -3  -7 -17 6.06501 3.18718   6
   3   7  17 3.70868 1.80613   4
  -3   7 -17 1.95342 1.59408   3
  -3   7 -17 1.82849 1.81690   6
  -4  -7 -17 18.3221 4.93226   6
  -4   7 -17 9.48969 4.34319   3
   4   7  17 11.9845 3.59779   4
  -4   7 -17 16.4525 5.46465   6
  -5  -8  17 49.8886 4.27715   6
   5   8 -17 74.5820 7.73483   3
   4  -8 -17 0.68387 1.37053   5
  -4  -8  17 1.77596 1.46947   6
   4   8 -17 6.98829 3.16202   3
   4   8 -17 2.03328 2.27009   5
   3  -8 -17 261.534 11.7018   5
  -3  -8  17 243.119 12.2624   6
   3  -8 -17 281.865 17.1801   6
  -3  -8  17 217.187 12.8324   6
   3   8 -17 290.276 15.2753   5
   3   8 -17 275.838 16.1996   3
   2  -8 -17 316.825 12.8208   5
   2  -8 -17 320.034 12.9650   5
   2  -8 -17 323.327 16.5954   6
  -2  -8  17 312.134 16.1118   6
   2  -8 -17 329.072 16.6652   6
   2   8 -17 319.870 18.4186   3
   2   8 -17 331.742 17.1026   5
   1  -8 -17 63.2537 4.26274   3
   1  -8 -17 65.5663 3.72258   4
   1  -8 -17 67.9270 6.41122   6
  -1  -8  17 50.2855 6.32552   6
   1  -8 -17 70.9382 4.64902   3
   1   8 -17 62.9114 6.94666   3
   1   8 -17 71.6004 6.44525   5
   0  -8 -17 409.091 18.7086   3
   0  -8 -17 425.710 18.1479   4
   0  -8 -17 403.322 21.3832   6
   0  -8  17 389.106 21.3070   6
   0  -8 -17 421.578 18.7404   3
   0   8 -17 427.525 20.5972   5
  -1  -8 -17 0.10324 1.22288   4
  -1  -8 -17 -0.3368 1.18602   3
  -1  -8 -17 0.49489 0.98680   5
  -1  -8 -17 3.44293 2.16924   6
   1   8  17 -0.7163 1.28246   4
  -1   8 -17 -0.4144 1.82645   3
  -1   8 -17 4.17251 2.21610   5
  -2  -8 -17 11.9352 3.68731   6
  -2  -8 -17 22.3221 2.79854   5
  -2   8 -17 14.0115 3.92790   3
   2   8  17 17.1657 3.09794   4
  -3  -8 -17 1.55295 2.29427   6
  -3  -8 -17 3.12447 1.83651   5
   3   8  17 3.25155 2.02376   4
  -3   8 -17 5.09784 2.77304   3
  -3   8 -17 -0.1158 2.84982   6
  -4  -8 -17 6.00817 2.71757   6
  -4   8 -17 2.31257 2.75179   3
  -4   8 -17 5.37430 3.57271   6
   4   8  17 2.08915 2.58650   4
   5  -9 -17 24.4808 3.92663   5
   5   9 -17 41.0914 7.02891   4
   5   9 -17 38.0867 8.57842   3
   5   9 -17 44.9606 6.17016   5
   4  -9 -17 4.82330 2.06420   5
   4   9 -17 5.12755 2.49517   5
   4   9 -17 4.69191 2.61657   3
   3  -9 -17 239.810 10.8658   5
  -3  -9  17 194.972 12.1826   6
  -3  -9  17 221.236 11.7348   6
   3   9 -17 229.333 13.8674   5
   3   9 -17 213.531 14.4560   3
  -2  -9  17 77.0525 7.12912   6
   2  -9 -17 71.7076 4.41210   5
   2  -9 -17 73.8937 6.71108   6
   2   9 -17 74.8508 7.98337   3
   2   9 -17 65.8565 6.85236   5
  -1  -9  17 263.094 21.3855   6
   1  -9 -17 238.735 11.3486   3
   1  -9 -17 249.524 11.2185   3
   1  -9 -17 246.026 10.4509   5
   1  -9 -17 248.991 10.3447   5
   1  -9 -17 246.475 14.6745   6
   1   9 -17 213.535 15.1316   3
   1   9 -17 249.736 14.4368   5
   0  -9 -17 32.7063 3.16267   4
   0  -9 -17 39.8078 5.15490   6
   0  -9  17 28.8480 6.25672   6
   0  -9 -17 34.7025 3.81874   3
   0  -9 -17 41.2896 2.88374   5
   0  -9 -17 36.9090 4.11435   3
   0  -9 -17 30.1634 3.05548   5
   0   9 -17 25.2073 5.13145   3
   0   9 -17 42.9305 5.47110   5
  -1  -9 -17 1.32857 1.23431   5
  -1  -9 -17 4.76952 2.49697   6
  -1  -9 -17 0.67864 1.53161   4
  -1   9 -17 -0.8419 2.44311   3
   1   9  17 5.80133 1.69717   4
  -1   9 -17 0.50844 2.28245   5
  -2  -9 -17 48.4823 6.97467   6
  -2  -9 -17 48.9765 4.59445   5
  -2   9 -17 49.7624 6.42400   3
  -2   9 -17 56.7567 6.32959   5
   2   9  17 56.7519 5.24285   4
  -3  -9 -17 3.34004 3.06248   6
  -3   9 -17 2.27845 2.83945   3
   3   9  17 3.62675 1.92992   4
  -4 -10  17 58.2441 5.81682   6
   4  10 -17 58.5168 6.47552   5
  -3 -10  17 34.1651 5.99478   6
   3 -10 -17 50.5972 4.19956   5
   3  10 -17 42.2372 7.04566   3
   2 -10 -17 47.0671 3.61150   5
   2 -10 -17 45.3423 3.78733   5
   2 -10 -17 34.0263 4.79813   6
  -2 -10  17 43.3898 6.90580   6
   2  10 -17 32.4557 6.15836   3
  -1 -10  17 90.5729 9.54561   6
   1 -10 -17 98.5601 8.67757   6
   1 -10 -17 92.4575 6.07393   3
   1 -10 -17 100.589 5.58888   5
   1 -10 -17 91.7620 5.82951   3
   1  10 -17 99.6368 9.33563   3
   1  10 -17 88.4384 8.14093   5
   0 -10 -17 77.8323 8.04428   6
   0 -10 -17 81.0066 5.02818   5
   0 -10 -17 82.8623 4.95998   5
   0 -10 -17 75.5363 5.88337   3
   0  10 -17 75.6408 7.99047   3
   0  10 -17 65.0981 7.31221   5
  -1 -10 -17 105.039 9.78582   6
  -1 -10 -17 97.5213 6.51199   4
  -1 -10 -17 94.5075 6.04459   5
  -1  10 -17 81.4423 9.22939   3
   1  10  17 98.4903 6.35529   4
  -1  10 -17 92.2942 8.53268   5
  -2 -10 -17 133.698 12.1767   6
   2  10  17 149.314 8.91459   4
  -2  10 -17 122.775 10.5390   5
  -2  10 -17 112.553 10.3248   3
   3 -11 -17 -1.0736 1.57358   5
   3  11 -17 0.48131 2.54437   5
   3  11 -17 1.78667 3.63725   3
   2 -11 -17 1.27768 1.46265   5
   2 -11 -17 -0.1852 1.65602   6
   2  11 -17 1.41710 2.62716   5
   2  11 -17 8.04610 4.19868   3
   1 -11 -17 27.8553 2.95934   5
   1 -11 -17 22.2262 4.45049   6
   0 -11 -17 87.4656 5.71983   5
   0 -11 -17 72.0530 7.92810   6
   0  11 -17 73.8961 9.69714   3
  -1 -11 -17 7.81283 3.41897   6
   1  11  17 9.62742 2.08390   4
  -1  11 -17 12.3554 4.10393   5
  -1  11 -17 -0.8606 3.64518   3
  -2  11 -17 16.5866 4.00786   3
   1 -12 -17 24.2237 3.40589   5
   1 -12 -17 15.3129 4.21446   6
   1  12 -17 22.0669 4.94640   3
   1  12 -17 17.4801 4.53120   5
   0  12 -17 147.685 13.2607   3
   7   0 -18 40.2312 5.25988   4
   7   0 -18 25.3522 4.87632   5
   6   0 -18 132.801 9.73855   4
   6   0 -18 146.865 9.82263   5
  -6   0  18 136.097 7.99784   3
   5   0 -18 65.4701 4.92485   3
   5   0 -18 61.0480 6.41050   5
  -5   0  18 64.8221 5.18211   3
   5   0 -18 67.1967 5.99352   4
   4   0 -18 22.8022 3.09546   5
  -4   0  18 12.0891 2.49357   3
   4   0 -18 18.2805 2.89320   3
   3   0 -18 537.108 22.8782   3
  -3   0  18 535.277 22.5298   3
   3   0 -18 512.463 21.5325   5
   3   0 -18 505.455 22.8834   4
   2   0 -18 317.062 15.2631   3
  -2   0  18 317.470 15.1733   3
   1   0 -18 54.4373 4.71513   4
   1   0 -18 42.1748 2.91617   6
   1   0 -18 46.0067 4.63517   3
   0   0 -18 139.694 10.1406   4
   0   0 -18 133.726 8.29029   6
   0   0 -18 148.482 9.09162   3
  -1   0 -18 12.8286 2.79323   3
   1   0  18 15.6726 2.80791   6
  -1   0 -18 11.0766 2.94446   6
  -2   0 -18 10.2355 3.29598   6
   2   0  18 11.3089 3.13037   6
  -2   0 -18 14.2138 2.29121   5
  -2   0 -18 7.34103 2.61292   3
  -3   0 -18 229.690 15.5986   6
  -3   0 -18 222.489 12.1264   5
   3   0  18 245.902 13.9205   4
  -3   0 -18 219.766 13.8573   3
   4   0  18 38.4907 5.20063   4
  -4   0 -18 52.6518 6.97322   6
  -4   0 -18 34.9806 5.65000   3
  -5   0 -18 332.216 22.0000   3
   7  -1 -18 3.09306 2.84634   5
   7  -1 -18 -1.8287 1.92427   4
   7   1 -18 9.85115 2.82285   4
   6  -1 -18 9.91114 2.58105   4
   6  -1 -18 11.4579 2.72120   5
   6   1 -18 11.6029 2.91237   5
   6   1 -18 9.89587 3.19115   4
  -5  -1  18 77.5306 6.08649   3
   5  -1 -18 81.9904 6.25365   5
   5  -1 -18 82.9874 6.42386   4
   5   1 -18 85.4727 6.10133   3
   5   1 -18 79.0508 6.64189   5
   5   1 -18 87.3689 7.03703   4
  -5   1  18 82.8735 5.30453   3
   4  -1 -18 13.0880 2.67734   3
  -4  -1  18 13.0769 2.68295   3
   4  -1 -18 19.3636 2.70851   5
   4   1 -18 16.5525 3.14728   3
  -4   1  18 16.4323 2.49133   3
   4   1 -18 12.7101 2.69727   5
   3  -1 -18 208.098 10.4715   3
   3  -1 -18 193.171 9.63429   5
  -3  -1  18 214.076 10.9441   3
   3  -1 -18 205.649 10.8001   4
   3   1 -18 209.069 10.2572   5
   3   1 -18 198.265 11.1524   3
   3   1 -18 190.361 11.1416   4
   2  -1 -18 161.179 8.90540   3
  -2  -1  18 150.481 9.47662   3
   2  -1 -18 166.403 9.25796   4
   2   1 -18 163.325 9.62574   3
   2   1 -18 162.126 8.12404   5
   2   1 -18 149.103 9.43995   4
   1  -1 -18 92.0263 6.49048   3
   1  -1 -18 85.7200 6.50689   4
   1  -1 -18 90.9778 5.19012   6
   1   1 -18 90.7830 6.87912   3
   1   1 -18 90.2319 6.81641   4
   0  -1  18 7.60858 1.95025   6
   0  -1 -18 7.54107 2.08896   3
   0  -1 -18 8.38253 2.34600   4
   0  -1 -18 9.09385 2.25354   6
   0   1 -18 9.45125 2.31281   6
   0   1 -18 12.9112 2.71621   3
  -1  -1 -18 32.7426 4.32749   3
   1  -1  18 38.1129 4.24619   6
  -1  -1 -18 36.0669 2.76186   5
  -1  -1 -18 29.7172 4.33434   6
  -1   1 -18 34.1198 4.41667   6
  -1   1 -18 35.4958 3.29489   5
  -1   1 -18 37.5545 4.57882   3
  -2  -1 -18 1.36401 1.23003   5
  -2  -1 -18 2.99299 1.46072   3
  -2  -1 -18 3.16739 2.34790   6
   2  -1  18 0.25298 1.99725   6
  -2   1 -18 0.09154 1.80128   6
   2   1  18 4.07963 2.01533   6
  -2   1 -18 3.51119 2.14238   3
  -2   1 -18 0.95314 1.27635   5
   3  -1  18 14.9966 3.38952   4
  -3  -1 -18 9.66174 4.72493   6
  -3  -1 -18 19.9760 3.97030   3
   3   1  18 12.4452 3.32138   4
  -3   1 -18 21.8006 3.50399   5
  -3   1 -18 18.9775 3.81495   3
  -3   1 -18 13.3171 4.26153   6
   4  -1  18 4.58774 2.13165   4
  -4  -1 -18 1.61830 2.80395   6
  -4  -1 -18 1.72900 2.13562   3
  -4   1 -18 -3.8210 2.05569   3
  -4   1 -18 -2.0399 2.38800   6
   4   1  18 2.69783 1.91820   4
   5  -1  18 -2.3897 1.85077   4
  -5  -1 -18 0.05720 2.94502   6
  -5  -1 -18 0.32317 2.28621   3
  -5   1 -18 -1.6704 3.09896   6
   6  -2 -18 5.81740 1.97407   4
   6  -2 -18 8.49381 2.33151   5
  -6  -2  18 4.94685 2.98612   3
   6   2 -18 5.95330 2.40359   4
   6   2 -18 8.26478 2.80679   5
   5  -2 -18 93.8492 6.55642   5
   5  -2 -18 87.9185 6.48621   4
  -5  -2  18 94.5883 7.04612   3
   5   2 -18 89.1888 6.77267   3
   5   2 -18 85.5522 6.97057   5
   4  -2 -18 16.9506 2.57874   5
  -4  -2  18 20.0015 3.15259   3
   4  -2 -18 19.9761 2.72496   4
   4  -2 -18 20.8193 2.08514   3
   4   2 -18 17.1832 3.11944   3
   4   2 -18 24.8433 3.51477   5
   3  -2 -18 82.9637 5.26726   3
   3  -2 -18 81.0343 4.55137   5
   3  -2 -18 88.8595 5.78665   4
  -3  -2  18 73.9209 6.14319   3
   3   2 -18 79.2800 5.76941   5
   3   2 -18 85.6054 6.71586   3
  -2  -2  18 110.882 7.63571   3
   2  -2 -18 111.879 7.05020   4
   2  -2 -18 116.912 6.87959   3
   2   2 -18 117.103 6.77493   5
   2   2 -18 107.147 7.86041   3
   1  -2 -18 233.554 12.0135   4
   1  -2 -18 230.394 11.1250   6
   1  -2 -18 230.366 11.6644   3
  -1  -2  18 223.735 12.5566   3
   1   2 -18 226.328 12.6846   3
   0  -2  18 65.2854 5.00879   6
   0  -2 -18 67.9950 5.78421   4
   0  -2 -18 69.5979 5.58819   3
   0   2 -18 69.8303 6.14601   3
   0   2 -18 72.0937 5.34640   6
  -1  -2 -18 150.089 10.4370   6
  -1  -2 -18 157.395 9.62753   3
  -1  -2 -18 147.886 6.91944   5
   1  -2  18 159.759 9.83508   6
  -1   2 -18 144.491 11.3763   3
  -1   2 -18 152.539 8.45439   5
  -1   2 -18 160.217 10.1604   6
   2  -2  18 102.752 8.66936   6
  -2  -2 -18 110.638 9.15283   6
  -2  -2 -18 110.697 9.73905   3
  -2  -2 -18 106.281 6.13162   5
   2   2  18 96.2645 11.2036   4
  -2   2 -18 116.004 8.80593   3
  -2   2 -18 105.466 8.88280   6
  -3  -2 -18 105.999 7.14984   5
  -3  -2 -18 127.909 12.7509   6
  -3  -2 -18 110.059 8.92095   3
   3   2  18 119.650 8.71590   4
  -3   2 -18 118.539 9.27950   3
  -3   2 -18 105.925 11.5460   6
   4  -2  18 107.208 8.85044   4
  -4  -2 -18 114.726 9.45242   3
  -4  -2 -18 102.411 10.3831   6
  -4   2 -18 102.738 10.4214   6
  -4   2 -18 110.833 9.28416   3
   4   2  18 110.896 8.83840   4
   5  -2  18 126.168 10.5749   4
  -5  -2 -18 118.569 11.9935   3
  -5  -2 -18 148.954 13.6002   6
  -5   2 -18 121.188 10.3765   3
  -5   2 -18 143.227 12.8276   6
   6  -3 -18 46.4982 5.08031   5
   6  -3 -18 44.5577 4.16368   4
   6   3 -18 45.4034 5.38773   5
   6   3 -18 32.0355 5.52498   4
   5  -3 -18 15.0250 2.43012   4
   5  -3 -18 15.2848 2.68107   4
   5  -3 -18 16.8636 2.92281   5
   5   3 -18 15.5008 3.09139   3
   5   3 -18 13.9487 3.10172   5
   5   3 -18 13.5361 3.48259   4
   4  -3 -18 67.2005 4.62697   5
   4  -3 -18 68.6933 4.72797   4
  -4  -3  18 58.5544 5.94395   3
   4  -3 -18 70.6281 4.97762   4
   4   3 -18 69.3469 6.21343   3
  -3  -3  18 46.6397 5.07477   3
   3  -3 -18 54.3441 4.21423   4
   3  -3 -18 56.5073 3.30558   5
   3  -3 -18 55.0033 3.68875   3
   3   3 -18 53.5294 4.76951   5
   3   3 -18 48.2675 5.44305   3
   2  -3 -18 6.45849 1.62371   4
  -2  -3  18 6.80731 2.89982   3
   2  -3 -18 5.28246 1.75211   3
   2  -3 -18 5.90101 1.26873   6
   2  -3 -18 6.46193 1.23517   6
   2   3 -18 6.76178 1.89650   5
   2   3 -18 12.9616 3.19764   3
  -1  -3  18 16.7094 1.80496   6
   1  -3 -18 17.3995 2.60885   6
   1  -3 -18 12.0756 2.32756   3
   1  -3 -18 17.3170 2.77471   4
   1   3 -18 18.6121 3.66890   3
   0  -3 -18 30.6419 3.63977   3
   0  -3 -18 28.5639 3.84376   6
   0  -3  18 24.2063 3.49764   6
   0  -3 -18 31.0874 4.55180   4
   0   3 -18 32.0882 4.50829   3
   0   3 -18 29.9086 3.43331   6
  -1  -3 -18 5.02379 1.98556   4
  -1  -3 -18 2.40956 0.60430   5
   1  -3  18 0.54686 1.94574   6
  -1  -3 -18 2.59784 1.86313   6
  -1  -3 -18 1.65066 1.52354   3
  -1   3 -18 2.93828 1.42995   5
  -1   3 -18 2.89959 1.65736   6
  -1   3 -18 3.63732 1.93305   3
  -2  -3 -18 5.85801 2.43927   6
   2  -3  18 1.06367 2.54642   6
  -2   3 -18 -0.0416 1.50826   3
  -2   3 -18 1.62462 1.93273   6
  -2   3 -18 2.06575 1.94516   5
   2   3  18 2.69788 1.55155   4
  -3  -3 -18 17.8544 4.21653   6
  -3  -3 -18 19.2753 4.03512   3
  -3  -3 -18 23.0326 3.01801   5
  -3   3 -18 16.1564 6.91438   6
   3   3  18 23.1969 4.18648   4
  -3   3 -18 20.6875 4.05338   3
  -4  -3 -18 50.4330 7.67136   6
  -4  -3 -18 50.6778 6.20637   3
  -4   3 -18 46.1976 7.22277   6
   4   3  18 60.4027 6.09558   4
  -4   3 -18 54.8215 6.40901   3
   5  -3  18 -1.0390 1.92278   4
  -5  -3 -18 4.41489 2.21209   3
  -5  -3 -18 7.09772 4.14108   6
  -5   3 -18 7.48783 3.80869   6
   6  -4 -18 31.5494 3.25166   4
   6  -4 -18 34.9678 4.34719   5
   6   4 -18 21.4582 4.74145   4
   6   4 -18 28.0400 4.49914   3
   6   4 -18 40.6321 5.36896   5
   5  -4 -18 43.4575 3.48778   4
   5  -4 -18 42.4663 3.67364   4
   5  -4 -18 46.0255 4.31788   5
   5   4 -18 32.0848 7.58243   3
   5   4 -18 42.9035 5.30074   5
   4  -4 -18 26.1090 2.63377   4
   4  -4 -18 22.7191 2.58792   4
   4  -4 -18 21.8452 2.59943   5
   4   4 -18 26.0821 4.22637   3
   4   4 -18 17.5920 3.25288   5
   3  -4 -18 89.7538 4.65140   6
   3  -4 -18 87.4921 4.27952   3
   3  -4 -18 91.8486 5.42922   4
   3  -4 -18 87.6603 4.36323   5
   3  -4 -18 83.8862 4.61224   6
   3   4 -18 84.3384 7.40824   3
   3   4 -18 86.6655 6.69715   5
   2  -4 -18 70.2171 4.79446   6
   2  -4 -18 65.7698 4.53076   6
   2  -4 -18 69.8035 4.51858   3
   2  -4 -18 67.4535 4.82877   4
   2   4 -18 67.7515 6.51578   3
   2   4 -18 66.1227 5.44273   5
   1  -4 -18 157.559 8.38840   3
   1  -4 -18 146.458 10.1730   6
  -1  -4  18 155.089 7.81108   6
   1  -4 -18 151.984 8.67082   4
   1   4 -18 157.721 9.03335   5
   1   4 -18 152.412 10.0853   3
   0  -4 -18 383.413 19.0255   6
   0  -4  18 390.197 18.0480   6
   0  -4 -18 365.339 17.8234   4
   0  -4 -18 388.976 17.6029   3
   0   4 -18 357.653 21.3538   3
  -1  -4 -18 156.064 10.1159   4
  -1  -4 -18 173.167 10.2286   3
  -1  -4 -18 172.192 11.5351   6
   1  -4  18 184.342 11.3556   6
  -1   4 -18 167.026 10.3478   6
  -1   4 -18 142.880 9.16488   5
  -1   4 -18 153.159 10.7785   3
  -2  -4 -18 123.403 10.2978   6
   2  -4  18 117.868 10.0506   6
  -2   4 -18 127.573 9.64695   3
  -2   4 -18 112.066 9.41758   6
   2   4  18 129.999 8.55199   4
  -3  -4 -18 236.421 14.2820   3
  -3  -4 -18 237.186 16.4827   6
  -3  -4 -18 233.004 11.8910   5
  -3   4 -18 230.704 15.4157   6
  -3   4 -18 232.861 14.5435   3
  -4  -4 -18 -0.5141 1.58946   3
  -4   4 -18 -1.2077 2.38148   6
   4   4  18 -0.5523 1.27584   4
  -4   4 -18 2.97272 2.51193   3
  -5  -4 -18 156.769 12.2423   3
  -5   4 -18 156.293 12.2352   3
   6  -5 -18 7.41374 2.70938   5
   6  -5 -18 2.21580 1.01847   4
   6   5 -18 6.95144 3.07678   4
   6   5 -18 3.49710 2.93162   5
   6   5 -18 4.30189 2.50539   3
   5  -5 -18 79.6316 4.82261   6
   5  -5 -18 73.1923 4.05625   4
   5  -5 -18 77.2380 4.06504   4
   5  -5 -18 74.9020 5.91779   5
   5   5 -18 82.2026 7.38524   5
   5   5 -18 87.8419 7.67601   3
   4  -5 -18 26.0267 2.14339   4
   4  -5 -18 21.5415 2.09237   4
   4  -5 -18 21.5841 2.57240   5
   4  -5 -18 27.5271 3.15198   6
   4  -5 -18 25.8225 2.36206   6
   4   5 -18 24.1074 4.45748   3
   4   5 -18 32.9308 4.42530   5
   3  -5 -18 6.32456 1.06209   5
   3  -5 -18 4.72597 1.38047   6
   3  -5 -18 4.62277 1.20047   4
   3  -5 -18 10.5567 2.09044   6
   3   5 -18 8.95993 2.45372   5
   3   5 -18 3.74252 2.36765   3
   2  -5 -18 41.4742 3.34638   4
   2  -5 -18 33.3614 3.54540   6
   2  -5 -18 38.3169 3.65967   6
   2  -5 -18 31.5983 2.73649   3
   2   5 -18 37.2862 6.37745   3
   2   5 -18 28.3459 4.07810   5
   1  -5 -18 148.755 7.84921   3
   1  -5 -18 150.911 8.17694   4
  -1  -5  18 113.067 8.69974   6
   1  -5 -18 147.769 9.14834   6
   1   5 -18 139.292 8.78921   5
   0  -5 -18 20.0241 3.21789   4
   0  -5  18 27.8009 4.05404   6
   0  -5 -18 23.9258 3.16181   3
   0  -5 -18 17.4433 3.48083   6
   0   5 -18 22.7272 3.30081   5
   0   5 -18 17.5592 3.99671   3
   1  -5  18 0.05040 2.66365   6
  -1  -5 -18 3.10377 1.95014   6
  -1  -5 -18 5.44056 1.89145   3
  -1   5 -18 4.45231 2.27386   3
   1   5  18 0.36699 1.36995   4
  -1   5 -18 5.29424 2.37952   6
  -2  -5 -18 88.5773 8.69895   6
  -2  -5 -18 87.2705 7.59631   3
  -2   5 -18 87.2760 8.13360   6
  -2   5 -18 81.8428 7.70197   3
   2   5  18 107.704 7.41374   4
  -3  -5 -18 15.8775 4.59101   6
  -3  -5 -18 15.9945 3.24724   3
  -3  -5 -18 16.3216 2.62616   5
   3   5  18 19.7940 3.68630   4
  -3   5 -18 18.6510 4.38657   6
  -3   5 -18 10.6958 3.37467   3
  -4  -5 -18 68.2011 7.46290   3
  -4  -5 -18 68.4002 8.88460   6
  -4   5 -18 50.4150 8.48673   6
   4   5  18 71.7298 6.87800   4
   6  -6 -18 19.7726 3.46850   5
   6   6 -18 16.8600 4.08195   3
   6   6 -18 11.2458 3.76672   5
   5  -6 -18 1.18689 1.69518   5
   5  -6 -18 4.76949 2.09293   6
   5   6 -18 1.94085 2.58075   5
   5   6 -18 4.60632 2.66437   3
   4  -6 -18 7.62825 1.68900   5
   4  -6 -18 4.30727 2.18131   6
   4  -6 -18 4.57200 1.34553   6
   4   6 -18 5.19376 2.47792   5
   4   6 -18 3.84954 2.63962   3
   3  -6 -18 32.4304 2.35709   5
   3  -6 -18 32.2327 4.13700   6
   3   6 -18 38.5243 5.52240   3
   3   6 -18 34.0281 4.58528   5
   2  -6 -18 50.2684 4.77169   6
   2  -6 -18 49.0661 3.09923   3
  -2  -6  18 50.2055 3.85310   6
   2  -6 -18 47.3378 3.10608   3
   2  -6 -18 53.8744 4.63374   6
   2  -6 -18 49.8916 3.46803   4
   2   6 -18 48.0399 5.90889   3
   2   6 -18 49.6400 5.26948   5
   1  -6 -18 19.4073 3.47142   6
   1  -6 -18 22.6222 2.73715   4
   1  -6 -18 18.0023 2.40705   3
  -1  -6  18 25.6700 3.79438   6
   1   6 -18 26.6777 4.76978   3
   1   6 -18 12.6821 3.20651   5
   0  -6  18 117.760 9.31985   6
   0  -6 -18 129.452 7.98023   4
   0  -6 -18 133.438 8.06163   3
   0  -6 -18 134.743 9.83714   6
   0   6 -18 138.356 9.07261   5
   0   6 -18 131.104 10.2457   3
   1  -6  18 56.6556 7.10929   6
  -1  -6 -18 61.3753 6.82212   6
  -1  -6 -18 69.9354 5.90102   3
  -1  -6 -18 69.5717 5.91891   4
   1   6  18 74.7580 5.73540   4
  -1   6 -18 66.0507 7.16279   3
  -2  -6 -18 78.6238 6.86651   3
  -2  -6 -18 81.7607 8.35588   6
   2   6  18 75.9181 6.34546   4
  -2   6 -18 77.9862 7.49261   6
  -2   6 -18 68.8014 7.15851   3
  -3  -6 -18 201.896 10.9845   5
  -3  -6 -18 201.402 13.0660   3
  -3  -6 -18 230.135 15.9359   6
  -3   6 -18 191.572 13.4559   3
   3   6  18 222.042 12.7478   4
  -3   6 -18 200.383 14.2453   6
  -4  -6 -18 8.38657 3.17618   3
  -4  -6 -18 14.5082 4.60107   6
   4   6  18 8.41645 2.61351   4
  -4   6 -18 10.9487 3.43246   6
  -4   6 -18 7.26809 2.59962   3
   5   7 -18 67.4510 7.17506   3
   5   7 -18 66.4406 7.53999   5
   4  -7 -18 7.41136 2.13046   5
   4  -7 -18 5.49918 2.36226   6
   4   7 -18 2.36369 2.71967   3
   4   7 -18 6.52962 2.63317   5
  -3  -7  18 15.0096 1.80820   6
   3  -7 -18 19.1685 2.83544   6
   3  -7 -18 14.7391 3.02534   6
  -3  -7  18 12.8018 1.86405   6
   3   7 -18 14.1515 3.98910   3
   3   7 -18 12.3809 3.18748   5
   2  -7 -18 9.64365 2.34633   6
   2  -7 -18 7.87166 2.41545   6
   2  -7 -18 10.5787 1.20093   3
   2  -7 -18 11.4857 1.28568   3
   2   7 -18 11.9939 3.52101   3
   2   7 -18 7.81916 2.72074   5
  -1  -7  18 7.45669 2.88613   6
   1  -7 -18 8.37353 2.38100   6
   1  -7 -18 9.50130 1.79897   3
   1   7 -18 9.09314 2.78046   5
   1   7 -18 4.99399 3.22473   3
   0  -7 -18 112.250 8.80398   6
   0  -7 -18 109.222 6.96664   3
   0  -7 -18 102.701 6.76461   4
   0  -7  18 102.091 8.73755   6
   0   7 -18 96.8548 8.95658   3
   0   7 -18 105.936 8.10725   5
  -1  -7 -18 35.2222 4.09533   4
  -1  -7 -18 28.5811 5.09864   6
   1  -7  18 24.8988 5.48842   6
  -1  -7 -18 28.7717 2.28691   5
  -1  -7 -18 29.1386 3.95965   3
  -1   7 -18 19.9616 4.56441   3
   1   7  18 33.2951 3.71676   4
  -2  -7 -18 19.4012 4.26424   6
  -2  -7 -18 22.2435 2.91202   5
  -2  -7 -18 16.5647 3.41395   3
  -2   7 -18 15.7792 4.41933   6
  -2   7 -18 21.7472 4.77161   3
   2   7  18 25.5508 3.61028   4
  -3  -7 -18 6.45206 2.35577   3
  -3  -7 -18 11.9517 3.94635   6
   3   7  18 7.21050 2.67708   4
  -3   7 -18 8.78105 3.48406   3
  -3   7 -18 11.5963 3.69547   6
  -4  -7 -18 11.4880 3.48072   3
  -4  -7 -18 16.5044 4.94548   6
  -4   7 -18 9.91712 4.10715   3
  -4   7 -18 16.8038 5.25951   6
   4   7  18 18.0468 4.08835   4
   5  -8 -18 25.0193 3.62671   5
   5   8 -18 22.6298 4.53094   3
   5   8 -18 25.6910 5.57127   4
   5   8 -18 14.7028 3.96746   5
   4  -8 -18 109.172 6.71016   5
  -4  -8  18 91.0421 5.62480   6
   4   8 -18 107.842 9.79279   3
   4   8 -18 117.793 8.91768   5
   3  -8 -18 0.23322 1.03429   5
  -3  -8  18 0.05520 1.21273   6
   3  -8 -18 1.10911 1.47353   6
   3   8 -18 2.64423 2.28146   5
   3   8 -18 2.82603 2.30057   3
   2  -8 -18 8.92873 1.18188   5
   2  -8 -18 9.05318 1.30171   5
  -2  -8  18 9.56846 3.26072   6
   2  -8 -18 7.26938 2.43004   6
   2  -8 -18 9.46085 2.95847   6
   2   8 -18 5.15000 3.42147   3
   2   8 -18 7.10883 2.86208   5
   1  -8 -18 17.5503 2.01320   4
   1  -8 -18 16.1834 3.29129   6
   1  -8 -18 16.9803 2.32476   3
  -1  -8  18 8.33092 3.63001   6
   1   8 -18 19.0913 3.82128   5
   1   8 -18 25.0708 5.07421   3
   0  -8 -18 49.8129 4.62986   3
   0  -8 -18 49.7273 4.22289   4
   0  -8 -18 44.6624 5.78167   6
   0  -8 -18 47.3581 4.38046   3
   0  -8  18 36.9160 6.52106   6
   0   8 -18 32.6336 5.93725   3
   0   8 -18 54.1476 5.85908   5
  -1  -8 -18 36.0196 4.21133   3
  -1  -8 -18 40.8607 4.31731   4
  -1  -8 -18 29.4523 2.85471   5
  -1  -8 -18 24.7175 4.90339   6
  -1   8 -18 36.6881 5.28399   3
   1   8  18 38.0641 3.99153   4
  -1   8 -18 27.6140 4.78928   5
  -2  -8 -18 2.00053 2.05940   3
  -2  -8 -18 3.87222 1.81845   5
  -2  -8 -18 5.75464 2.91346   6
   2   8  18 3.79177 1.79962   4
  -2   8 -18 -0.7294 2.05503   3
  -3  -8 -18 37.3843 7.12212   6
  -3   8 -18 44.6776 7.45897   6
  -3   8 -18 41.5925 6.77611   3
   3   8  18 41.7108 5.11756   4
  -4  -9  18 48.8322 4.46898   6
   4  -9 -18 51.0780 4.62199   5
   4   9 -18 42.5547 7.10251   3
   4   9 -18 47.4278 6.42781   5
   3  -9 -18 24.8855 2.91642   5
  -3  -9  18 23.7881 4.29205   6
   3  -9 -18 23.5662 3.75783   6
   3   9 -18 25.8884 4.73235   5
   3   9 -18 13.2253 4.40369   3
   2  -9 -18 86.9108 7.47378   6
   2  -9 -18 93.4010 5.01809   5
  -2  -9  18 78.6801 7.69391   6
   2   9 -18 99.2982 9.18489   3
   2   9 -18 88.4335 8.04264   5
   1  -9 -18 6.16358 2.56088   6
   1  -9 -18 7.10041 1.16548   5
   1  -9 -18 5.45789 1.91463   3
   1  -9 -18 4.84298 1.06006   5
   1   9 -18 1.61851 3.26623   3
   1   9 -18 4.12091 2.76731   5
   0  -9 -18 29.6475 2.40179   5
   0  -9 -18 26.4571 4.79433   6
   0  -9 -18 21.5534 2.93437   4
   0  -9 -18 21.0166 3.25207   3
   0   9 -18 21.9316 4.59429   3
   0   9 -18 21.4946 4.39040   5
  -1  -9 -18 0.19225 1.74564   6
  -1  -9 -18 3.68893 1.60706   3
  -1   9 -18 -1.9775 1.65559   3
   1   9  18 -0.8464 1.44585   4
  -1   9 -18 1.53997 2.54813   5
  -2  -9 -18 165.227 13.3975   6
   2   9  18 177.207 10.3054   4
  -2   9 -18 163.602 14.5192   3
  -3  -9 -18 -3.7852 3.05667   6
  -3   9 -18 -6.9675 2.39421   3
   3   9  18 -1.8850 1.93267   4
   3 -10 -18 4.60678 1.51844   5
  -3 -10  18 0.18702 1.59078   6
   3  10 -18 -1.5761 2.47507   5
   2 -10 -18 104.027 6.10805   5
   2 -10 -18 107.241 8.79713   6
   2  10 -18 96.1629 10.2169   3
   1 -10 -18 2.82535 2.28404   6
  -1 -10  18 0.04258 5.16361   6
   1 -10 -18 1.89423 1.25458   5
   1  10 -18 0.57957 2.53222   5
   1  10 -18 -0.5108 2.01487   3
   0 -10 -18 25.3099 3.35565   3
   0 -10 -18 38.3147 5.10616   3
   0 -10 -18 22.5761 4.63813   6
   0 -10 -18 26.7365 2.78963   5
   0  10 -18 19.6484 5.54320   5
  -1 -10 -18 2.51422 2.57002   6
  -1 -10 -18 0.93433 1.60028   3
   1  10  18 0.11291 1.49860   4
  -1  10 -18 3.22865 2.36496   3
  -2 -10 -18 17.0671 4.92519   6
  -2  10 -18 33.5726 5.32183   5
  -2  10 -18 20.3023 4.78223   3
   2  10  18 28.6827 4.11506   4
   2 -11 -18 6.55548 1.93114   5
   2 -11 -18 9.61598 2.69785   6
   2  11 -18 12.5060 4.43642   3
   2  11 -18 13.6159 3.45924   5
   1 -11 -18 1.79612 1.53011   5
   1 -11 -18 0.20895 2.00004   6
   1  11 -18 0.97454 2.27854   5
   1  11 -18 0.31446 2.67152   3
   0 -11 -18 15.7804 4.43009   6
   0 -11 -18 5.81971 1.90283   3
   0 -11 -18 8.88734 2.06472   5
   0  11 -18 5.38337 4.03685   3
   0  11 -18 13.0135 3.33481   5
   6   0 -19 1.66501 2.03383   5
   6   0 -19 0.88358 1.99849   4
   5   0 -19 2.24223 1.80826   5
   5   0 -19 4.11722 1.29960   3
   5   0 -19 0.54047 1.36642   4
  -5   0  19 -1.1385 1.75835   3
  -4   0  19 0.14275 1.51685   3
   4   0 -19 -2.2086 1.27482   5
   4   0 -19 1.61751 1.45793   3
  -3   0  19 -2.2303 1.43540   3
   3   0 -19 -0.5069 1.42583   4
   3   0 -19 0.47275 1.19499   5
   3   0 -19 3.24551 1.82808   3
   2   0 -19 -0.3046 1.29497   3
   2   0 -19 1.67738 1.60139   4
   1   0 -19 -0.7176 0.72538   6
   1   0 -19 -2.5818 1.16935   3
   0   0 -19 1.18114 1.25798   6
   0   0 -19 -1.0941 1.18066   3
  -1   0 -19 -1.7229 0.87791   5
  -1   0 -19 1.08491 1.55355   6
   1   0  19 2.98224 1.82220   6
  -1   0 -19 1.31225 1.97895   3
   2   0  19 1.15074 2.02194   6
  -2   0 -19 -2.1017 1.47774   6
  -2   0 -19 2.14804 1.82816   3
  -3   0 -19 -2.3282 1.94924   5
  -3   0 -19 0.25870 1.61479   3
  -3   0 -19 1.62168 2.39940   6
   3   0  19 -2.0750 1.34148   4
  -4   0 -19 0.45695 2.08329   3
  -4   0 -19 5.85858 3.10926   6
   4   0  19 -0.7253 1.58624   4
   5   0  19 -1.9734 1.88854   4
  -5   0 -19 1.16827 1.96743   3
   6  -1 -19 260.715 14.2133   5
   6  -1 -19 237.415 13.5869   4
   6   1 -19 245.991 14.2154   5
   5  -1 -19 78.0821 6.27352   4
  -5  -1  19 74.8258 6.34257   3
   5  -1 -19 73.0727 6.98746   5
   5   1 -19 83.3791 8.17963   4
   5   1 -19 77.6302 6.31992   5
   5   1 -19 86.2436 6.16270   3
  -5   1  19 80.9528 5.28437   3
   4  -1 -19 132.394 7.60774   5
  -4  -1  19 125.360 8.26505   3
   4   1 -19 136.862 8.53754   3
   4   1 -19 130.581 8.10812   5
   3  -1 -19 214.891 10.1565   5
   3  -1 -19 216.316 11.4954   4
   3  -1 -19 216.546 11.2132   3
   3   1 -19 226.934 11.0033   5
   3   1 -19 230.547 12.1955   3
   2  -1 -19 -1.2016 1.11214   3
  -2  -1  19 3.26852 1.75365   3
   2  -1 -19 0.27157 1.33112   4
   2   1 -19 4.92825 1.92141   3
   2   1 -19 0.05790 1.17872   5
   1  -1 -19 78.3215 5.87351   3
   1  -1 -19 68.0806 4.29074   6
   1  -1 -19 74.9131 5.87457   4
   1   1 -19 67.8319 5.99942   3
   0  -1 -19 243.106 14.9010   6
   0  -1 -19 286.076 14.0608   3
   0   1 -19 264.203 12.9827   6
  -1  -1 -19 59.0315 3.87345   5
  -1  -1 -19 50.6030 5.73687   6
  -1  -1 -19 63.6995 5.91475   3
   1  -1  19 57.8166 5.35620   6
  -1   1 -19 59.2951 5.95058   3
  -1   1 -19 61.2517 5.75961   6
  -1   1 -19 53.2260 4.25339   5
  -2  -1 -19 195.096 12.1569   3
   2  -1  19 199.900 12.5488   6
  -2  -1 -19 206.858 13.4401   6
  -2  -1 -19 192.792 10.0821   5
   2   1  19 197.446 12.2903   6
  -2   1 -19 210.408 12.7373   3
  -2   1 -19 201.366 13.1794   6
  -2   1 -19 196.878 10.5643   5
  -3  -1 -19 6.01228 2.34012   5
  -3  -1 -19 12.7252 3.29869   3
  -3  -1 -19 8.15812 3.27275   6
   3   1  19 13.0775 3.12836   4
  -3   1 -19 7.32611 2.87125   3
  -3   1 -19 7.17173 3.19945   6
  -4  -1 -19 208.456 13.7273   3
  -4  -1 -19 185.616 14.6954   6
   4  -1  19 208.779 13.3719   4
   4   1  19 196.373 12.9416   4
  -4   1 -19 193.739 14.5818   6
  -4   1 -19 191.604 13.1427   3
  -5  -1 -19 -4.4892 3.31330   6
  -5  -1 -19 7.53789 2.87575   3
   5  -1  19 -2.8279 1.90776   4
  -5   1 -19 0.67856 3.58652   6
   5   1  19 4.40123 2.28763   4
  -5   1 -19 -1.7933 1.71917   3
   6  -2 -19 50.2557 5.46037   5
   6  -2 -19 38.8795 4.66917   4
   6   2 -19 50.4967 6.26994   4
   6   2 -19 43.6127 5.88736   5
   5  -2 -19 1.51734 1.68714   4
   5  -2 -19 3.56336 1.84470   5
  -5  -2  19 -0.4505 2.47041   3
   5   2 -19 1.88832 2.07862   4
   5   2 -19 3.52835 1.92476   3
   5   2 -19 2.79485 1.67605   5
   4  -2 -19 43.5641 3.17318   3
   4  -2 -19 38.2565 3.95861   4
  -4  -2  19 39.3771 4.81948   3
   4  -2 -19 43.6997 3.77612   5
   4   2 -19 47.9882 4.67402   5
   4   2 -19 39.5609 4.76528   3
   3  -2 -19 9.72363 2.12283   4
  -3  -2  19 11.8557 2.59317   3
   3   2 -19 11.2688 2.93226   3
   3   2 -19 8.92795 2.18347   5
   2  -2 -19 1.37635 1.17924   3
   2  -2 -19 0.04047 1.15535   4
  -2  -2  19 1.71970 1.98601   3
   2   2 -19 1.52412 1.22047   5
   2   2 -19 2.00989 1.86451   3
   1  -2 -19 49.7844 4.76130   4
   1  -2 -19 40.7539 3.66616   6
   1  -2 -19 47.0920 4.31066   3
   1   2 -19 50.3020 5.21313   3
   0  -2 -19 10.0839 2.39965   4
   0  -2 -19 6.19108 1.94973   3
   0  -2 -19 8.60104 2.37392   6
   0  -2  19 7.22595 1.85258   6
   0   2 -19 7.59815 2.03988   6
   0   2 -19 7.05744 2.51836   3
  -1  -2 -19 -1.4451 1.65932   6
  -1  -2 -19 -1.0179 1.32485   3
  -1  -2 -19 1.22427 0.84436   5
  -1   2 -19 2.45575 1.95520   3
  -1   2 -19 5.42258 2.17203   6
  -1   2 -19 2.63646 1.26021   5
  -2  -2 -19 34.3898 4.45745   3
  -2  -2 -19 42.9491 5.79376   6
  -2  -2 -19 39.7393 3.46684   5
   2  -2  19 39.8814 5.54264   6
  -2   2 -19 29.8409 3.70845   5
  -2   2 -19 33.7435 4.73063   3
  -2   2 -19 39.1282 5.30345   6
  -3  -2 -19 6.23461 2.93250   6
  -3  -2 -19 1.26754 2.28349   3
  -3   2 -19 3.87148 2.04964   3
  -3   2 -19 0.12267 2.42273   6
   3   2  19 5.00809 2.10084   4
  -4  -2 -19 2.56807 3.18272   6
  -4  -2 -19 11.3804 3.71894   3
  -4   2 -19 5.68207 2.97337   3
   4   2  19 8.34114 2.87316   4
  -4   2 -19 4.45992 3.55366   6
   6  -3 -19 121.817 8.55428   5
   6  -3 -19 111.926 7.38344   4
   6   3 -19 112.665 9.03101   5
   6   3 -19 111.092 9.39704   4
   5  -3 -19 75.9196 5.56192   4
   5  -3 -19 85.1323 6.06608   5
   5  -3 -19 70.4622 5.26026   4
   5   3 -19 72.8855 6.39664   3
   5   3 -19 73.4086 6.56868   5
   4  -3 -19 59.7092 4.48477   4
   4  -3 -19 53.4159 4.06131   5
   4  -3 -19 50.3383 4.31831   4
   4   3 -19 57.7325 5.63707   3
   4   3 -19 49.0607 4.97881   5
   3  -3 -19 47.2875 3.47131   3
   3  -3 -19 42.9736 2.91876   5
   3  -3 -19 40.0176 3.80921   4
   3   3 -19 45.4152 5.43065   3
   3   3 -19 43.1674 4.49147   5
   2  -3 -19 71.8405 3.87422   6
   2  -3 -19 73.9848 5.46815   4
   2  -3 -19 74.1015 5.18709   3
   2  -3 -19 75.6367 4.06660   6
   2   3 -19 79.4881 5.76730   5
   2   3 -19 64.2312 6.44673   3
   1  -3 -19 22.7458 3.08503   3
   1  -3 -19 23.4763 3.38419   4
   1  -3 -19 25.2290 3.11206   6
   1   3 -19 30.8373 4.26847   3
   0  -3 -19 50.4426 4.72924   3
   0  -3  19 56.4548 4.62614   6
   0  -3 -19 52.2359 5.07451   4
   0  -3 -19 53.0485 5.18010   6
   0   3 -19 51.2039 4.47681   6
   0   3 -19 52.3841 4.44188   5
   0   3 -19 48.7419 5.89116   3
  -1  -3 -19 10.3129 2.89376   6
  -1  -3 -19 8.63879 2.67645   3
  -1  -3 -19 11.8215 1.39019   5
   1  -3  19 13.0819 3.12673   6
  -1   3 -19 9.12992 3.20564   6
  -1   3 -19 10.9075 2.92600   3
  -2  -3 -19 35.0194 4.38642   3
  -2  -3 -19 30.4514 3.01624   5
   2  -3  19 16.9644 4.90192   6
  -2  -3 -19 26.9978 5.10439   6
   2   3  19 32.7654 4.32220   4
  -2   3 -19 36.1439 5.44790   6
  -2   3 -19 36.0710 4.61971   3
  -3  -3 -19 49.8682 4.59578   5
  -3  -3 -19 49.6980 6.86742   6
  -3  -3 -19 46.2117 6.01819   3
  -3   3 -19 41.4906 5.94036   3
   3   3  19 52.3167 5.83316   4
  -3   3 -19 43.4202 6.50391   6
  -4  -3 -19 463.218 23.5289   3
  -4  -3 -19 434.799 26.1781   6
   6  -4 -19 -1.0104 1.81730   5
   6  -4 -19 4.94815 1.75363   4
   6   4 -19 3.13699 2.70021   5
   6   4 -19 6.48034 2.26385   3
   6   4 -19 0.01716 2.63390   4
   5  -4 -19 10.5827 2.14938   5
   5  -4 -19 9.90112 1.81523   4
   5   4 -19 6.00352 2.69067   5
   5   4 -19 4.51251 2.51399   3
   4  -4 -19 80.8015 5.29234   4
   4  -4 -19 87.0751 5.47358   5
   4   4 -19 92.1522 7.05738   5
   3  -4 -19 44.1712 3.82446   4
   3  -4 -19 44.0137 2.81093   3
   3  -4 -19 43.5275 2.74518   5
   3   4 -19 32.5503 5.35950   3
   2  -4 -19 59.0161 4.20420   3
   2  -4 -19 54.6637 4.21615   6
   2  -4 -19 64.1207 4.75765   4
   2  -4 -19 56.5238 4.11721   6
   2   4 -19 58.2035 5.32388   5
   2   4 -19 63.1797 7.65542   3
   1  -4 -19 2.49689 1.35674   3
  -1  -4  19 -1.3605 0.96525   6
   1  -4 -19 0.85497 1.36340   4
   1   4 -19 -0.2617 1.22559   5
   1   4 -19 0.37842 1.77515   3
   0  -4 -19 30.6207 4.32443   6
   0  -4 -19 29.3364 3.58888   3
   0  -4  19 29.9889 4.16106   6
   0  -4 -19 27.0067 4.01526   4
   0   4 -19 27.7979 4.77841   3
   0   4 -19 25.2061 3.34625   5
  -1  -4 -19 34.3931 4.73291   6
  -1  -4 -19 33.0924 3.93740   3
  -1  -4 -19 29.8676 1.88670   5
   1  -4  19 35.3318 4.73237   6
  -1   4 -19 24.1898 3.79235   6
  -1   4 -19 19.4112 3.58902   5
  -1   4 -19 27.0936 4.73180   3
  -2  -4 -19 2.65881 1.55253   3
  -2  -4 -19 0.60829 1.30836   5
  -2  -4 -19 -3.1574 1.61968   6
  -2   4 -19 -3.6390 1.55846   3
   2   4  19 0.61255 1.63958   4
  -3  -4 -19 -1.7854 1.73173   5
  -3  -4 -19 -1.1069 2.86944   6
  -3  -4 -19 0.33192 1.50655   3
  -3   4 -19 0.26194 2.48422   6
  -3   4 -19 -2.6266 1.77010   3
  -4  -4 -19 6.78450 2.66385   3
   4   4  19 4.44249 2.67397   4
  -4   4 -19 3.05272 3.51498   6
  -4   4 -19 1.72487 2.51133   3
   6  -5 -19 238.616 13.0094   5
   6   5 -19 212.714 13.5525   3
   6   5 -19 219.005 15.0110   4
   6   5 -19 207.197 14.4468   5
   5  -5 -19 30.9461 3.50182   5
   5  -5 -19 26.1538 2.09363   4
   5  -5 -19 21.7379 1.98509   4
   5   5 -19 23.3395 4.61711   3
   5   5 -19 39.2986 5.13500   5
   4  -5 -19 65.7356 3.86395   4
   4  -5 -19 61.6612 3.79288   4
   4  -5 -19 63.5835 4.46470   5
   4  -5 -19 58.6449 3.64766   6
   4  -5 -19 67.3424 3.55225   6
   4   5 -19 67.3359 6.82160   3
   4   5 -19 72.7655 6.53110   5
   3  -5 -19 4.50563 0.94476   5
   3  -5 -19 6.30580 1.77027   6
   3  -5 -19 5.35574 1.33813   6
   3   5 -19 10.2578 3.00043   3
   3   5 -19 2.83644 2.06418   5
   2  -5 -19 -0.1521 1.14840   6
   2  -5 -19 2.02932 1.08928   3
   2  -5 -19 1.63262 1.52452   6
   2  -5 -19 1.33285 1.18732   4
   2   5 -19 -2.4102 1.78674   3
   2   5 -19 2.42346 1.94080   5
  -1  -5  19 14.0876 2.32329   6
   1  -5 -19 14.9954 2.56207   4
   1  -5 -19 12.6994 2.16530   3
   1  -5 -19 18.2318 3.22369   6
   1   5 -19 10.0309 3.36454   3
   0  -5 -19 10.6322 2.90024   6
   0  -5 -19 7.60524 1.81369   3
   0  -5  19 7.03092 2.79259   6
   0  -5 -19 9.27509 2.59794   4
   0   5 -19 11.5147 3.06959   3
  -1  -5 -19 1.40989 1.80348   6
   1  -5  19 -0.2129 2.72590   6
  -1  -5 -19 -0.6050 1.21905   3
  -1   5 -19 -1.3192 1.30899   6
  -1   5 -19 -1.6828 1.38532   3
  -2  -5 -19 145.857 10.0972   3
  -2  -5 -19 156.613 8.64105   5
  -2  -5 -19 143.021 11.9766   6
  -2   5 -19 142.214 10.7499   6
  -2   5 -19 144.070 10.7053   3
  -3  -5 -19 -1.4351 1.66955   3
  -3  -5 -19 -0.3412 1.76856   5
  -3  -5 -19 1.23201 2.86021   6
  -3   5 -19 1.31889 2.72534   6
   3   5  19 3.84040 1.96422   4
  -3   5 -19 0.42824 1.47134   3
  -4  -5 -19 72.1707 7.45264   3
  -4  -5 -19 78.0163 9.91771   6
  -4   5 -19 68.3156 7.47628   3
  -4   5 -19 67.1264 8.64909   6
   4   5  19 59.5311 6.57372   4
   5  -6 -19 2.84946 1.85617   5
   5  -6 -19 5.68571 1.29692   6
   5   6 -19 3.15501 2.44812   3
   5   6 -19 5.93044 2.80077   5
   4  -6 -19 44.9999 3.71827   6
   4  -6 -19 49.8435 3.79577   5
   4   6 -19 51.2535 5.61338   5
   4   6 -19 45.4509 5.81978   3
   3  -6 -19 6.90179 2.23225   6
   3  -6 -19 4.25895 0.75386   4
   3  -6 -19 4.73295 1.73041   6
   3  -6 -19 8.42718 1.24153   5
   3   6 -19 7.81622 2.67872   3
   3   6 -19 4.53100 2.02648   5
   2  -6 -19 22.1455 2.15886   3
   2  -6 -19 24.9691 3.52316   6
  -2  -6  19 16.6610 1.99314   6
   2  -6 -19 24.1789 3.24425   6
   2   6 -19 16.9832 3.95553   3
   2   6 -19 28.7059 4.05807   5
  -1  -6  19 2.06889 1.93577   6
   1  -6 -19 0.34755 1.55068   6
   1  -6 -19 2.83703 1.57984   4
   1  -6 -19 2.06890 1.24167   3
   1   6 -19 -0.1518 1.60814   3
   1   6 -19 0.94670 1.72870   5
   0  -6 -19 49.0814 4.59116   3
   0  -6 -19 43.3072 4.25890   4
   0  -6  19 52.9304 6.24456   6
   0  -6 -19 46.2095 5.53549   6
   0   6 -19 47.2116 5.86392   3
   0   6 -19 49.3611 5.29952   5
  -1  -6 -19 3.07624 1.58823   3
   1  -6  19 5.12096 3.93699   6
  -1  -6 -19 7.54830 2.03956   4
  -1  -6 -19 2.43453 1.96796   6
  -1  -6 -19 1.96573 0.81862   5
  -1   6 -19 1.66033 1.97074   3
  -2  -6 -19 167.828 13.3823   6
  -2  -6 -19 190.780 9.27597   5
  -2  -6 -19 193.613 11.7454   3
   2   6  19 188.059 12.8410   4
  -2   6 -19 172.882 12.4150   3
  -3  -6 -19 48.2208 7.29564   6
  -3  -6 -19 46.8935 5.98621   3
  -3   6 -19 39.5378 6.38010   6
   3   6  19 47.6324 5.27680   4
  -4  -6 -19 15.6418 5.33126   6
  -4  -6 -19 22.8502 4.66476   3
  -4   6 -19 27.7454 5.89945   6
   4   6  19 19.6797 3.90038   4
   5   7 -19 -0.7812 3.03097   5
   5   7 -19 3.77002 2.72671   3
   4  -7 -19 6.43708 2.66042   6
   4  -7 -19 3.72896 1.67590   6
   4  -7 -19 5.45281 1.73560   5
   4   7 -19 9.16008 2.80024   5
   4   7 -19 12.3129 3.91611   3
   3  -7 -19 28.0302 3.28778   6
   3  -7 -19 20.8639 3.53850   6
   3   7 -19 36.0715 4.80628   5
   3   7 -19 17.7858 4.32992   3
   2  -7 -19 4.33984 0.96129   3
   2  -7 -19 5.05454 0.85502   4
   2  -7 -19 4.24878 1.74725   6
   2  -7 -19 4.31083 2.27264   6
  -2  -7  19 5.51595 1.97632   6
   2  -7 -19 4.74093 0.98584   3
   2   7 -19 3.94801 2.27868   5
   2   7 -19 6.69065 2.98028   3
   1  -7 -19 10.7167 3.00531   6
  -1  -7  19 9.24783 3.16986   6
   1  -7 -19 12.9365 2.05780   4
   1  -7 -19 8.08562 1.83555   3
   1  -7 -19 11.5874 2.13648   3
   1   7 -19 7.07238 3.29783   3
   1   7 -19 11.3065 3.18233   5
   0  -7  19 5.90308 3.45246   6
   0  -7 -19 -1.2257 1.55550   6
   0  -7 -19 0.31558 1.24152   3
   0  -7 -19 1.41734 1.32171   4
   0   7 -19 2.44477 2.17596   3
   0   7 -19 3.17682 2.11238   5
  -1  -7 -19 73.4348 9.47699   6
  -1  -7 -19 75.4111 6.38341   4
  -1  -7 -19 80.3324 4.29040   5
  -1  -7 -19 77.2762 6.46287   3
  -1   7 -19 76.4236 7.77674   3
  -1   7 -19 90.9524 7.58544   5
  -2  -7 -19 36.8074 3.71599   5
  -2  -7 -19 43.4745 5.22187   3
  -2  -7 -19 52.8453 6.58250   6
  -2   7 -19 31.6234 5.76364   3
  -2   7 -19 43.8820 6.05081   6
  -3  -7 -19 -3.8912 2.59979   6
  -3  -7 -19 -1.9252 2.01844   3
  -3   7 -19 3.63165 3.06429   6
   3   7  19 3.02119 2.03718   4
  -3   7 -19 1.42159 2.82875   3
   4  -8 -19 9.59624 2.36278   6
   4   8 -19 13.2468 4.23137   3
   3  -8 -19 -0.3175 1.04198   5
  -3  -8  19 0.13353 1.10514   6
  -3  -8  19 0.46556 1.85287   6
   3   8 -19 -1.6249 2.68562   3
   3   8 -19 1.09249 2.18846   5
   2  -8 -19 21.3652 3.88784   6
  -2  -8  19 16.2011 3.64099   6
   2  -8 -19 16.3950 3.14067   6
   2   8 -19 15.2738 4.06430   3
   2   8 -19 14.6784 3.69130   5
   1  -8 -19 2.20036 1.10971   4
   1  -8 -19 1.60547 1.37601   3
  -1  -8  19 1.78771 3.33553   6
   1  -8 -19 0.42938 1.62527   6
   1   8 -19 -2.6902 1.85887   5
   1   8 -19 4.80809 2.56855   3
   0  -8  19 11.2860 5.10548   6
   0  -8 -19 19.7692 4.07856   6
   0  -8 -19 23.1182 3.26224   4
   0  -8 -19 23.3150 3.18146   3
   0  -8 -19 27.6572 4.35610   3
   0   8 -19 21.4237 5.01839   3
   0   8 -19 25.7208 4.82303   5
  -1  -8 -19 4.06092 1.77634   3
  -1  -8 -19 4.53502 2.58719   6
  -1  -8 -19 6.83853 2.26812   4
  -1   8 -19 5.53678 2.55220   3
  -1   8 -19 3.71104 2.37335   5
  -2  -8 -19 64.8648 6.33561   3
  -2  -8 -19 55.9274 7.68442   6
  -3  -8 -19 74.2034 9.38474   6
   3   8  19 65.2242 6.15835   4
  -3   8 -19 50.4751 8.02136   3
  -3   8 -19 58.9986 8.07687   6
   3  -9 -19 15.5346 3.20459   6
   3  -9 -19 22.8759 2.84242   5
  -3  -9  19 28.2625 3.51132   6
   3   9 -19 20.5333 5.23187   3
   2  -9 -19 29.3660 4.37338   6
  -2  -9  19 28.2407 8.31353   6
   2   9 -19 26.9082 5.05722   3
   2   9 -19 36.7638 5.30821   5
   1  -9 -19 110.648 5.27091   5
   1  -9 -19 107.956 6.57812   3
   1  -9 -19 117.422 5.40559   5
   1   9 -19 118.829 10.6386   3
   1   9 -19 97.3334 8.67663   5
   0  -9 -19 11.0252 3.12553   6
   0  -9 -19 8.87885 2.13120   3
   0  -9 -19 8.04624 3.67748   4
   0  -9 -19 15.4784 2.88346   3
   0  -9 -19 10.3133 1.79019   5
   0   9 -19 12.4670 3.95841   3
   0   9 -19 15.7293 3.84761   5
  -1  -9 -19 39.5276 5.22515   3
  -1  -9 -19 49.1894 6.70261   6
  -1   9 -19 31.8764 6.66951   3
  -1   9 -19 18.8461 6.17463   5
  -2  -9 -19 67.9717 6.71132   3
  -2  -9 -19 77.1699 9.02680   6
  -2   9 -19 57.2206 7.96263   3
  -2   9 -19 62.0525 7.16879   5
   2 -10 -19 89.2982 8.29507   6
   2 -10 -19 107.085 6.05383   5
   2  10 -19 101.339 9.84327   3
   2  10 -19 101.632 9.21450   5
   1 -10 -19 2.89106 2.11030   6
   1 -10 -19 0.33760 1.17498   5
   1  10 -19 1.78112 2.64587   5
   1  10 -19 -4.6737 1.95475   3
   0 -10 -19 50.6598 6.92114   6
   0 -10 -19 55.6231 4.98203   3
   0 -10 -19 50.4018 3.92141   5
   0  10 -19 49.0041 6.60931   3
   0  10 -19 42.4201 6.44757   5
  -1 -10 -19 18.9703 3.42852   3
  -1 -10 -19 22.7763 5.06577   6
  -1  10 -19 22.3117 4.52094   5
  -1  10 -19 23.8843 5.07166   3
   6   0 -20 19.7313 3.81388   4
   6   0 -20 18.7789 3.72873   5
   5   0 -20 1.21384 1.79949   4
   5   0 -20 6.67165 2.20331   5
   5   0 -20 8.10341 1.79573   3
  -5   0  20 5.30749 2.19697   3
  -4   0  20 32.0272 4.07361   3
   4   0 -20 39.0536 3.92268   5
   4   0 -20 33.3961 3.85953   3
   3   0 -20 142.718 8.98522   3
   3   0 -20 147.463 7.87440   5
   2   0 -20 24.1001 2.67012   5
   2   0 -20 28.9472 3.90409   3
   1   0 -20 191.066 8.33039   6
   1   0 -20 225.142 11.9833   3
   0   0 -20 47.4382 5.08868   3
   0   0 -20 51.5300 4.62404   6
  -1   0 -20 206.505 12.4906   6
  -1   0 -20 195.626 12.2730   3
  -1   0 -20 208.305 10.1337   5
  -2   0 -20 80.0635 8.01417   6
  -2   0 -20 89.6275 7.76188   3
  -2   0 -20 81.2845 5.78842   5
  -3   0 -20 88.1437 8.32015   3
  -3   0 -20 80.6016 8.61816   6
  -4   0 -20 81.9402 9.24171   6
   6  -1 -20 -0.4049 1.94424   5
   6  -1 -20 -0.7638 1.80986   4
   6   1 -20 2.75872 2.04171   5
   6   1 -20 2.50689 2.42040   4
  -5  -1  20 10.4676 3.11620   3
   5  -1 -20 8.51186 2.27283   4
   5   1 -20 4.30242 2.59474   4
   5   1 -20 15.0255 2.64937   3
   5   1 -20 8.18077 2.60310   5
   4  -1 -20 -1.6337 1.33910   5
  -4  -1  20 2.91981 1.95611   3
   4  -1 -20 3.13283 1.82307   4
   4  -1 -20 1.19642 1.25770   3
   4   1 -20 2.06183 1.61451   5
   4   1 -20 0.74624 1.40777   3
   3  -1 -20 26.1712 2.72844   5
   3  -1 -20 25.6570 3.67396   3
  -3  -1  20 17.7387 3.22949   3
   3  -1 -20 19.2378 3.37276   4
   3   1 -20 22.0980 3.22325   5
   3   1 -20 27.8117 3.96850   3
   2  -1 -20 67.7613 5.50606   4
  -2  -1  20 59.4279 5.88658   3
   2  -1 -20 65.1089 5.19414   3
   2   1 -20 57.4187 4.56688   5
   2   1 -20 63.4179 5.79165   3
   1  -1 -20 9.67450 1.58646   6
   1  -1 -20 7.27306 2.13870   3
   1   1 -20 13.4694 3.14161   3
   0  -1 -20 0.99459 1.60363   3
   0   1 -20 6.77050 2.17258   3
   0   1 -20 2.50933 1.61659   6
  -1  -1 -20 42.7040 5.35029   3
  -1  -1 -20 54.2606 5.63897   6
   1  -1  20 38.9787 4.52835   6
  -1   1 -20 47.6277 4.04330   5
  -1   1 -20 42.4020 4.90202   6
  -1   1 -20 54.9903 5.69584   3
  -2  -1 -20 3.31439 2.03586   3
  -2  -1 -20 6.52133 2.31371   6
  -2  -1 -20 3.51606 1.64393   5
  -2   1 -20 0.74386 1.92552   3
  -2   1 -20 4.80449 2.65996   6
  -2   1 -20 0.47371 2.08039   5
  -3  -1 -20 -0.8411 1.99802   5
  -3  -1 -20 5.32689 2.73712   6
  -3  -1 -20 3.95466 2.13532   3
   3   1  20 2.21739 1.93530   4
  -3   1 -20 5.05968 3.06942   6
  -3   1 -20 0.92747 2.26377   3
  -4  -1 -20 0.54236 2.52581   3
  -4  -1 -20 -0.5291 3.13960   6
  -4   1 -20 -3.4706 2.59341   6
   4   1  20 5.67471 2.53229   4
   6  -2 -20 7.56005 2.21919   4
   6  -2 -20 7.26400 2.81988   5
   6   2 -20 14.3637 3.18232   5
   6   2 -20 7.14324 3.43543   4
   5  -2 -20 170.207 9.84423   4
   5  -2 -20 172.851 10.2364   4
   5   2 -20 171.030 10.4242   3
   5   2 -20 183.017 11.0531   5
   5   2 -20 194.497 12.2032   4
  -4  -2  20 24.4440 3.97002   3
   4  -2 -20 21.7214 2.35252   3
   4  -2 -20 18.7537 3.44821   4
   4   2 -20 18.5344 3.42480   3
   3  -2 -20 160.490 8.88445   3
   3  -2 -20 174.228 8.94531   5
   3   2 -20 163.424 9.39639   5
   3   2 -20 177.539 10.7149   3
   2  -2 -20 92.5521 6.22184   3
   2  -2 -20 92.8305 6.59472   4
   2   2 -20 88.1660 7.30061   3
   2   2 -20 92.6917 6.17374   5
   1  -2 -20 207.509 11.3982   4
   1  -2 -20 189.442 9.67712   6
   1  -2 -20 206.046 11.0232   3
   1   2 -20 189.387 11.8086   3
   0  -2 -20 20.7432 3.62524   6
   0  -2 -20 26.0243 3.61258   3
   0  -2  20 22.3805 3.02093   6
   0   2 -20 20.7777 3.71006   3
   0   2 -20 22.4429 3.04946   6
  -1  -2 -20 3.47194 2.37138   6
   1  -2  20 -1.9983 1.82456   6
  -1  -2 -20 1.79136 0.87844   5
  -1   2 -20 -1.0375 1.55736   3
  -1   2 -20 0.79360 1.88711   6
  -1   2 -20 -2.4799 1.19726   5
  -2  -2 -20 13.0280 2.26097   5
  -2  -2 -20 11.9183 2.82973   3
  -2  -2 -20 6.06263 3.09709   6
  -2   2 -20 11.7502 2.65427   5
  -2   2 -20 12.6920 3.27864   3
  -2   2 -20 10.9054 3.40883   6
  -3  -2 -20 4.42086 2.24154   5
  -3  -2 -20 9.81061 3.62643   6
  -3  -2 -20 6.56053 2.65015   3
  -3   2 -20 3.68852 3.17862   6
   3   2  20 7.21898 2.71596   4
  -3   2 -20 4.74807 2.81351   3
  -4  -2 -20 65.8838 9.21892   6
  -4  -2 -20 59.9903 8.73213   3
  -4   2 -20 82.2367 9.27523   6
  -4   2 -20 85.8593 8.13614   3
   4   2  20 67.2915 7.51932   4
   6  -3 -20 23.6214 3.48050   4
   6  -3 -20 21.9124 3.80237   5
   6   3 -20 28.6228 5.37690   4
   6   3 -20 20.5375 4.06171   3
   6   3 -20 20.3000 4.26210   5
   5  -3 -20 -2.1739 1.51365   5
   5  -3 -20 2.09977 1.61999   4
   5  -3 -20 -1.9400 1.31625   4
   5   3 -20 2.82070 2.19500   3
   5   3 -20 -0.1218 1.87340   5
   4  -3 -20 16.3496 2.52577   4
   4  -3 -20 14.7601 2.60583   4
   4  -3 -20 17.6274 2.55488   5
   4   3 -20 17.9150 3.47303   5
   4   3 -20 16.6889 3.56202   3
   3  -3 -20 10.4721 2.23516   4
   3  -3 -20 8.66828 1.74377   3
   3  -3 -20 8.31963 1.46280   5
   3   3 -20 5.09393 2.74040   3
   3   3 -20 4.77062 2.15937   5
   2  -3 -20 60.2020 4.74721   3
   2  -3 -20 64.5193 5.15167   4
   2   3 -20 58.5843 6.29969   3
   2   3 -20 59.8128 5.14941   5
   1  -3 -20 2.42818 1.45966   6
   1  -3 -20 4.57461 1.73700   3
   1  -3 -20 0.72256 1.68750   4
   1   3 -20 4.65366 2.28072   3
   0  -3 -20 47.8181 5.19512   6
   0  -3  20 48.7787 4.47947   6
   0  -3 -20 54.0293 5.89775   4
   0  -3 -20 44.9874 4.76442   3
   0   3 -20 50.3641 5.88297   3
   1  -3  20 18.9154 3.35266   6
  -1  -3 -20 15.1170 1.82387   5
  -1  -3 -20 14.4816 3.14131   3
  -1  -3 -20 14.2805 3.43967   6
  -1   3 -20 20.7847 3.91940   3
  -1   3 -20 18.2583 3.81442   6
  -1   3 -20 23.8355 3.11665   5
  -2  -3 -20 6.52986 2.70577   3
  -2  -3 -20 6.83374 1.76121   5
  -2  -3 -20 3.54534 2.48506   6
  -2   3 -20 4.01637 2.56252   3
  -2   3 -20 6.07798 2.60016   6
  -3  -3 -20 3.73319 1.98441   3
  -3  -3 -20 6.03393 2.67136   6
   3   3  20 0.63739 1.72392   4
  -3   3 -20 1.44278 2.81016   6
  -3   3 -20 3.04294 2.54457   3
  -4  -3 -20 64.2426 9.08003   6
  -4   3 -20 64.7556 6.95547   3
  -4   3 -20 63.7493 8.90496   6
   4   3  20 56.3529 7.10503   4
   5  -4 -20 329.995 16.0209   5
   5   4 -20 341.640 17.8996   5
   5   4 -20 325.240 17.6188   3
   4  -4 -20 3.91119 1.54268   4
   4  -4 -20 5.99453 1.59730   4
   4  -4 -20 5.79603 1.35949   5
   4   4 -20 8.65689 2.40318   5
   4   4 -20 5.93848 2.74662   3
   3  -4 -20 151.026 8.41964   4
   3  -4 -20 153.995 7.15873   3
   3  -4 -20 153.747 6.96431   5
   3   4 -20 160.439 9.74770   5
   3   4 -20 161.579 10.7494   3
   2  -4 -20 21.0979 2.41344   6
   2  -4 -20 20.6856 2.54915   6
   2  -4 -20 21.9656 3.10975   4
   2   4 -20 17.8161 3.74516   3
   2   4 -20 19.0043 3.61736   5
   1  -4 -20 12.5336 2.28333   3
   1  -4 -20 9.58583 2.56351   4
  -1  -4  20 13.2205 1.83230   6
   1   4 -20 13.2178 3.64458   3
   1   4 -20 12.5189 2.79694   5
   0  -4 -20 3.54543 1.64329   3
   0  -4  20 8.19354 2.35414   6
   0  -4 -20 3.04971 2.14365   6
   0  -4 -20 3.64983 2.00449   4
   0   4 -20 0.89672 1.67054   5
   0   4 -20 -0.1622 1.97717   3
  -1  -4 -20 63.3581 3.39282   5
  -1  -4 -20 64.3973 6.88108   6
  -1  -4 -20 53.1920 5.61484   3
  -1   4 -20 57.6276 6.68286   3
  -1   4 -20 70.5394 6.25203   6
  -2  -4 -20 2.22355 1.77891   3
  -2  -4 -20 2.21755 1.36551   5
  -2   4 -20 2.25529 2.03320   3
  -2   4 -20 2.75568 1.94698   6
   2   4  20 2.39912 1.64476   4
  -3  -4 -20 18.6463 4.06963   3
  -3  -4 -20 22.1408 5.26137   6
  -3   4 -20 16.4496 3.80153   3
  -3   4 -20 12.3274 4.50750   6
   3   4  20 17.8377 3.67505   4
  -4  -4 -20 36.6176 7.22154   6
  -4   4 -20 31.7026 6.69004   6
   4   4  20 37.5644 5.47418   4
  -4   4 -20 36.3630 5.72041   3
   5  -5 -20 2.37456 1.82151   5
   5  -5 -20 1.34903 0.92700   4
   5   5 -20 4.32752 2.45938   5
   5   5 -20 1.70760 2.29522   3
   4  -5 -20 3.47347 1.14446   5
   4   5 -20 8.39882 2.48180   3
   4   5 -20 2.09869 1.99164   5
   3  -5 -20 2.45754 1.52115   4
   3  -5 -20 5.23928 1.28189   6
   3  -5 -20 6.99456 1.64246   6
   3   5 -20 1.25789 2.45440   3
   3   5 -20 7.60948 2.47003   5
   2  -5 -20 41.0329 3.79473   6
   2  -5 -20 42.9948 3.80792   4
   2  -5 -20 45.1022 4.04326   6
   2  -5 -20 37.6042 3.35139   3
   2   5 -20 42.3695 4.88167   5
   2   5 -20 44.4540 5.83687   3
   1  -5 -20 37.0538 3.58147   3
   1  -5 -20 42.5211 3.98932   4
  -1  -5  20 34.0312 3.37317   6
   1  -5 -20 30.7552 4.19201   6
   1   5 -20 38.3539 5.18411   3
   1   5 -20 29.4300 4.28249   5
   0  -5 -20 53.9452 6.00278   6
   0  -5 -20 63.6103 5.28124   3
   0  -5 -20 59.0464 5.47835   4
   0  -5  20 57.9557 6.01343   6
   0   5 -20 60.6738 6.45368   3
  -1  -5 -20 32.7104 4.31301   3
  -1  -5 -20 30.2993 2.04947   5
   1  -5  20 21.8600 5.07564   6
  -1  -5 -20 36.7153 5.67680   6
  -1   5 -20 25.0299 4.87232   3
  -1   5 -20 23.2874 4.54153   6
  -2  -5 -20 52.2658 5.85367   3
  -2  -5 -20 53.6217 4.18912   5
  -2  -5 -20 53.4026 6.85850   6
  -2   5 -20 40.2193 5.85462   6
  -2   5 -20 48.6403 5.91000   3
   2   5  20 63.3915 5.83180   4
  -3  -5 -20 10.1811 3.69283   6
  -3  -5 -20 14.6585 3.34157   3
   3   5  20 18.4288 3.64368   4
  -3   5 -20 10.0791 3.85197   6
   5   6 -20 104.602 9.23464   3
   4  -6 -20 4.33192 1.16206   6
   4  -6 -20 6.11609 2.57930   6
   4  -6 -20 2.99191 1.45230   5
   4   6 -20 5.88973 2.56411   5
   4   6 -20 4.95998 2.98022   3
   3  -6 -20 112.844 5.46998   5
   3  -6 -20 114.635 5.32271   4
   3  -6 -20 103.923 7.17107   6
   3  -6 -20 115.334 5.27282   4
   3  -6 -20 123.452 7.13705   6
   3   6 -20 116.313 9.74789   3
   3   6 -20 129.565 8.92484   5
   2  -6 -20 27.5902 3.75082   6
   2  -6 -20 31.1834 3.76857   6
   2  -6 -20 35.8589 3.69039   4
   2  -6 -20 32.3455 2.74272   3
   2   6 -20 32.9560 4.55436   5
   2   6 -20 28.3892 5.44782   3
   1  -6 -20 272.711 13.0247   3
   1  -6 -20 276.003 13.4539   4
  -1  -6  20 270.585 14.7422   6
   1  -6 -20 289.390 15.3014   6
   1   6 -20 289.249 15.0725   5
   0  -6 -20 6.72386 2.48255   6
   0  -6 -20 7.02597 1.87504   3
   0  -6  20 6.60658 3.44637   6
   0   6 -20 4.18324 2.39402   5
   0   6 -20 1.49787 2.45514   3
   1  -6  20 10.1680 4.55922   6
  -1  -6 -20 16.4731 2.99043   3
  -1  -6 -20 8.21837 2.91794   6
  -1  -6 -20 15.9014 1.66053   5
  -1   6 -20 9.81099 3.68767   3
  -2  -6 -20 23.4735 4.09299   3
  -2  -6 -20 21.3615 4.98055   6
  -2  -6 -20 25.8086 3.11936   5
  -2   6 -20 11.0534 3.88827   6
   2   6  20 21.2652 3.52923   4
  -2   6 -20 16.5607 4.16687   3
  -3  -6 -20 23.5949 4.34808   3
  -3  -6 -20 21.6613 5.38305   6
   3   6  20 23.5085 4.13603   4
  -3   6 -20 17.1435 3.91785   3
  -3   6 -20 18.1585 4.76535   6
   4  -7 -20 39.8594 3.89316   5
   4   7 -20 33.2191 6.08217   3
   4   7 -20 51.9587 5.97203   5
   3  -7 -20 2.42698 1.62077   6
   3  -7 -20 2.18887 2.59201   6
   3   7 -20 2.81931 2.32319   5
   3   7 -20 4.71947 2.75752   3
   2  -7 -20 42.6000 2.74928   4
   2  -7 -20 46.0160 5.11645   6
   2  -7 -20 48.0513 2.76303   3
  -2  -7  20 34.1942 3.44443   6
   2  -7 -20 44.7126 4.62309   6
   2  -7 -20 44.1224 2.75368   3
   2   7 -20 53.3249 6.50058   3
   2   7 -20 43.0064 5.40496   5
  -1  -7  20 -1.3621 2.49511   6
   1  -7 -20 -1.1667 1.01473   3
   1  -7 -20 -0.7683 1.40925   4
   1  -7 -20 1.02305 1.80859   6
   1   7 -20 3.28564 2.31965   5
   1   7 -20 1.34584 2.62518   3
   0  -7 -20 18.5878 3.05063   4
   0  -7  20 13.7105 4.31493   6
   0  -7 -20 8.92047 3.25463   6
   0  -7 -20 17.0270 2.77002   3
   0   7 -20 16.3583 3.89093   5
   0   7 -20 14.3216 3.86580   3
  -1  -7 -20 38.0713 5.93158   3
  -1  -7 -20 52.3917 6.65643   6
  -1  -7 -20 45.8354 3.09022   5
  -1   7 -20 35.4657 6.24879   3
  -1   7 -20 40.4191 5.60356   5
  -2  -7 -20 6.12094 2.93151   6
  -2  -7 -20 0.27088 1.81797   3
  -2   7 -20 5.68538 2.87875   6
   2   7  20 1.51381 1.80614   4
  -2   7 -20 9.81514 3.75213   3
   4  -8 -20 32.4331 4.05681   6
   4  -8 -20 33.8997 3.72086   5
   4   8 -20 22.6706 5.46261   3
   4   8 -20 29.5236 5.18858   5
   3  -8 -20 46.2583 3.57830   5
   3  -8 -20 48.3229 5.19140   6
   3   8 -20 50.4128 6.22492   5
   3   8 -20 37.8086 6.30787   3
   2  -8 -20 27.6305 3.91322   6
   2  -8 -20 36.8508 5.11271   6
   2   8 -20 28.0975 5.31266   5
   2   8 -20 29.0785 5.82152   3
   1  -8 -20 1.59993 1.44447   3
   1  -8 -20 0.19169 1.13303   3
   1  -8 -20 -1.6360 1.77822   6
  -1  -8  20 1.27425 3.71406   6
   1   8 -20 -1.6571 2.20721   5
   1   8 -20 1.40035 2.45115   3
   0  -8 -20 27.6201 3.48538   4
   0  -8 -20 30.8688 3.82447   3
   0  -8  20 20.0011 5.51770   6
   0  -8 -20 31.0290 4.29299   3
   0  -8 -20 41.4760 6.37404   6
   0   8 -20 26.3489 4.91210   5
   0   8 -20 24.3863 4.99058   3
  -1  -8 -20 9.80404 3.23988   3
  -1  -8 -20 7.84760 3.44768   6
  -1   8 -20 6.61025 3.03525   5
  -2  -8 -20 9.42473 3.94261   6
  -2  -8 -20 4.84966 2.34095   3
  -2   8 -20 6.31631 3.33016   3
   2   8  20 8.70304 2.40233   4
   3  -9 -20 17.0187 3.29679   6
   3  -9 -20 16.3059 2.46030   5
   3   9 -20 15.3631 4.47523   5
   3   9 -20 16.1414 4.55590   3
   2  -9 -20 120.042 9.18404   6
   1  -9 -20 2.87276 2.32811   6
   1  -9 -20 2.09628 0.92834   5
   0  -9 -20 129.901 10.8323   6
   0  -9 -20 155.745 8.79711   3
   0   9 -20 124.877 11.5842   3
  -1  -9 -20 19.8761 3.44812   3
  -1  -9 -20 15.1927 4.11477   6
  -1   9 -20 29.8315 5.47404   5
  -1   9 -20 18.9919 4.55961   3
   5   0 -21 -1.1136 1.48369   3
   5   0 -21 -1.0031 1.52870   5
   5   0 -21 1.97371 1.76237   4
   4   0 -21 4.26442 1.67077   3
  -4   0  21 4.45948 1.96798   3
   3   0 -21 2.63994 1.28319   5
   3   0 -21 -0.3365 1.58619   3
   2   0 -21 -0.2531 1.31251   3
   2   0 -21 -0.1767 1.09445   5
   1   0 -21 2.13877 1.96506   3
  -1   0 -21 1.77552 1.99433   6
  -2   0 -21 -0.1101 1.16437   3
  -2   0 -21 1.70106 2.32408   6
  -3   0 -21 1.02365 2.38369   3
  -3   0 -21 3.50425 2.92280   6
  -4   0 -21 -2.1885 3.60881   6
  -4   0 -21 1.99744 2.25090   3
   5  -1 -21 29.5808 3.88649   5
   5  -1 -21 22.9605 3.56078   4
   5   1 -21 18.1305 3.65517   5
   5   1 -21 19.0184 3.21826   3
   5   1 -21 19.1541 4.11221   4
  -4  -1  21 196.204 11.4428   3
   4  -1 -21 200.528 10.2884   3
   4  -1 -21 207.161 10.5465   5
   4   1 -21 197.103 11.3542   3
  -3  -1  21 79.1268 7.13542   3
   3  -1 -21 105.390 7.01964   3
   3  -1 -21 99.7258 5.72925   5
   3   1 -21 91.7570 6.27067   5
   3   1 -21 87.9476 7.03070   3
   2  -1 -21 218.090 11.7477   3
   2   1 -21 216.860 10.7829   5
   2   1 -21 221.784 12.6372   3
   1  -1 -21 212.355 9.71018   6
   1  -1 -21 247.998 12.8792   3
   1   1 -21 233.487 13.0910   3
   0  -1 -21 138.875 9.31149   3
   0   1 -21 140.124 8.34806   6
   0   1 -21 151.609 10.0078   3
  -1  -1 -21 21.6894 3.85194   3
  -1  -1 -21 31.1062 3.04812   5
   1  -1  21 22.0635 3.78628   6
  -1  -1 -21 32.0601 4.60397   6
  -1   1 -21 21.2109 3.16366   5
  -1   1 -21 22.6752 4.02745   3
  -1   1 -21 23.2273 4.14313   6
  -2  -1 -21 139.826 10.9964   6
  -2  -1 -21 150.428 8.59522   5
  -2  -1 -21 156.911 10.7946   3
  -2   1 -21 151.809 11.2882   6
  -2   1 -21 142.569 8.95145   5
  -2   1 -21 156.713 11.0177   3
  -3  -1 -21 39.9009 5.31283   3
  -3  -1 -21 40.5542 6.34748   6
  -3   1 -21 26.5211 4.66595   3
  -3   1 -21 29.6939 6.08897   6
   5  -2 -21 0.33704 1.77684   4
   5  -2 -21 -3.8370 1.73221   5
   5   2 -21 2.91993 1.85817   3
   5   2 -21 1.98775 2.09254   5
   4  -2 -21 15.0647 2.45108   5
   4  -2 -21 11.6000 2.79672   4
   4  -2 -21 11.6808 1.84713   3
   4   2 -21 12.0421 3.05894   3
   4   2 -21 6.93305 2.42986   5
   3  -2 -21 9.36237 2.18748   3
   3  -2 -21 9.86954 2.30288   4
   3  -2 -21 15.2931 1.99219   5
   3   2 -21 11.1668 2.46218   5
   3   2 -21 8.23699 2.74343   3
   2  -2 -21 15.0865 2.74102   3
   2  -2 -21 11.9778 2.56943   4
   2   2 -21 13.8174 2.60165   5
   2   2 -21 8.38911 2.85552   3
   1  -2 -21 2.80120 1.41014   3
   1  -2 -21 0.32402 1.07502   6
   1   2 -21 2.64095 2.07213   3
   0  -2 -21 85.5713 6.69751   3
   0  -2 -21 85.8646 6.53623   6
   0   2 -21 70.8788 5.62780   6
   0   2 -21 87.7476 7.45558   3
   0   2 -21 77.1729 5.51342   5
  -1  -2 -21 33.7914 3.20992   5
  -1  -2 -21 32.0998 4.82076   6
  -1  -2 -21 21.8232 4.04511   3
   1  -2  21 31.1074 4.65284   6
  -1   2 -21 24.5441 4.30112   3
  -1   2 -21 23.3013 3.36246   5
  -1   2 -21 28.5315 4.27869   6
  -2  -2 -21 9.09129 2.68100   3
  -2  -2 -21 3.62192 3.11988   6
  -2  -2 -21 8.00678 2.22184   5
  -2   2 -21 13.2580 3.12587   3
  -2   2 -21 10.5878 3.62134   6
  -3  -2 -21 42.4023 4.73561   5
  -3  -2 -21 44.7462 6.63947   6
  -3  -2 -21 48.4041 5.88062   3
  -3   2 -21 32.9998 6.40940   6
  -3   2 -21 40.2613 5.82023   3
   3   2  21 34.9300 5.13275   4
   5  -3 -21 162.502 9.53389   4
   5   3 -21 167.735 11.0979   5
   5   3 -21 168.925 10.9426   3
   4  -3 -21 196.912 10.3986   4
   4  -3 -21 214.815 10.8701   4
   4  -3 -21 191.910 9.96301   5
   4   3 -21 201.695 11.6228   5
   3  -3 -21 65.2244 4.89449   3
   3  -3 -21 76.6538 5.57783   4
   3   3 -21 66.6531 7.66388   3
   2  -3 -21 218.630 10.8889   3
   2  -3 -21 198.747 11.4256   4
   2   3 -21 217.788 13.0646   3
   2   3 -21 209.970 11.3255   5
   1  -3 -21 127.104 8.07572   3
   1  -3 -21 130.707 8.68917   4
   1  -3 -21 131.702 7.82380   6
   1   3 -21 129.950 8.16124   5
   1   3 -21 143.859 9.76388   3
   0  -3  21 119.985 7.43284   6
   0  -3 -21 123.933 8.39292   3
   0  -3 -21 126.479 8.69403   6
   0   3 -21 124.708 7.90611   5
   0   3 -21 128.618 9.78932   3
  -1  -3 -21 211.459 12.1627   3
  -1  -3 -21 188.379 12.5509   6
   1  -3  21 188.684 12.1350   6
  -1  -3 -21 193.927 8.83382   5
  -1   3 -21 204.318 11.8671   6
  -1   3 -21 179.961 12.4176   3
  -2  -3 -21 34.7021 3.64160   5
  -2  -3 -21 30.7421 9.39750   6
  -2  -3 -21 36.5752 5.03075   3
  -2   3 -21 38.7003 5.88631   6
  -2   3 -21 35.4985 5.04813   3
  -3  -3 -21 57.4875 6.92575   3
  -3  -3 -21 50.4834 8.41203   6
  -3   3 -21 54.6643 7.75988   6
   3   3  21 75.0231 7.26313   4
   5  -4 -21 8.73567 2.00468   4
   5   4 -21 6.10323 3.00379   5
   5   4 -21 6.17970 3.06887   3
   4  -4 -21 22.0995 2.68953   4
   4  -4 -21 13.0354 2.50876   4
   4  -4 -21 18.0594 2.47321   5
   4   4 -21 14.8388 3.42285   5
   4   4 -21 21.1360 4.05309   3
   3  -4 -21 3.57595 1.21296   3
   3  -4 -21 5.82727 1.17549   5
   3  -4 -21 4.82227 1.68187   4
   3   4 -21 7.08031 2.91811   3
   3   4 -21 4.64696 2.18824   5
   2  -4 -21 92.4388 5.25002   6
   2  -4 -21 81.2055 6.32100   4
   2  -4 -21 89.1270 5.04382   6
   2  -4 -21 95.7196 5.80648   3
   2   4 -21 96.3704 7.14143   5
   2   4 -21 94.7981 8.32864   3
   1  -4 -21 7.47290 2.49753   4
   1  -4 -21 10.7409 2.14650   3
   1   4 -21 6.75269 2.60451   3
   0  -4 -21 9.22588 2.46172   3
   0  -4  21 6.42767 2.27222   6
   0  -4 -21 8.88632 2.73129   6
   0   4 -21 7.37750 2.73488   3
   1  -4  21 9.56026 3.83486   6
  -1  -4 -21 8.13618 2.74843   6
  -1  -4 -21 7.66356 1.21210   5
  -1  -4 -21 6.61281 2.05882   3
  -1   4 -21 1.88653 2.29876   6
  -1   4 -21 8.90952 3.39224   3
  -2  -4 -21 8.21458 2.00978   5
  -2  -4 -21 2.02055 2.39899   3
  -2  -4 -21 8.68719 3.46692   6
  -2   4 -21 14.3856 3.21644   6
  -2   4 -21 12.6661 3.53901   3
  -3  -4 -21 6.72074 2.51280   3
  -3  -4 -21 6.83504 3.45462   6
  -3   4 -21 1.16924 1.89828   3
  -3   4 -21 0.57388 3.25282   6
   3   4  21 1.77021 1.95522   4
   5   5 -21 -2.6151 2.02874   3
   4  -5 -21 18.5526 2.57062   5
   4  -5 -21 20.6715 2.33625   4
   4   5 -21 17.2946 3.78710   5
   4   5 -21 12.5206 3.45255   3
   3  -5 -21 114.439 5.34721   5
   3  -5 -21 111.130 6.48670   4
   3   5 -21 110.417 9.37558   3
   3   5 -21 107.305 8.10334   5
   2  -5 -21 141.415 8.32558   6
   2  -5 -21 147.815 8.42996   4
   2   5 -21 148.124 9.60002   5
   2   5 -21 163.841 11.4060   3
   1  -5 -21 118.140 7.70173   4
   1  -5 -21 118.289 7.14046   3
   1  -5 -21 121.667 8.10654   6
  -1  -5  21 104.210 5.98900   6
   1   5 -21 125.024 8.57062   5
   0  -5  21 166.689 10.3584   6
   0  -5 -21 169.012 10.5962   4
   0  -5 -21 164.978 11.3182   6
   0  -5 -21 187.106 10.3830   3
   0   5 -21 186.111 12.4943   3
  -1  -5 -21 115.833 8.22079   3
  -1  -5 -21 108.395 9.46686   6
  -1  -5 -21 110.722 5.36723   5
   1  -5  21 103.945 9.46590   6
  -1   5 -21 111.361 9.73854   3
  -1   5 -21 119.659 8.38585   6
  -2  -5 -21 4.69269 3.06126   6
  -2  -5 -21 0.51805 2.14186   3
  -2   5 -21 9.50342 4.85460   6
  -2   5 -21 8.39459 2.86227   3
  -3  -5 -21 47.4030 7.15726   6
  -3  -5 -21 45.5359 6.24121   3
  -3   5 -21 24.6701 5.09256   6
  -3   5 -21 32.9485 5.65986   3
   3   5  21 39.5068 5.50247   4
   4  -6 -21 19.1645 2.65874   5
   4   6 -21 12.0437 4.14665   3
   4   6 -21 15.5153 3.68733   5
   3  -6 -21 61.6779 4.03917   4
   3  -6 -21 68.2399 3.75809   5
   3  -6 -21 68.5307 3.63668   4
   3  -6 -21 64.0545 4.88885   6
   3   6 -21 56.4307 7.58329   3
   3   6 -21 79.6271 6.84968   5
   2  -6 -21 109.083 7.70977   6
   2  -6 -21 109.097 6.41205   4
   2  -6 -21 101.889 7.11966   6
   2  -6 -21 115.907 5.90361   3
   2   6 -21 99.0453 9.37115   3
   2   6 -21 115.731 8.48397   5
   1  -6 -21 77.6112 5.50691   3
   1  -6 -21 88.6020 7.08017   6
   1  -6 -21 81.0203 5.96535   4
   1   6 -21 82.5029 7.05289   5
   1   6 -21 90.6943 8.75668   3
   0  -6  21 37.8173 5.77538   6
   0  -6 -21 60.9834 5.18327   4
   0  -6 -21 47.7733 4.84312   3
   0  -6 -21 51.2330 5.89565   6
   0   6 -21 55.1873 6.30106   3
   0   6 -21 55.1717 5.62397   5
  -1  -6 -21 92.1085 4.77595   5
  -1  -6 -21 91.0143 7.25692   3
   1  -6  21 74.3839 9.79188   6
  -1   6 -21 102.989 9.26167   3
  -2  -6 -21 12.5568 4.11432   6
  -2   6 -21 4.48967 4.35460   3
   2   6  21 7.98988 2.62948   4
  -2   6 -21 4.59817 3.62862   6
   4   7 -21 97.4546 9.57902   3
   3  -7 -21 2.35294 1.64750   6
   3   7 -21 -0.1405 2.37149   3
   3   7 -21 -1.8830 1.87084   5
   2  -7 -21 13.8086 1.78561   3
   2  -7 -21 7.71324 2.38514   6
   2   7 -21 9.81443 3.32739   5
   2   7 -21 14.3908 4.26473   3
   1  -7 -21 32.9558 3.33545   3
   1  -7 -21 32.3152 4.48365   6
  -1  -7  21 26.7728 4.92297   6
   1  -7 -21 30.5501 4.45793   4
   1   7 -21 27.3173 5.35259   3
   1   7 -21 22.8714 4.62986   5
   0  -7 -21 42.7327 5.79461   6
   0  -7 -21 53.0350 4.69577   3
   0   7 -21 48.3618 6.73717   3
   0   7 -21 46.1072 5.80285   5
  -1  -7 -21 68.7534 6.33618   3
  -1  -7 -21 68.6388 7.70148   6
  -1   7 -21 63.6450 6.99412   5
  -2  -7 -21 -3.1476 2.77078   6
  -2  -7 -21 0.31281 1.85093   3
  -2   7 -21 -0.7203 2.05428   3
   2   7  21 1.25525 1.85807   4
   3  -8 -21 16.2895 2.24973   5
   3  -8 -21 11.6506 2.74045   6
   3   8 -21 20.6782 5.01009   5
   2  -8 -21 13.2741 2.89584   6
   2   8 -21 11.3026 4.20120   3
   2   8 -21 15.1729 5.29657   5
   1  -8 -21 31.0415 3.17207   3
   1  -8 -21 30.4971 4.85167   6
   1   8 -21 39.3412 5.62042   5
   0  -8 -21 16.0150 2.76458   3
   0  -8 -21 8.58294 3.18180   6
   0   8 -21 12.8561 5.19334   3
   0   8 -21 16.6663 4.16446   5
  -1  -8 -21 54.3166 5.39068   3
  -1  -8 -21 61.7651 7.56658   6
  -1   8 -21 45.4983 6.54252   3
   5   0 -22 28.7823 4.01997   5
   5   0 -22 25.1544 3.53043   3
   5   0 -22 21.0176 3.90214   4
   4   0 -22 151.838 9.10785   5
   4   0 -22 141.901 8.89494   3
   3   0 -22 8.34814 2.10124   5
   3   0 -22 9.57194 2.47366   3
   2   0 -22 407.688 19.3701   3
   2   0 -22 398.169 17.2314   5
   1   0 -22 1.77884 1.69701   3
   0   0 -22 459.140 22.2267   3
  -1   0 -22 28.1633 4.61974   3
  -1   0 -22 30.3881 3.24499   5
  -1   0 -22 25.4376 4.63861   6
  -2   0 -22 161.646 11.5978   3
  -2   0 -22 163.894 9.77100   5
  -2   0 -22 185.560 12.7247   6
  -3   0 -22 65.4697 8.14932   6
   5  -1 -22 -0.3163 2.03997   4
   5   1 -22 -0.3486 1.80181   5
   5   1 -22 1.54551 2.10071   4
   5   1 -22 -2.5807 1.64372   3
   4  -1 -22 1.70431 1.67992   3
  -4  -1  22 2.54571 3.19129   3
   4  -1 -22 -0.1951 1.46171   5
   4   1 -22 3.42666 1.93522   3
   4   1 -22 1.51047 1.67591   5
   3  -1 -22 22.5811 2.62538   5
   3  -1 -22 19.1115 3.26833   3
   3   1 -22 23.2200 3.16019   5
   3   1 -22 17.8124 3.54270   3
   2  -1 -22 0.73168 1.65121   3
   2   1 -22 -0.0789 1.94306   3
   2   1 -22 0.71979 1.40016   5
   1  -1 -22 2.04436 1.56715   3
   1   1 -22 0.85829 1.65277   3
   0  -1 -22 67.2416 6.55257   6
   0  -1 -22 70.4166 6.21985   3
   0   1 -22 60.7106 4.67524   5
   0   1 -22 59.2955 6.29996   3
   0   1 -22 52.3617 4.97370   6
  -1  -1 -22 63.7935 6.34359   6
  -1  -1 -22 63.9222 4.61708   5
  -1  -1 -22 64.5450 6.32564   3
  -1   1 -22 45.5619 5.85282   6
  -1   1 -22 64.1051 6.68770   3
  -2  -1 -22 12.5277 3.59185   6
  -2  -1 -22 18.7155 3.77907   3
  -2   1 -22 11.0409 3.28297   6
  -2   1 -22 7.12048 3.04270   3
  -3  -1 -22 27.2826 5.35172   3
  -3  -1 -22 16.3575 4.50817   6
   5  -2 -22 8.89914 2.30283   5
   5   2 -22 10.1263 3.08616   5
   5   2 -22 9.91416 2.71881   3
   4  -2 -22 1.63455 1.46241   5
   4  -2 -22 1.79697 2.15512   4
   4   2 -22 -4.3596 1.79766   3
   4   2 -22 -0.8139 1.90468   5
   3  -2 -22 -0.8094 2.13060   4
   3  -2 -22 -0.1197 1.30539   3
   3   2 -22 0.63368 2.15613   3
   2  -2 -22 153.605 9.20202   3
   2   2 -22 146.248 10.6829   3
   2   2 -22 165.951 9.08905   5
   1  -2 -22 8.79165 2.24404   3
   1  -2 -22 11.8638 1.88841   6
   1   2 -22 10.7441 2.89735   3
   0  -2 -22 249.631 13.3075   6
   0   2 -22 223.865 13.3995   6
   0   2 -22 269.342 15.0295   3
  -1  -2 -22 0.25169 1.76171   3
  -1  -2 -22 2.60694 1.49013   5
  -1  -2 -22 4.35813 2.26039   6
  -1   2 -22 1.05130 2.16623   3
  -1   2 -22 -1.4027 2.01478   5
  -1   2 -22 0.71754 2.36395   6
  -2  -2 -22 346.889 18.5130   3
  -2   2 -22 325.625 18.7023   6
  -3  -2 -22 1.37043 2.06025   3
  -3  -2 -22 -0.0293 2.75721   6
  -3   2 -22 5.84639 3.42750   6
  -3   2 -22 2.11478 2.67431   3
   4  -3 -22 11.5739 2.16670   5
   4   3 -22 11.8908 3.17749   3
   4   3 -22 14.9883 3.07750   5
   3  -3 -22 4.80085 2.03576   4
   3  -3 -22 0.87230 1.16851   5
   3   3 -22 2.80852 2.05985   5
   3   3 -22 -1.5588 2.03213   3
   2  -3 -22 1.51647 1.62058   3
   2  -3 -22 -4.5864 1.96365   4
   2   3 -22 -0.6054 2.09027   3
   1  -3 -22 133.423 7.76384   6
   1  -3 -22 141.744 8.61393   3
   1   3 -22 145.793 10.2854   3
   1   3 -22 133.802 8.77913   5
   0  -3 -22 114.964 7.87670   3
   0  -3 -22 100.018 7.77213   6
   0  -3  22 103.286 6.68725   6
   0   3 -22 98.4299 8.64213   3
   0   3 -22 104.735 8.20656   5
  -1  -3 -22 0.98571 1.14453   5
  -1  -3 -22 -1.3827 1.55139   3
  -1  -3 -22 3.84511 2.30594   6
  -1   3 -22 0.58930 1.83667   3
  -1   3 -22 -2.0811 1.99307   6
  -2  -3 -22 74.6428 7.97482   6
  -2  -3 -22 61.9047 6.32868   3
  -2   3 -22 54.4365 7.16538   6
  -3  -3 -22 16.0648 5.00776   6
  -3  -3 -22 18.5795 4.29492   3
  -3   3 -22 10.6707 4.25990   6
  -3   3 -22 11.6321 3.93891   3
   4  -4 -22 4.18523 1.78207   5
   4  -4 -22 4.57801 1.46307   4
   4   4 -22 5.76949 2.52228   5
   4   4 -22 1.15781 2.50506   3
   3  -4 -22 0.22573 1.65203   4
   3  -4 -22 -1.7058 1.05542   3
   3   4 -22 3.46086 2.47457   3
   3   4 -22 0.12279 1.68810   5
   2  -4 -22 40.1550 3.90105   3
   2   4 -22 35.8741 5.72437   3
   2   4 -22 42.8431 4.90989   5
   1  -4 -22 -2.2412 1.92610   4
   1  -4 -22 2.79521 1.66884   3
   1   4 -22 4.77900 2.29968   5
   1   4 -22 3.76251 2.25453   3
   0  -4 -22 164.952 10.6282   6
   0  -4  22 145.396 8.80911   6
   0  -4 -22 154.959 9.71663   3
   0   4 -22 150.170 11.4095   3
  -1  -4 -22 61.6208 5.91263   3
  -1  -4 -22 59.3686 3.60113   5
  -1  -4 -22 47.7484 6.09965   6
   1  -4  22 46.0674 6.56764   6
  -1   4 -22 43.2815 6.13804   3
  -1   4 -22 47.7413 5.57803   6
  -2  -4 -22 101.713 9.71990   6
  -2  -4 -22 120.166 9.25473   3
   4  -5 -22 21.3924 3.09048   4
   4  -5 -22 17.8917 2.68538   5
   4   5 -22 23.5877 4.35778   5
   4   5 -22 24.4201 4.99444   3
   3  -5 -22 31.8434 2.45927   5
   3   5 -22 21.1445 4.32920   5
   3   5 -22 32.9192 5.42687   3
   2  -5 -22 6.35420 2.01921   4
   2  -5 -22 6.62584 1.94347   6
   2   5 -22 9.50709 3.67369   3
   2   5 -22 5.87609 2.25400   5
   1  -5 -22 -1.1388 1.49710   3
   1  -5 -22 0.93516 1.72643   6
   1  -5 -22 -0.3210 1.99384   4
   1   5 -22 3.52783 1.87456   5
   1   5 -22 2.27629 2.18456   3
   0  -5 -22 8.94980 2.79308   6
   0  -5  22 5.61535 2.92416   6
   0  -5 -22 6.17202 2.39105   3
   0   5 -22 6.29849 3.16117   3
   0   5 -22 3.91014 2.45924   5
  -1  -5 -22 4.55800 2.15793   3
  -1  -5 -22 1.13643 2.44438   6
   1  -5  22 4.79253 6.09047   6
  -1   5 -22 3.85057 3.34600   3
  -2  -5 -22 66.1887 6.77449   3
  -2  -5 -22 69.0062 7.92156   6
  -2   5 -22 59.0199 7.14212   3
  -2   5 -22 46.1083 6.14643   6
   3   6 -22 4.16639 3.44266   3
   3   6 -22 3.21778 2.41258   5
   2  -6 -22 31.0887 2.89503   3
   2  -6 -22 26.1972 4.18026   6
   2   6 -22 35.6932 4.88826   5
   2   6 -22 17.6718 4.55185   3
   1  -6 -22 72.8249 5.40666   3
   1  -6 -22 68.8807 6.31271   6
   1   6 -22 80.5068 7.26038   5
   0  -6 -22 20.2548 3.97196   6
   0  -6 -22 26.2013 3.46253   3
   0   6 -22 20.5696 4.74998   3
   0   6 -22 22.7423 4.04366   5
  -1  -6 -22 15.5351 4.14210   6
   2  -7 -22 62.1568 5.91582   6
   2   7 -22 61.1013 7.93780   3
   2   7 -22 48.8562 6.15316   5
   1  -7 -22 244.919 14.6555   6
   1  -7 -22 248.425 12.1555   3
   1   7 -22 266.963 14.9406   5
   0  -7 -22 2.90353 1.77041   3
   0  -7 -22 -1.3564 2.35558   6
   0   7 -22 -3.9470 1.99425   5
   0   7 -22 1.15695 3.42638   3
  -1  -7 -22 175.432 10.7100   3
  -1   7 -22 152.656 12.3242   3
   4   0 -23 -0.8250 1.54345   3
   4   0 -23 1.60779 1.91229   5
   3   0 -23 -1.0699 1.27924   5
   3   0 -23 -0.3888 1.92706   3
   2   0 -23 3.99365 2.15542   3
   2   0 -23 -1.3411 1.47411   5
   1   0 -23 -2.0315 1.92413   3
   0   0 -23 1.75126 1.88074   3
   0   0 -23 3.78150 1.43586   5
  -1   0 -23 -3.3422 2.04551   5
  -1   0 -23 0.53974 2.23248   6
  -2   0 -23 11.1657 5.74364   6
  -2   0 -23 4.37625 2.61016   3
   4  -1 -23 28.8253 3.73505   5
   4  -1 -23 20.1244 3.21470   3
   4   1 -23 17.4862 3.28080   3
   4   1 -23 29.4040 3.66556   5
   3  -1 -23 63.0803 4.63331   5
   3  -1 -23 55.0938 5.47358   3
   3   1 -23 64.2566 5.37836   5
   3   1 -23 61.8425 6.40849   3
   2  -1 -23 1.07482 1.08873   5
   2   1 -23 -1.5444 1.90714   3
   2   1 -23 1.26031 1.27382   5
   1  -1 -23 77.8268 8.42525   3
   1   1 -23 117.711 8.63826   3
   0  -1 -23 30.6526 4.36013   6
   0  -1 -23 25.5023 4.27491   3
   0   1 -23 27.5376 3.26266   5
   0   1 -23 17.0183 3.80287   6
   0   1 -23 14.4310 3.73415   3
  -1  -1 -23 190.300 12.2167   6
  -1  -1 -23 213.072 12.6366   3
  -1   1 -23 166.054 10.2383   5
  -1   1 -23 197.620 12.7742   3
  -1   1 -23 189.985 11.7314   6
  -2  -1 -23 40.1335 7.08442   6
  -2  -1 -23 30.4504 5.11267   3
  -2   1 -23 32.5254 7.26843   6
  -2   1 -23 41.9684 5.57870   3
   4  -2 -23 4.27384 1.74139   5
   4   2 -23 1.39480 1.71756   5
   4   2 -23 0.32993 2.33150   3
   3  -2 -23 1.51678 1.80382   3
   3  -2 -23 1.46108 1.34098   5
   3   2 -23 4.63798 2.16972   3
   3   2 -23 6.21353 2.01798   5
   2  -2 -23 10.0811 2.28884   3
   2   2 -23 6.56815 2.11575   5
   2   2 -23 9.81042 3.10369   3
   1  -2 -23 14.9354 2.76922   3
   1  -2 -23 12.6389 2.00292   6
   1   2 -23 19.9521 3.67232   3
   0  -2 -23 6.69322 2.36157   3
   0  -2 -23 6.33351 2.24095   6
   0   2 -23 5.42875 2.68112   6
   0   2 -23 0.09456 1.87476   5
   0   2 -23 8.82928 2.90230   3
  -1  -2 -23 41.0157 5.51616   6
  -1  -2 -23 44.0468 5.42193   3
  -1   2 -23 31.6359 5.41692   3
  -1   2 -23 39.6139 4.92487   6
  -2  -2 -23 -1.5666 2.32458   6
  -2  -2 -23 -2.4127 2.27430   3
  -2   2 -23 2.27797 1.95219   3
   4  -3 -23 7.39090 2.12841   5
   4   3 -23 6.02281 2.98373   3
   4   3 -23 9.83877 2.83833   5
   3  -3 -23 0.52707 1.40362   3
   3  -3 -23 2.69278 1.25988   5
   3   3 -23 -2.5959 1.56195   5
   2  -3 -23 8.67235 2.26724   3
   2   3 -23 6.59694 2.53038   5
   2   3 -23 6.74850 2.97139   3
   1  -3 -23 -1.1717 1.54878   3
   1  -3 -23 1.66920 1.54941   6
   1   3 -23 0.79763 1.93739   5
   1   3 -23 1.56987 2.44088   3
   0  -3 -23 -0.1011 1.61941   3
   0  -3 -23 -2.9371 1.50207   6
   0   3 -23 5.06929 2.93201   3
  -1  -3 -23 6.06340 2.61425   6
  -1  -3 -23 3.64699 2.34540   3
  -1   3 -23 3.04520 2.73169   3
  -1   3 -23 10.2051 2.78527   6
  -2  -3 -23 -1.9159 2.25968   3
  -2  -3 -23 1.98927 2.30098   6
  -2   3 -23 6.78101 2.80115   3
  -2   3 -23 -2.9254 2.75634   6
   3  -4 -23 24.7600 2.84157   3
   3  -4 -23 31.1363 2.78137   5
   3   4 -23 26.3477 4.87441   3
   3   4 -23 25.4027 4.15625   5
   2  -4 -23 3.70600 1.84056   3
   2   4 -23 1.24397 2.00687   5
   2   4 -23 7.04795 3.08044   3
   1  -4 -23 28.8107 3.98649   3
   1   4 -23 25.7769 5.16045   3
   1   4 -23 33.3687 4.47931   5
   0  -4 -23 174.139 11.9896   3
   0  -4 -23 174.039 11.2303   6
   0   4 -23 160.461 12.0311   3
  -1  -4 -23 0.21776 1.80037   3
  -1  -4 -23 -0.1555 3.03161   6
  -1   4 -23 2.51831 2.59079   3
  -1   4 -23 5.83143 2.89734   6
   3   5 -23 -5.0262 2.05499   5
   3   5 -23 3.23436 2.83137   3
   2  -5 -23 7.10587 2.16887   3
   2  -5 -23 4.81567 2.07436   6
   2   5 -23 9.57615 3.12297   5
   2   5 -23 8.51437 3.69343   3
   1  -5 -23 32.3276 4.60824   6
   1  -5 -23 41.5693 4.18670   3
   1   5 -23 43.9285 6.06754   3
   1   5 -23 32.7672 4.65312   5
   0  -5 -23 25.2283 4.21930   3
   0  -5 -23 32.2142 5.05995   6
   0   5 -23 20.4672 4.59131   3
   0   5 -23 24.3836 4.43707   5
  -1  -5 -23 160.649 17.9789   6
  -1  -5 -23 177.549 11.1662   3
  -1   5 -23 167.243 13.4036   3
   2   6 -23 1.74578 2.72382   3
   2   6 -23 8.49929 2.89948   5
   1  -6 -23 39.1824 5.29397   6
   1  -6 -23 51.3181 4.61838   3
   1   6 -23 42.6695 6.13375   5
   1   6 -23 36.8183 6.94487   3
   0  -6 -23 55.1865 5.14619   3
   0  -6 -23 53.6425 6.33246   6
   0   6 -23 45.7931 5.65501   5
   0   6 -23 34.0960 7.18615   3
   3   0 -24 2.98837 1.66852   5
   3   0 -24 -3.3448 2.10975   3
   2   0 -24 196.936 12.8373   3
   2   0 -24 197.495 10.1165   5
   1   0 -24 20.5875 3.85027   3
   0   0 -24 132.489 9.83202   3
  -1   0 -24 39.8422 5.46815   6
  -1   0 -24 31.7591 5.15766   3
   3  -1 -24 6.25459 2.17972   5
   3  -1 -24 8.84893 2.87042   3
   3   1 -24 5.61007 2.49453   3
   3   1 -24 8.97948 2.97923   5
   2  -1 -24 9.07370 2.76265   3
   2  -1 -24 5.42786 1.98684   5
   2   1 -24 6.57415 2.20754   5
   2   1 -24 10.4565 3.26516   3
   1  -1 -24 8.25529 2.82325   3
   1   1 -24 9.95915 3.00013   3
   0  -1 -24 -1.6957 1.68916   3
   0   1 -24 -1.7517 1.70598   6
   0   1 -24 2.19969 2.51866   3
  -1  -1 -24 10.8809 3.29429   6
  -1  -1 -24 5.43911 2.48101   3
  -1   1 -24 2.99133 2.65898   3
  -1   1 -24 5.01727 2.77879   6
   3  -2 -24 6.29498 2.24052   3
   3  -2 -24 5.95284 1.85067   5
   3   2 -24 10.5116 3.15148   3
   3   2 -24 5.55428 2.31741   5
   2  -2 -24 12.1443 2.78639   3
   2  -2 -24 12.1776 2.27320   5
   2   2 -24 8.10843 2.81724   3
   2   2 -24 14.3720 3.05060   5
   1  -2 -24 52.2530 7.49440   3
   1   2 -24 46.7503 5.96692   3
   0  -2 -24 6.50950 2.22572   3
   0  -2 -24 -0.4227 2.17884   6
   0   2 -24 6.74115 2.90904   3
  -1  -2 -24 102.801 8.45865   3
  -1  -2 -24 111.948 9.16865   6
  -1   2 -24 101.109 9.22761   3
  -1   2 -24 106.498 8.19907   6
   3  -3 -24 38.1415 3.98665   3
   3   3 -24 39.9815 5.36961   3
   2  -3 -24 138.590 8.56800   3
   2   3 -24 134.965 10.3434   3
   2   3 -24 135.119 8.83660   5
   1  -3 -24 22.3841 4.02094   3
   1   3 -24 31.7677 5.13484   3
   1   3 -24 30.9065 4.06871   5
   0  -3 -24 59.1749 5.90973   6
   0  -3 -24 58.0813 5.84081   3
   0   3 -24 44.9528 7.15361   3
   2  -4 -24 18.2832 3.18789   3
   2   4 -24 14.2158 3.38937   5
   2   4 -24 17.5489 4.24801   3
   1  -4 -24 56.0361 5.27389   3
   1  -4 -24 52.6358 4.69741   6
   1   4 -24 52.8303 5.55199   5
   0  -4 -24 1.34323 1.76576   3
   0  -4 -24 1.58758 2.32260   6
   0   4 -24 0.22881 2.82134   3
   1   0 -25 -1.1758 2.05471   3
   1   1 -25 2.21606 2.57196   3
   0   0   0    0.00    0.00   0
;
_shelx_hkl_checksum   69889

