data_x17059 
 
_audit_creation_method            'SHELXL-2016/6' 
# CIF edited on-the-fly by script CIFFIX (S. Parkin, 2000-2016). 
# CIFFIX: http://xray.uky.edu/people/parkin/programs/ciffix 
_audit_update_record              ? 
 
_shelx_SHELXL_version_number      '2016/6' 
 
_publ_section_exptl_refinement 
; 
H atoms were found in difference Fourier maps, but subsequently included 
in the refinement using riding models, with constrained distances set to 
0.94 \%A (C~sp2~H), 0.97 \%A (RCH~3~) and 0.99 \%A (R~3~CH).  U~iso~(H) 
parameters were set to values of either 1.2U~eq~ or 1.5U~eq~ (RCH~3~ only) 
of the attached atom. 
 
Restraints were used to ensure satisfactory refinement of disordered or 
otherwise ill-defined groups (SHELXL commands SAME, SADI, and RIGU). 
; 
 
_publ_section_references 
; 
Bruker-AXS (2006). 
  <i>APEX2</i> Bruker-AXS Inc., Madison, WI, USA. 
 
Hope, H. (1994). 
  <i>Prog. Inorg. Chem.</i> <b>41</b>, 1--19. 
 
Krause, L., Herbst-Irmer, R., Sheldrick, G.M. & Stalke, D. (2015). 
  <i>J. Appl. Cryst.</i> <b>48</b>, 3--10. 
 
Parkin, S. & Hope, H. (1998). 
  <i>J. Appl. Cryst.</i> <b>31</b>, 945--953. 
 
Parkin, S. (2000). 
  <i>Acta Cryst.</i> A<b>56</b>, 157--162. 
 
Parkin, S. (2013). 
  <i>CIFFIX</i>, http://xray.uky.edu/people/parkin/programs/ciffix 
 
Sheldrick, G.M. (2008). 
  <i>Acta Cryst.</i> A<b>64</b>, 112--122. 
 
Sheldrick, G.M. (2015a). 
  <i>Acta Cryst.</i> A<b>71</b>, 3--8. 
 
Sheldrick, G.M. (2015b). 
  <i>Acta Cryst.</i> C<b>71</b>, 3--8. 
 
Spek, A.L. (2009). 
  <i>Acta Cryst.</i> D<b>65</b>, 148--155. 
; 
 
_publ_section_acknowledgements 
; 
The X8 Proteum diffractometer was funded by the NSF (MRI CHE0319176, 70%), 
and by the University of Kentucky (cost share, 30%). 
; 
 
_chemical_name_systematic         ? 
_chemical_name_common             ? 
_chemical_melting_point           ? 
_chemical_formula_moiety          'C44 H54 Ge2' 
_chemical_formula_sum             'C44 H54 Ge2' 
_chemical_formula_weight          728.05 
 
loop_ 
 _atom_type_symbol 
 _atom_type_description 
 _atom_type_scat_dispersion_real 
 _atom_type_scat_dispersion_imag 
 _atom_type_scat_source 
 'C'  'C'   0.0181   0.0091 
 'International Tables Vol C Tables 4.2.6.8 and 6.1.1.4' 
 'H'  'H'   0.0000   0.0000 
 'International Tables Vol C Tables 4.2.6.8 and 6.1.1.4' 
 'Ge'  'Ge'  -1.0885   0.8855 
 'International Tables Vol C Tables 4.2.6.8 and 6.1.1.4' 
 
_space_group_crystal_system       triclinic 
_space_group_IT_number            2 
_space_group_name_H-M_alt         'P -1' 
_space_group_name_Hall            '-P 1' 
 
_shelx_space_group_comment 
; 
The symmetry employed for this shelxl refinement is uniquely defined 
by the following loop, which should always be used as a source of 
symmetry information in preference to the above space-group names. 
They are only intended as comments. 
; 
 
loop_ 
 _space_group_symop_operation_xyz 
 'x, y, z' 
 '-x, -y, -z' 
 
_cell_length_a                    7.7283(6) 
_cell_length_b                    7.7628(6) 
_cell_length_c                    16.8805(13) 
_cell_angle_alpha                 78.077(4) 
_cell_angle_beta                  89.228(4) 
_cell_angle_gamma                 81.788(4) 
_cell_volume                      980.57(13) 
_cell_formula_units_Z             1 
_cell_measurement_temperature     240(2) 
_cell_measurement_reflns_used     9955 
_cell_measurement_theta_min       2.68 
_cell_measurement_theta_max       69.04 
 
_exptl_crystal_description        slab 
_exptl_crystal_colour             blue 
_exptl_crystal_density_meas       ? 
_exptl_crystal_density_method     ? 
_exptl_crystal_density_diffrn     1.233 
_exptl_crystal_F_000              382 
_exptl_transmission_factor_min    ? 
_exptl_transmission_factor_max    ? 
_exptl_crystal_size_max           0.300 
_exptl_crystal_size_mid           0.280 
_exptl_crystal_size_min           0.050 
_exptl_absorpt_coefficient_mu     2.077 
_shelx_estimated_absorpt_T_min    0.575 
_shelx_estimated_absorpt_T_max    0.903 
_exptl_absorpt_correction_type    multi-scan 
_exptl_absorpt_correction_T_min   0.463 
_exptl_absorpt_correction_T_max   0.817 
_exptl_absorpt_process_details    '<i>SADABS</i> (Krause et al., 2015)' 
_exptl_absorpt_special_details 
; 
In addition to absorption, multi-scan techniques also correct other slowly 
varying changes in scale factor over reciprocal space, such as those caused 
by x-ray beam inhomogeneity, goniometer imperfection, crystal decomposition, 
crystal longer than the x-ray beam cross section, absorption by the crystal 
mount etc.  These account, by and large, for much of the difference between 
estimated values of Tmin and Tmax and the _exptl_absorpt_correction_ values. 
; 
 
_exptl_special_details 
; 
The crystal was mounted using polyisobutene oil on the tip of a fine glass 
fibre, which was fastened in a copper mounting pin with electrical solder. 
It was placed directly into the cold gas stream of a liquid-nitrogen based 
cryostat (Hope, 1994; Parkin & Hope, 1998). 
 
The crystals underwent a destructive phase transition when cooled to 90K. 
Visual inspection of crystal integrity and diffraction quality vs temperature 
established a safe temperature for data collection of -33\% C. 
; 
 
_diffrn_ambient_temperature       240(2) 
_diffrn_radiation_wavelength      1.54178 
_diffrn_radiation_type            CuK\a 
_diffrn_source                    'fine-focus rotating anode' 
_diffrn_measurement_device_type   'Bruker X8 Proteum diffractometer' 
_diffrn_measurement_method        '\f and \w scans' 
_diffrn_detector_area_resol_mean  5.6 
_diffrn_reflns_number             11830 
_diffrn_reflns_av_unetI/netI      0.0400 
_diffrn_reflns_av_R_equivalents   0.0392 
_diffrn_reflns_limit_h_min        -9 
_diffrn_reflns_limit_h_max        5 
_diffrn_reflns_limit_k_min        -8 
_diffrn_reflns_limit_k_max        9 
_diffrn_reflns_limit_l_min        -20 
_diffrn_reflns_limit_l_max        20 
_diffrn_reflns_theta_min          2.676 
_diffrn_reflns_theta_max          69.221 
_diffrn_reflns_theta_full         67.679 
_diffrn_measured_fraction_theta_max                0.948 
_diffrn_measured_fraction_theta_full               0.963 
_diffrn_reflns_Laue_measured_fraction_max          0.948 
_diffrn_reflns_Laue_measured_fraction_full         0.963 
_diffrn_reflns_point_group_measured_fraction_max   0.948 
_diffrn_reflns_point_group_measured_fraction_full  0.963 
 
_reflns_number_total              3482 
_reflns_number_gt                 3208 
_reflns_threshold_expression      'I > 2\s(I)' 
_reflns_Friedel_coverage          0.000 
_reflns_Friedel_fraction_max      . 
_reflns_Friedel_fraction_full     . 
_reflns_special_details 
; 
Reflections were merged by SHELXL according to the crystal 
class for the calculation of statistics and refinement. 
 
_reflns_Friedel_fraction is defined as the number of unique 
Friedel pairs measured divided by the number that would be 
possible theoretically, ignoring centric projections and 
systematic absences. 
; 
 
_computing_data_collection        '<i>APEX2</i> (Bruker-AXS, 2006)' 
_computing_cell_refinement        '<i>APEX2</i> (Bruker-AXS, 2006)' 
_computing_data_reduction         '<i>APEX2</i> (Bruker-AXS, 2006)' 
_computing_structure_solution     '<i>SHELXT</i> (Sheldrick, 2015a)' 
_computing_structure_refinement   '<i>SHELXL-2016/6</i> (Sheldrick, 2015b)' 
_computing_molecular_graphics     '<i>XP in SHELXTL</i> (Sheldrick, 2008)' 
_computing_publication_material 
'<i>SHELX</i> (Sheldrick, 2008) and <i>CIFFIX</i> (Parkin, 2013)' 
 
_refine_special_details 
; 
Refinement progress was checked using <i>Platon</i> (Spek, 2009) and by 
an <i>R</i>-tensor (Parkin, 2000). The final model was further checked 
with the IUCr utility <i>checkCIF</i>. 
; 
_refine_ls_structure_factor_coef  Fsqd 
_refine_ls_matrix_type            full 
_refine_ls_weighting_scheme       calc 
_refine_ls_weighting_details 
'w=1/[\s^2^(Fo^2^)+(0.0378P)^2^+0.7566P] where P=(Fo^2^+2Fc^2^)/3' 
_atom_sites_solution_primary      direct 
_atom_sites_solution_secondary    difmap 
_atom_sites_solution_hydrogens    difmap 
_refine_ls_hydrogen_treatment     constr 
_refine_ls_extinction_method      none 
_refine_ls_extinction_coef        . 
_refine_ls_number_reflns          3482 
_refine_ls_number_parameters      244 
_refine_ls_number_restraints      22 
_refine_ls_R_factor_all           0.0422 
_refine_ls_R_factor_gt            0.0389 
_refine_ls_wR_factor_ref          0.1081 
_refine_ls_wR_factor_gt           0.1058 
_refine_ls_goodness_of_fit_ref    1.155 
_refine_ls_restrained_S_all       1.154 
_refine_ls_shift/su_max           0.000 
_refine_ls_shift/su_mean          0.000 
 
loop_ 
 _atom_site_label 
 _atom_site_type_symbol 
 _atom_site_fract_x 
 _atom_site_fract_y 
 _atom_site_fract_z 
 _atom_site_U_iso_or_equiv 
 _atom_site_adp_type 
 _atom_site_occufdf
 _atom_site_site_symmetry_order 
 _atom_site_calc_flag 
 _atom_site_refinement_flags_posn 
 _atom_site_refinement_flags_adp 
 _atom_site_refinement_flags_occupancy 
 _atom_site_disorder_assembly 
 _atom_site_disorder_grsd
Ge1 Ge 0.20816(4) 0.24935(4) 0.82517(2) 0.04344(14) Uani 1 1 d D . . . . 
C1 C 0.4378(3) 0.4465(4) 0.57991(15) 0.0378(6) Uani 1 1 d . . . . . 
C2 C 0.5457(3) 0.3218(4) 0.54311(16) 0.0377(6) Uani 1 1 d . . . . . 
C3 C 0.5907(3) 0.1427(4) 0.58395(17) 0.0420(6) Uani 1 1 d . . . . . 
H3A H 0.550294 0.106600 0.636710 0.050 Uiso 1 1 calc R U . . . 
C4 C 0.6927(3) 0.0194(4) 0.54816(17) 0.0411(6) Uani 1 1 d . . . . . 
C5 C 0.7370(4) -0.1624(4) 0.5894(2) 0.0518(7) Uani 1 1 d . . . . . 
H5A H 0.697807 -0.199216 0.642338 0.062 Uiso 1 1 calc R U . . . 
C6 C 0.8355(4) -0.2821(5) 0.5525(2) 0.0575(8) Uani 1 1 d . . . . . 
H6A H 0.864498 -0.400666 0.580291 0.069 Uiso 1 1 calc R U . . . 
C7 C 0.8938(4) -0.2300(5) 0.4736(2) 0.0563(8) Uani 1 1 d . . . . . 
H7A H 0.960874 -0.314793 0.449039 0.068 Uiso 1 1 calc R U . . . 
C8 C 0.8558(4) -0.0603(4) 0.43192(19) 0.0494(7) Uani 1 1 d . . . . . 
H8A H 0.897709 -0.028471 0.379140 0.059 Uiso 1 1 calc R U . . . 
C9 C 0.7517(3) 0.0722(4) 0.46769(17) 0.0409(6) Uani 1 1 d . . . . . 
C10 C 0.7098(3) 0.2471(4) 0.42684(17) 0.0414(6) Uani 1 1 d . . . . . 
H10A H 0.750806 0.281650 0.374082 0.050 Uiso 1 1 calc R U . . . 
C11 C 0.6073(3) 0.3741(4) 0.46258(16) 0.0385(6) Uani 1 1 d . . . . . 
C12 C 0.3707(4) 0.3896(4) 0.65838(17) 0.0420(6) Uani 1 1 d . . . . . 
C13 C 0.3119(4) 0.3385(4) 0.72389(18) 0.0472(7) Uani 1 1 d . . . . . 
C14 C -0.0445(4) 0.3252(6) 0.8126(2) 0.0644(9) Uani 1 1 d . . . . . 
H14A H -0.099678 0.278895 0.864435 0.077 Uiso 1 1 calc R U . . . 
C15 C -0.1223(6) 0.2512(9) 0.7469(3) 0.1031(18) Uani 1 1 d . . . . . 
H15A H -0.245250 0.299354 0.739260 0.155 Uiso 1 1 calc R U . . . 
H15B H -0.109994 0.122606 0.762748 0.155 Uiso 1 1 calc R U . . . 
H15C H -0.061420 0.284477 0.696647 0.155 Uiso 1 1 calc R U . . . 
C16 C -0.0824(6) 0.5279(7) 0.7957(3) 0.0888(14) Uani 1 1 d . . . . . 
H16A H -0.206889 0.565456 0.786120 0.133 Uiso 1 1 calc R U . . . 
H16B H -0.019202 0.576569 0.748199 0.133 Uiso 1 1 calc R U . . . 
H16C H -0.045287 0.570411 0.841926 0.133 Uiso 1 1 calc R U . . . 
C17 C 0.3072(5) 0.3601(5) 0.9070(2) 0.0589(8) Uani 1 1 d . . . . . 
H17A H 0.275652 0.490259 0.888294 0.071 Uiso 1 1 calc R U . . . 
C18 C 0.2239(6) 0.3127(7) 0.9883(2) 0.0855(13) Uani 1 1 d . . . . . 
H18A H 0.267758 0.377282 1.025337 0.128 Uiso 1 1 calc R U . . . 
H18B H 0.252313 0.185821 1.009571 0.128 Uiso 1 1 calc R U . . . 
H18C H 0.098035 0.344368 0.982397 0.128 Uiso 1 1 calc R U . . . 
C19 C 0.5012(6) 0.3246(9) 0.9106(3) 0.1023(17) Uani 1 1 d . . . . . 
H19A H 0.544348 0.384947 0.949493 0.153 Uiso 1 1 calc R U . . . 
H19B H 0.547058 0.367996 0.857554 0.153 Uiso 1 1 calc R U . . . 
H19C H 0.538836 0.197557 0.926971 0.153 Uiso 1 1 calc R U . . . 
C20 C 0.2906(17) -0.0126(10) 0.8613(6) 0.055(3) Uani 0.52(2) 1 d D . P A 1 
H20' H 0.399670 -0.026151 0.893462 0.066 Uiso 0.52(2) 1 calc R U P A 1 
C21 C 0.160(2) -0.103(3) 0.9153(10) 0.073(4) Uani 0.52(2) 1 d D . P A 1 
H21A H 0.202323 -0.229448 0.930727 0.109 Uiso 0.52(2) 1 calc R U P A 1 
H21B H 0.049117 -0.085470 0.886522 0.109 Uiso 0.52(2) 1 calc R U P A 1 
H21C H 0.144792 -0.053050 0.963420 0.109 Uiso 0.52(2) 1 calc R U P A 1 
C22 C 0.333(3) -0.1048(16) 0.7906(7) 0.105(6) Uani 0.52(2) 1 d D . P A 1 
H22A H 0.372788 -0.230195 0.811104 0.157 Uiso 0.52(2) 1 calc R U P A 1 
H22B H 0.423944 -0.051434 0.758477 0.157 Uiso 0.52(2) 1 calc R U P A 1 
H22C H 0.228786 -0.091392 0.757118 0.157 Uiso 0.52(2) 1 calc R U P A 1 
C20' C 0.2380(19) -0.0110(14) 0.8336(11) 0.080(4) Uani 0.48(2) 1 d D . P A 2 
H20A H 0.176106 -0.028688 0.785537 0.096 Uiso 0.48(2) 1 calc R U P A 2 
C21' C 0.144(4) -0.097(4) 0.9038(17) 0.147(12) Uani 0.48(2) 1 d D . P A 2 
H21D H 0.137034 -0.218910 0.900163 0.221 Uiso 0.48(2) 1 calc R U P A 2 
H21F H 0.026764 -0.032712 0.904341 0.221 Uiso 0.48(2) 1 calc R U P A 2 
H21G H 0.205885 -0.095996 0.953285 0.221 Uiso 0.48(2) 1 calc R U P A 2 
C22' C 0.4266(17) -0.083(2) 0.8238(13) 0.104(5) Uani 0.48(2) 1 d D . P A 2 
H22D H 0.501069 -0.017817 0.848582 0.156 Uiso 0.48(2) 1 calc R U P A 2 
H22F H 0.452373 -0.070106 0.766645 0.156 Uiso 0.48(2) 1 calc R U P A 2 
H22G H 0.448029 -0.208067 0.849870 0.156 Uiso 0.48(2) 1 calc R U P A 2 
 
loop_ 
 _atom_site_aniso_label 
 _atom_site_aniso_U_11 
 _atom_site_aniso_U_22 
 _atom_site_aniso_U_33 
 _atom_site_aniso_U_23 
 _atom_site_aniso_U_13 
 _atom_site_aniso_U_12 
Ge1 0.0445(2) 0.0436(2) 0.0419(2) -0.00803(14) 0.00263(13) -0.00678(14) 
C1 0.0315(13) 0.0456(15) 0.0374(13) -0.0101(11) -0.0045(10) -0.0066(11) 
C2 0.0313(12) 0.0434(15) 0.0402(13) -0.0120(11) -0.0051(10) -0.0060(11) 
C3 0.0375(14) 0.0470(16) 0.0418(14) -0.0088(12) -0.0050(11) -0.0072(12) 
C4 0.0335(13) 0.0443(16) 0.0472(15) -0.0132(12) -0.0093(11) -0.0043(12) 
C5 0.0469(17) 0.0520(18) 0.0562(18) -0.0115(14) -0.0066(13) -0.0048(14) 
C6 0.0527(18) 0.0503(19) 0.068(2) -0.0135(15) -0.0123(15) -0.0003(15) 
C7 0.0459(17) 0.057(2) 0.070(2) -0.0257(16) -0.0102(14) 0.0014(15) 
C8 0.0413(15) 0.0564(19) 0.0536(17) -0.0218(14) -0.0077(12) -0.0018(14) 
C9 0.0303(13) 0.0465(16) 0.0490(15) -0.0165(12) -0.0079(11) -0.0055(11) 
C10 0.0336(13) 0.0532(17) 0.0400(14) -0.0150(12) -0.003(1) -0.0067(12) 
C11 0.0302(12) 0.0458(16) 0.0411(14) -0.0121(11) -0.0059(10) -0.0057(11) 
C12 0.0372(14) 0.0461(16) 0.0429(15) -0.0114(12) -0.0032(11) -0.0029(12) 
C13 0.0466(16) 0.0471(17) 0.0472(16) -0.0105(12) 0.0003(12) -0.0030(13) 
C14 0.0523(19) 0.090(3) 0.0507(18) -0.0148(17) 0.0016(14) -0.0097(18) 
C15 0.072(3) 0.164(6) 0.079(3) -0.035(3) -0.008(2) -0.021(3) 
C16 0.069(3) 0.101(4) 0.083(3) -0.007(2) -0.002(2) 0.018(2) 
C17 0.062(2) 0.065(2) 0.0547(19) -0.0163(15) 0.0020(15) -0.0181(17) 
C18 0.093(3) 0.115(4) 0.062(2) -0.036(2) 0.009(2) -0.035(3) 
C19 0.069(3) 0.155(5) 0.099(4) -0.054(4) 0.001(2) -0.032(3) 
C20 0.068(6) 0.033(4) 0.062(5) -0.008(3) 0.002(4) -0.002(3) 
C21 0.099(8) 0.048(8) 0.071(6) -0.011(5) 0.016(5) -0.013(7) 
C22 0.170(17) 0.056(5) 0.083(7) -0.014(5) 0.040(8) 0.001(8) 
C20' 0.093(8) 0.067(7) 0.077(9) -0.011(5) 0.010(6) -0.011(6) 
C21' 0.20(2) 0.071(15) 0.17(2) -0.005(13) 0.082(18) -0.030(16) 
C22' 0.109(8) 0.056(7) 0.133(14) 0.001(7) 0.016(8) 0.004(6) 
 
_geom_special_details 
; 
 All esds (except the esd in the dihedral angle between two l.s. planes) 
 are estimated using the full covariance matrix.  The cell esds are taken 
 into account individually in the estimation of esds in distances, angles 
 and torsion angles; correlations between esds in cell parameters are only 
 used when they are defined by crystal symmetry.  An approximate (isotropic) 
 treatment of cell esds is used for estimating esds involving l.s. planes. 
; 
 
loop_ 
 _geom_bond_atom_site_label_1 
 _geom_bond_atom_site_label_2 
 _geom_bond_distance 
 _geom_bond_site_symmetry_2 
 _geom_bond_publ_flag 
Ge1 C13 1.918(3) . ? 
Ge1 C14 1.959(3) . ? 
Ge1 C20' 1.977(11) . ? 
Ge1 C17 1.984(3) . ? 
Ge1 C20 2.010(8) . ? 
C1 C2 1.422(4) . ? 
C1 C12 1.423(4) . ? 
C1 C11 1.425(4) 2_666 ? 
C2 C3 1.415(4) . ? 
C2 C11 1.431(4) . ? 
C3 C4 1.383(4) . ? 
C3 H3A 0.9400 . ? 
C4 C9 1.424(4) . ? 
C4 C5 1.434(4) . ? 
C5 C6 1.362(5) . ? 
C5 H5A 0.9400 . ? 
C6 C7 1.397(5) . ? 
C6 H6A 0.9400 . ? 
C7 C8 1.353(5) . ? 
C7 H7A 0.9400 . ? 
C8 C9 1.441(4) . ? 
C8 H8A 0.9400 . ? 
C9 C10 1.385(4) . ? 
C10 C11 1.404(4) . ? 
C10 H10A 0.9400 . ? 
C12 C13 1.201(4) . ? 
C14 C15 1.517(6) . ? 
C14 C16 1.526(6) . ? 
C14 H14A 0.9900 . ? 
C15 H15A 0.9700 . ? 
C15 H15B 0.9700 . ? 
C15 H15C 0.9700 . ? 
C16 H16A 0.9700 . ? 
C16 H16B 0.9700 . ? 
C16 H16C 0.9700 . ? 
C17 C19 1.485(6) . ? 
C17 C18 1.507(5) . ? 
C17 H17A 0.9900 . ? 
C18 H18A 0.9700 . ? 
C18 H18B 0.9700 . ? 
C18 H18C 0.9700 . ? 
C19 H19A 0.9700 . ? 
C19 H19B 0.9700 . ? 
C19 H19C 0.9700 . ? 
C20 C21 1.501(11) . ? 
C20 C22 1.523(11) . ? 
C20 H20' 0.9900 . ? 
C21 H21A 0.9700 . ? 
C21 H21B 0.9700 . ? 
C21 H21C 0.9700 . ? 
C22 H22A 0.9700 . ? 
C22 H22B 0.9700 . ? 
C22 H22C 0.9700 . ? 
C20' C21' 1.473(13) . ? 
C20' C22' 1.505(13) . ? 
C20' H20A 0.9900 . ? 
C21' H21D 0.9700 . ? 
C21' H21F 0.9700 . ? 
C21' H21G 0.9700 . ? 
C22' H22D 0.9700 . ? 
C22' H22F 0.9700 . ? 
C22' H22G 0.9700 . ? 
 
loop_ 
 _geom_angle_atom_site_label_1 
 _geom_angle_atom_site_label_2 
 _geom_angle_atom_site_label_3 
 _geom_angle 
 _geom_angle_site_symmetry_1 
 _geom_angle_site_symmetry_3 
 _geom_angle_publ_flag 
C13 Ge1 C14 107.31(14) . . ? 
C13 Ge1 C20' 104.3(5) . . ? 
C14 Ge1 C20' 104.7(5) . . ? 
C13 Ge1 C17 106.60(14) . . ? 
C14 Ge1 C17 110.57(15) . . ? 
C20' Ge1 C17 122.4(6) . . ? 
C13 Ge1 C20 109.9(3) . . ? 
C14 Ge1 C20 117.3(4) . . ? 
C17 Ge1 C20 104.8(4) . . ? 
C2 C1 C12 119.6(3) . . ? 
C2 C1 C11 120.2(2) . 2_666 ? 
C12 C1 C11 120.2(2) . 2_666 ? 
C3 C2 C1 121.1(3) . . ? 
C3 C2 C11 118.4(2) . . ? 
C1 C2 C11 120.5(3) . . ? 
C4 C3 C2 121.6(3) . . ? 
C4 C3 H3A 119.2 . . ? 
C2 C3 H3A 119.2 . . ? 
C3 C4 C9 119.5(3) . . ? 
C3 C4 C5 121.5(3) . . ? 
C9 C4 C5 118.9(3) . . ? 
C6 C5 C4 120.5(3) . . ? 
C6 C5 H5A 119.8 . . ? 
C4 C5 H5A 119.8 . . ? 
C5 C6 C7 120.6(3) . . ? 
C5 C6 H6A 119.7 . . ? 
C7 C6 H6A 119.7 . . ? 
C8 C7 C6 121.4(3) . . ? 
C8 C7 H7A 119.3 . . ? 
C6 C7 H7A 119.3 . . ? 
C7 C8 C9 120.6(3) . . ? 
C7 C8 H8A 119.7 . . ? 
C9 C8 H8A 119.7 . . ? 
C10 C9 C4 119.7(3) . . ? 
C10 C9 C8 122.2(3) . . ? 
C4 C9 C8 118.0(3) . . ? 
C9 C10 C11 121.4(3) . . ? 
C9 C10 H10A 119.3 . . ? 
C11 C10 H10A 119.3 . . ? 
C10 C11 C1 121.4(3) . 2_666 ? 
C10 C11 C2 119.3(3) . . ? 
C1 C11 C2 119.3(2) 2_666 . ? 
C13 C12 C1 178.3(3) . . ? 
C12 C13 Ge1 176.3(3) . . ? 
C15 C14 C16 111.3(4) . . ? 
C15 C14 Ge1 111.8(3) . . ? 
C16 C14 Ge1 109.5(3) . . ? 
C15 C14 H14A 108.0 . . ? 
C16 C14 H14A 108.0 . . ? 
Ge1 C14 H14A 108.0 . . ? 
C14 C15 H15A 109.5 . . ? 
C14 C15 H15B 109.5 . . ? 
H15A C15 H15B 109.5 . . ? 
C14 C15 H15C 109.5 . . ? 
H15A C15 H15C 109.5 . . ? 
H15B C15 H15C 109.5 . . ? 
C14 C16 H16A 109.5 . . ? 
C14 C16 H16B 109.5 . . ? 
H16A C16 H16B 109.5 . . ? 
C14 C16 H16C 109.5 . . ? 
H16A C16 H16C 109.5 . . ? 
H16B C16 H16C 109.5 . . ? 
C19 C17 C18 113.4(4) . . ? 
C19 C17 Ge1 112.1(3) . . ? 
C18 C17 Ge1 111.8(3) . . ? 
C19 C17 H17A 106.3 . . ? 
C18 C17 H17A 106.3 . . ? 
Ge1 C17 H17A 106.3 . . ? 
C17 C18 H18A 109.5 . . ? 
C17 C18 H18B 109.5 . . ? 
H18A C18 H18B 109.5 . . ? 
C17 C18 H18C 109.5 . . ? 
H18A C18 H18C 109.5 . . ? 
H18B C18 H18C 109.5 . . ? 
C17 C19 H19A 109.5 . . ? 
C17 C19 H19B 109.5 . . ? 
H19A C19 H19B 109.5 . . ? 
C17 C19 H19C 109.5 . . ? 
H19A C19 H19C 109.5 . . ? 
H19B C19 H19C 109.5 . . ? 
C21 C20 C22 110.1(12) . . ? 
C21 C20 Ge1 111.4(10) . . ? 
C22 C20 Ge1 112.6(8) . . ? 
C21 C20 H20' 107.5 . . ? 
C22 C20 H20' 107.5 . . ? 
Ge1 C20 H20' 107.5 . . ? 
C20 C21 H21A 109.5 . . ? 
C20 C21 H21B 109.5 . . ? 
H21A C21 H21B 109.5 . . ? 
C20 C21 H21C 109.5 . . ? 
H21A C21 H21C 109.5 . . ? 
H21B C21 H21C 109.5 . . ? 
C20 C22 H22A 109.5 . . ? 
C20 C22 H22B 109.5 . . ? 
H22A C22 H22B 109.5 . . ? 
C20 C22 H22C 109.5 . . ? 
H22A C22 H22C 109.5 . . ? 
H22B C22 H22C 109.5 . . ? 
C21' C20' C22' 118.4(16) . . ? 
C21' C20' Ge1 110.6(16) . . ? 
C22' C20' Ge1 110.9(11) . . ? 
C21' C20' H20A 105.3 . . ? 
C22' C20' H20A 105.3 . . ? 
Ge1 C20' H20A 105.3 . . ? 
C20' C21' H21D 109.5 . . ? 
C20' C21' H21F 109.5 . . ? 
H21D C21' H21F 109.5 . . ? 
C20' C21' H21G 109.5 . . ? 
H21D C21' H21G 109.5 . . ? 
H21F C21' H21G 109.5 . . ? 
C20' C22' H22D 109.5 . . ? 
C20' C22' H22F 109.5 . . ? 
H22D C22' H22F 109.5 . . ? 
C20' C22' H22G 109.5 . . ? 
H22D C22' H22G 109.5 . . ? 
H22F C22' H22G 109.5 . . ? 
 
loop_ 
 _geom_torsion_atom_site_label_1 
 _geom_torsion_atom_site_label_2 
 _geom_torsion_atom_site_label_3 
 _geom_torsion_atom_site_label_4 
 _geom_torsion 
 _geom_torsion_site_symmetry_1 
 _geom_torsion_site_symmetry_2 
 _geom_torsion_site_symmetry_3 
 _geom_torsion_site_symmetry_4 
 _geom_torsion_publ_flag 
C12 C1 C2 C3 -1.4(4) . . . . ? 
C11 C1 C2 C3 -179.4(2) 2_666 . . . ? 
C12 C1 C2 C11 176.8(2) . . . . ? 
C11 C1 C2 C11 -1.2(4) 2_666 . . . ? 
C1 C2 C3 C4 178.7(2) . . . . ? 
C11 C2 C3 C4 0.5(4) . . . . ? 
C2 C3 C4 C9 -1.2(4) . . . . ? 
C2 C3 C4 C5 -179.5(3) . . . . ? 
C3 C4 C5 C6 179.0(3) . . . . ? 
C9 C4 C5 C6 0.7(4) . . . . ? 
C4 C5 C6 C7 -0.5(5) . . . . ? 
C5 C6 C7 C8 0.5(5) . . . . ? 
C6 C7 C8 C9 -0.7(5) . . . . ? 
C3 C4 C9 C10 1.5(4) . . . . ? 
C5 C4 C9 C10 179.9(3) . . . . ? 
C3 C4 C9 C8 -179.2(3) . . . . ? 
C5 C4 C9 C8 -0.8(4) . . . . ? 
C7 C8 C9 C10 -179.9(3) . . . . ? 
C7 C8 C9 C4 0.9(4) . . . . ? 
C4 C9 C10 C11 -1.1(4) . . . . ? 
C8 C9 C10 C11 179.6(2) . . . . ? 
C9 C10 C11 C1 -179.1(2) . . . 2_666 ? 
C9 C10 C11 C2 0.4(4) . . . . ? 
C3 C2 C11 C10 -0.1(4) . . . . ? 
C1 C2 C11 C10 -178.3(2) . . . . ? 
C3 C2 C11 C1 179.5(2) . . . 2_666 ? 
C1 C2 C11 C1 1.2(4) . . . 2_666 ? 
 
_refine_diff_density_max    0.639 
_refine_diff_density_min   -0.413 
_refine_diff_density_rms    0.069 
 
_shelx_res_file 
; 
TITL x17059 : space group P-1 
    x17059.res 
    created by SHELXL-2016/6 at 12:50:30 on 05-Mar-2017 
CELL  1.54178   7.7283   7.7628  16.8805   78.077   89.228   81.788 
ZERR    1.000   0.0006   0.0006   0.0013    0.004    0.004    0.004 
LATT  1 
SFAC C H GE 
UNIT 44 54 2 
REM Crystals explode at 90K and 180K but are ok at 240K. 
TEMP -33 
SIZE 0.30 0.28 0.05 
REM COLR blue 
REM FORM slab 
REM MERG 0 
L.S. 10 
BOND $H 
LIST 4 
CONF 
ACTA 
HTAB 
FMAP 2 
PLAN 20 
REM EXTI    0.000000  not needed 
WGHT    0.037800    0.756600 
FVAR       0.69085   0.51545 
GE1   3    0.208157    0.249352    0.825170    11.00000    0.04451    0.04361 = 
         0.04194   -0.00803    0.00263   -0.00678 
C1    1    0.437836    0.446497    0.579913    11.00000    0.03152    0.04558 = 
         0.03744   -0.01005   -0.00447   -0.00662 
C2    1    0.545725    0.321815    0.543106    11.00000    0.03125    0.04336 = 
         0.04023   -0.01204   -0.00506   -0.00601 
C3    1    0.590708    0.142694    0.583952    11.00000    0.03753    0.04704 = 
         0.04179   -0.00881   -0.00500   -0.00724 
AFIX  43 
H3A   2    0.550294    0.106600    0.636710    11.00000   -1.20000 
AFIX   0 
C4    1    0.692672    0.019428    0.548158    11.00000    0.03345    0.04430 = 
         0.04722   -0.01320   -0.00935   -0.00431 
C5    1    0.737003   -0.162355    0.589414    11.00000    0.04693    0.05196 = 
         0.05617   -0.01154   -0.00661   -0.00475 
AFIX  43 
H5A   2    0.697807   -0.199216    0.642338    11.00000   -1.20000 
AFIX   0 
C6    1    0.835516   -0.282061    0.552479    11.00000    0.05268    0.05032 = 
         0.06844   -0.01354   -0.01229   -0.00031 
AFIX  43 
H6A   2    0.864498   -0.400666    0.580291    11.00000   -1.20000 
AFIX   0 
C7    1    0.893810   -0.230037    0.473636    11.00000    0.04590    0.05652 = 
         0.06974   -0.02568   -0.01021    0.00139 
AFIX  43 
H7A   2    0.960874   -0.314793    0.449039    11.00000   -1.20000 
AFIX   0 
C8    1    0.855820   -0.060282    0.431915    11.00000    0.04134    0.05643 = 
         0.05359   -0.02183   -0.00769   -0.00176 
AFIX  43 
H8A   2    0.897709   -0.028471    0.379140    11.00000   -1.20000 
AFIX   0 
C9    1    0.751668    0.072223    0.467688    11.00000    0.03030    0.04654 = 
         0.04896   -0.01648   -0.00793   -0.00553 
C10   1    0.709770    0.247148    0.426842    11.00000    0.03361    0.05324 = 
         0.04003   -0.01500   -0.00303   -0.00666 
AFIX  43 
H10A  2    0.750806    0.281650    0.374082    11.00000   -1.20000 
AFIX   0 
C11   1    0.607273    0.374074    0.462579    11.00000    0.03016    0.04585 = 
         0.04113   -0.01208   -0.00588   -0.00574 
C12   1    0.370709    0.389611    0.658381    11.00000    0.03724    0.04611 = 
         0.04293   -0.01141   -0.00323   -0.00290 
C13   1    0.311931    0.338464    0.723885    11.00000    0.04658    0.04711 = 
         0.04720   -0.01053    0.00034   -0.00300 
C14   1   -0.044530    0.325166    0.812600    11.00000    0.05226    0.09020 = 
         0.05075   -0.01480    0.00158   -0.00966 
AFIX  13 
H14A  2   -0.099678    0.278895    0.864435    11.00000   -1.20000 
AFIX   0 
C15   1   -0.122308    0.251239    0.746892    11.00000    0.07197    0.16402 = 
         0.07886   -0.03489   -0.00751   -0.02071 
AFIX 137 
H15A  2   -0.245250    0.299354    0.739260    11.00000   -1.50000 
H15B  2   -0.109994    0.122606    0.762748    11.00000   -1.50000 
H15C  2   -0.061420    0.284477    0.696647    11.00000   -1.50000 
AFIX   0 
C16   1   -0.082429    0.527859    0.795669    11.00000    0.06930    0.10059 = 
         0.08251   -0.00730   -0.00168    0.01844 
AFIX 137 
H16A  2   -0.206889    0.565456    0.786120    11.00000   -1.50000 
H16B  2   -0.019202    0.576569    0.748199    11.00000   -1.50000 
H16C  2   -0.045287    0.570411    0.841926    11.00000   -1.50000 
AFIX   0 
C17   1    0.307187    0.360078    0.906966    11.00000    0.06169    0.06477 = 
         0.05472   -0.01631    0.00204   -0.01813 
AFIX  13 
H17A  2    0.275652    0.490259    0.888294    11.00000   -1.20000 
AFIX   0 
C18   1    0.223906    0.312665    0.988312    11.00000    0.09295    0.11481 = 
         0.06217   -0.03564    0.00863   -0.03540 
AFIX 137 
H18A  2    0.267758    0.377282    1.025337    11.00000   -1.50000 
H18B  2    0.252313    0.185821    1.009571    11.00000   -1.50000 
H18C  2    0.098035    0.344368    0.982397    11.00000   -1.50000 
AFIX   0 
C19   1    0.501172    0.324566    0.910557    11.00000    0.06944    0.15520 = 
         0.09880   -0.05355    0.00145   -0.03153 
AFIX 137 
H19A  2    0.544348    0.384947    0.949493    11.00000   -1.50000 
H19B  2    0.547058    0.367996    0.857554    11.00000   -1.50000 
H19C  2    0.538836    0.197557    0.926971    11.00000   -1.50000 
AFIX   0 
SADI 0.02 Ge1 C20 Ge1 C20' 
SAME 0.020 C20' C21' C22' 
RIGU C20 > C22' 
PART   1 
C20   1    0.290550   -0.012576    0.861314    21.00000    0.06784    0.03269 = 
         0.06226   -0.00813    0.00165   -0.00202 
AFIX  13 
H20'  2    0.399670   -0.026151    0.893462    21.00000   -1.20000 
AFIX   0 
C21   1    0.160169   -0.103143    0.915265    21.00000    0.09851    0.04790 = 
         0.07146   -0.01078    0.01593   -0.01330 
AFIX 137 
H21A  2    0.202323   -0.229448    0.930727    21.00000   -1.50000 
H21B  2    0.049117   -0.085470    0.886522    21.00000   -1.50000 
H21C  2    0.144792   -0.053050    0.963420    21.00000   -1.50000 
AFIX   0 
C22   1    0.332859   -0.104772    0.790580    21.00000    0.17000    0.05558 = 
         0.08268   -0.01435    0.04008    0.00100 
AFIX 137 
H22A  2    0.372788   -0.230195    0.811104    21.00000   -1.50000 
H22B  2    0.423944   -0.051434    0.758477    21.00000   -1.50000 
H22C  2    0.228786   -0.091392    0.757118    21.00000   -1.50000 
AFIX   0 
PART   2 
C20'  1    0.237960   -0.011047    0.833584   -21.00000    0.09333    0.06714 = 
         0.07657   -0.01056    0.00966   -0.01087 
AFIX  13 
H20A  2    0.176106   -0.028688    0.785537   -21.00000   -1.20000 
AFIX   0 
C21'  1    0.143884   -0.097000    0.903838   -21.00000    0.19807    0.07054 = 
         0.16606   -0.00529    0.08199   -0.03010 
AFIX 137 
H21D  2    0.137034   -0.218910    0.900163   -21.00000   -1.50000 
H21F  2    0.026764   -0.032712    0.904341   -21.00000   -1.50000 
H21G  2    0.205885   -0.095996    0.953285   -21.00000   -1.50000 
AFIX   0 
C22'  1    0.426626   -0.083169    0.823801   -21.00000    0.10895    0.05571 = 
         0.13280    0.00082    0.01575    0.00392 
AFIX 137 
H22D  2    0.501069   -0.017817    0.848582   -21.00000   -1.50000 
H22F  2    0.452373   -0.070106    0.766645   -21.00000   -1.50000 
H22G  2    0.448029   -0.208067    0.849870   -21.00000   -1.50000 
PART   0 
 
AFIX   0 
HKLF 4 
 
 
 
 
REM  x17059 : space group P-1 
REM R1 =  0.0389 for    3208 Fo > 4sig(Fo)  and  0.0422 for all    3482 data 
REM    244 parameters refined using     22 restraints 
 
END 
 
WGHT      0.0378      0.7566 
 
REM No hydrogen bonds found for HTAB generation 
 
REM Highest difference peak  0.639,  deepest hole -0.413,  1-sigma level  0.069 
Q1    1   0.2558  0.2863  0.7702  11.00000  0.05    0.64 
Q2    1   0.1622  0.2185  0.8763  11.00000  0.05    0.38 
Q3    1   0.4209  0.4231  0.6265  11.00000  0.05    0.24 
Q4    1   0.8087  0.0086  0.4543  11.00000  0.05    0.24 
Q5    1   0.2227  0.1219  0.8182  11.00000  0.05    0.23 
Q6    1   0.6686  0.3035  0.4481  11.00000  0.05    0.21 
Q7    1   0.4196  0.4005  0.7551  11.00000  0.05    0.21 
Q8    1   0.7303  0.0536  0.4997  11.00000  0.05    0.20 
Q9    1   0.5416  0.2494  0.8731  11.00000  0.05    0.20 
Q10   1   0.9081 -0.2710  0.4701  11.00000  0.05    0.20 
Q11   1   0.7735  0.2133  0.4478  11.00000  0.05    0.19 
Q12   1   0.5094  0.0557  0.7883  11.00000  0.05    0.19 
Q13   1   0.3867  0.3051  0.6786  11.00000  0.05    0.19 
Q14   1   0.5261  0.0011  0.7909  11.00000  0.05    0.19 
Q15   1   0.8473 -0.1496  0.4391  11.00000  0.05    0.18 
Q16   1   0.3721 -0.0516  0.7436  11.00000  0.05    0.18 
Q17   1  -0.0693 -0.0173  0.9379  11.00000  0.05    0.18 
Q18   1   0.1140  0.2331  1.0182  11.00000  0.05    0.18 
Q19   1   0.5666  0.3495  0.5006  11.00000  0.05    0.18 
Q20   1   0.7140  0.1378  0.4415  11.00000  0.05    0.18 
; 
_shelx_res_checksum   34461 
 
_shelx_hkl_file
;
  -1   0   0 12.0655 0.98477   4
  -1   0   0 11.7628 0.94182   5
  -1   0   0 11.5242 1.15552   6
  -1   0   0 13.7185 1.30875   3
  -1   0   0 14.1711 0.85661   1
  -1   0   0 12.5888 0.85416   1
  -1   0   0 12.8727 0.87097   2
   1   0   0 13.6597 0.86160   1
   1   0   0 13.3434 0.85700   1
  -2   0   0 2435.16 159.624   5
  -2   0   0 2430.61 172.252   6
  -2   0   0 2583.75 154.866   3
  -2   0   0 2472.85 152.887   4
  -3   0   0 491.875 30.3371   6
  -3   0   0 499.896 29.8850   5
  -3   0   0 477.750 32.0285   2
  -3   0   0 486.859 29.8924   2
  -3   0   0 474.932 30.7307   1
  -3   0   0 483.292 31.9796   1
   3   0   0 501.474 29.7636   1
   3   0   0 434.216 31.9446   1
  -4   0   0 108.829 8.26668   6
  -4   0   0 112.292 7.51485   5
  -5   0   0 92.9873 6.58777  13
  -5   0   0 95.9445 7.94658   6
  -5   0   0 102.385 6.91094  12
  -5   0   0 89.1828 6.96602  14
  -5   0   0 113.170 7.06444   5
  -6   0   0 28.6528 3.14435  12
  -6   0   0 32.4059 3.30144  11
  -6   0   0 31.6802 2.61582  13
  -6   0   0 22.9287 3.60817  14
  -6   0   0 28.9931 3.00057   5
  -6   0   0 29.9314 2.87564  15
  -7   0   0 25.5718 2.57548  13
  -7   0   0 22.8546 2.79965  12
  -7   0   0 26.3779 3.31162  14
  -8   0   0 18.8736 2.25418  15
  -8   0   0 21.7479 3.97458  14
  -9   0   0 8.93828 2.00768  14
  -8   1   0 38.0808 4.51556  14
  -8   1   0 29.9435 2.55024  15
  -7   1   0 39.0772 3.22122  15
  -7   1   0 43.0200 3.52897  13
  -7   1   0 38.6665 4.33672  14
  -7   1   0 45.0665 4.05510  12
  -6   1   0 179.876 13.0908  14
  -6   1   0 174.747 12.3751  15
  -6   1   0 212.641 12.7839  11
  -6   1   0 162.634 12.8514   5
  -6   1   0 203.516 12.4140  13
  -6   1   0 193.388 12.6897  12
  -5   1   0 25.0242 2.36294  15
  -5   1   0 23.5108 3.60513   6
  -5   1   0 26.7251 2.67630  11
  -5   1   0 20.8929 2.19415  12
  -5   1   0 26.7726 2.47610   5
  -5   1   0 22.7400 3.26857  14
  -5   1   0 25.9484 2.17343  13
  -4   1   0 181.098 11.5656   4
  -4   1   0 168.913 11.2873   5
  -4   1   0 158.581 11.6385   6
  -3   1   0 1370.59 88.1611   6
  -3   1   0 1434.48 88.4300   4
  -3   1   0 1273.37 88.3235   7
  -3   1   0 1427.95 88.4917   5
  -2   1   0 7.79840 0.83917   5
  -2   1   0 9.29953 1.28309   6
  -2   1   0 6.71301 1.05709   7
  -2   1   0 8.35768 1.14209   4
  -1   1   0 2355.52 157.609   5
  -1   1   0 2436.06 150.716   4
  -1   1   0 2459.36 151.391   3
  -1   1   0 2379.81 156.296   7
   0   1   0 16.6624 1.13166   1
  -1  -1   0 1294.86 81.8376   3
  -1  -1   0 1311.99 83.8274   5
  -1  -1   0 1332.52 84.0363   2
   1   1   0 1320.70 87.1483   3
   1   1   0 1276.30 89.2323   2
  -2  -1   0 2603.09 182.438   3
  -2  -1   0 2924.90 179.872   3
  -2  -1   0 2741.91 175.751   5
  -3  -1   0 1095.92 68.4086   3
  -3  -1   0 895.276 65.0742   6
  -3  -1   0 1112.21 66.2054   3
  -3  -1   0 929.852 64.6436   1
  -3  -1   0 1030.46 64.8442   5
  -3  -1   0 1037.35 65.0883   2
  -3  -1   0 987.308 64.7199   1
   3   1   0 1046.70 64.6527   1
   3   1   0 965.139 64.7774   1
  -4  -1   0 349.279 24.2761   6
  -4  -1   0 371.928 22.5162   2
  -4  -1   0 376.389 22.7143   5
  -4  -1   0 322.130 24.8429   3
  -5  -1   0 1.35925 0.98171  12
  -5  -1   0 -0.1567 0.73059   2
  -5  -1   0 1.18438 1.28169  14
  -5  -1   0 0.46537 0.32021  10
  -5  -1   0 1.88438 0.95661   5
  -5  -1   0 1.87223 2.22142   6
  -6  -1   0 242.934 15.5200  12
  -6  -1   0 228.295 15.3660  14
  -6  -1   0 221.066 15.4966   5
  -6  -1   0 243.267 15.0507  13
  -6  -1   0 218.079 15.1167  15
  -6  -1   0 227.485 16.7802   6
  -6  -1   0 235.187 14.7906  10
  -7  -1   0 2.09395 1.04613  13
  -7  -1   0 4.53158 1.84499  14
  -7  -1   0 3.09226 1.47775  15
  -8  -1   0 116.834 8.20877  14
  -8  -1   0 102.932 7.28638  15
  -9  -1   0 12.5581 2.11699  14
  -8   2   0 8.43116 3.31306  14
  -7   2   0 63.0737 5.98181  14
  -7   2   0 73.7589 5.34501  12
  -7   2   0 69.8121 5.32355  11
  -7   2   0 63.3099 4.92303  15
  -6   2   0 3.23532 1.42833  15
  -6   2   0 3.93150 3.17842  14
  -6   2   0 0.87791 2.61414  18
  -6   2   0 2.69054 1.68779  11
  -6   2   0 2.88401 1.28947  12
  -6   2   0 1.12052 1.00715  13
  -6   2   0 9.15865 1.86532  16
  -6   2   0 2.83000 1.54895  17
  -5   2   0 125.678 8.63675  17
  -5   2   0 120.969 8.55244  16
  -5   2   0 125.229 8.84001  11
  -5   2   0 133.985 8.38186  13
  -5   2   0 126.334 9.39743  18
  -5   2   0 128.675 8.74692  12
  -5   2   0 117.922 9.37098  14
  -5   2   0 136.072 8.43970  15
  -4   2   0 137.717 9.70981   5
  -4   2   0 141.104 9.99400   4
  -4   2   0 156.945 10.2474   6
  -4   2   0 140.545 9.89820   7
  -3   2   0 565.358 36.9119   7
  -3   2   0 552.822 36.7707   5
  -3   2   0 561.142 37.0724   4
  -3   2   0 569.893 34.2118   6
   2  -2   0 1170.18 75.0761   1
   2  -2   0 1173.88 75.0898   1
  -2   2   0 1214.82 76.3123   4
  -2   2   0 1249.66 75.1311   2
  -2   2   0 1201.38 75.0547   1
  -2   2   0 1243.75 76.2985   7
  -2   2   0 1124.36 75.0669   1
  -2   2   0 1083.67 76.6045   5
  -2   2   0 1108.83 76.4940   2
  -2   2   0 1283.99 75.5820   6
   1  -2   0 1484.19 93.0529   1
   1  -2   0 1505.11 93.0465   1
  -1   2   0 1444.68 92.9940   1
  -1   2   0 1687.30 98.4084   3
  -1   2   0 1353.61 96.3348   2
  -1   2   0 1447.79 93.1302   2
  -1   2   0 1485.70 93.7027   7
  -1   2   0 1357.90 99.1690   3
  -1   2   0 1426.60 94.0558   4
  -1   2   0 1479.12 93.0142   1
   0  -2   0 2106.85 125.880   1
   0  -2   0 2125.17 154.106   3
   0  -2   0 2093.99 134.713   1
   0   2   0 2068.54 134.829   2
   0   2   0 2093.60 134.916   7
   0   2   0 2103.69 130.795   1
   0   2   0 2119.35 138.059   3
  -1  -2   0 173.413 12.4737   5
  -1  -2   0 190.578 13.7131   3
  -1  -2   0 188.964 12.0511   1
  -1  -2   0 194.367 12.6480   2
  -1  -2   0 187.553 11.5767   1
   1   2   0 188.947 12.5969   2
   1   2   0 192.905 13.9194   3
   1   2   0 179.398 12.4996   7
   1   2   0 190.436 12.0553   1
   1   2   0 191.114 11.5770   1
  -2  -2   0 267.563 18.3712   3
  -2  -2   0 243.660 16.2699   1
  -2  -2   0 251.779 15.8974   2
  -2  -2   0 245.986 15.8018   1
  -2  -2   0 246.752 15.8139   5
   2   2   0 233.371 17.0081   2
   2   2   0 250.080 15.8029   1
   2   2   0 244.211 15.8180   1
   2   2   0 255.123 17.9738   3
  -3  -2   0 476.677 30.0953   5
  -3  -2   0 457.895 30.6951   1
  -3  -2   0 471.690 30.1195   2
  -3  -2   0 509.559 32.9136   3
   3   2   0 457.111 30.7104   1
   3   2   0 474.199 30.5496   1
  -4  -2   0 139.919 8.85676   2
  -4  -2   0 133.725 12.0461   3
  -4  -2   0 124.815 10.8122   6
  -4  -2   0 134.837 8.95721   5
  -5  -2   0 268.003 18.8076  12
  -5  -2   0 270.914 18.5013  14
  -5  -2   0 324.096 18.7296   2
  -5  -2   0 294.742 20.5833   6
  -5  -2   0 304.884 18.4529  13
  -5  -2   0 257.298 18.5840  15
  -5  -2   0 263.887 18.2520  10
  -5  -2   0 265.445 18.3539   9
  -5  -2   0 325.243 18.8967   5
  -6  -2   0 3.28681 1.16901   2
  -6  -2   0 5.10636 1.76623  14
  -6  -2   0 6.52862 1.54004  15
  -6  -2   0 2.65775 2.92105   6
  -6  -2   0 9.33815 2.01445   5
  -6  -2   0 6.37983 0.99768  13
  -7  -2   0 117.332 8.55313  13
  -7  -2   0 130.357 8.63649  15
  -7  -2   0 123.975 8.34380  10
  -7  -2   0 135.001 8.86629  14
  -8  -2   0 11.6974 1.56981  15
  -8  -2   0 14.2458 2.72748  14
  -9  -2   0 24.7892 2.08098  15
  -9  -2   0 24.9087 2.98943  14
  -7   3   0 2.87258 1.90750  15
  -7   3   0 1.34798 2.45926  18
  -7   3   0 1.84879 1.00638  16
  -7   3   0 0.96023 1.70995  11
  -6   3   0 50.6391 5.27111  14
  -6   3   0 60.3324 4.75788  16
  -6   3   0 48.6391 4.32787  12
  -6   3   0 59.8345 4.23881  15
  -6   3   0 64.0206 5.79143  18
  -6   3   0 53.8752 4.87918  11
  -5   3   0 33.8207 3.74865  11
  -5   3   0 39.2673 3.15994  15
  -5   3   0 35.4988 4.62691  18
  -5   3   0 40.4088 3.55122  17
  -5   3   0 36.7681 3.37770  12
  -5   3   0 45.0247 3.55860  16
  -5   3   0 32.0103 5.77850  14
  -4   3   0 428.937 26.2567  16
  -4   3   0 371.227 27.0264  18
  -4   3   0 401.739 27.4684   4
  -4   3   0 404.095 27.2394   7
  -4   3   0 439.123 25.9615  15
  -4   3   0 432.946 26.8269  17
  -4   3   0 410.278 26.9943  11
  -3   3   0 466.215 29.2247   7
  -3   3   0 437.837 29.6553   4
   2  -3   0 290.904 20.8741   1
  -2   3   0 311.052 20.7266   3
  -2   3   0 318.444 19.6773   4
  -2   3   0 310.430 20.8487   2
  -2   3   0 317.181 21.9886   3
  -2   3   0 323.264 19.3390   7
  -2   3   0 322.972 20.8585   2
   1  -3   0 1268.53 80.1439   1
  -1   3   0 1199.93 80.7338   1
  -1   3   0 1280.17 80.9652   2
  -1   3   0 1277.98 81.5288   7
  -1   3   0 1193.23 80.8949   4
  -1   3   0 1219.31 80.4140   1
  -1   3   0 1389.37 85.7604   3
   0  -3   0 636.150 42.9893   1
   0  -3   0 688.121 42.0892   1
   0   3   0 641.228 42.9837   1
   0   3   0 682.287 42.7326   2
   0   3   0 659.349 42.5578   7
   0   3   0 684.699 42.1596   1
  -1  -3   0 712.500 48.6483   3
  -1  -3   0 740.808 45.3829   1
  -1  -3   0 701.002 45.3675   1
  -1  -3   0 673.029 45.4665   2
   1   3   0 735.511 45.4085   2
   1   3   0 726.992 45.3534   1
   1   3   0 673.975 45.4334   7
   1   3   0 700.324 45.3576   1
   1   3   0 737.662 48.0018   3
  -2  -3   0 111.309 8.05221   5
  -2  -3   0 125.860 8.16902   1
  -2  -3   0 131.482 8.33669   2
  -2  -3   0 133.764 12.3808   3
  -2  -3   0 114.462 8.13556   1
   2   3   0 117.407 8.20137   2
   2   3   0 118.571 8.15198   1
   2   3   0 133.947 8.18852   1
  -3  -3   0 265.873 21.0059   3
  -3  -3   0 253.932 16.7023   2
  -3  -3   0 246.111 16.5699   5
  -4  -3   0 317.223 26.6318   3
  -4  -3   0 346.608 22.2303   5
  -4  -3   0 361.800 22.2754   2
  -5  -3   0 5.16428 3.19513   6
  -5  -3   0 3.29043 1.21838  14
  -5  -3   0 8.79398 1.68272   5
  -6  -3   0 484.543 34.0506   2
  -6  -3   0 484.279 33.0579   9
  -6  -3   0 518.494 33.0777  13
  -6  -3   0 574.252 32.9371  10
  -6  -3   0 538.041 33.2549  14
  -6  -3   0 510.604 33.6006   5
  -6  -3   0 520.914 33.2481  15
  -6  -3   0 502.930 35.2380   6
  -7  -3   0 3.62014 0.71255  10
  -7  -3   0 2.18056 0.80202  13
  -7  -3   0 3.51397 1.49487  15
  -7  -3   0 3.69163 1.89232  14
  -8  -3   0 47.8585 3.99004  13
  -8  -3   0 57.1867 4.30737  14
  -8  -3   0 55.6942 3.90336  15
  -9  -3   0 20.1399 2.32923  14
  -7   4   0 25.1247 3.48245  18
  -6   4   0 10.8988 2.63700  11
  -6   4   0 5.96043 1.89899  16
  -5   4   0 9.62664 2.35399  11
  -5   4   0 15.4968 2.73249  15
  -5   4   0 11.1028 1.78253  17
  -5   4   0 12.3801 2.94284  18
  -5   4   0 7.96248 2.04820  16
  -4   4   0 75.9375 5.82066  15
  -4   4   0 84.7099 6.45901  18
  -4   4   0 77.4136 6.59241   7
  -4   4   0 82.9812 6.27854  16
  -4   4   0 71.5759 5.66290  17
  -4   4   0 84.9278 6.26439  11
  -3   4   0 351.629 24.0803  11
  -3   4   0 354.902 22.8648  10
  -3   4   0 360.596 24.2308   4
  -3   4   0 357.284 23.1948  17
  -3   4   0 362.519 23.3642  18
  -3   4   0 363.521 23.3531  16
  -3   4   0 368.071 23.7321   7
  -3   4   0 362.979 23.3220  15
  -2   4   0 300.650 19.4482   2
  -2   4   0 313.815 19.5620   7
  -2   4   0 302.509 20.0639   4
  -2   4   0 291.996 21.9075   3
  -1   4   0 115.954 7.45476   2
  -1   4   0 104.494 8.18743   4
  -1   4   0 109.675 10.1685   3
  -1   4   0 111.013 7.73371   7
   0   4   0 440.110 27.6253   7
   0   4   0 432.118 27.5335   2
   0   4   0 420.557 31.0382   3
   1   4   0 683.497 47.2922   3
   1   4   0 683.040 42.8712   7
   1   4   0 665.510 43.6960   2
   2   4   0 733.509 52.7435   3
   2   4   0 803.417 49.2778   2
  -3  -4   0 238.557 15.5529   2
  -3  -4   0 227.770 21.7158   3
  -4  -4   0 113.348 7.23347   8
  -4  -4   0 102.300 7.39655   9
  -4  -4   0 114.950 7.72107   5
  -5  -4   0 260.904 15.9507   2
  -5  -4   0 256.055 15.5687  10
  -5  -4   0 233.075 18.5626   6
  -5  -4   0 220.441 15.6841   9
  -5  -4   0 244.877 15.7535  14
  -5  -4   0 237.232 16.1093   5
  -5  -4   0 228.133 15.5111   8
  -6  -4   0 2.33896 1.56401  15
  -6  -4   0 4.58413 1.57675  14
  -7  -4   0 62.0094 4.70078  15
  -7  -4   0 64.9290 4.19761  10
  -7  -4   0 57.9958 4.66917  14
  -8  -4   0 43.0562 3.58553  14
  -8  -4   0 39.3505 2.88900  10
  -8  -4   0 44.1426 3.12917  15
  -6   5   0 51.3023 4.57911  18
  -6   5   0 47.4409 4.49850  11
  -5   5   0 18.3138 3.25190  11
  -5   5   0 27.5639 3.97129  18
  -4   5   0 289.136 20.9533  16
  -4   5   0 338.698 21.0057  17
  -4   5   0 304.612 21.1761  11
  -4   5   0 340.666 21.2113  18
  -3   5   0 117.737 7.64091  11
  -3   5   0 92.5081 6.39664  10
  -3   5   0 109.000 7.83116  16
  -3   5   0 83.4918 7.05719  17
  -3   5   0 95.4964 7.92024   7
  -2   5   0 93.7472 6.36805   9
  -2   5   0 89.0398 6.90438  11
  -2   5   0 91.7965 6.51489   2
  -2   5   0 89.4039 7.97138   4
  -2   5   0 106.004 7.82090   7
  -2   5   0 102.543 7.05394  18
  -2   5   0 100.966 7.54673  16
  -2   5   0 98.1132 6.32090  10
  -2   5   0 102.639 6.85190  17
  -1   5   0 88.5603 6.51263  18
  -1   5   0 86.4590 6.60357  11
  -1   5   0 93.7235 6.01206  10
  -1   5   0 92.5511 6.21616   9
  -1   5   0 98.7328 6.45873   2
  -1   5   0 95.1317 7.01628   7
  -1   5   0 90.5390 6.35004  17
  -1   5   0 94.9122 7.78200   4
  -1   5   0 83.9622 5.84146   8
   0   5   0 16.5381 2.41816   2
   0   5   0 20.6972 3.00766   7
   0   5   0 17.8788 1.45882   8
   0   5   0 15.9056 1.95021   9
   1   5   0 291.655 18.1853   2
   1   5   0 261.643 18.3784   7
  -4  -5   0 379.131 24.2907   8
  -5  -5   0 29.7452 2.95397   9
  -5  -5   0 20.0701 6.09064   6
  -6  -5   0 170.884 10.1432  10
  -6  -5   0 139.783 10.6836   9
  -6  -5   0 156.272 10.3999  15
  -7  -5   0 8.31881 1.24470  10
  -7  -5   0 14.4280 1.98178  15
  -8  -5   0 25.1613 1.86050  15
  -8  -5   0 18.6894 1.63224  10
  -5   6   0 65.6520 5.86250  17
  -5   6   0 87.7684 6.41432  18
  -5   6   0 74.3582 6.07055  11
  -4   6   0 24.8809 3.70420  18
  -4   6   0 17.3578 3.29283  11
  -3   6   0 137.043 10.3073  11
  -3   6   0 141.204 9.94329  17
  -3   6   0 137.003 9.43689  18
  -3   6   0 139.533 9.03854  10
  -2   6   0 116.499 8.69994  17
  -2   6   0 126.138 7.99438  10
  -2   6   0 127.383 8.86220  18
  -2   6   0 117.693 8.93453  11
  -1   6   0 54.1831 4.07003  18
  -1   6   0 37.4376 3.06451  10
  -1   6   0 45.4823 4.24635  11
  -1   6   0 45.7448 3.81126   2
  -1   6   0 44.5834 4.94065   7
  -1   6   0 34.2776 5.08654   4
   0   6   0 177.405 13.1423   7
   0   6   0 199.276 12.0883  10
   0   6   0 189.421 11.9250   8
   0   6   0 174.457 13.5353   4
   0   6   0 182.607 12.4010  18
   0   6   0 195.147 12.2306   9
   0   6   0 179.972 12.5654   2
   1   6   0 48.2822 4.08423   9
   1   6   0 58.9383 4.75169   2
   1   6   0 57.0547 3.66469   8
   1   6   0 48.4698 5.61152   4
   2   6   0 129.105 8.49146   8
   3   6   0 108.409 7.23615   8
  -4  -6   0 12.2035 1.57000   8
  -5  -6   0 89.7459 6.26315   8
  -5  -6   0 91.3786 6.79955   9
  -6  -6   0 7.28866 1.90408   9
  -6  -6   0 3.07955 1.52285  15
  -7  -6   0 20.0385 1.79200  10
  -5   7   0 -0.3141 1.20435  18
  -4   7   0 31.6156 3.25852  18
  -4   7   0 28.8611 3.24014  11
  -4   7   0 32.5956 3.96854  17
  -3   7   0 22.1800 3.26548  11
  -3   7   0 20.7577 3.38099  17
  -3   7   0 19.7527 2.67880  18
  -3   7   0 23.8783 1.51657  10
  -2   7   0 9.62967 2.47285  17
  -2   7   0 13.3509 3.09362  11
  -2   7   0 13.3544 2.29742  18
  -2   7   0 16.0819 1.31214  10
  -1   7   0 75.1455 5.67660  11
  -1   7   0 73.3428 5.03425  10
  -1   7   0 71.4390 4.70825   9
  -1   7   0 68.7451 5.59077  18
   0   7   0 1.77352 0.65923  10
   0   7   0 4.92438 1.61018  18
   0   7   0 3.94734 1.13658   9
   0   7   0 1.80473 1.43650  11
   1   7   0 47.6918 3.35767   8
   1   7   0 48.1334 3.63967  10
   1   7   0 51.7960 3.99689   9
   2   7   0 36.2090 3.45225   9
   2   7   0 37.7178 2.83644   8
   3   7   0 49.6705 3.67571   8
  -4  -7   0 35.3122 2.98109   8
   4   7   0 37.5067 2.79441   8
  -5  -7   0 12.0338 1.62032   8
  -5  -7   0 17.1500 3.26402   9
  -6  -7   0 32.3024 3.21334   9
  -6  -7   0 37.5139 2.75176  15
  -3   8   0 2.62947 1.37920  18
  -2   8   0 33.3253 3.13305  18
  -2   8   0 31.4165 3.04876  11
  -2   8   0 33.8343 2.24564  10
  -1   8   0 4.27353 1.60109  18
  -1   8   0 2.86578 1.96428  11
  -1   8   0 2.75553 0.68739  10
   0   8   0 80.7497 5.48950  10
   0   8   0 80.3220 5.49602   9
   0   8   0 84.2004 6.05429  11
   1   8   0 3.42536 0.72782  10
   1   8   0 2.55454 1.42426  11
   2   8   0 100.196 7.16868   9
   2   8   0 106.447 6.73045   8
   3   8   0 6.96468 0.96555   8
   3   8   0 12.0801 2.21029   9
  -4  -8   0 9.86486 1.67667   8
   4   8   0 9.67815 1.09118   8
   5   8   0 25.0930 1.83900   8
   0   9   0 1.11546 0.38384  10
   1   9   0 25.5354 2.33958  11
   1   9   0 23.5811 1.88184  10
   2   9   0 13.9803 1.40740   9
   2   9   0 11.5848 1.55931  11
   2   9  -1 5.08625 0.86089   9
   2   9  -1 3.17423 1.20191  11
   1   9  -1 20.2377 2.08422  11
   0   9  -1 9.40432 0.89876  10
   5   8  -1 0.77883 0.43184   8
  -5  -8   1 -0.1056 0.67780  15
   4   8  -1 72.0539 4.31817   8
  -4  -8   1 56.4768 4.67504   8
   3   8  -1 3.36504 1.34574   9
   3   8  -1 1.85711 0.70939   8
   2   8  -1 45.3328 3.43263   9
   2   8  -1 42.1250 3.57295  11
   2   8  -1 47.2387 3.03769   8
   1   8  -1 29.9415 2.56205   9
   1   8  -1 33.5464 2.51049  10
   1   8  -1 32.7748 2.94157  11
   0   8  -1 17.5627 1.59929  10
   0   8  -1 24.7405 1.93187   9
   0   8  -1 17.7787 2.27710  11
  -1   8  -1 53.9854 4.03333  11
  -1   8  -1 44.9803 3.27570  10
  -2   8  -1 3.28017 1.71600  11
  -2   8  -1 3.36356 1.09718  18
  -2   8  -1 3.83846 0.58484  10
  -6  -7   1 0.90264 1.20160  15
  -6  -7   1 1.62181 1.04029   9
  -5  -7   1 45.9378 4.54574   9
  -5  -7   1 54.8124 3.65896   8
  -4  -7   1 1.93305 1.05485   8
   3   7  -1 117.332 7.77907   8
   2   7  -1 58.7385 4.82897   9
   2   7  -1 72.1985 4.48929   8
   1   7  -1 143.043 8.81671  10
   1   7  -1 130.934 8.98715   9
   1   7  -1 124.652 8.56881   8
   0   7  -1 43.2548 3.78352  11
   0   7  -1 43.3511 3.50546   9
   0   7  -1 43.7292 3.24680  10
  -1   7  -1 7.99581 2.04332  11
  -1   7  -1 7.69602 1.94713  18
  -1   7  -1 9.10297 1.26800  10
  -1   7  -1 7.75703 1.39538   9
  -2   7  -1 41.1592 4.91330  17
  -2   7  -1 55.0480 3.63257  10
  -2   7  -1 55.8715 4.87054  18
  -2   7  -1 54.3254 4.62985  11
  -3   7  -1 0.95105 1.88486  17
  -3   7  -1 3.72875 2.11175  18
  -3   7  -1 1.24335 2.31045  11
  -4   7  -1 16.7589 2.15747  18
  -4   7  -1 13.5789 2.07210  11
  -7  -6   1 7.31282 1.18620  10
  -7  -6   1 9.78068 1.42713   9
  -7  -6   1 8.63899 1.17920  15
  -6  -6   1 32.9351 3.26141   9
  -6  -6   1 34.2765 2.77825  15
  -6  -6   1 34.0847 2.34233   8
  -5  -6   1 5.82834 1.97076   9
  -5  -6   1 3.62824 1.28815   8
  -4  -6   1 102.085 7.01906   8
   3   6  -1 2.27524 0.96053   8
   2   6  -1 145.890 9.48904   8
   1   6  -1 109.868 7.41306   9
   1   6  -1 108.574 7.03734   8
   1   6  -1 104.622 7.79147   2
   1   6  -1 103.380 8.60412   4
   0   6  -1 40.4553 4.82286   4
   0   6  -1 41.4002 3.62462  18
   0   6  -1 41.2930 3.06837  10
   0   6  -1 37.5772 3.58865   2
   0   6  -1 43.2710 3.36221   9
   0   6  -1 42.3201 2.85193   8
  -1   6  -1 130.049 8.53849  10
  -1   6  -1 128.675 8.66134   9
  -1   6  -1 119.256 10.3885   4
  -1   6  -1 131.931 8.91030  18
  -1   6  -1 138.074 9.10186  11
  -2   6  -1 4.50194 2.18883  17
  -2   6  -1 1.54701 0.62626  10
  -2   6  -1 1.20754 1.87485  11
  -2   6  -1 4.34365 2.07376  18
  -3   6  -1 29.6324 2.36077  10
  -3   6  -1 35.2735 3.80581  11
  -3   6  -1 35.0889 3.30710  18
  -3   6  -1 34.6581 3.92105  17
  -4   6  -1 42.5959 4.77718  18
  -4   6  -1 41.3996 4.86631  17
  -4   6  -1 37.3922 4.55420  11
  -5   6  -1 25.1791 3.46962  17
  -5   6  -1 27.3552 2.77117  11
  -8  -5   1 11.0900 1.28253  15
  -8  -5   1 8.78210 0.91611  10
  -7  -5   1 46.0423 3.31083  15
  -7  -5   1 44.8195 3.40461  10
  -6  -5   1 29.5642 2.67304  10
  -6  -5   1 38.1119 2.85663  15
  -5  -5   1 190.098 12.1895   8
  -5  -5   1 161.344 15.0420   6
  -5  -5   1 203.509 12.5780   9
   2   5  -1 78.1612 5.22612   8
   1   5  -1 184.826 12.4647   2
   1   5  -1 184.383 16.8531   3
   0   5  -1 201.733 13.1990   4
   0   5  -1 194.595 11.9103  10
   0   5  -1 167.783 12.0233   9
   0   5  -1 205.789 12.3502   7
   0   5  -1 173.808 11.8080   8
   0   5  -1 154.014 16.0037   3
   0   5  -1 188.570 12.3363   2
  -1   5  -1 1.62522 0.31627   8
  -1   5  -1 -0.0734 1.15488  11
  -1   5  -1 2.72305 0.60260  10
  -1   5  -1 1.48480 4.13903   3
  -1   5  -1 2.85896 1.68010  18
  -1   5  -1 1.81030 0.83731   9
  -1   5  -1 4.07280 1.88384   7
  -1   5  -1 1.71568 0.91198   2
  -1   5  -1 2.72253 1.31322  17
  -1   5  -1 -0.4410 1.50295   4
  -2   5  -1 219.890 14.9829   7
  -2   5  -1 222.564 14.5226  11
  -2   5  -1 213.109 14.5600  17
  -2   5  -1 208.586 14.1149   9
  -2   5  -1 207.026 14.3000   2
  -2   5  -1 222.271 15.5478   4
  -2   5  -1 222.757 14.3752  18
  -2   5  -1 220.692 13.8215  10
  -3   5  -1 1.16356 2.23212   7
  -3   5  -1 1.30879 1.87760  11
  -3   5  -1 0.14062 1.61724   4
  -3   5  -1 4.98423 1.86835  17
  -3   5  -1 1.11981 0.40325  10
  -4   5  -1 8.49513 2.33409  17
  -5   5  -1 17.3871 2.98198  11
  -5   5  -1 22.6564 4.36985  18
  -5   5  -1 21.4836 3.12782  17
  -6   5  -1 24.4950 3.18666  17
  -6   5  -1 26.6536 3.07431  11
  -8  -4   1 61.5525 4.68468  14
  -8  -4   1 63.6078 4.43371  10
  -8  -4   1 65.1370 4.24406  15
  -7  -4   1 49.8942 3.82420  15
  -7  -4   1 50.5722 3.54631  10
  -7  -4   1 44.9786 3.93143  14
  -6  -4   1 186.713 11.7189  15
  -6  -4   1 165.310 11.7736   9
  -6  -4   1 181.223 11.7811  14
  -6  -4   1 172.246 11.4686  10
  -5  -4   1 3.64610 7.13046   3
  -5  -4   1 6.96493 3.64205   6
  -5  -4   1 11.1226 1.24801  10
  -4  -4   1 251.695 15.8221   8
  -4  -4   1 232.693 16.0367   9
  -4  -4   1 268.911 16.5597   2
  -4  -4   1 230.179 22.8360   3
  -3  -4   1 153.619 10.6318   2
  -3  -4   1 155.210 16.4854   3
   2   4  -1 68.3037 4.99718   2
   1   4  -1 1002.72 65.8871   3
   1   4  -1 924.388 61.8146   7
   1   4  -1 977.363 61.8406   2
   0   4  -1 18.8467 1.83039   2
   0   4  -1 17.3535 2.83925   4
  -1   4  -1 143.194 9.36162   7
  -1   4  -1 131.997 9.71322   4
  -1   4  -1 119.506 11.5370   3
  -1   4  -1 138.173 8.87430   2
  -2   4  -1 0.90423 1.50108   4
  -2   4  -1 0.87536 3.04972   3
  -2   4  -1 2.15855 0.66902   2
  -3   4  -1 535.410 32.1326  16
  -3   4  -1 504.219 31.9649  17
  -3   4  -1 432.283 32.3721  10
  -3   4  -1 509.286 32.5224   7
  -3   4  -1 513.252 32.1155  18
  -3   4  -1 497.536 32.6745  11
  -3   4  -1 507.073 33.1864   4
  -4   4  -1 121.160 9.86930   7
  -4   4  -1 135.951 9.33983  17
  -4   4  -1 139.860 9.77914  18
  -4   4  -1 125.425 9.62965  11
  -4   4  -1 148.217 9.63982  16
  -5   4  -1 644.590 39.9661  17
  -5   4  -1 593.618 39.9216  16
  -6   4  -1 1.18427 1.77199  11
  -6   4  -1 2.42447 1.72574  17
  -6   4  -1 1.54518 2.40378  18
  -7   4  -1 16.7281 3.10133  18
  -7   4  -1 10.7570 2.57298  11
  -8  -3   1 25.7070 3.02444  14
  -8  -3   1 21.9938 2.14851  15
  -8  -3   1 25.4278 1.77996  10
  -7  -3   1 17.0503 1.74839  10
  -7  -3   1 20.2472 2.71758  14
  -7  -3   1 19.3708 2.01855  15
  -7  -3   1 18.9775 2.12143  13
  -6  -3   1 0.72824 1.22002   2
  -6  -3   1 4.94528 1.66372  14
  -6  -3   1 4.12686 1.52168  15
  -6  -3   1 2.70437 2.89025   6
  -6  -3   1 10.7050 1.59488  13
  -5  -3   1 223.960 15.2134   8
  -5  -3   1 245.832 15.8528   5
  -5  -3   1 242.343 17.8021   6
  -5  -3   1 226.725 15.2327  10
  -5  -3   1 220.116 15.4523  14
  -5  -3   1 247.880 15.2450   2
  -5  -3   1 243.886 15.4876   9
  -4  -3   1 2.66661 2.40993   6
  -4  -3   1 -0.1591 4.36625   3
  -4  -3   1 2.12128 0.85879   2
  -4  -3   1 3.14801 0.90540   5
  -3  -3   1 463.398 33.7430   3
  -3  -3   1 439.382 29.1377   5
  -3  -3   1 457.097 29.2486   2
   2   3  -1 73.9364 5.10205   2
   2   3  -1 73.4143 5.00853   1
   2   3  -1 70.2317 5.03095   1
   2   3  -1 80.0011 8.44850   3
  -2  -3   1 72.6281 5.04923   1
  -2  -3   1 74.3664 5.13521   2
  -2  -3   1 69.0879 5.02787   1
  -2  -3   1 69.9500 9.46437   3
   1   3  -1 229.102 14.4750   7
   1   3  -1 256.742 17.7030   3
   1   3  -1 230.583 14.5029   2
   1   3  -1 223.448 14.6677   1
   1   3  -1 219.718 14.6979   1
  -1  -3   1 228.787 14.7243   1
  -1  -3   1 215.494 14.7215   1
  -1  -3   1 210.764 14.8025   2
  -1  -3   1 215.993 18.3428   3
   0   3  -1 1019.72 65.4441   2
   0   3  -1 1016.86 68.2658   1
   0   3  -1 1137.64 69.1787   3
   0   3  -1 1048.98 68.4905   7
   0   3  -1 1052.46 68.2687   1
   0  -3   1 1025.54 68.0792   1
   0  -3   1 1034.85 68.1953   1
  -1   3  -1 140.973 10.1333   4
  -1   3  -1 166.121 12.1728   3
  -1   3  -1 152.336 9.58442   2
  -1   3  -1 133.059 9.50775   1
  -1   3  -1 148.696 9.77015   7
   1  -3   1 139.921 9.59703   1
  -2   3  -1 732.153 44.4109   4
  -2   3  -1 717.831 45.9925   3
  -2   3  -1 637.599 43.5162   2
  -2   3  -1 637.402 44.7532   3
  -2   3  -1 733.600 43.9424   7
  -2   3  -1 646.318 43.5277   2
  -3   3  -1 102.693 7.26276   7
  -3   3  -1 94.7541 7.88835   4
  -4   3  -1 554.973 34.5406  16
  -4   3  -1 555.964 36.0084  18
  -4   3  -1 558.781 34.4466  15
  -4   3  -1 483.942 35.6826  12
  -4   3  -1 565.301 35.0341   7
  -4   3  -1 539.655 35.9240  11
  -4   3  -1 533.501 36.5339   4
  -4   3  -1 581.501 34.5446  17
  -5   3  -1 68.1481 5.29527  16
  -5   3  -1 60.0012 5.25476  11
  -5   3  -1 67.6567 6.17710  18
  -5   3  -1 69.2543 5.01471  15
  -5   3  -1 70.7364 5.30739  17
  -5   3  -1 66.0575 5.03630  12
  -6   3  -1 63.6686 4.84749  16
  -6   3  -1 52.7787 4.42942  12
  -6   3  -1 63.7352 4.75629  15
  -6   3  -1 49.3388 4.74049  11
  -6   3  -1 61.5072 5.04253  17
  -6   3  -1 59.6853 6.03324  18
  -7   3  -1 139.434 9.45164  11
  -7   3  -1 143.242 9.62194  18
  -7   3  -1 132.155 10.1958  12
  -9  -2   1 45.7003 3.29107  14
  -9  -2   1 42.2868 3.18548  15
  -8  -2   1 24.5146 2.52154  13
  -8  -2   1 35.1112 2.92888  15
  -8  -2   1 33.2715 3.15607  14
  -7  -2   1 86.4620 6.15225  14
  -7  -2   1 75.8584 5.83225  15
  -7  -2   1 79.3348 5.28522  10
  -7  -2   1 79.3976 5.63368  13
  -6  -2   1 115.007 7.50083  10
  -6  -2   1 116.540 7.95324  15
  -6  -2   1 108.940 9.95271   6
  -6  -2   1 116.769 7.56801   9
  -6  -2   1 121.676 7.94775  14
  -6  -2   1 109.203 7.82660   2
  -6  -2   1 108.943 8.26400   5
  -6  -2   1 116.602 7.76359  13
  -5  -2   1 124.509 8.46206  10
  -5  -2   1 125.805 8.84575  15
  -5  -2   1 125.064 8.80385   9
  -5  -2   1 123.981 8.72716  13
  -5  -2   1 134.066 9.00816   2
  -5  -2   1 150.167 9.17811   5
  -5  -2   1 142.406 10.9806   6
  -5  -2   1 129.756 8.82412  14
  -4  -2   1 261.331 16.0246   5
  -4  -2   1 235.701 17.8067   6
  -4  -2   1 247.130 19.5591   3
  -4  -2   1 250.665 16.3722   2
   3   2  -1 53.5937 3.87103   1
  -3  -2   1 53.4933 3.84551   1
  -3  -2   1 56.6970 3.98129   5
  -3  -2   1 61.0289 7.31216   3
  -3  -2   1 56.3197 3.95282   2
   2   2  -1 544.850 32.8933   1
   2   2  -1 538.310 34.9025   3
   2   2  -1 476.029 35.0664   2
   2   2  -1 530.509 32.6376   1
  -2  -2   1 523.879 32.6263   1
  -2  -2   1 515.173 32.6351   1
  -2  -2   1 512.513 34.9370   3
  -2  -2   1 487.068 32.6187   5
  -2  -2   1 507.320 32.6863   2
   1   2  -1 690.649 40.2629   3
   1   2  -1 662.706 38.8730   1
   1   2  -1 588.837 41.5980   2
   1   2  -1 616.994 41.7193   7
   1   2  -1 643.601 41.9276   1
  -1  -2   1 610.962 43.3750   3
  -1  -2   1 629.173 39.8045   1
  -1  -2   1 636.045 40.3254   1
  -1  -2   1 595.620 41.3913   2
   0   2  -1 243.933 16.1078   7
   0   2  -1 264.300 16.0590   1
   0   2  -1 284.474 17.9589   3
   0   2  -1 235.040 16.0423   1
   0   2  -1 256.142 16.1086   2
   0  -2   1 251.530 16.0734   1
   0  -2   1 211.065 17.6555   3
   0  -2   1 260.364 16.0800   1
  -1   2  -1 1414.72 97.2379   3
  -1   2  -1 1490.30 95.1906   1
  -1   2  -1 1504.73 95.1941   1
  -1   2  -1 1528.10 96.0023   7
  -1   2  -1 1411.13 95.3265   2
  -1   2  -1 1458.43 95.4099   4
   1  -2   1 1599.95 95.3458   1
   1  -2   1 1521.62 95.2238   1
  -2   2  -1 74.3949 5.41379   4
  -2   2  -1 73.9334 4.76499   1
  -2   2  -1 76.7685 4.83114   2
  -2   2  -1 75.6624 5.53595   3
  -2   2  -1 70.6631 4.78660   1
  -2   2  -1 68.7271 4.86726   5
  -2   2  -1 79.2428 5.18665   7
  -2   2  -1 68.4322 4.78034   2
   2  -2   1 75.2016 4.78872   1
   2  -2   1 77.2439 4.78051   1
  -3   2  -1 1218.91 79.3006   4
  -3   2  -1 1149.20 71.6917   6
  -3   2  -1 1201.54 78.8729   5
  -3   2  -1 1145.49 71.8266   7
  -4   2  -1 35.7760 3.07334   5
  -4   2  -1 37.0256 3.88126   4
  -4   2  -1 39.1861 3.69984   7
  -5   2  -1 151.860 12.2033  14
  -5   2  -1 169.933 11.1842  15
  -5   2  -1 190.544 12.4479  18
  -5   2  -1 171.451 11.1607  13
  -5   2  -1 165.623 12.0394   4
  -5   2  -1 178.000 11.3699  12
  -5   2  -1 168.976 11.3445  17
  -5   2  -1 170.211 11.5485  11
  -5   2  -1 165.791 11.2117  16
  -6   2  -1 62.7389 6.59277  14
  -6   2  -1 67.0867 5.60443  11
  -6   2  -1 66.6598 5.46751  17
  -6   2  -1 70.8578 5.21306  16
  -6   2  -1 74.6239 5.42769  12
  -6   2  -1 61.2937 4.95571  15
  -6   2  -1 85.9442 6.76439  18
  -6   2  -1 69.8814 5.03639  13
  -7   2  -1 6.52029 2.54366  18
  -7   2  -1 5.21523 1.67542  12
  -7   2  -1 3.72454 3.80458  14
  -7   2  -1 4.69123 2.11490  11
  -8   2  -1 33.3643 3.79051  14
  -9  -1   1 -0.3116 0.99848  15
  -9  -1   1 4.15542 2.02301  14
  -8  -1   1 35.9900 3.60131  14
  -8  -1   1 37.5729 3.26970  15
  -8  -1   1 38.2210 3.27197  13
  -7  -1   1 84.4848 5.86243  13
  -7  -1   1 85.6697 6.56085  14
  -7  -1   1 79.9949 5.32926  10
  -7  -1   1 79.9038 5.79805  15
  -6  -1   1 69.6565 4.61073  10
  -6  -1   1 66.2164 5.47493  12
  -6  -1   1 74.3907 5.45431  14
  -6  -1   1 71.1969 4.91272  13
  -6  -1   1 65.2159 5.15457  15
  -6  -1   1 71.9321 5.44234   5
  -6  -1   1 64.5510 6.98160   6
  -5  -1   1 307.915 19.2465   2
  -5  -1   1 332.290 19.6398   5
  -5  -1   1 322.667 19.2421  13
  -5  -1   1 299.935 19.5219  12
  -5  -1   1 277.648 18.9951  10
  -5  -1   1 268.329 19.2872  15
  -5  -1   1 283.032 20.7346   6
  -5  -1   1 292.772 19.3775  14
  -4  -1   1 11.4314 1.37658   2
  -4  -1   1 10.3248 3.88997   3
  -4  -1   1 12.9607 1.48868   5
  -4  -1   1 9.88880 2.47201   6
   3   1  -1 844.807 52.7953   1
   3   1  -1 815.427 52.6318   1
  -3  -1   1 752.591 54.2612   1
  -3  -1   1 786.174 53.3325   6
  -3  -1   1 875.938 55.3809   3
  -3  -1   1 819.490 53.0401   5
  -3  -1   1 815.380 52.5167   1
  -3  -1   1 902.358 54.8360   3
  -3  -1   1 843.604 52.9391   2
   2   1  -1 540.164 33.4906   1
   2   1  -1 529.178 33.4377   1
  -2  -1   1 525.151 34.5470   3
  -2  -1   1 532.125 37.1628   2
  -2  -1   1 558.755 34.9195   3
  -2  -1   1 525.406 34.3623   1
  -2  -1   1 538.135 35.7611   5
   1   1  -1 1827.91 121.115   2
   1   1  -1 1907.92 119.925   3
  -1  -1   1 1789.63 110.395   3
  -1  -1   1 1840.13 121.169   2
  -1  -1   1 1751.52 120.850   5
   0  -1   1 4252.51 275.714   3
  -1   1  -1 67.9843 4.82376   4
  -1   1  -1 66.2238 4.45102   2
  -1   1  -1 69.6615 4.43561   1
  -1   1  -1 58.2040 4.44760   2
  -1   1  -1 68.0337 4.46233   5
  -1   1  -1 61.2775 3.72802   1
  -1   1  -1 66.6279 4.60500   7
   1  -1   1 64.4361 3.74065   1
   1  -1   1 68.7417 4.46179   1
  -2   1  -1 1098.81 68.8116   4
  -2   1  -1 1098.71 68.9948   6
  -2   1  -1 1047.40 68.7294   5
  -2   1  -1 1046.23 69.1099   7
  -3   1  -1 0.95031 0.86954   6
  -3   1  -1 0.40592 0.77892   7
  -3   1  -1 0.39534 0.51825   4
  -3   1  -1 1.93109 0.68588   5
  -4   1  -1 468.787 27.4067   4
  -4   1  -1 452.673 27.0619   5
  -4   1  -1 391.049 29.3303   7
  -4   1  -1 429.855 29.5944   6
  -5   1  -1 8.40818 1.71482  12
  -5   1  -1 8.27564 1.36096  13
  -5   1  -1 9.53993 3.20593  18
  -5   1  -1 9.12156 1.49647  15
  -5   1  -1 11.9775 2.36581  14
  -5   1  -1 8.92480 1.83394   5
  -5   1  -1 8.75393 2.06806  11
  -6   1  -1 35.4893 2.88868  13
  -6   1  -1 34.2550 3.52864  11
  -6   1  -1 31.6199 2.95522  15
  -6   1  -1 28.1982 3.16082   5
  -6   1  -1 37.0698 3.41089  12
  -6   1  -1 29.7344 4.51333  14
  -6   1  -1 37.5690 5.19065  18
  -7   1  -1 89.2669 8.18271  14
  -7   1  -1 87.9029 6.73245  12
  -7   1  -1 87.2424 6.41375  15
  -7   1  -1 106.790 7.09553  11
  -8   1  -1 3.11707 2.41434  14
  -9   0   1 28.9449 2.89323  14
  -8   0   1 16.6647 2.18672  15
  -8   0   1 17.0307 3.43995  14
  -7   0   1 196.959 14.1127  12
  -7   0   1 216.846 13.7690  13
  -7   0   1 212.112 13.7690  15
  -7   0   1 206.594 14.1250  14
  -6   0   1 45.4435 3.74795  12
  -6   0   1 42.8913 3.68659   5
  -6   0   1 36.0909 2.58361  10
  -6   0   1 37.0552 3.42030  15
  -6   0   1 41.6422 3.20455  13
  -6   0   1 38.1657 4.88504   6
  -6   0   1 39.1360 4.10649  14
  -5   0   1 52.9064 4.24794  15
  -5   0   1 64.3567 4.41294   5
  -5   0   1 57.7070 5.68777   6
  -5   0   1 53.9942 3.81774  10
  -5   0   1 62.3961 4.47210  12
  -5   0   1 54.7856 4.58990  14
  -5   0   1 61.2087 4.10550  13
  -4   0   1 1171.86 76.5184   6
  -4   0   1 1210.77 75.9297   5
   3   0  -1 334.458 20.3365   1
  -3   0   1 296.407 20.3328   2
  -3   0   1 331.208 20.5640   5
  -3   0   1 336.697 22.1300   3
  -3   0   1 319.785 20.4143   2
  -3   0   1 304.950 20.3169   1
  -3   0   1 278.966 21.1000   7
  -3   0   1 323.823 21.0851   6
  -3   0   1 357.217 21.2138   3
  -3   0   1 321.867 20.3542   1
   2   0  -1 10.4643 0.75804   1
  -2   0   1 11.6801 0.94923   2
  -2   0   1 11.4385 0.83511   1
  -2   0   1 9.65416 0.74167   1
  -2   0   1 9.60173 0.94501   5
  -2   0   1 8.49329 0.77283   2
  -2   0   1 9.79834 1.88158   3
  -2   0   1 10.3555 2.68776   3
  -1   0   1 1038.34 69.0976   2
  -1   0   1 960.597 68.9813   7
  -1   0   1 1033.69 65.8267   5
  -1   0   1 1029.30 57.3756   3
  -1   0   1 1032.75 62.3431   6
  -1   0   1 966.497 68.9407   2
   0   0  -1 355.719 24.3326   2
   0   0  -1 394.099 29.4007   3
   0   0  -1 385.112 23.0200   1
   0   0  -1 370.801 22.9905   1
   0   0   1 387.742 22.9805   1
   0   0   1 379.529 27.6747   2
   0   0   1 373.485 24.2537   1
   0   0   1 397.595 24.0587   3
  -2   0  -1 372.159 27.0012   7
  -2   0  -1 351.057 22.5373   1
  -2   0  -1 346.880 22.5030   2
  -2   0  -1 351.152 22.5185   1
  -2   0  -1 353.065 22.4904   5
  -2   0  -1 346.579 23.1988   6
  -2   0  -1 356.023 21.5339   4
   2   0   1 356.142 21.3986   1
   2   0   1 350.672 21.3666   1
  -3   0  -1 1588.66 110.445   2
  -3   0  -1 1657.09 109.949   6
  -3   0  -1 1924.68 110.084   4
  -3   0  -1 1829.77 109.790   5
  -3   0  -1 1740.51 108.596   2
  -3   0  -1 1643.71 108.415   1
  -3   0  -1 1712.87 108.489   1
   3   0   1 1689.67 108.441   1
   3   0   1 1617.33 108.444   1
  -4   0  -1 19.9599 2.03684   5
  -4   0  -1 18.7220 2.94047   6
  -5   0  -1 42.2166 3.13599  13
  -5   0  -1 38.5999 4.38703   6
  -5   0  -1 41.4679 3.76261  14
  -5   0  -1 47.6067 3.75059   5
  -5   0  -1 42.3667 2.79959  10
  -5   0  -1 44.4282 3.53219  12
  -6   0  -1 316.164 19.0326  13
  -6   0  -1 287.163 19.4972   5
  -6   0  -1 300.338 19.3867  11
  -6   0  -1 252.535 18.9318  15
  -6   0  -1 316.936 19.4105  12
  -6   0  -1 290.170 19.3770  14
  -7   0  -1 83.8155 6.75195  14
  -7   0  -1 80.3661 5.98878  15
  -7   0  -1 93.9691 6.74667  12
  -7   0  -1 85.3320 6.07624  13
  -8   0  -1 58.1787 5.28442  14
  -9   0  -1 3.50064 1.69038  14
  -9   1   1 0.89991 1.67935  14
  -8   1   1 46.4266 4.10928  14
  -8   1   1 36.3687 3.03756  15
  -7   1   1 82.0974 5.93897  15
  -7   1   1 87.4874 6.49248  12
  -7   1   1 82.1805 7.11852  14
  -7   1   1 87.7862 6.11868  13
  -6   1   1 48.1060 3.95902  11
  -6   1   1 47.4702 3.96585  12
  -6   1   1 49.1565 3.59558  13
  -6   1   1 47.5332 4.82733  14
  -6   1   1 35.6135 3.35301  16
  -6   1   1 44.5597 3.75410  15
  -5   1   1 670.790 41.2962   5
  -5   1   1 655.988 40.8907  13
  -5   1   1 611.200 42.3390   6
  -5   1   1 697.086 41.1711  11
  -5   1   1 600.894 41.4748  15
  -5   1   1 605.203 41.7929  14
  -5   1   1 666.659 41.0883  12
  -4   1   1 93.1293 6.57280   6
  -4   1   1 72.6971 5.74532   7
  -4   1   1 80.7302 5.83371   5
  -4   1   1 91.3324 6.02423   4
  -3   1   1 1610.29 97.4784   4
  -3   1   1 1491.22 96.5300   5
  -3   1   1 1532.07 97.9666   6
  -3   1   1 1441.25 97.3893   7
  -2   1   1 1362.55 86.7912   5
  -2   1   1 1390.83 86.9492   4
  -2   1   1 1397.69 87.7587   6
  -2   1   1 1267.27 86.7109   7
   1  -1  -1 144.966 8.68192   1
   1  -1  -1 144.209 8.32249   1
  -1   1   1 132.653 9.01358   2
  -1   1   1 141.042 9.26358   6
  -1   1   1 132.659 9.13355   4
  -1   1   1 147.168 8.92807   3
  -1   1   1 143.978 8.87346   1
  -1   1   1 134.753 9.01248   2
  -1   1   1 143.814 9.04106   1
  -1   1   1 125.452 9.10533   7
  -1   1   1 128.522 9.06316   5
   0  -1  -1 2038.85 131.752   3
   0  -1  -1 2155.46 145.961   2
   0   1   1 2002.51 116.761   3
   0   1   1 2082.04 145.854   7
  -1  -1  -1 250.069 15.2251   1
  -1  -1  -1 232.231 14.9274   5
  -1  -1  -1 225.138 14.9525   2
  -1  -1  -1 213.334 15.8230   3
  -1  -1  -1 234.647 15.2515   1
   1   1   1 237.154 15.7215   3
   1   1   1 206.826 14.9371   2
   1   1   1 257.979 15.2076   1
   1   1   1 252.079 15.1749   1
  -2  -1  -1 1443.63 92.7669   1
  -2  -1  -1 1473.51 93.0198   2
  -2  -1  -1 1376.89 92.8636   5
  -2  -1  -1 1495.47 98.5078   3
  -2  -1  -1 1418.37 94.7841   3
  -2  -1  -1 1386.75 92.7039   1
   2   1   1 1538.46 92.8130   1
   2   1   1 1489.98 92.8148   1
  -3  -1  -1 0.59353 0.63572   5
  -3  -1  -1 -0.5766 1.77392   6
  -3  -1  -1 0.63647 0.32933   1
  -3  -1  -1 0.46613 1.60717   3
  -3  -1  -1 0.39097 0.36649   1
  -3  -1  -1 0.49678 0.34744   2
  -3  -1  -1 0.51807 0.40048   2
   3   1   1 0.47752 0.43018   1
   3   1   1 0.57308 0.43086   1
  -4  -1  -1 120.121 9.29190   6
  -4  -1  -1 120.006 7.93925   2
  -4  -1  -1 124.349 8.10412   5
  -4  -1  -1 119.861 10.5186   3
  -5  -1  -1 210.695 14.2288   2
  -5  -1  -1 215.501 15.2039   6
  -5  -1  -1 216.654 13.9486  14
  -5  -1  -1 205.609 14.0081  10
  -5  -1  -1 212.960 13.9904  12
  -5  -1  -1 223.653 14.1221   5
  -6  -1  -1 36.3451 3.53304  12
  -6  -1  -1 34.6032 2.95524  15
  -6  -1  -1 30.9560 2.24146  10
  -6  -1  -1 31.9158 3.19700   5
  -6  -1  -1 30.6844 2.66481  13
  -6  -1  -1 31.8152 3.49597  14
  -7  -1  -1 140.095 9.40609  15
  -7  -1  -1 140.825 10.0666  12
  -7  -1  -1 150.282 10.1357  14
  -7  -1  -1 131.498 9.17657  10
  -7  -1  -1 144.130 9.41380  13
  -8  -1  -1 17.0208 1.73173  15
  -8  -1  -1 16.5769 3.66574  14
  -9  -1  -1 66.8862 5.63158  14
  -8   2   1 15.3850 2.85937  14
  -8   2   1 17.3057 2.03325  15
  -7   2   1 56.4176 4.33972  15
  -7   2   1 51.7367 5.73568  14
  -7   2   1 54.5481 4.15323  16
  -7   2   1 53.8897 4.57057  12
  -6   2   1 141.786 8.88936  15
  -6   2   1 133.795 9.01798  11
  -6   2   1 126.745 8.73079  16
  -6   2   1 132.805 8.82185  13
  -6   2   1 119.279 8.95025  17
  -6   2   1 128.245 9.04479  12
  -6   2   1 126.195 9.75120  14
  -5   2   1 4.65762 2.23278  18
  -5   2   1 4.39310 0.96740  13
  -5   2   1 6.65022 2.61792  14
  -5   2   1 7.91151 1.53133  16
  -5   2   1 7.59102 1.38709  15
  -5   2   1 4.51187 1.06976  12
  -5   2   1 5.53846 1.29759  11
  -5   2   1 3.92093 1.73162   6
  -5   2   1 4.97051 1.11800  17
  -4   2   1 377.572 25.4689   7
  -4   2   1 421.156 25.2650   6
  -4   2   1 392.843 25.6630   4
  -4   2   1 368.143 25.4336   5
  -3   2   1 320.399 20.8622   4
  -3   2   1 309.280 20.6784   5
  -3   2   1 345.066 21.1457   6
  -3   2   1 309.484 20.7599   7
   2  -2  -1 446.929 27.5823   1
   2  -2  -1 451.300 27.4582   1
  -2   2   1 426.445 27.7880   4
  -2   2   1 428.975 27.5608   2
  -2   2   1 415.074 27.4738   1
  -2   2   1 484.489 28.0414   6
  -2   2   1 439.769 27.7260   7
  -2   2   1 373.739 28.0883   5
   1  -2  -1 519.771 31.9409   1
   1  -2  -1 522.760 32.0007   1
  -1   2   1 462.707 31.6993   2
  -1   2   1 483.297 31.7987   7
  -1   2   1 501.441 31.9441   4
  -1   2   1 524.124 31.8939   1
  -1   2   1 500.181 32.7211   3
  -1   2   1 501.910 31.9628   1
  -1   2   1 466.812 32.0399   2
   0  -2  -1 1492.45 92.6037   1
   0  -2  -1 1519.32 114.173   2
   0  -2  -1 1532.84 92.6806   1
   0  -2  -1 1507.05 103.405   3
   0   2   1 1475.53 92.5153   1
   0   2   1 1505.43 92.5592   1
   0   2   1 1479.11 96.1085   7
   0   2   1 1493.77 96.6321   3
   0   2   1 1472.29 92.6668   2
  -1  -2  -1 38.3239 2.54033   1
  -1  -2  -1 37.0917 2.52755   1
  -1  -2  -1 39.3943 5.01334   3
  -1  -2  -1 39.8268 2.99076   2
  -1  -2  -1 37.7978 2.80177   5
   1   2   1 37.2213 2.54530   1
   1   2   1 37.5327 2.85541   7
   1   2   1 39.5889 2.96198   2
   1   2   1 38.4586 4.24722   3
   1   2   1 39.6465 2.55627   1
  -2  -2  -1 158.767 12.1182   3
  -2  -2  -1 143.577 9.63398   1
  -2  -2  -1 145.997 9.63352   1
  -2  -2  -1 142.968 9.63425   5
  -2  -2  -1 141.441 9.70242   2
   2   2   1 145.969 9.65172   1
   2   2   1 163.689 11.5611   3
   2   2   1 148.539 9.64672   1
  -3  -2  -1 440.458 28.7773   5
  -3  -2  -1 402.177 28.6954   1
  -3  -2  -1 506.638 31.7939   3
  -3  -2  -1 468.834 28.8357   2
   3   2   1 429.649 28.7323   1
   3   2   1 449.154 28.7354   1
  -5  -2  -1 123.059 8.51744  14
  -5  -2  -1 118.442 8.28784  13
  -5  -2  -1 129.013 8.83273  12
  -5  -2  -1 125.837 10.7067   6
  -5  -2  -1 127.759 8.13560  10
  -5  -2  -1 117.607 8.24920   9
  -5  -2  -1 134.319 8.54934   5
  -5  -2  -1 116.082 8.54978  15
  -5  -2  -1 134.942 8.53216   2
  -6  -2  -1 333.727 22.2787   5
  -6  -2  -1 309.288 21.8937   2
  -6  -2  -1 348.564 21.5588  10
  -6  -2  -1 342.431 21.8938  15
  -6  -2  -1 349.421 21.7628  13
  -6  -2  -1 328.312 22.2844  12
  -6  -2  -1 341.472 24.1918   6
  -6  -2  -1 346.683 22.0299  14
  -7  -2  -1 18.2902 1.59246  10
  -7  -2  -1 13.3519 3.02814  14
  -7  -2  -1 19.2637 2.28511  15
  -8  -2  -1 79.9909 6.31007  14
  -8  -2  -1 75.3895 5.43523  15
  -9  -2  -1 10.4034 2.52969  14
  -7   3   1 36.0567 3.07847  16
  -7   3   1 39.3274 3.09024  15
  -7   3   1 36.0463 4.92243  14
  -6   3   1 14.8319 2.55210  15
  -6   3   1 9.84949 3.71894  14
  -6   3   1 14.8145 2.49996  16
  -6   3   1 8.74024 1.99167  11
  -6   3   1 9.71808 2.79971  18
  -5   3   1 136.065 10.4302  18
  -5   3   1 142.575 9.99102  11
  -5   3   1 151.257 9.86078  16
  -5   3   1 151.006 9.85804  17
  -5   3   1 130.748 10.7651  14
  -5   3   1 161.732 9.92505  15
  -4   3   1 4.79356 2.65686  14
  -4   3   1 3.30402 1.08998  17
  -4   3   1 0.27859 1.35430  11
  -4   3   1 2.39821 1.80318  18
  -4   3   1 4.83527 1.48753  15
  -4   3   1 4.89285 1.69318   7
  -3   3   1 683.357 42.0242   7
  -3   3   1 656.557 44.3594   4
   2  -3  -1 260.804 17.2321   1
  -2   3   1 242.577 17.1711   1
  -2   3   1 272.838 17.8392   4
  -2   3   1 281.821 16.2850   7
  -2   3   1 257.151 18.3231   3
  -2   3   1 259.113 17.2165   2
  -2   3   1 269.302 18.6534   3
  -2   3   1 265.477 15.8789   2
   1  -3  -1 1553.76 99.6086   1
  -1   3   1 1581.71 100.825   4
  -1   3   1 1558.38 100.775   1
  -1   3   1 1555.00 100.816   1
  -1   3   1 1570.96 105.426   3
  -1   3   1 1607.78 100.805   7
  -1   3   1 1557.09 101.282   2
   0  -3  -1 763.932 52.3278   1
   0  -3  -1 791.195 51.0731   1
   0   3   1 880.387 53.8803   3
   0   3   1 778.102 50.7582   1
   0   3   1 831.466 51.2029   2
   0   3   1 794.676 50.8415   7
   0   3   1 768.188 52.0881   1
  -1  -3  -1 58.4653 4.06145   1
  -1  -3  -1 50.7683 3.89270   5
  -1  -3  -1 59.0392 4.20223   2
  -1  -3  -1 62.6450 4.09774   1
   1   3   1 63.3650 4.09244   1
   1   3   1 59.2269 4.06326   1
   1   3   1 62.1419 4.09630   7
   1   3   1 61.8218 4.16672   2
  -2  -3  -1 268.080 17.9053   2
  -2  -3  -1 287.939 21.8147   3
  -2  -3  -1 272.715 17.7782   1
  -2  -3  -1 263.542 17.6808   5
  -2  -3  -1 272.481 17.7775   1
   2   3   1 268.688 16.5513   1
   2   3   1 266.927 17.8538   2
   2   3   1 278.303 17.7965   1
  -3  -3  -1 71.4897 5.26992   5
  -3  -3  -1 77.3191 5.15862   2
  -4  -3  -1 107.431 8.21452   5
  -4  -3  -1 131.196 12.9081   3
  -4  -3  -1 114.646 8.02899   2
  -5  -3  -1 193.959 14.0049   9
  -5  -3  -1 236.492 13.9640   5
  -5  -3  -1 197.670 13.5653  14
  -5  -3  -1 212.664 13.3107  10
  -5  -3  -1 195.434 16.0981   6
  -5  -3  -1 212.685 13.7582   2
  -6  -3  -1 17.2451 2.47545  14
  -6  -3  -1 9.67933 2.23303   5
  -6  -3  -1 15.7625 1.82948  13
  -6  -3  -1 16.1119 2.48989   2
  -6  -3  -1 17.6534 4.83440   6
  -6  -3  -1 14.0992 1.37132  10
  -7  -3  -1 122.883 8.38558  13
  -7  -3  -1 124.090 7.84232  10
  -7  -3  -1 125.427 8.67383  14
  -7  -3  -1 116.676 8.34766  15
  -8  -3  -1 3.00172 1.30990  15
  -8  -3  -1 7.94975 2.32424  14
  -9  -3  -1 30.6588 2.79456  14
  -6   4   1 124.672 9.35416  18
  -6   4   1 139.487 9.25137  16
  -5   4   1 53.9053 4.51415  11
  -5   4   1 50.6511 4.66345  15
  -5   4   1 47.9508 4.75749  16
  -5   4   1 57.4904 5.17937  18
  -4   4   1 284.808 19.7884  11
  -4   4   1 291.866 20.2043   7
  -4   4   1 286.281 19.6418  16
  -4   4   1 289.216 19.8868  18
  -4   4   1 339.521 19.7876  15
  -4   4   1 318.168 19.6690  17
  -3   4   1 94.4894 7.89145   4
  -3   4   1 95.7571 6.62808  10
  -3   4   1 101.960 7.37083  11
  -3   4   1 105.941 7.42183  15
  -3   4   1 99.7058 7.38809  18
  -3   4   1 117.070 7.80390   7
  -3   4   1 110.437 7.20892  17
  -3   4   1 102.818 7.28029  16
  -2   4   1 416.079 28.7791   4
  -2   4   1 450.494 28.4108   7
  -2   4   1 443.899 27.9477   2
  -1   4   1 126.327 8.40327   2
  -1   4   1 119.487 9.03973   4
  -1   4   1 133.379 8.68063   7
   0   4   1 174.208 12.1636   2
   0   4   1 183.726 12.2775   7
   0   4   1 198.702 15.1582   3
   1   4   1 139.477 10.2715   1
   1   4   1 160.653 10.1821   2
   1   4   1 160.627 10.1194   7
  -2  -4  -1 218.052 16.0899   2
  -2  -4  -1 260.037 21.7306   3
   2   4   1 226.742 15.2037   2
  -3  -4  -1 216.130 14.4591   2
  -4  -4  -1 101.941 7.92010   9
  -4  -4  -1 122.572 7.95338   2
  -4  -4  -1 120.287 7.28469   8
  -4  -4  -1 108.712 7.96323  14
  -4  -4  -1 115.879 7.74244   5
  -5  -4  -1 105.125 6.87373   8
  -5  -4  -1 109.390 7.13196   9
  -5  -4  -1 103.089 7.36354  14
  -5  -4  -1 104.161 7.45542   5
  -5  -4  -1 104.678 7.53920   2
  -5  -4  -1 109.932 6.92338  10
  -5  -4  -1 93.3567 10.6110   6
  -6  -4  -1 103.168 7.01377  14
  -6  -4  -1 97.2179 6.55662  10
  -6  -4  -1 93.5675 9.91834   6
  -6  -4  -1 96.2252 7.09347  15
  -6  -4  -1 88.6395 7.41524   5
  -6  -4  -1 115.698 6.94686   9
  -7  -4  -1 12.2566 1.21429  10
  -7  -4  -1 11.6333 1.83261  14
  -7  -4  -1 12.9708 2.07120  15
  -8  -4  -1 5.17492 1.30669  15
  -8  -4  -1 4.76291 1.45363  14
  -6   5   1 12.1436 2.35268  18
  -5   5   1 136.421 8.72430  16
  -5   5   1 113.993 8.89281  11
  -5   5   1 117.680 8.43474  18
  -4   5   1 58.4686 4.90753  16
  -4   5   1 61.3779 5.38462  18
  -4   5   1 57.7944 4.52367  17
  -4   5   1 56.6571 4.96905  11
  -3   5   1 859.854 60.2721   7
  -3   5   1 957.648 58.5439  16
  -3   5   1 929.030 58.5208  18
  -3   5   1 897.018 59.9011  11
  -3   5   1 934.620 58.3748  17
  -3   5   1 937.033 57.9624  10
  -2   5   1 91.7238 6.49973  17
  -2   5   1 89.8875 6.89150  11
  -2   5   1 98.8491 6.07579  10
  -2   5   1 96.8855 6.78406  18
  -2   5   1 89.6331 6.26052   2
  -2   5   1 101.422 7.12602  16
  -2   5   1 86.0320 7.60347   4
  -2   5   1 87.4740 6.08915   9
  -2   5   1 91.7877 7.12266   7
  -1   5   1 116.581 7.99299  18
  -1   5   1 114.003 7.33915  10
  -1   5   1 107.189 8.45207  16
  -1   5   1 119.857 7.67859  17
  -1   5   1 120.327 7.72621   2
  -1   5   1 108.520 7.69995   9
  -1   5   1 107.120 7.43351   8
  -1   5   1 118.928 8.83585   4
  -1   5   1 122.293 8.20439   7
  -1   5   1 107.610 8.03863  11
   0   5   1 66.8271 5.02534   8
   0   5   1 87.6029 5.98035   7
   0   5   1 75.2123 6.41492   4
   0   5   1 82.0829 5.67145   2
   1   5   1 8.40993 2.00998   7
   1   5   1 4.32483 1.33781   2
  -4  -5  -1 46.9654 3.40319   8
  -5  -5  -1 94.2642 10.6887   6
  -5  -5  -1 101.792 6.83403   9
  -6  -5  -1 25.1397 2.15018  10
  -6  -5  -1 19.8472 2.52478  14
  -6  -5  -1 25.9466 2.55710  15
  -7  -5  -1 38.5122 3.41648  14
  -7  -5  -1 39.4393 3.32315  15
  -8  -5  -1 0.66630 1.05000  15
  -6   6   1 30.5896 3.19117  18
  -5   6   1 12.6354 3.01631  18
  -4   6   1 121.308 8.69922  11
  -4   6   1 119.781 8.52404  18
  -3   6   1 15.2118 2.76496  17
  -3   6   1 10.8844 2.32332  11
  -3   6   1 15.2233 3.20514  18
  -3   6   1 12.8237 1.15453  10
  -2   6   1 22.3083 2.95964  17
  -2   6   1 26.7539 1.82975   9
  -2   6   1 21.1120 2.74898  11
  -2   6   1 17.0725 3.74160   7
  -2   6   1 25.8167 1.93530  10
  -2   6   1 23.9989 3.44917  18
  -1   6   1 319.640 19.9504  10
  -1   6   1 299.064 22.5641   4
  -1   6   1 326.348 20.4174  18
  -1   6   1 303.168 21.0896   7
  -1   6   1 337.517 20.0643   9
  -1   6   1 301.956 20.5037  11
  -1   6   1 306.589 20.8191   2
   0   6   1 12.1832 2.29700   2
   0   6   1 8.55130 2.27522   7
   0   6   1 19.8997 2.24876   9
   0   6   1 15.6125 2.63343  18
   0   6   1 15.6627 1.67446  10
   1   6   1 192.630 13.4989  18
   1   6   1 216.964 13.9576   2
   1   6   1 199.170 14.7777   4
   1   6   1 205.177 13.1203   8
   1   6   1 205.320 13.4265   9
   2   6   1 20.9896 1.97375   8
   3   6   1 142.011 9.33521   8
  -4  -6  -1 85.5713 5.88114   8
  -5  -6  -1 122.284 8.69709   9
  -6  -6  -1 40.9215 3.37190  15
  -7  -6  -1 2.56946 0.76536  10
  -7  -6  -1 1.63585 0.97774  15
  -5   7   1 43.9903 4.20774  18
  -4   7   1 12.2976 2.84590  18
  -3   7   1 74.7051 4.56122  10
  -3   7   1 67.7984 5.34257  18
  -3   7   1 66.7933 5.70838  11
  -2   7   1 27.7294 3.14243  11
  -2   7   1 24.7592 3.13357  17
  -2   7   1 32.5598 2.16442  10
  -2   7   1 29.9611 3.02021  18
  -1   7   1 14.6408 1.54493  10
  -1   7   1 13.8111 2.91156  18
  -1   7   1 16.0655 1.75279   9
  -1   7   1 9.37566 2.67102  11
   0   7   1 94.8546 5.96411  10
   0   7   1 81.3211 5.95925   9
   0   7   1 81.3641 6.42377  18
   0   7   1 93.9880 6.96788  11
   1   7   1 7.76643 1.15256   8
   1   7   1 4.47620 1.41613   9
   2   7   1 108.078 8.07315   9
   2   7   1 111.098 7.07205   8
   3   7   1 6.62912 1.24800   8
  -4  -7  -1 37.1806 3.09583   8
   4   7   1 42.4526 2.99247   8
  -6  -7  -1 8.78246 1.51063  15
  -7  -7  -1 14.9246 1.37580  15
  -3   8   1 6.09342 1.60742  18
  -2   8   1 15.1327 2.21827  11
  -2   8   1 20.2818 2.65322  18
  -2   8   1 20.7742 1.41118  10
  -1   8   1 43.9753 3.21119  10
  -1   8   1 50.4409 4.10095  11
  -1   8   1 49.6758 4.03649  18
   0   8   1 12.5678 1.83097  18
   0   8   1 14.7665 1.37092  10
   0   8   1 19.4480 3.21591  11
   1   8   1 97.9626 7.01758  11
   1   8   1 102.845 6.66753   9
   1   8   1 89.1335 6.40392  10
   2   8   1 7.45319 1.58514   9
   3   8   1 133.231 9.21841   8
   3   8   1 141.623 8.98110   9
   4   8   1 8.89558 1.09993   8
   0   9   1 38.2909 3.36153  11
   0   9   1 39.7256 2.53450  10
   1   9   1 5.42165 1.04197   9
   1   9   1 1.49258 1.28623  11
   1   9   1 3.98372 0.75156  10
   2   9   1 38.7372 3.17788  11
   2   9   1 38.1113 2.88744   9
   3   9   1 11.5999 1.31269   9
   3   9   1 11.4132 1.46732  11
   5   8  -2 20.3105 1.46845   8
  -5  -8   2 19.9680 1.48288   8
  -5  -8   2 19.3319 1.79338  15
   4   8  -2 4.91547 0.63081   8
  -4  -8   2 4.88335 1.31904   8
   3   8  -2 127.704 9.10575   9
   3   8  -2 142.079 8.53128   8
   3   8  -2 136.420 9.17845  11
   2   8  -2 1.31116 0.46361   8
   2   8  -2 1.30434 0.94453  11
   2   8  -2 1.76195 1.22185   9
   1   8  -2 81.8391 5.91577  10
   1   8  -2 91.1860 6.31053  11
   1   8  -2 95.5722 6.12905   9
   0   8  -2 18.4290 2.20266  11
   0   8  -2 20.8159 1.79707  10
   0   8  -2 23.5800 1.85856   9
  -1   8  -2 25.5492 2.49091  11
  -1   8  -2 22.7379 1.72579  10
  -2   8  -2 33.3455 2.20983  10
  -2   8  -2 35.2107 2.95626  11
  -6  -7   2 23.9086 2.08433  15
  -6  -7   2 20.6597 2.19164   9
  -5  -7   2 10.9266 1.87433   9
   4   7  -2 99.2442 6.58561   8
   3   7  -2 0.40151 0.59610   8
   2   7  -2 97.7751 6.77865   9
   2   7  -2 95.0478 6.37074   8
   1   7  -2 81.1834 5.49270   9
   1   7  -2 70.4445 4.91568   8
   1   7  -2 75.3814 5.54503  11
   1   7  -2 72.9537 5.17297  10
   0   7  -2 77.1481 5.36007  10
   0   7  -2 84.1811 5.87778  11
   0   7  -2 77.0285 5.50299   9
  -1   7  -2 52.0643 4.79829  18
  -1   7  -2 61.6796 4.10265  10
  -1   7  -2 61.3056 4.89970  11
  -1   7  -2 58.1764 4.13685   9
  -2   7  -2 14.0910 3.07948  18
  -2   7  -2 13.9860 3.13746  11
  -2   7  -2 11.7682 1.29151  10
  -3   7  -2 51.1302 3.96919  11
  -3   7  -2 47.6005 4.36928  18
  -4   7  -2 -0.8156 1.57046  11
  -4   7  -2 -0.4969 1.18276  18
  -7  -6   2 7.09999 1.00272  10
  -7  -6   2 9.31165 1.02820  15
  -7  -6   2 9.30629 1.13703   9
  -6  -6   2 134.857 8.52250  15
  -6  -6   2 118.151 8.75030   9
  -6  -6   2 129.517 8.18911   8
  -5  -6   2 30.1668 2.79863   8
  -5  -6   2 25.1651 3.28817   9
  -4  -6   2 37.2972 3.30941   8
   3   6  -2 117.782 7.80725   8
   2   6  -2 -0.6078 1.26521   4
   2   6  -2 1.72906 0.79870   8
   1   6  -2 68.1525 11.8507   3
   1   6  -2 88.0277 5.33419   8
   1   6  -2 85.7034 5.72021   9
   1   6  -2 77.8856 6.05440   2
   1   6  -2 81.5623 6.89611   4
   0   6  -2 26.5650 2.07544  10
   0   6  -2 22.4403 3.99741   4
   0   6  -2 27.6647 3.06195   2
   0   6  -2 26.9651 2.72700  11
   0   6  -2 26.3053 1.91862   8
   0   6  -2 29.0246 2.59973   9
  -1   6  -2 48.4650 4.05770  18
  -1   6  -2 43.4760 3.35815   9
  -1   6  -2 47.2666 3.19463  10
  -1   6  -2 46.5248 3.81728  11
  -1   6  -2 36.1168 4.35867   4
  -2   6  -2 111.614 8.00194  11
  -2   6  -2 105.622 7.89663  18
  -2   6  -2 112.020 7.01186  10
  -2   6  -2 92.6744 8.12772  17
  -3   6  -2 1.04519 1.89515  17
  -3   6  -2 2.96930 2.21022  18
  -3   6  -2 0.74211 1.33529  11
  -3   6  -2 1.17838 0.46021  10
  -4   6  -2 65.0621 5.26598  11
  -4   6  -2 69.8716 5.87495  17
  -4   6  -2 65.2339 5.23611  18
  -5   6  -2 11.0287 2.20066  18
  -5   6  -2 10.6807 2.55513  11
  -8  -5   2 2.64551 0.45814  10
  -8  -5   2 3.27862 0.76334  15
  -7  -5   2 57.4302 4.15990  15
  -7  -5   2 54.9709 4.10425  10
  -7  -5   2 60.0604 4.02657   9
  -6  -5   2 60.9103 4.70480   9
  -6  -5   2 58.8702 4.23180  15
  -6  -5   2 56.7130 3.74487   8
  -6  -5   2 53.8650 4.30006  10
  -5  -5   2 128.815 7.95154   8
  -5  -5   2 111.797 8.50163   9
  -4  -5   2 136.477 12.1214   6
  -4  -5   2 142.298 9.21681   8
   2   5  -2 321.082 20.5527   8
   1   5  -2 32.9762 3.16595   9
   1   5  -2 43.5109 4.40199   4
   1   5  -2 39.9158 3.44151   2
   1   5  -2 35.6079 2.76127   8
   0   5  -2 98.0729 7.47113   4
   0   5  -2 99.1653 6.68516   2
   0   5  -2 91.8810 6.19383  10
   0   5  -2 97.7836 6.11649   8
   0   5  -2 94.1875 6.35252   9
   0   5  -2 84.6596 11.0452   3
  -1   5  -2 106.084 8.46030   4
  -1   5  -2 107.481 7.47928  11
  -1   5  -2 113.880 7.38813   2
  -1   5  -2 97.4560 7.34985  18
  -1   5  -2 109.283 6.92405  10
  -1   5  -2 106.199 7.10576   9
  -1   5  -2 96.9470 7.45506  17
  -2   5  -2 51.3387 3.88149   9
  -2   5  -2 59.8180 3.82994  10
  -2   5  -2 53.1660 4.13811   2
  -2   5  -2 58.6871 4.86812  11
  -2   5  -2 54.3844 5.85183   4
  -2   5  -2 64.8342 4.89546  17
  -3   5  -2 295.332 19.9826  10
  -3   5  -2 331.703 20.7644  18
  -3   5  -2 312.926 20.7103  11
  -3   5  -2 282.352 21.9591   4
  -3   5  -2 343.437 20.7215  17
  -4   5  -2 -0.5361 1.41480  11
  -4   5  -2 2.36939 2.40960  17
  -4   5  -2 0.44700 2.73989  18
  -5   5  -2 127.452 9.57567  11
  -5   5  -2 125.788 9.63150  18
  -5   5  -2 127.974 8.68783  17
  -6   5  -2 30.5229 3.42330  11
  -8  -4   2 19.8978 1.46570  10
  -8  -4   2 19.1410 1.82933  15
  -7  -4   2 26.6327 2.32497  15
  -7  -4   2 31.5814 2.25154   9
  -7  -4   2 24.6138 2.23806  10
  -6  -4   2 168.735 10.7134  10
  -6  -4   2 168.326 10.8887  15
  -6  -4   2 151.760 10.9508   9
  -5  -4   2 122.493 8.31614   9
  -5  -4   2 128.202 7.70210  10
  -5  -4   2 116.818 8.78848   2
  -5  -4   2 112.860 7.90617   8
  -5  -4   2 109.424 10.6258   6
  -4  -4   2 44.2945 10.8081   3
  -4  -4   2 56.2436 3.74287   8
  -4  -4   2 38.7673 6.40234   6
  -4  -4   2 55.1570 4.53469   2
  -4  -4   2 52.9325 4.04301   9
  -3  -4   2 417.355 35.4696   3
  -3  -4   2 438.526 27.2019   2
   2   4  -2 79.0110 10.4403   3
   2   4  -2 82.2001 5.79031   2
   1   4  -2 257.963 18.1915   2
   1   4  -2 286.439 21.6969   3
   0   4  -2 143.236 14.2041   3
   0   4  -2 150.383 10.8579   4
   0   4  -2 176.086 10.6856   7
   0   4  -2 150.796 10.2811   2
  -1   4  -2 159.572 10.6565   2
  -1   4  -2 150.610 13.8531   3
  -1   4  -2 171.151 10.7636   7
  -1   4  -2 158.577 11.5355   4
  -2   4  -2 175.013 12.6663  16
  -2   4  -2 165.087 12.0063   9
  -2   4  -2 182.082 12.1948   2
  -2   4  -2 196.662 12.9612   4
  -2   4  -2 189.252 12.4340  18
  -2   4  -2 188.200 12.3775  17
  -2   4  -2 185.209 12.5464  11
  -2   4  -2 187.346 11.9533  10
  -2   4  -2 195.951 12.4326   7
  -3   4  -2 2.77171 1.51370  17
  -3   4  -2 3.45213 1.78955  16
  -3   4  -2 -0.7880 0.37795  10
  -3   4  -2 -0.1782 1.59158  11
  -3   4  -2 0.41591 1.88611   7
  -3   4  -2 -1.4770 1.53860   4
  -3   4  -2 1.70464 1.91957  18
  -4   4  -2 181.845 11.8841  18
  -4   4  -2 171.648 11.7957  17
  -4   4  -2 172.156 12.0715  11
  -4   4  -2 157.366 11.5398  12
  -4   4  -2 171.870 11.9530  16
  -5   4  -2 177.135 12.7133  18
  -5   4  -2 200.326 12.7715  17
  -5   4  -2 174.526 12.3792  12
  -6   4  -2 226.957 14.7212  11
  -6   4  -2 206.340 14.7338  18
  -6   4  -2 198.794 14.3860  17
  -7   4  -2 38.2030 4.28176  11
  -7   4  -2 42.4296 4.07249  18
  -8  -3   2 2.51591 1.74026  14
  -8  -3   2 1.29542 0.89042  15
  -8  -3   2 1.09679 0.37821  10
  -7  -3   2 196.008 12.7153  10
  -7  -3   2 199.628 12.8562  15
  -7  -3   2 192.120 13.1056  14
  -6  -3   2 2.18649 1.61602  14
  -6  -3   2 2.84337 1.33828   9
  -6  -3   2 2.49496 1.38099  15
  -6  -3   2 1.21191 2.79960   6
  -6  -3   2 2.24722 0.71704  10
  -5  -3   2 89.5649 6.40115   2
  -5  -3   2 81.2643 5.51629  10
  -5  -3   2 89.8761 8.14950   6
  -5  -3   2 89.2964 5.98001   9
  -5  -3   2 82.4386 5.86646  14
  -5  -3   2 68.4782 10.8338   3
  -4  -3   2 196.146 11.9714   2
  -4  -3   2 185.424 17.5620   3
  -4  -3   2 157.162 13.6317   6
  -3  -3   2 20.5344 2.06041   2
  -3  -3   2 17.3043 7.06024   3
   2   3  -2 384.457 23.3334   2
   2   3  -2 373.170 23.2368   1
   2   3  -2 363.645 28.2404   3
   2   3  -2 369.478 24.8430   1
  -2  -3   2 388.364 23.4377   2
  -2  -3   2 370.655 24.7668   1
  -2  -3   2 374.520 28.7441   3
  -2  -3   2 364.489 23.2934   1
   1   3  -2 20.0227 1.69055   2
   1   3  -2 16.4923 1.45432   1
   1   3  -2 18.2182 1.52236   1
   1   3  -2 16.2600 4.99965   3
  -1  -3   2 17.7081 1.82586   2
  -1  -3   2 13.8458 5.88762   3
  -1  -3   2 17.3283 1.58412   1
  -1  -3   2 18.6820 1.63746   1
   0   3  -2 2358.90 156.180   1
   0   3  -2 2360.26 157.623   4
   0   3  -2 2571.97 155.749   2
   0   3  -2 2489.32 156.054   7
   0   3  -2 2521.74 162.490   3
   0  -3   2 2417.01 155.332   1
   0  -3   2 2372.03 158.919   1
  -1   3  -2 41.8259 5.67706   3
  -1   3  -2 35.6457 3.79609   4
  -1   3  -2 41.6405 3.38297   7
  -1   3  -2 40.2946 3.00963   2
  -2   3  -2 209.585 15.1862   2
  -2   3  -2 241.967 14.6514   7
  -2   3  -2 248.930 16.2542   4
  -2   3  -2 225.986 16.9258   3
  -3   3  -2 887.113 56.5000   7
  -3   3  -2 869.986 57.0122   4
  -4   3  -2 27.3954 3.06430  11
  -4   3  -2 37.2465 3.89035  18
  -4   3  -2 22.4493 4.26022   4
  -4   3  -2 27.9776 2.70086  12
  -5   3  -2 179.585 11.5387  17
  -5   3  -2 166.062 12.0623  18
  -5   3  -2 177.619 11.3004  12
  -5   3  -2 159.721 11.1920  16
  -5   3  -2 141.046 12.5245   4
  -5   3  -2 172.809 11.7758  11
  -6   3  -2 5.35896 1.71131  16
  -6   3  -2 0.33056 2.56106  11
  -6   3  -2 4.32312 2.69534  17
  -6   3  -2 2.02197 1.59955  12
  -6   3  -2 4.40676 2.71096  18
  -7   3  -2 5.78947 1.82241  11
  -7   3  -2 5.27296 1.72421  12
  -9  -2   2 1.82208 1.52438  14
  -9  -2   2 0.66775 0.99984  15
  -8  -2   2 69.6975 5.58117  14
  -8  -2   2 80.5299 5.46321  15
  -7  -2   2 3.43894 0.73183  10
  -7  -2   2 4.06304 1.13042  15
  -7  -2   2 4.69047 2.15616  14
  -7  -2   2 3.85599 1.14518  13
  -6  -2   2 305.909 19.0176   9
  -6  -2   2 308.641 19.5681  15
  -6  -2   2 296.153 21.4475   6
  -6  -2   2 295.688 19.6398   2
  -6  -2   2 309.703 19.7546  14
  -6  -2   2 307.995 19.6531  13
  -6  -2   2 286.637 19.4366  10
  -5  -2   2 233.509 21.1037   3
  -5  -2   2 247.715 17.6865   9
  -5  -2   2 297.884 18.6146   6
  -5  -2   2 264.635 17.7691  14
  -5  -2   2 278.098 18.0722   2
  -5  -2   2 281.992 17.7211  15
  -5  -2   2 278.666 17.4863  10
  -5  -2   2 268.231 17.6431  13
  -5  -2   2 281.070 17.2314   5
  -4  -2   2 629.555 43.2245   3
  -4  -2   2 641.334 40.0604   5
  -4  -2   2 621.842 40.0474   2
  -4  -2   2 602.374 41.0577   6
  -3  -2   2 663.357 45.9468   1
  -3  -2   2 649.018 42.2451   2
  -3  -2   2 704.923 45.0625   3
  -3  -2   2 681.830 42.2472   5
   2   2  -2 167.668 11.1635   1
   2   2  -2 176.671 12.3361   2
   2   2  -2 178.284 13.4458   3
   2   2  -2 180.942 11.1626   1
  -2  -2   2 181.100 13.8957   3
  -2  -2   2 168.061 11.2518   2
  -2  -2   2 173.605 11.2040   1
  -2  -2   2 171.820 11.1867   1
   1   2  -2 807.616 48.5332   1
   1   2  -2 842.949 52.7640   3
   1   2  -2 827.734 52.7850   2
   1   2  -2 836.504 54.7646   1
  -1  -2   2 725.265 54.1208   2
  -1  -2   2 825.856 51.2639   1
  -1  -2   2 819.989 56.6376   3
  -1  -2   2 832.981 52.7370   1
   0   2  -2 752.338 47.7488   2
   0   2  -2 706.836 47.3975   1
   0   2  -2 755.395 44.8227   1
   0   2  -2 718.201 47.1573   7
   0  -2   2 734.910 44.8123   1
   0  -2   2 732.006 44.4940   1
   0  -2   2 639.824 49.2656   3
  -1   2  -2 250.878 14.4845   1
  -1   2  -2 213.754 14.9264   5
  -1   2  -2 223.770 14.5016   2
  -1   2  -2 220.061 15.0459   2
  -1   2  -2 222.522 16.1800   3
  -1   2  -2 237.759 14.6819   7
  -1   2  -2 221.331 15.2826   4
  -1   2  -2 223.032 14.9699   1
   1  -2   2 248.909 14.5118   1
   1  -2   2 221.615 14.5278   1
  -2   2  -2 1221.58 84.4309   2
  -2   2  -2 1249.34 84.4574   5
  -2   2  -2 1368.12 84.6867   7
  -2   2  -2 1298.81 83.2644   1
  -2   2  -2 1422.17 84.3753   4
   2  -2   2 1343.61 83.2779   1
   2  -2   2 1288.29 83.2768   1
  -3   2  -2 19.1387 2.46859   7
  -3   2  -2 16.9768 2.52065   4
  -3   2  -2 16.9032 1.60079   5
  -4   2  -2 534.059 32.5896   4
  -4   2  -2 484.593 33.9031   5
  -5   2  -2 13.3451 2.55637  17
  -5   2  -2 10.0668 2.06017  12
  -5   2  -2 12.4883 3.23438  14
  -5   2  -2 16.4919 4.16495  18
  -5   2  -2 10.7922 2.74906  11
  -5   2  -2 11.2876 2.76227   4
  -5   2  -2 12.8274 1.62947  13
  -5   2  -2 13.8020 2.27927  16
  -6   2  -2 65.2601 4.97049  12
  -6   2  -2 56.2834 6.63324  14
  -6   2  -2 66.4173 5.58356  17
  -6   2  -2 63.6823 5.24834  11
  -7   2  -2 16.6998 3.01772  12
  -7   2  -2 13.2518 3.31938  11
  -7   2  -2 17.1497 3.47733  14
  -7   2  -2 18.4737 3.94848  18
  -8   2  -2 2.22542 1.88800  12
  -9  -1   2 16.0856 1.64006  15
  -9  -1   2 14.1105 1.81106  14
  -8  -1   2 1.48715 1.05846  13
  -8  -1   2 1.33356 1.05410  15
  -8  -1   2 1.11014 1.64856  14
  -7  -1   2 154.769 10.0597  13
  -7  -1   2 148.511 9.57711  10
  -7  -1   2 140.200 10.0600  15
  -7  -1   2 155.078 10.5275  14
  -6  -1   2 35.0987 3.24656  15
  -6  -1   2 29.9626 5.13647   6
  -6  -1   2 39.7481 3.05386  13
  -6  -1   2 36.0597 2.65617  10
  -6  -1   2 38.1508 3.76156  14
  -5  -1   2 177.152 11.4770  13
  -5  -1   2 185.213 10.9871   2
  -5  -1   2 183.738 11.3569   5
  -5  -1   2 170.834 11.5438  15
  -5  -1   2 173.292 11.2842  10
  -5  -1   2 156.193 11.7833  12
  -5  -1   2 177.815 13.0895   6
  -5  -1   2 163.895 11.3255   9
  -5  -1   2 172.910 11.7034  14
  -4  -1   2 1109.77 72.3629   5
  -4  -1   2 1043.28 72.2962   2
  -4  -1   2 1138.19 74.1938   3
  -4  -1   2 1250.67 73.2774   6
   3   1  -2 13.7639 1.15481   1
   3   1  -2 13.8393 1.14057   1
  -3  -1   2 13.7409 1.39344   5
  -3  -1   2 12.5409 1.08167   1
  -3  -1   2 13.4935 1.29247   1
  -3  -1   2 12.2115 2.67024   6
  -3  -1   2 14.1813 3.73273   3
  -3  -1   2 12.6229 1.36339   2
   2   1  -2 451.822 26.7893   1
   2   1  -2 412.371 27.0753   1
  -2  -1   2 416.913 26.7508   1
  -2  -1   2 422.340 28.1754   3
  -2  -1   2 454.735 30.4556   5
  -2  -1   2 413.874 26.8076   2
   1   1  -2 1.68709 0.40117   1
   1   1  -2 1.20615 1.37667   3
   1   1  -2 1.24917 0.33557   2
   1   1  -2 1.55633 0.41567   1
  -1  -1   2 2.08488 0.51057   1
  -1  -1   2 2.12202 0.48493   1
  -1  -1   2 1.46052 1.60113   3
  -1  -1   2 1.47934 0.40464   2
   0   1  -2 653.188 44.3554   3
   0   1  -2 692.110 43.0678   1
   0   1  -2 714.060 40.9619   1
   0   1  -2 594.066 42.9864   4
   0   1  -2 636.108 43.1708   2
   0  -1   2 622.678 44.0678   3
   0  -1   2 639.866 42.6330   2
   0  -1   2 680.055 40.9140   1
   0  -1   2 683.089 40.9228   1
  -1   1  -2 226.066 15.7994   5
  -1   1  -2 213.996 13.8688   1
  -1   1  -2 226.732 15.8582   2
  -1   1  -2 220.977 13.9004   1
  -1   1  -2 214.468 14.0319   7
  -1   1  -2 223.835 13.9508   4
   1  -1   2 221.464 13.6016   1
   1  -1   2 228.726 13.5853   1
  -2   1  -2 740.640 45.0468   1
  -2   1  -2 668.755 47.1751   6
  -2   1  -2 692.733 46.3951   1
  -2   1  -2 707.481 45.0980   2
  -2   1  -2 686.257 45.0643   5
  -2   1  -2 730.569 45.3095   4
  -2   1  -2 698.882 46.4948   7
  -2   1  -2 693.993 47.0023   2
  -2   1  -2 798.490 45.5002   3
   2  -1   2 731.338 45.0449   1
   2  -1   2 726.753 45.0393   1
  -3   1  -2 1374.01 97.8943   6
  -3   1  -2 1687.29 98.8143   5
  -3   1  -2 1448.88 97.8724   7
  -3   1  -2 1642.89 99.0379   4
  -4   1  -2 41.1322 3.31060   5
  -4   1  -2 40.2453 3.85208   4
  -5   1  -2 232.024 14.8913  12
  -5   1  -2 228.761 14.6653  13
  -5   1  -2 223.609 15.0584  11
  -5   1  -2 226.527 15.5297   4
  -5   1  -2 208.720 15.2443  14
  -5   1  -2 218.552 15.0609   5
  -5   1  -2 247.408 16.0340  18
  -6   1  -2 64.2435 5.10764  11
  -6   1  -2 58.7776 4.83833  12
  -6   1  -2 52.0163 5.23363  14
  -6   1  -2 56.2619 4.23928  13
  -6   1  -2 65.3276 6.24933  18
  -7   1  -2 21.6065 4.07970  14
  -7   1  -2 26.3325 3.41806  11
  -7   1  -2 26.4222 3.29992  12
  -8   1  -2 40.9051 4.67615  14
  -8   1  -2 46.6653 4.03695  12
  -9   0   2 5.83548 1.53873  14
  -9   0   2 4.39658 0.86832  15
  -8   0   2 56.9808 4.55038  13
  -8   0   2 59.7814 4.96947  14
  -8   0   2 59.4283 4.40990  15
  -7   0   2 45.8892 3.74308  13
  -7   0   2 46.9207 4.76088  14
  -7   0   2 43.4972 3.91578  15
  -6   0   2 119.046 10.3158   6
  -6   0   2 128.911 8.73387  14
  -6   0   2 114.986 7.92554  10
  -6   0   2 131.971 8.73268  12
  -6   0   2 133.687 8.28828  13
  -6   0   2 114.727 8.44645  15
  -5   0   2 166.447 11.2254  14
  -5   0   2 151.607 10.6396  10
  -5   0   2 167.421 12.4337   6
  -5   0   2 179.516 10.9654   5
  -5   0   2 170.049 10.8661  13
  -5   0   2 145.168 10.8858  15
  -5   0   2 174.435 10.9287  12
  -4   0   2 269.916 17.0851   2
  -4   0   2 279.719 18.9010   6
  -4   0   2 261.262 18.0247   2
  -4   0   2 286.581 17.4459   5
   3   0  -2 793.501 47.3994   1
   3   0  -2 693.506 52.1849   1
  -3   0   2 778.313 47.3918   2
  -3   0   2 719.351 52.2264   2
  -3   0   2 713.798 52.1568   7
  -3   0   2 851.105 48.5328   3
  -3   0   2 771.583 49.2585   3
  -3   0   2 812.162 51.0938   1
  -3   0   2 790.969 47.8116   6
  -3   0   2 792.531 52.2830   1
  -3   0   2 784.788 47.5198   5
   2   0  -2 19.0396 1.32752   1
   2   0  -2 18.0121 1.24579   1
  -2   0   2 19.0884 2.77707   3
  -2   0   2 16.8533 1.47596   7
  -2   0   2 18.0740 3.90532   3
  -2   0   2 18.0495 1.33189   1
  -2   0   2 19.1944 1.53176   2
  -2   0   2 17.9674 1.58880   5
  -2   0   2 17.6684 1.22289   1
  -1   0   2 2139.05 136.530   2
   0   0  -2 224.933 14.4603   1
   0   0  -2 228.825 14.4007   1
   0   0  -2 246.857 16.0075   2
   0   0  -2 248.058 18.1395   4
   0   0  -2 246.900 17.7585   3
   0   0   2 225.198 14.3808   1
   0   0   2 229.832 15.1262   3
   0   0   2 238.115 14.3548   1
  -1   0  -2 357.435 21.9014   1
  -1   0  -2 387.473 28.4869   2
  -1   0  -2 339.396 22.9536   4
  -1   0  -2 360.246 23.0509   1
  -1   0  -2 355.929 21.2755   3
  -1   0  -2 363.615 22.3907   3
  -1   0  -2 389.824 28.5060   5
  -1   0  -2 350.620 23.0235   2
   1   0   2 363.350 21.8141   1
  -2   0  -2 160.308 11.9518   2
  -2   0  -2 148.712 9.27900   1
  -2   0  -2 151.284 9.54417   3
  -2   0  -2 143.100 9.11534   4
  -2   0  -2 161.864 12.1845   6
  -2   0  -2 142.573 8.93865   5
  -2   0  -2 149.619 9.30969   2
  -2   0  -2 138.872 9.51828   1
   2   0   2 148.043 9.27805   1
   2   0   2 150.010 8.81902   1
  -3   0  -2 1128.95 64.5654   3
  -3   0  -2 993.945 63.2826   4
  -3   0  -2 930.302 62.3974   1
  -3   0  -2 966.273 62.8503   5
  -3   0  -2 980.961 62.5194   2
  -3   0  -2 1095.95 63.1861   3
  -3   0  -2 890.748 62.4884   2
  -3   0  -2 931.064 62.3548   1
  -3   0  -2 886.039 62.5593   6
   3   0   2 1001.12 62.3942   1
  -4   0  -2 538.034 37.6906   6
  -4   0  -2 521.489 34.1363   4
  -4   0  -2 566.440 33.4552   5
  -5   0  -2 27.3602 3.20071  14
  -5   0  -2 27.1104 2.98736  11
  -5   0  -2 28.4871 2.61370  12
  -5   0  -2 27.6214 1.88324  10
  -5   0  -2 29.1416 2.27134  13
  -5   0  -2 30.7005 2.71534   5
  -6   0  -2 42.2345 4.05667  11
  -6   0  -2 43.2558 3.79657  12
  -6   0  -2 38.7384 3.12491  13
  -6   0  -2 35.6743 3.60416   5
  -6   0  -2 37.8821 3.20903  15
  -6   0  -2 39.3275 3.78045  14
  -7   0  -2 218.664 14.9026  12
  -7   0  -2 213.428 14.4606  13
  -7   0  -2 232.460 15.5279  14
  -8   0  -2 5.03071 1.51124  12
  -8   0  -2 9.36333 2.76956  14
  -9   0  -2 36.5822 4.26906  14
  -9   1   2 14.9489 2.09961  14
  -8   1   2 1.53817 1.86659  14
  -8   1   2 0.79199 1.12842  15
  -7   1   2 81.6917 6.71511  14
  -7   1   2 94.0504 6.38483  13
  -7   1   2 90.3547 6.40546  15
  -6   1   2 70.8389 4.79543  13
  -6   1   2 71.2695 5.14341  12
  -6   1   2 60.1927 4.60867  16
  -6   1   2 62.6356 4.90012  15
  -6   1   2 59.4905 6.17223   6
  -6   1   2 64.9371 5.76098  14
  -5   1   2 10.8318 1.73294   5
  -5   1   2 9.51616 1.84310  12
  -5   1   2 9.04515 1.46053  13
  -5   1   2 9.59992 1.34217  16
  -5   1   2 10.4013 1.54496  15
  -5   1   2 13.0292 2.89299  14
  -5   1   2 9.79859 2.85577   6
  -4   1   2 1007.93 60.7315   6
  -4   1   2 982.623 60.1542   5
  -4   1   2 858.018 61.6029   7
  -3   1   2 4.99869 1.13655   5
  -3   1   2 6.80942 0.99036   4
  -3   1   2 5.28693 0.92918   7
  -3   1   2 6.77550 1.65305   6
   2  -1  -2 120.349 7.15157   1
   2  -1  -2 119.687 7.17413   1
  -2   1   2 116.948 7.75885   1
  -2   1   2 120.480 8.27158   6
  -2   1   2 123.627 7.93516   3
  -2   1   2 119.820 7.55919   1
  -2   1   2 116.350 7.90267   4
  -2   1   2 110.624 7.92031   7
  -2   1   2 112.352 7.93006   5
  -2   1   2 117.112 7.74880   2
   1  -1  -2 4.67930 0.41621   1
   1  -1  -2 4.77800 0.43996   1
  -1   1   2 3.88771 0.44932   2
  -1   1   2 3.49861 0.49433   4
  -1   1   2 4.06841 1.10886   6
  -1   1   2 4.60027 0.44149   1
  -1   1   2 4.45500 0.62744   7
  -1   1   2 3.69625 0.45260   2
  -1   1   2 5.55146 1.97499   3
  -1   1   2 4.75854 0.39795   1
   0  -1  -2 2509.86 174.857   2
   0  -1  -2 2481.05 156.076   3
   0   1   2 2442.91 154.263   3
   1   1   2 3795.92 232.589   3
   1   1   2 3602.92 244.669   2
  -2  -1  -2 6951.08 448.338   3
  -3  -1  -2 202.896 13.5301   1
  -3  -1  -2 194.421 11.8435   5
  -3  -1  -2 176.563 13.5433   2
  -3  -1  -2 204.996 14.4953   3
  -3  -1  -2 187.339 14.8022   6
  -3  -1  -2 192.588 13.5035   1
  -3  -1  -2 209.831 15.6469   3
  -3  -1  -2 196.219 11.7284   2
   3   1   2 195.887 11.6956   1
   3   1   2 214.850 13.5531   1
  -4  -1  -2 61.9313 4.15275   2
  -4  -1  -2 61.4641 5.65583   6
  -4  -1  -2 64.2459 4.40027   5
  -4  -1  -2 56.2658 7.59447   3
  -5  -1  -2 187.765 12.6941  11
  -5  -1  -2 187.911 13.1605  14
  -5  -1  -2 197.933 12.5471  12
  -5  -1  -2 189.665 12.8829  13
  -5  -1  -2 197.637 12.6346   5
  -5  -1  -2 185.549 13.4342   6
  -5  -1  -2 187.455 12.0416  10
  -5  -1  -2 190.587 12.1869   2
  -6  -1  -2 147.051 10.1188   5
  -6  -1  -2 147.052 10.0709  14
  -6  -1  -2 136.735 9.54688  15
  -6  -1  -2 144.993 9.52655  13
  -6  -1  -2 150.044 10.0720  12
  -6  -1  -2 138.560 9.22559  10
  -7  -1  -2 41.7238 3.46316  13
  -7  -1  -2 48.6422 4.57893  12
  -7  -1  -2 47.6129 3.55456  15
  -7  -1  -2 48.8088 4.85381  14
  -7  -1  -2 42.5861 2.96472  10
  -8  -1  -2 23.1394 3.42015  14
  -9  -1  -2 22.5342 2.79781  14
  -8   2   2 42.6499 4.70344  14
  -8   2   2 46.2041 3.58576  15
  -7   2   2 22.0847 2.37005  16
  -7   2   2 20.1069 4.07348  14
  -7   2   2 24.7147 2.42421  15
  -7   2   2 21.4244 2.53481  13
  -6   2   2 78.3788 5.85005  13
  -6   2   2 76.5257 5.68803  16
  -6   2   2 83.8746 6.85672  14
  -6   2   2 84.4409 6.09689  12
  -6   2   2 84.7225 5.95382  15
  -5   2   2 82.3717 5.96557  17
  -5   2   2 84.3018 6.89531  14
  -5   2   2 87.8225 6.00544  16
  -5   2   2 88.6213 7.22313   6
  -5   2   2 84.3536 6.02025  13
  -5   2   2 90.1563 6.14206  15
  -5   2   2 89.1268 6.19760  12
  -4   2   2 122.072 9.14083   7
  -4   2   2 147.556 9.79286   6
  -3   2   2 2.88312 1.26756   6
  -3   2   2 2.15036 0.83077   7
  -3   2   2 2.00831 0.54388   4
   2  -2  -2 245.125 15.3909   1
   2  -2  -2 242.744 15.3887   1
  -2   2   2 263.040 16.0169   6
  -2   2   2 231.678 15.3774   1
  -2   2   2 235.395 15.3931   2
  -2   2   2 240.114 15.6443   7
  -2   2   2 221.932 15.6023   4
  -2   2   2 252.891 16.1600   3
   1  -2  -2 827.299 51.9121   1
   1  -2  -2 815.048 51.8614   1
  -1   2   2 856.730 54.1677   3
  -1   2   2 805.022 51.7306   1
  -1   2   2 842.787 52.8156   3
  -1   2   2 826.066 52.2544   6
  -1   2   2 761.668 51.8319   1
  -1   2   2 796.425 51.9294   2
  -1   2   2 785.743 52.2237   7
  -1   2   2 784.255 51.6493   4
   0  -2  -2 72.5719 4.52373   1
   0  -2  -2 60.9065 6.38128   3
   0   2   2 71.4201 4.50979   1
  -1  -2  -2 474.824 29.6820   1
  -1  -2  -2 481.821 32.1946   5
  -1  -2  -2 473.694 32.3116   2
  -1  -2  -2 475.003 29.6185   1
  -1  -2  -2 497.941 34.3291   3
   1   2   2 491.199 29.4623   1
   1   2   2 478.445 29.3235   1
   1   2   2 469.811 32.2162   7
   1   2   2 497.193 32.3009   2
   1   2   2 492.180 32.0407   3
  -2  -2  -2 892.005 53.2599   3
  -2  -2  -2 860.049 55.2247   1
  -2  -2  -2 852.655 54.9931   2
  -2  -2  -2 852.906 54.6126   5
  -2  -2  -2 845.237 52.8121   1
   2   2   2 794.366 56.3541   3
   2   2   2 858.604 51.0036   1
   2   2   2 907.390 64.3926   2
   2   2   2 854.826 51.2653   1
   2   2   2 913.365 64.2382   7
  -4  -2  -2 1269.99 74.0394   5
  -4  -2  -2 1238.26 74.7488   2
  -4  -2  -2 1085.86 81.9865   6
  -4  -2  -2 1128.98 77.4457   3
  -5  -2  -2 109.135 7.54123  10
  -5  -2  -2 119.017 10.2742   6
  -5  -2  -2 118.104 7.85976   2
  -5  -2  -2 114.950 7.68222  13
  -5  -2  -2 109.501 7.95829  14
  -5  -2  -2 112.188 7.63197   9
  -5  -2  -2 122.297 8.22274  12
  -5  -2  -2 128.628 8.20335   5
  -6  -2  -2 143.877 9.86234  14
  -6  -2  -2 142.968 9.57626  15
  -6  -2  -2 146.757 9.23703  10
  -6  -2  -2 141.563 10.1347   5
  -6  -2  -2 128.402 9.62580   2
  -6  -2  -2 156.273 10.1959  12
  -6  -2  -2 141.516 9.45645  13
  -7  -2  -2 47.8726 3.78698  13
  -7  -2  -2 54.2352 3.96770  15
  -7  -2  -2 51.2683 3.50105  10
  -7  -2  -2 53.3500 4.83924  14
  -8  -2  -2 20.3263 3.67520  14
  -9  -2  -2 26.6744 2.86239  14
  -7   3   2 31.0302 4.45179  14
  -7   3   2 28.9640 2.73439  16
  -7   3   2 32.8317 2.78183  15
  -6   3   2 60.4335 4.23882  16
  -6   3   2 43.5760 4.18409  13
  -6   3   2 47.1490 4.96187  18
  -6   3   2 59.3706 4.48310  15
  -6   3   2 55.6954 5.55287  14
  -5   3   2 79.2266 6.95027  14
  -5   3   2 85.1191 5.82173  17
  -5   3   2 82.7205 5.81609  16
  -5   3   2 77.8025 6.45298  18
  -5   3   2 91.7079 6.01514  15
  -5   3   2 71.3062 5.78071  13
  -4   3   2 221.041 14.2294   7
  -4   3   2 221.281 13.8184  17
  -4   3   2 229.023 13.9274  15
  -4   3   2 195.756 14.1921  18
  -4   3   2 209.235 13.8121  16
  -4   3   2 190.901 14.3932  14
  -3   3   2 0.32510 1.05617   7
  -3   3   2 0.14110 0.65987   4
   2  -3  -2 297.421 19.2681   1
  -2   3   2 293.135 19.5361   3
  -2   3   2 279.193 19.2608   2
  -2   3   2 301.056 19.7207   4
  -2   3   2 268.079 20.3888   3
  -2   3   2 304.419 18.5001   7
  -2   3   2 311.413 18.1753   2
   1  -3  -2 5.50424 0.81509   1
   1  -3  -2 7.58525 0.79889   1
  -1   3   2 5.33814 0.68789   1
  -1   3   2 5.64246 0.79292   1
  -1   3   2 7.15015 1.22676   7
  -1   3   2 5.58236 0.91736   2
   0  -3  -2 1553.64 97.4676   1
   0  -3  -2 1498.05 97.1664   1
   0   3   2 1551.37 101.393   3
   0   3   2 1508.68 97.1689   1
   0   3   2 1538.59 97.4897   7
   0   3   2 1492.43 97.4177   2
   0   3   2 1482.12 97.1088   1
  -1  -3  -2 170.227 10.7816   1
  -1  -3  -2 172.378 14.0054   3
  -1  -3  -2 159.197 11.0326   5
  -1  -3  -2 169.048 11.1804   1
  -1  -3  -2 170.135 11.3239   2
   1   3   2 169.722 10.7834   1
   1   3   2 169.547 11.1847   7
   1   3   2 168.202 10.8642   1
   1   3   2 169.419 10.9543   2
  -2  -3  -2 489.730 34.4029   3
  -2  -3  -2 461.503 30.1760   1
  -2  -3  -2 476.315 30.3310   2
  -2  -3  -2 463.089 30.0872   5
  -2  -3  -2 465.925 30.1927   1
   2   3   2 441.399 30.2619   2
   2   3   2 422.325 30.0089   7
   2   3   2 439.314 26.8667   1
   2   3   2 457.542 29.7216   3
   2   3   2 476.855 30.2103   1
  -3  -3  -2 466.075 29.4936   2
  -3  -3  -2 441.672 29.3209   5
  -3  -3  -2 462.327 34.0145   3
  -4  -3  -2 85.6600 10.5647   3
  -4  -3  -2 72.4991 5.43199   5
  -4  -3  -2 70.1276 5.41252   2
  -5  -3  -2 310.485 19.5496   2
  -5  -3  -2 308.281 19.9873  14
  -5  -3  -2 278.876 22.6704   6
  -5  -3  -2 313.186 19.1362  10
  -5  -3  -2 278.760 19.7780   9
  -5  -3  -2 319.347 19.4509   5
  -6  -3  -2 93.9263 7.16234   2
  -6  -3  -2 96.4591 7.00037  15
  -6  -3  -2 102.024 6.58400  10
  -6  -3  -2 106.539 6.74606   9
  -6  -3  -2 100.661 7.13173  14
  -6  -3  -2 100.966 6.78207  13
  -6  -3  -2 95.2467 7.35230   5
  -7  -3  -2 14.7510 2.04488  15
  -7  -3  -2 14.0645 1.33182  10
  -7  -3  -2 12.1789 1.85411  13
  -7  -3  -2 13.0301 2.17133  14
  -8  -3  -2 29.3963 2.49093  15
  -8  -3  -2 25.3415 2.99955  14
  -9  -3  -2 2.41963 1.47445  14
  -7   4   2 5.13709 1.50096  16
  -6   4   2 31.6150 3.45790  16
  -6   4   2 28.2786 4.04668  18
  -6   4   2 32.7071 3.06926  15
  -5   4   2 128.056 8.76933  16
  -5   4   2 124.815 8.64081  15
  -5   4   2 122.930 9.13043  18
  -4   4   2 30.1171 3.41918  15
  -4   4   2 26.4306 2.63201  16
  -4   4   2 29.0506 3.59740  18
  -4   4   2 28.6488 2.94375  11
  -4   4   2 25.5440 2.74857  17
  -3   4   2 584.089 36.7548  10
  -3   4   2 595.165 37.1092  16
  -3   4   2 596.037 37.0597  17
  -3   4   2 538.239 37.9053  18
  -3   4   2 538.093 37.6580  11
  -3   4   2 609.971 37.5512   7
  -3   4   2 608.871 37.1811  15
  -2   4   2 140.660 9.16026   2
  -2   4   2 144.991 9.35495   7
  -2   4   2 127.134 9.95993   4
  -1   4   2 444.605 27.3701   7
  -1   4   2 439.302 29.6670   4
  -1   4   2 429.375 27.1338   2
  -1   4   2 434.419 31.6064   3
   0   4   2 176.227 12.1022   7
   0   4   2 188.285 12.0085   2
   1   4   2 204.298 14.1400   1
   1   4   2 220.070 14.2353   2
   1   4   2 225.216 14.1865   7
  -2  -4  -2 205.565 15.1074   2
  -2  -4  -2 254.733 20.8849   3
   2   4   2 226.359 15.1312   2
  -3  -4  -2 19.4676 2.13993   2
  -4  -4  -2 278.699 16.5897   2
  -4  -4  -2 276.433 16.6889   5
  -4  -4  -2 233.971 16.4637   8
  -4  -4  -2 227.309 16.6749   9
  -5  -4  -2 49.3412 7.92968   6
  -5  -4  -2 61.1988 4.17967  10
  -5  -4  -2 65.6305 4.44318   9
  -5  -4  -2 57.5313 4.52673  14
  -5  -4  -2 63.4101 4.92725   2
  -5  -4  -2 57.3625 4.83952   5
  -6  -4  -2 121.040 8.01025  14
  -6  -4  -2 107.260 8.48620   5
  -6  -4  -2 115.411 8.02601  15
  -6  -4  -2 124.599 7.57499  10
  -6  -4  -2 103.516 10.7768   6
  -7  -4  -2 46.0918 3.46137  15
  -7  -4  -2 44.9425 4.04709  14
  -7  -4  -2 43.4820 3.16238  10
  -8  -4  -2 46.3194 3.27821  15
  -8  -4  -2 43.8902 3.69149  14
  -6   5   2 15.5848 2.56184  16
  -5   5   2 2.72274 1.70498  18
  -5   5   2 1.32135 1.39746  16
  -4   5   2 4.34205 2.09267  18
  -4   5   2 8.91580 2.24529  11
  -4   5   2 3.16081 1.77675  16
  -3   5   2 224.002 14.3420  18
  -3   5   2 199.428 14.5221  11
  -3   5   2 215.650 14.4678  16
  -3   5   2 221.339 14.0851  17
  -3   5   2 215.101 13.8691  10
  -2   5   2 354.863 22.1328   7
  -2   5   2 338.081 21.6510  16
  -2   5   2 314.902 21.6100   9
  -2   5   2 322.750 21.6225  17
  -2   5   2 341.731 21.6199  18
  -2   5   2 309.880 22.1233  11
  -2   5   2 323.134 21.3253   2
  -2   5   2 361.874 21.1550  10
  -1   5   2 53.5128 5.21504   4
  -1   5   2 60.5593 4.25228   2
  -1   5   2 52.6579 3.50670   8
  -1   5   2 53.4599 4.70198  16
  -1   5   2 53.9074 3.69023  10
  -1   5   2 50.9261 4.39423  18
  -1   5   2 53.6860 4.59902   7
  -1   5   2 53.8926 3.93195   9
   0   5   2 119.613 8.28610   7
   0   5   2 110.820 8.82896   4
   0   5   2 117.893 8.08249   2
   1   5   2 166.014 11.8656   7
   1   5   2 181.133 11.6731   2
  -4  -5  -2 57.7600 4.34076  14
  -5  -5  -2 261.594 16.7054   9
  -5  -5  -2 255.480 17.1782  14
  -6  -5  -2 44.1575 2.95926  10
  -6  -5  -2 35.8815 3.37641  14
  -6  -5  -2 34.0717 3.41345  15
  -7  -5  -2 19.1597 2.40652  15
  -7  -5  -2 17.3818 2.50955  14
  -8  -5  -2 28.2998 2.61397  14
  -8  -5  -2 32.9840 2.37637  15
  -6   6   2 10.2007 2.43562  18
  -5   6   2 43.7235 4.19755  18
  -4   6   2 13.0078 3.18625  18
  -3   6   2 58.2756 4.84896  11
  -3   6   2 51.9322 3.60867  10
  -3   6   2 54.5682 4.59555  18
  -2   6   2 97.7270 7.38448  18
  -2   6   2 105.624 7.05086  17
  -2   6   2 94.8743 6.45369  10
  -2   6   2 88.9185 7.06816  11
  -2   6   2 103.211 6.41498   9
  -1   6   2 20.4533 3.07716  18
  -1   6   2 10.5809 1.33954  10
  -1   6   2 12.2231 3.89163   4
  -1   6   2 16.4572 2.34953  17
  -1   6   2 19.5937 2.35373   2
   0   6   2 67.8916 6.16028   7
   0   6   2 76.8073 4.84357   8
   0   6   2 77.7682 5.94514  18
   0   6   2 73.0600 5.22506   9
   0   6   2 64.8267 6.89843   4
   0   6   2 70.5356 5.63113   2
   0   6   2 75.6511 4.99914  10
   1   6   2 72.8376 5.32522   9
   1   6   2 73.8147 5.63974  18
   1   6   2 69.9096 4.80814   8
   1   6   2 70.2590 5.78445   2
   2   6   2 266.399 17.1477   8
   3   6   2 18.9167 2.09942   8
  -4  -6  -2 145.287 9.57476   8
  -5  -6  -2 83.9555 6.32286   9
  -7  -6  -2 33.6324 2.90397  15
  -5   7   2 4.26462 1.76383  18
  -4   7   2 64.2240 5.24516  18
  -3   7   2 16.8433 1.19331  10
  -3   7   2 16.8552 3.25842  18
  -3   7   2 11.4891 2.71026  11
  -2   7   2 87.9040 5.76789  10
  -2   7   2 94.9637 6.72751  18
  -2   7   2 86.2738 7.32324  11
  -1   7   2 9.85051 2.50793  11
  -1   7   2 16.5641 3.00764  18
  -1   7   2 15.3150 1.87650   9
  -1   7   2 14.8724 1.64144  10
   0   7   2 94.0396 6.79684  10
   0   7   2 100.904 7.41903  18
   0   7   2 113.857 7.08844   9
   0   7   2 101.118 7.60700  11
   1   7   2 48.0785 4.02534  18
   1   7   2 49.8353 3.47183  10
   1   7   2 39.5568 3.54496   9
   1   7   2 42.6094 3.16491   8
   2   7   2 40.1940 2.73483   8
   2   7   2 28.3249 3.26283   9
   3   7   2 123.760 8.24139   8
  -6  -7  -2 22.3525 2.19890  15
  -7  -7  -2 4.26452 0.81384  15
  -3   8   2 27.5007 2.98653  18
  -2   8   2 11.6558 2.51578  18
  -2   8   2 11.7000 0.95701  10
  -2   8   2 7.84480 1.74802  11
  -1   8   2 41.7936 2.70221  10
  -1   8   2 35.0504 3.40099  11
  -1   8   2 33.7980 3.17299  18
   0   8   2 31.7477 3.32716  18
   0   8   2 29.7752 2.29162  10
   0   8   2 27.6102 3.50690  11
   1   8   2 47.1612 3.55111   9
   1   8   2 49.7707 4.55429  11
   1   8   2 46.0067 3.36018  10
   2   8   2 52.5299 4.24935   9
   3   8   2 13.9246 2.47220   9
  -1   9   2 18.2696 1.37270  10
   0   9   2 12.3682 2.30930  11
   0   9   2 12.3003 1.12587  10
   1   9   2 20.0726 1.64799  10
   2   9   2 3.25263 1.11160  11
   3   9   2 27.2852 2.57537  11
   4   8  -3 19.1922 1.36191   8
   4   8  -3 17.1411 1.63828  11
   3   8  -3 11.9827 0.96749   8
   3   8  -3 10.0644 1.32963  11
   3   8  -3 10.8159 1.45123   9
  -3  -8   3 7.16531 1.33748   8
   2   8  -3 67.8733 4.46700   9
   2   8  -3 59.2508 4.52157  11
   1   8  -3 4.18848 0.98212   9
   1   8  -3 4.16170 0.82685  10
   1   8  -3 3.27426 1.39418  11
   0   8  -3 41.7936 3.27544  11
   0   8  -3 40.4002 2.85012  10
  -1   8  -3 1.09535 0.42122  10
  -1   8  -3 1.28646 1.12402  11
  -2   8  -3 19.3693 2.01374  11
  -6  -7   3 30.8775 2.38328   9
  -6  -7   3 29.4161 2.18865  15
   5   7  -3 19.0054 1.53454   8
  -5  -7   3 19.9380 2.59072   9
   4   7  -3 36.6091 2.67675   8
  -4  -7   3 37.8046 3.27924   8
   3   7  -3 101.597 6.69687   8
   2   7  -3 14.4325 1.39508   8
   2   7  -3 19.9663 2.48958   9
   1   7  -3 38.9901 3.08381   9
   1   7  -3 31.6807 2.31611   8
   1   7  -3 31.3824 2.47466  10
   1   7  -3 35.0773 3.30243  11
   0   7  -3 7.79627 1.88372  11
   0   7  -3 9.13300 1.77209   9
   0   7  -3 6.86510 1.04511  10
  -1   7  -3 34.9557 3.71578  11
  -1   7  -3 37.0372 2.72155  10
  -2   7  -3 19.5339 1.59170  10
  -2   7  -3 23.0713 2.90335  11
  -2   7  -3 22.1752 3.12465  18
  -3   7  -3 15.9080 2.13708  11
  -3   7  -3 15.7632 2.70743  18
  -4   7  -3 18.3251 2.46870  11
  -4   7  -3 15.8234 3.16232  18
  -7  -6   3 23.2611 1.68077   9
  -7  -6   3 21.9156 1.66747  15
  -7  -6   3 21.3652 1.72418  10
  -6  -6   3 81.1668 5.37381  15
  -6  -6   3 74.7305 5.61235   9
  -5  -6   3 151.346 11.3876   9
  -5  -6   3 162.409 9.85387   8
  -4  -6   3 31.2524 2.76268   8
   3   6  -3 65.3007 4.53580   8
   2   6  -3 83.4988 5.40559   8
   2   6  -3 76.3208 6.84324   4
   1   6  -3 3.84161 1.20060   9
   1   6  -3 1.02108 1.37034   4
   1   6  -3 3.30878 0.71212   8
   0   6  -3 154.907 10.8790  10
   0   6  -3 171.476 10.7224   9
   0   6  -3 156.877 12.4097   4
   0   6  -3 177.953 11.0560  11
   0   6  -3 164.896 10.7583   8
  -1   6  -3 0.50835 0.64089  10
  -1   6  -3 -1.4433 1.55017  11
  -1   6  -3 1.44630 1.74734  18
  -1   6  -3 -0.7960 0.78727   9
  -2   6  -3 59.8365 4.08284  10
  -2   6  -3 53.3925 5.66344  17
  -2   6  -3 64.1111 5.24043  11
  -2   6  -3 58.1099 5.13183  18
  -3   6  -3 42.9702 3.05037  10
  -3   6  -3 41.5173 5.25231  17
  -3   6  -3 49.4234 4.74370  18
  -3   6  -3 47.8648 4.61940  11
  -4   6  -3 9.07821 2.67890  11
  -4   6  -3 11.4287 2.84958  18
  -5   6  -3 27.8964 3.16951  11
  -5   6  -3 31.3221 4.22716  18
  -8  -5   3 18.8723 1.36407  10
  -8  -5   3 17.3761 1.44079  15
  -7  -5   3 5.37594 1.14563   9
  -7  -5   3 1.44539 0.78732  10
  -7  -5   3 0.47718 0.69140  15
  -6  -5   3 101.815 6.82319   8
  -6  -5   3 105.200 7.30094   9
  -6  -5   3 108.604 7.01394  15
  -6  -5   3 101.256 7.00221  10
  -5  -5   3 24.2744 3.58144   9
  -5  -5   3 25.1224 2.54217   8
  -4  -5   3 78.7163 5.34177   8
  -4  -5   3 70.0551 8.28080   6
   2   5  -3 164.491 10.6661   8
   1   5  -3 301.932 18.9442   4
   1   5  -3 258.188 18.4474   9
   1   5  -3 276.692 18.2627   8
   1   5  -3 297.394 18.8641   2
   0   5  -3 14.1167 1.80283   9
   0   5  -3 9.41013 6.15799   3
   0   5  -3 11.3816 1.32788  10
   0   5  -3 10.9625 1.94449   2
   0   5  -3 9.93486 1.11656   8
   0   5  -3 9.01843 2.87549   4
  -1   5  -3 318.955 19.7646   9
  -1   5  -3 278.283 20.1870  17
  -1   5  -3 314.269 21.1302   4
  -1   5  -3 288.334 19.9777  18
  -1   5  -3 326.002 20.1522  11
  -1   5  -3 325.930 20.0682   2
  -1   5  -3 294.028 19.6305  10
  -2   5  -3 130.672 9.04314  11
  -2   5  -3 124.751 10.1633   4
  -2   5  -3 130.973 8.45302  10
  -2   5  -3 135.228 9.43134  17
  -2   5  -3 128.831 9.17467  18
  -3   5  -3 32.0174 4.10092  17
  -3   5  -3 22.7937 1.82827  10
  -3   5  -3 28.5742 3.57640  11
  -3   5  -3 19.4466 4.27656   4
  -4   5  -3 75.4933 6.68346  18
  -4   5  -3 79.6618 6.57723  11
  -4   5  -3 72.8274 6.93959  17
  -5   5  -3 4.92902 2.86603  17
  -5   5  -3 1.49078 1.92208  18
  -5   5  -3 -0.6147 2.32060  11
  -6   5  -3 31.6219 3.61366  11
  -6   5  -3 31.6550 3.90298  18
  -8  -4   3 4.53926 0.65352  10
  -8  -4   3 5.06639 0.83736  15
  -7  -4   3 98.1492 6.77876  10
  -7  -4   3 103.793 6.77566  15
  -7  -4   3 102.527 6.66691   9
  -6  -4   3 3.49984 0.83328  10
  -6  -4   3 3.03471 1.47619   9
  -6  -4   3 3.04445 1.40261  15
  -5  -4   3 201.225 15.5885   6
  -5  -4   3 208.291 13.3502  10
  -5  -4   3 192.397 14.2323   2
  -5  -4   3 201.149 13.7007   9
  -5  -4   3 219.593 13.2899   8
  -4  -4   3 151.684 10.3576   9
  -4  -4   3 144.593 10.0408   8
  -4  -4   3 170.955 10.7303   2
  -4  -4   3 136.072 12.2682   6
  -4  -4   3 154.554 18.5287   3
  -3  -4   3 82.9042 6.61719   2
   1   4  -3 120.809 7.56272   2
   1   4  -3 95.2966 11.5947   3
   0   4  -3 606.067 45.9925   3
   0   4  -3 676.322 41.0339   4
   0   4  -3 659.080 42.0493   2
  -1   4  -3 -1.0975 3.85324   3
  -1   4  -3 -0.4057 0.96164   4
  -1   4  -3 0.20906 0.79922   2
  -2   4  -3 284.051 18.8402   2
  -2   4  -3 258.041 18.6121   9
  -2   4  -3 283.472 19.0642  11
  -2   4  -3 302.527 20.0378   4
  -2   4  -3 305.231 18.5644  10
  -2   4  -3 297.284 19.0302  17
  -2   4  -3 304.108 19.1218  18
  -3   4  -3 194.654 13.3250  12
  -3   4  -3 201.921 13.4989  18
  -3   4  -3 195.016 13.5992  17
  -3   4  -3 202.893 14.7795   4
  -3   4  -3 197.474 12.8970  10
  -3   4  -3 211.159 13.6220  11
  -4   4  -3 6.95716 2.66802  18
  -4   4  -3 1.55159 2.23826  11
  -4   4  -3 3.98894 0.38899  10
  -4   4  -3 4.61679 1.05193  12
  -4   4  -3 6.73085 2.49963  17
  -5   4  -3 4.89895 3.00668  18
  -5   4  -3 6.51504 2.85547  17
  -5   4  -3 -1.1640 2.32983  11
  -6   4  -3 43.7147 5.14140  18
  -6   4  -3 35.8082 4.44020  11
  -6   4  -3 30.5086 4.15111  12
  -7   4  -3 12.1784 3.01141  11
  -8  -3   3 52.7872 3.18255  10
  -8  -3   3 41.8689 3.66393  14
  -8  -3   3 47.0186 3.46906  15
  -7  -3   3 4.15798 1.30609  15
  -7  -3   3 2.83615 1.73727  14
  -7  -3   3 1.87912 0.79652  10
  -6  -3   3 326.681 23.9167   6
  -6  -3   3 385.750 22.4125  15
  -6  -3   3 331.497 22.5010  14
  -6  -3   3 347.240 22.2746  10
  -6  -3   3 340.248 22.3319   9
  -5  -3   3 10.3106 1.79705  15
  -5  -3   3 6.50059 3.13344   6
  -5  -3   3 8.00445 6.10198   3
  -5  -3   3 10.7170 2.48953   2
  -5  -3   3 11.0909 1.18662   8
  -5  -3   3 12.7707 2.35732   9
  -5  -3   3 12.3582 1.35409  10
  -4  -3   3 163.450 12.5987   6
  -4  -3   3 179.686 11.2490   2
  -4  -3   3 168.477 17.0615   3
  -4  -3   3 137.727 10.5206   8
  -3  -3   3 235.025 16.3581   2
  -3  -3   3 259.479 21.8293   3
   2   3  -3 7.85206 4.71459   3
   2   3  -3 7.36712 0.92546   1
   2   3  -3 8.63660 1.23530   2
  -2  -3   3 7.12554 5.11334   3
  -2  -3   3 7.81105 1.15627   1
  -2  -3   3 9.41172 1.49606   2
   1   3  -3 1003.32 61.5669   1
   1   3  -3 1026.58 58.1122   2
   1   3  -3 1026.38 65.0601   3
  -1  -3   3 929.013 62.9998   1
  -1  -3   3 899.248 68.6621   3
  -1  -3   3 884.382 63.1992   2
  -1  -3   3 1003.03 63.0265   1
   0   3  -3 520.338 35.3518   3
   0   3  -3 518.665 32.5710   2
   0   3  -3 471.251 32.4577   1
   0   3  -3 513.395 32.9624   4
  -1   3  -3 1730.39 104.967   3
  -1   3  -3 1536.71 102.720   4
  -1   3  -3 1515.94 103.955   2
  -1   3  -3 1612.00 101.994   7
  -2   3  -3 71.5142 7.50875   3
  -2   3  -3 77.8354 6.30996   4
  -2   3  -3 71.5365 5.17606   2
  -2   3  -3 81.8337 5.71754   7
  -3   3  -3 167.530 12.1156   4
  -3   3  -3 152.287 10.3711  10
  -3   3  -3 164.824 11.0272  17
  -3   3  -3 158.838 11.1016  11
  -3   3  -3 165.945 11.0835  18
  -4   3  -3 260.313 16.7469  18
  -4   3  -3 247.786 17.6768   4
  -4   3  -3 221.143 15.8053  10
  -4   3  -3 250.824 16.4988  16
  -4   3  -3 257.324 16.5327  17
  -4   3  -3 247.124 16.3065  12
  -4   3  -3 262.410 16.8113  11
  -5   3  -3 5.09238 2.55830  17
  -5   3  -3 6.69123 1.84065  16
  -5   3  -3 2.52110 1.34232  12
  -5   3  -3 0.67896 1.67236   4
  -5   3  -3 3.88221 2.37047  11
  -5   3  -3 5.10319 3.07248  18
  -6   3  -3 134.062 9.23912  12
  -6   3  -3 138.080 10.4571  11
  -6   3  -3 138.390 10.5563  17
  -7   3  -3 50.0615 4.39636  12
  -7   3  -3 40.8715 4.20800  11
  -7   3  -3 52.3432 4.67550  18
  -9  -2   3 17.3107 1.71430  15
  -9  -2   3 15.3992 2.06390  14
  -8  -2   3 7.68952 2.37415  14
  -8  -2   3 7.49762 1.34483  15
  -7  -2   3 131.603 9.22490  14
  -7  -2   3 137.765 8.89377  15
  -7  -2   3 126.765 8.56287  10
  -6  -2   3 1.30876 0.83567   2
  -6  -2   3 2.50357 1.76234  14
  -6  -2   3 1.01239 0.71177  10
  -6  -2   3 0.56134 1.18728  15
  -6  -2   3 1.29090 0.99254  13
  -6  -2   3 1.62124 0.75462   9
  -6  -2   3 -0.9070 2.39414   6
  -5  -2   3 80.2904 6.04736   9
  -5  -2   3 90.0930 6.04960  15
  -5  -2   3 100.072 7.98156   6
  -5  -2   3 76.5783 9.93747   3
  -5  -2   3 86.2545 6.17054  14
  -5  -2   3 87.9924 6.40425   2
  -5  -2   3 87.5843 6.02379  13
  -5  -2   3 91.2777 5.79903  10
  -4  -2   3 662.724 45.6058   3
  -4  -2   3 661.799 43.0511   6
  -4  -2   3 646.455 42.2258   2
  -3  -2   3 392.802 26.7587   2
  -3  -2   3 438.052 29.8326   3
   2   2  -3 370.792 25.6759   2
   2   2  -3 404.222 25.6177   1
   2   2  -3 413.513 28.5879   3
   2   2  -3 383.500 25.6383   1
  -2  -2   3 439.160 28.8735   3
  -2  -2   3 408.073 25.8330   2
  -2  -2   3 392.062 25.6948   1
  -2  -2   3 383.691 25.7151   1
   1   2  -3 21.4097 1.79081   2
   1   2  -3 20.9520 4.47927   3
   1   2  -3 19.9878 1.45214   1
   1   2  -3 20.5971 1.63318   1
  -1  -2   3 19.3686 5.06064   3
  -1  -2   3 20.5789 1.75224   1
  -1  -2   3 21.5351 1.76720   1
  -1  -2   3 20.5138 1.94182   2
   0   2  -3 741.457 50.3919   4
   0   2  -3 805.112 50.4959   1
   0   2  -3 843.365 50.1131   3
   0   2  -3 803.276 50.8200   1
   0   2  -3 807.580 50.5956   2
   0  -2   3 684.760 53.0411   3
   0  -2   3 703.857 50.3022   2
   0  -2   3 847.179 50.2586   1
   0  -2   3 806.057 50.2131   1
  -1   2  -3 208.058 13.6198   5
  -1   2  -3 224.521 13.8963   7
  -1   2  -3 206.911 13.6507   1
  -1   2  -3 217.028 14.2572   4
  -1   2  -3 216.481 13.6585   1
  -1   2  -3 225.606 16.3608   3
  -1   2  -3 188.077 13.7200   2
  -1   2  -3 211.372 13.7160   2
   1  -2   3 208.811 13.7495   1
   1  -2   3 216.102 13.7303   1
  -2   2  -3 29.1812 4.61739   3
  -2   2  -3 31.9661 3.23331   4
  -2   2  -3 24.5092 1.83232   1
  -2   2  -3 22.1668 1.87527   2
  -2   2  -3 22.4804 1.88917   5
  -2   2  -3 27.6621 2.75039   7
   2  -2   3 24.9569 1.89777   1
  -3   2  -3 855.638 57.7619   5
  -3   2  -3 851.324 52.2163   4
  -4   2  -3 13.5217 3.03974  11
  -4   2  -3 17.2441 2.05548  12
  -4   2  -3 19.0514 3.69011  18
  -4   2  -3 14.1976 3.54237   4
  -4   2  -3 16.6310 2.68335  17
  -5   2  -3 244.874 16.0788  12
  -5   2  -3 217.000 17.2500   4
  -5   2  -3 254.797 16.4909  11
  -5   2  -3 241.822 16.2528  17
  -5   2  -3 256.235 16.8592  18
  -5   2  -3 248.453 15.8152  13
  -6   2  -3 -0.4969 2.17401  11
  -6   2  -3 -1.9216 3.23948  18
  -6   2  -3 0.77437 1.00174  13
  -6   2  -3 -1.1883 1.30997  12
  -6   2  -3 2.22296 2.46978  17
  -7   2  -3 62.6913 5.57586  11
  -7   2  -3 64.7209 5.30375  12
  -8   2  -3 13.8225 2.96693  12
  -8   2  -3 11.8364 1.98268  13
  -9  -1   3 70.5637 5.25535  14
  -8  -1   3 49.0923 3.50846  15
  -8  -1   3 45.4505 3.96621  14
  -7  -1   3 2.80144 2.36213  14
  -7  -1   3 3.62318 0.46052  10
  -7  -1   3 3.41298 1.14927  15
  -7  -1   3 3.77053 0.92549  13
  -6  -1   3 155.600 10.0844  15
  -6  -1   3 149.227 9.99580  10
  -6  -1   3 154.717 10.5900  14
  -6  -1   3 152.822 11.9875   6
  -6  -1   3 153.419 10.2849  13
  -5  -1   3 50.3643 3.44660  13
  -5  -1   3 41.2039 3.17791   9
  -5  -1   3 44.2344 3.12627  10
  -5  -1   3 46.0693 3.46148  15
  -5  -1   3 51.5016 3.43468   2
  -5  -1   3 36.3728 5.83725   3
  -5  -1   3 49.3201 5.30438   6
  -5  -1   3 44.9096 3.86514  14
  -4  -1   3 304.236 21.5336   3
  -4  -1   3 284.391 19.3391   5
  -4  -1   3 303.128 20.9878   2
  -4  -1   3 323.914 20.2230   6
   3   1  -3 256.324 16.7144   1
  -3  -1   3 251.942 16.9029   5
  -3  -1   3 233.786 16.7927   1
  -3  -1   3 252.773 16.5696   3
  -3  -1   3 259.493 17.5734   6
  -3  -1   3 263.584 16.9894   2
   2   1  -3 6.33678 0.68671   1
   2   1  -3 6.86417 0.65648   1
   2   1  -3 6.85613 2.84828   3
   2   1  -3 6.87893 0.90842   2
  -2  -1   3 6.56193 0.77440   1
  -2  -1   3 6.69946 3.25425   3
  -2  -1   3 6.49482 2.02766   6
  -2  -1   3 6.31329 0.73287   1
  -2  -1   3 6.92342 1.02302   2
   1   1  -3 2713.63 184.641   2
   1   1  -3 2615.69 190.067   3
  -1  -1   3 2825.01 173.938   1
  -1  -1   3 2963.93 169.780   3
  -1  -1   3 2827.81 184.966   2
  -1  -1   3 2683.85 173.892   1
   0   1  -3 6.04921 0.76162   1
   0   1  -3 7.78208 0.73245   1
   0  -1   3 9.64160 0.87340   1
  -1   1  -3 10.8235 1.27499   2
  -1   1  -3 11.7287 1.85821   4
  -1   1  -3 12.6643 3.81358   3
  -1   1  -3 12.5126 1.12266   1
  -1   1  -3 12.7012 1.23148   1
  -1   1  -3 13.6016 4.01753   3
  -1   1  -3 10.9928 1.44399   2
   1  -1   3 13.0002 1.14847   1
   1  -1   3 12.6888 1.28470   1
  -2   1  -3 475.792 30.3422   5
  -2   1  -3 510.909 30.8150   4
  -2   1  -3 473.308 30.5113   2
  -2   1  -3 460.109 30.2335   1
  -2   1  -3 505.714 31.5107   3
  -2   1  -3 432.743 30.2666   2
  -2   1  -3 441.137 30.2584   1
   2  -1   3 502.242 30.3198   1
  -3   1  -3 129.302 8.58239   4
  -3   1  -3 111.498 7.95107   5
  -4   1  -3 277.070 18.0520   5
  -4   1  -3 278.878 18.8066   4
  -5   1  -3 7.47306 1.32656  13
  -5   1  -3 7.73921 1.61654   5
  -5   1  -3 7.40430 1.81776  11
  -5   1  -3 6.64971 3.22618  18
  -5   1  -3 5.65812 1.20201  12
  -5   1  -3 5.47797 1.54136   4
  -5   1  -3 7.60712 1.96596  17
  -5   1  -3 8.34784 2.39450  14
  -6   1  -3 149.176 10.4633  11
  -6   1  -3 146.035 10.1951  12
  -6   1  -3 139.695 9.75075  13
  -6   1  -3 131.585 10.9491  14
  -6   1  -3 164.697 11.5511  18
  -7   1  -3 3.86887 4.16492  14
  -7   1  -3 2.67071 1.89716  11
  -7   1  -3 2.88819 1.78620  12
  -8   1  -3 17.7761 3.52980  14
  -8   1  -3 19.6308 2.51303  12
  -9   0   3 21.3267 2.56728  14
  -9   0   3 18.3911 1.88012  15
  -8   0   3 11.0904 2.16071  14
  -8   0   3 8.03488 1.64036  15
  -7   0   3 116.226 7.95128  15
  -7   0   3 116.857 7.93363  13
  -7   0   3 110.870 8.19543  14
  -6   0   3 28.5817 4.87520   6
  -6   0   3 39.6249 4.02146  14
  -6   0   3 39.0792 2.99708  13
  -6   0   3 29.6516 3.11067  15
  -6   0   3 32.6874 2.61935  16
  -6   0   3 35.0560 2.30042  10
  -5   0   3 155.651 10.0168  13
  -5   0   3 153.813 9.98226  10
  -5   0   3 152.425 10.0141  15
  -5   0   3 160.441 11.5287   6
  -5   0   3 152.315 10.3125  12
  -5   0   3 142.735 10.3411  16
  -5   0   3 160.017 10.4070  14
  -4   0   3 320.127 20.1293   6
  -4   0   3 303.694 19.4324   5
  -4   0   3 300.317 20.3298   3
  -4   0   3 281.682 19.0923   2
  -4   0   3 290.751 19.1416   2
   3   0  -3 106.910 8.05157   1
   3   0  -3 132.046 8.04361   1
  -3   0   3 129.399 8.04253   1
  -3   0   3 114.563 8.07472   7
  -3   0   3 120.887 11.1833   3
  -3   0   3 137.034 8.13320   2
  -3   0   3 134.099 8.87267   6
  -3   0   3 125.125 8.28359   5
  -3   0   3 137.279 9.73944   3
  -3   0   3 104.661 8.03839   2
  -3   0   3 124.565 8.03341   1
   2   0  -3 2.43243 0.58253   1
   2   0  -3 2.63453 0.50334   1
  -2   0   3 3.50020 2.59132   3
  -2   0   3 3.15740 2.53223   3
  -2   0   3 3.63046 0.49637   1
  -2   0   3 4.00227 0.79282   2
  -2   0   3 2.11828 0.62256   1
   1   0  -3 843.179 51.9121   1
   1   0  -3 928.628 53.6976   3
   1   0  -3 856.705 55.1874   1
   1   0  -3 818.142 59.2985   2
  -1   0   3 834.193 51.6606   1
  -1   0   3 828.729 51.6233   1
  -1   0   3 856.864 59.7816   2
  -1   0   3 874.771 59.6057   6
   0   0  -3 6405.56 440.258   3
   0   0   3 6519.07 402.067   3
  -1   0  -3 16.0470 1.32341   2
  -1   0  -3 18.6065 5.13202   3
  -1   0  -3 17.7656 3.21071   3
  -1   0  -3 16.6748 1.19614   1
  -1   0  -3 16.1032 1.58453   4
   1   0   3 17.3135 1.22920   1
   1   0   3 16.6255 3.19865   3
   1   0   3 17.3320 1.24338   1
  -2   0  -3 1447.32 103.207   5
  -2   0  -3 1545.41 95.8380   3
  -2   0  -3 1521.79 99.5449   1
  -2   0  -3 1553.82 95.1447   2
  -2   0  -3 1548.13 96.3385   4
  -2   0  -3 1562.17 94.9397   1
  -2   0  -3 1418.40 102.931   2
   2   0   3 1601.69 94.9912   1
  -3   0  -3 957.706 64.5040   1
  -3   0  -3 968.990 63.7123   2
  -3   0  -3 1015.58 64.7679   3
  -3   0  -3 955.230 63.7626   1
  -3   0  -3 1075.59 64.2086   4
  -3   0  -3 942.738 65.8095   6
  -3   0  -3 1054.47 63.8324   5
  -3   0  -3 1039.86 64.0607   2
   3   0   3 985.192 63.6600   1
   3   0   3 1068.71 63.7057   1
  -4   0  -3 28.9891 2.98753   4
  -4   0  -3 27.0720 2.43633   5
  -5   0  -3 226.349 14.5705  11
  -5   0  -3 200.799 15.0891  18
  -5   0  -3 213.339 14.0202  13
  -5   0  -3 221.650 13.7066  12
  -5   0  -3 223.795 14.4597   5
  -5   0  -3 206.669 14.4611  14
  -5   0  -3 208.316 13.7652  10
  -6   0  -3 0.02199 0.05039  10
  -6   0  -3 -0.1107 1.17415  12
  -6   0  -3 -0.9991 1.84082  11
  -6   0  -3 0.13467 0.80458  13
  -6   0  -3 -0.9084 2.36287  14
  -7   0  -3 20.4428 4.30269  14
  -7   0  -3 16.0947 3.30355  12
  -8   0  -3 35.9583 3.71475  12
  -8   0  -3 36.2215 4.39274  14
  -9   0  -3 2.55444 1.10054  13
  -8   1   3 32.0885 3.32617  14
  -8   1   3 34.8304 3.07557  15
  -7   1   3 12.2618 2.37259  14
  -7   1   3 9.45462 1.61957  16
  -7   1   3 9.55910 1.56796  13
  -7   1   3 12.4461 1.85499  15
  -6   1   3 112.098 7.93382  15
  -6   1   3 120.982 7.91838  13
  -6   1   3 119.752 8.69278  14
  -6   1   3 116.185 7.71547  16
  -6   1   3 113.839 8.19934  12
  -6   1   3 107.446 9.41159   6
  -5   1   3 15.5620 2.07023  12
  -5   1   3 11.0598 1.94670  15
  -5   1   3 13.1155 1.71140  13
  -5   1   3 11.6774 3.51280   6
  -5   1   3 15.9252 3.01340  14
  -5   1   3 12.8253 1.51154  16
  -5   1   3 12.1025 0.92062  10
  -4   1   3 278.509 19.4496   7
  -4   1   3 325.251 20.4577   6
   3  -1  -3 340.211 21.7955   1
  -3   1   3 338.655 21.8044   2
  -3   1   3 321.295 20.3530   7
  -3   1   3 339.201 20.8838   6
  -3   1   3 321.165 20.1362   1
  -3   1   3 335.593 21.7934   1
  -3   1   3 328.109 22.0646   2
   2  -1  -3 35.9264 2.31904   1
   2  -1  -3 35.0403 2.42903   1
  -2   1   3 33.6094 2.35915   1
  -2   1   3 33.4537 2.53882   7
  -2   1   3 34.7926 3.06772   6
  -2   1   3 33.9887 2.42778   2
  -2   1   3 34.1786 2.36379   2
  -2   1   3 34.4608 2.31792   1
  -2   1   3 36.2758 4.53932   3
   1  -1  -3 747.813 44.0010   1
   1  -1  -3 723.160 44.0688   1
  -1   1   3 722.885 45.5271   1
  -1   1   3 734.782 48.8835   6
  -1   1   3 703.566 46.7734   3
  -1   1   3 694.851 45.5899   2
  -1   1   3 680.450 48.4012   7
   0  -1  -3 798.088 49.3768   1
   0  -1  -3 769.307 52.4711   1
   0  -1  -3 816.623 50.8159   3
   0   1   3 848.954 50.6477   3
   0   1   3 764.002 49.2962   1
   0   1   3 770.807 52.5196   2
   0   1   3 780.426 52.5755   6
   0   1   3 795.508 52.4500   1
  -1  -1  -3 4.66062 0.64690   2
  -1  -1  -3 5.97828 0.59092   1
  -1  -1  -3 5.16558 3.60842   3
  -1  -1  -3 4.59948 0.52242   1
   1   1   3 4.52350 0.74862   2
   1   1   3 4.37661 0.52934   1
   1   1   3 4.86535 0.60957   1
   1   1   3 4.37266 2.27871   3
  -2  -1  -3 9999.99 642.376   3
  -3  -1  -3 812.174 53.6489   2
  -3  -1  -3 793.129 55.1752   1
  -3  -1  -3 855.089 53.2663   2
  -3  -1  -3 925.479 55.9481   3
  -3  -1  -3 862.908 52.9805   5
  -3  -1  -3 814.179 53.6399   1
  -3  -1  -3 809.107 55.6347   6
   3   1   3 824.825 52.8591   1
   3   1   3 864.848 52.8839   1
  -4  -1  -3 803.051 48.9878   5
  -4  -1  -3 800.934 58.4095   3
  -4  -1  -3 844.075 55.6435   6
  -4  -1  -3 796.546 48.7618   2
  -5  -1  -3 22.6522 2.86755  14
  -5  -1  -3 24.4595 1.82166   2
  -5  -1  -3 19.8738 1.74629   9
  -5  -1  -3 22.7951 2.05707  13
  -5  -1  -3 24.8043 2.59246   5
  -5  -1  -3 22.7386 1.56683  10
  -5  -1  -3 17.3427 3.22064  11
  -5  -1  -3 24.5088 2.53798  12
  -6  -1  -3 105.450 7.22059  12
  -6  -1  -3 99.5058 6.66298  13
  -6  -1  -3 93.8305 6.32917  10
  -6  -1  -3 101.347 7.42409  14
  -6  -1  -3 88.9376 7.23208   5
  -7  -1  -3 6.59967 2.27775  14
  -7  -1  -3 3.10690 0.46894  10
  -7  -1  -3 4.73207 1.89644  12
  -8  -1  -3 92.8631 7.70569  14
  -9  -1  -3 0.49909 2.04617  14
  -8   2   3 6.25211 1.43176  15
  -8   2   3 7.21015 2.04777  14
  -7   2   3 82.2830 6.23930  14
  -7   2   3 81.7090 5.92693  15
  -7   2   3 83.1297 5.52947  16
  -7   2   3 68.0949 5.66967  13
  -6   2   3 4.94971 2.87371  14
  -6   2   3 3.20266 0.95848  16
  -6   2   3 2.85323 2.95434   6
  -6   2   3 3.75378 1.69900  15
  -6   2   3 4.96997 1.03194  13
  -6   2   3 5.25145 1.43616  12
  -5   2   3 325.569 21.1824  17
  -5   2   3 316.496 21.2680  13
  -5   2   3 336.092 22.2662   6
  -5   2   3 347.663 21.5956  14
  -5   2   3 320.614 21.1974  16
  -5   2   3 322.022 21.2386  15
  -4   2   3 57.6555 4.55341   7
  -4   2   3 64.9821 5.56341   6
  -3   2   3 682.481 45.6557   7
  -3   2   3 746.529 46.1763   6
   2  -2  -3 90.8919 5.80852   1
   2  -2  -3 97.5605 5.81710   1
  -2   2   3 86.8216 5.92202   2
  -2   2   3 97.1471 7.24349   3
  -2   2   3 86.2096 5.98540   1
  -2   2   3 81.6094 6.12310   4
  -2   2   3 86.9998 6.06312   7
  -2   2   3 95.7307 6.46385   6
  -2   2   3 88.6256 5.78647   1
  -2   2   3 90.5297 5.81759   2
   1  -2  -3 1.80598 0.46178   1
   1  -2  -3 2.88649 0.54161   1
  -1   2   3 3.06792 0.52542   1
  -1   2   3 1.85816 0.39532   2
  -1   2   3 2.35572 1.18282   6
  -1   2   3 1.13704 0.40991   4
  -1   2   3 1.13536 0.55649   7
  -1   2   3 2.93961 2.21724   3
  -1   2   3 2.73732 0.58268   2
  -1   2   3 1.55291 1.90553   3
  -1   2   3 2.05323 0.40346   1
   0  -2  -3 212.616 17.4937   3
   0  -2  -3 249.753 14.8169   1
   0  -2  -3 240.324 14.7961   1
   0  -2  -3 222.026 16.2354   2
   0   2   3 243.201 14.8081   1
   0   2   3 231.329 14.7857   1
   0   2   3 218.000 14.8617   7
   0   2   3 238.123 14.8484   2
   0   2   3 246.575 16.3224   3
  -1  -2  -3 716.420 45.5624   1
  -1  -2  -3 709.630 47.4342   3
  -1  -2  -3 750.204 45.8260   1
  -1  -2  -3 663.889 45.3226   5
  -1  -2  -3 668.435 45.3476   2
   1   2   3 682.796 50.0482   7
   1   2   3 740.181 45.3019   1
   1   2   3 673.738 45.2044   2
   1   2   3 778.367 46.9569   3
   1   2   3 783.425 45.6624   1
  -2  -2  -3 153.206 10.3724   1
  -2  -2  -3 162.518 10.4904   2
  -2  -2  -3 165.051 10.4190   1
  -2  -2  -3 159.168 10.4057   5
   2   2   3 169.039 10.4404   1
   2   2   3 160.325 12.5893   3
   2   2   3 169.386 10.4280   1
   2   2   3 155.918 11.2612   2
  -3  -2  -3 33.4076 7.53361   3
  -3  -2  -3 30.3288 2.41740   1
  -3  -2  -3 34.9041 2.60659   5
  -3  -2  -3 33.1796 2.61406   2
  -4  -2  -3 583.230 37.4025   2
  -4  -2  -3 584.027 37.4838   5
  -5  -2  -3 538.903 44.2244   3
  -5  -2  -3 608.350 37.2270  14
  -5  -2  -3 573.295 36.9653  13
  -5  -2  -3 629.077 37.1940   2
  -5  -2  -3 581.380 36.8663  10
  -5  -2  -3 540.632 39.0952   9
  -5  -2  -3 646.196 37.4498   5
  -5  -2  -3 581.136 37.3522  12
  -6  -2  -3 56.5319 4.68599   2
  -6  -2  -3 60.0143 5.15198   5
  -6  -2  -3 62.4914 4.35944   9
  -6  -2  -3 70.7973 5.37743  12
  -6  -2  -3 61.2795 4.59792  15
  -6  -2  -3 62.4622 4.49933  13
  -6  -2  -3 64.6241 5.18313  14
  -6  -2  -3 68.8432 4.23002  10
  -7  -2  -3 74.6457 6.04168  14
  -7  -2  -3 63.2865 5.92826  12
  -7  -2  -3 68.3892 4.56191  10
  -8  -2  -3 24.7386 3.22310  14
  -9  -2  -3 12.0011 2.50540  14
  -8   3   3 64.1116 4.54800  15
  -7   3   3 17.5213 2.17970  15
  -7   3   3 16.0420 1.90005  16
  -7   3   3 14.0766 2.95626  14
  -6   3   3 91.8439 6.01299  15
  -6   3   3 84.9301 5.93457  16
  -6   3   3 69.0993 6.04932  13
  -6   3   3 92.1768 7.07480  14
  -5   3   3 4.93198 2.98089  14
  -5   3   3 2.64014 0.98689  16
  -5   3   3 2.41287 1.08659  17
  -5   3   3 2.61326 1.98840  18
  -5   3   3 2.96929 1.66602  15
  -5   3   3 2.02416 1.11007  13
  -4   3   3 376.233 22.8859  15
  -4   3   3 315.710 23.2119  18
  -4   3   3 348.767 23.5685  14
  -4   3   3 394.299 24.0204   6
  -4   3   3 372.772 23.2313   7
  -4   3   3 352.763 22.8459  16
  -4   3   3 364.030 22.8025  17
  -4   3   3 322.701 22.7022  10
  -3   3   3 179.965 12.3005   7
  -3   3   3 186.372 12.9535   6
  -2   3   3 17.8150 1.88224   4
  -2   3   3 18.6301 1.84147   7
  -2   3   3 19.6134 1.49023   2
   1  -3  -3 1345.21 85.3935   1
  -1   3   3 1279.06 86.5594   1
  -1   3   3 1320.96 91.8861   1
  -1   3   3 1368.14 85.6547   2
  -1   3   3 1523.06 88.1970   3
  -1   3   3 1294.20 85.1547   4
  -1   3   3 1336.12 85.7703   7
   0  -3  -3 175.449 11.0880   1
   0  -3  -3 185.521 12.3521   1
   0   3   3 177.073 11.2177   7
   0   3   3 179.297 11.1521   2
   0   3   3 177.211 13.4128   3
   0   3   3 178.599 12.3170   1
   0   3   3 175.886 12.2946   1
  -1  -3  -3 1028.87 66.5100   3
  -1  -3  -3 948.888 65.6930   5
  -1  -3  -3 1049.15 63.7049   1
  -1  -3  -3 954.470 65.8485   1
  -1  -3  -3 1009.36 65.8489   2
   1   3   3 1029.88 63.1750   1
   1   3   3 1037.08 63.1891   1
   1   3   3 1021.22 65.7815   2
   1   3   3 997.511 63.9115   7
   1   3   3 1008.63 65.4657   3
  -2  -3  -3 420.088 28.8292   1
  -2  -3  -3 428.579 28.7528   5
  -2  -3  -3 436.095 28.9572   2
  -2  -3  -3 433.597 28.8132   1
  -2  -3  -3 475.248 32.1692   3
   2   3   3 470.313 28.1824   1
   2   3   3 461.193 28.1678   1
   2   3   3 428.811 28.9322   2
   2   3   3 478.987 31.1810   3
   2   3   3 418.796 28.7148   7
  -3  -3  -3 71.7542 5.04857   5
  -3  -3  -3 72.1588 5.24092   2
  -4  -3  -3 184.944 12.4367   5
  -4  -3  -3 194.220 12.5554   2
  -4  -3  -3 181.335 18.2967   3
  -5  -3  -3 1.23621 1.13568   2
  -5  -3  -3 2.01786 0.66447  13
  -5  -3  -3 2.67749 1.42031   5
  -5  -3  -3 1.90798 2.87536   6
  -5  -3  -3 2.07843 0.56358  10
  -5  -3  -3 3.45639 1.44911  12
  -5  -3  -3 1.95284 1.30405  14
  -6  -3  -3 106.241 6.55239  10
  -6  -3  -3 99.7302 7.21208  14
  -6  -3  -3 110.570 6.75004   9
  -6  -3  -3 95.8790 7.37674   5
  -6  -3  -3 94.8456 6.91957  15
  -6  -3  -3 85.5848 7.16739   2
  -6  -3  -3 98.5217 6.72553  13
  -7  -3  -3 14.1124 3.08516  14
  -7  -3  -3 13.3456 1.90362  15
  -7  -3  -3 13.4029 1.30924  10
  -7  -3  -3 12.4547 1.89036  13
  -8  -3  -3 42.7437 3.84397  14
  -9  -3  -3 22.1439 2.59510  14
  -7   4   3 67.3587 4.86771  16
  -6   4   3 18.5923 2.28736  16
  -6   4   3 21.3819 2.54954  15
  -6   4   3 18.1787 3.17719  18
  -5   4   3 67.0554 5.26838  15
  -5   4   3 58.3318 5.34578  18
  -5   4   3 62.6877 4.65616  16
  -4   4   3 52.0204 4.60516  18
  -4   4   3 48.6677 4.14410  15
  -4   4   3 49.7689 3.82076  16
  -4   4   3 46.1386 3.57214  17
  -4   4   3 37.7554 2.84604  10
  -3   4   3 68.1057 4.82941  17
  -3   4   3 69.7838 5.32194  15
  -3   4   3 69.1917 4.97138  16
  -3   4   3 75.8225 5.60473   7
  -3   4   3 65.3839 5.42314  18
  -3   4   3 61.8844 4.39521  10
  -2   4   3 484.530 37.8780   3
  -2   4   3 580.549 34.6655   2
  -2   4   3 579.464 35.1301   7
  -1   4   3 14.3031 1.99563   7
  -1   4   3 18.3493 2.33137   4
  -1   4   3 12.2649 1.57365   2
   0   4   3 1188.83 74.0457   2
   0   4   3 1190.50 73.8871   7
   0   4   3 1096.04 76.4553   3
   1   4   3 343.776 21.6306   2
   1   4   3 341.000 21.5182   7
   1   4   3 310.809 21.4943   1
  -2  -4  -3 416.624 27.9197   2
  -2  -4  -3 423.351 31.8612   3
   2   4   3 419.916 26.0459   2
   2   4   3 397.810 31.5994   3
  -3  -4  -3 248.299 15.4976   2
  -3  -4  -3 235.325 22.1706   3
  -3  -4  -3 234.809 15.8435   5
  -4  -4  -3 10.8451 1.72486   9
  -4  -4  -3 11.0273 1.90986   2
  -4  -4  -3 13.4687 1.24773   8
  -4  -4  -3 7.90504 1.60895   5
  -5  -4  -3 287.427 18.9169   5
  -5  -4  -3 305.464 18.3736  10
  -5  -4  -3 270.939 18.9393   9
  -5  -4  -3 298.275 18.2600   8
  -5  -4  -3 275.627 18.9019   2
  -5  -4  -3 278.749 18.5840  14
  -6  -4  -3 13.0277 2.55513  14
  -6  -4  -3 12.3110 2.39091  15
  -6  -4  -3 16.2192 1.52577  10
  -7  -4  -3 35.8529 3.60762  14
  -7  -4  -3 34.7927 2.96456  15
  -7  -4  -3 30.5588 2.41569  10
  -8  -4  -3 55.4519 4.35596  14
  -6   5   3 49.7783 4.58907  18
  -5   5   3 10.0556 2.21720  18
  -4   5   3 73.8513 5.73850  16
  -4   5   3 64.9316 5.69540  18
  -3   5   3 21.8908 3.35222  16
  -3   5   3 20.4313 1.64608  10
  -3   5   3 25.1196 2.55551  17
  -3   5   3 23.0086 3.15960  18
  -2   5   3 13.2337 1.85274  17
  -2   5   3 13.8206 2.68223  18
  -2   5   3 9.06613 1.12216  10
  -2   5   3 10.8591 1.33268   9
  -2   5   3 9.50807 1.39042   2
  -2   5   3 11.6085 2.59498   7
  -1   5   3 319.618 21.8396   9
  -1   5   3 326.285 22.1343  16
  -1   5   3 327.304 22.9691   4
  -1   5   3 329.483 21.6653   8
  -1   5   3 369.965 22.1857   2
  -1   5   3 343.193 21.9849  17
  -1   5   3 355.787 21.7916  10
  -1   5   3 373.620 22.5919   7
  -1   5   3 324.357 22.1132  18
   0   5   3 10.5563 1.96268   2
   0   5   3 11.1012 1.12002   8
   0   5   3 14.7120 2.46351   7
   1   5   3 489.313 32.1315   7
   1   5   3 497.192 31.7619   2
  -3  -5  -3 4.18676 0.91415   8
  -4  -5  -3 391.456 25.4712   2
  -4  -5  -3 382.074 25.1193   8
  -5  -5  -3 6.57346 4.48927   6
  -6  -5  -3 108.136 7.78129  14
  -6  -5  -3 103.659 7.86741  15
  -6  -5  -3 120.763 7.45249  10
  -7  -5  -3 15.4048 1.98407  14
  -7  -5  -3 15.9280 1.79828  15
  -8  -5  -3 17.7205 2.45913  14
  -6   6   3 3.23152 1.68611  18
  -5   6   3 24.3831 3.23309  18
  -4   6   3 31.2287 4.19653  16
  -4   6   3 29.8107 3.75108  18
  -3   6   3 87.8844 6.33483  18
  -3   6   3 76.7517 5.19391  10
  -3   6   3 75.3813 6.11639  16
  -2   6   3 460.733 28.7999  17
  -2   6   3 417.726 29.0847  16
  -2   6   3 482.210 28.4408  10
  -2   6   3 428.145 28.3717   9
  -2   6   3 446.617 29.0068  11
  -2   6   3 436.001 28.8908  18
  -1   6   3 283.219 19.2377   2
  -1   6   3 302.180 18.1078   9
  -1   6   3 266.319 19.0042  17
  -1   6   3 295.786 19.2512  18
  -1   6   3 295.660 17.9808  10
  -1   6   3 280.543 19.4777  11
   0   6   3 220.906 15.8913   7
   0   6   3 229.590 17.0458   4
   0   6   3 233.525 15.6163  18
   0   6   3 226.770 15.3476   9
   0   6   3 238.195 15.0681   8
   0   6   3 250.994 15.2129  10
   0   6   3 246.318 15.9182   2
   1   6   3 18.3653 2.93846  18
   1   6   3 16.1239 2.99191   2
   1   6   3 22.3386 1.85217   8
   1   6   3 19.1950 2.63253   9
   2   6   3 172.701 11.2509   8
   3   6   3 192.903 12.6464   8
  -6  -6  -3 39.2885 3.18081  14
  -7  -6  -3 17.3727 1.74378  15
  -5   7   3 10.7381 2.27394  18
  -4   7   3 33.2042 3.20859  18
  -3   7   3 99.6066 7.20809  18
  -3   7   3 100.428 6.43168  10
  -2   7   3 62.2466 3.98035  10
  -2   7   3 57.4816 4.95059  11
  -2   7   3 54.1967 4.66458  18
  -1   7   3 235.584 14.0736  10
  -1   7   3 209.143 14.8117  11
  -1   7   3 206.515 14.5827  18
   0   7   3 47.0877 4.74945  18
   0   7   3 60.4200 4.19440   9
   0   7   3 43.3499 5.20063  11
   0   7   3 51.7311 3.88848  10
   1   7   3 298.030 18.1996  10
   1   7   3 282.064 18.3479   9
   1   7   3 288.100 20.2253  18
   2   7   3 62.5627 4.15043   8
   2   7   3 57.2053 5.00431  18
  -6  -7  -3 30.2746 2.69930  15
  -3   8   3 24.5296 2.76661  18
  -2   8   3 57.2007 3.52591  10
  -2   8   3 56.5452 4.88462  18
  -1   8   3 5.41694 1.77347  11
  -1   8   3 6.34334 0.88963  10
  -1   8   3 9.92287 2.44760  18
   0   8   3 84.2428 5.18970  10
   0   8   3 73.9755 5.68738  18
   0   8   3 68.3471 5.71904  11
   1   8   3 12.7617 3.29579  11
   1   8   3 13.3976 2.30573  18
   1   8   3 12.9235 1.51881  10
   0   9   3 2.68844 1.08174  11
   1   9   3 29.2930 2.48632  11
   2   9   3 21.0586 2.39588  11
   3   9   3 9.77405 1.40833  11
   4   8  -4 21.6392 1.56187   8
  -4  -8   4 24.3907 1.81845   8
   3   8  -4 2.74011 0.49863   8
   3   8  -4 2.83261 0.67221   9
   3   8  -4 2.43780 0.71131  11
   2   8  -4 40.5427 3.27427  11
   2   8  -4 42.8450 3.15599   9
   1   8  -4 27.2035 2.28033  11
   1   8  -4 23.9280 1.94005  10
   1   8  -4 27.7774 2.18137   9
   0   8  -4 11.1906 0.97902  10
   0   8  -4 9.63509 1.52959  11
  -1   8  -4 35.1608 2.40971  10
  -1   8  -4 33.3608 2.65427  11
  -2   8  -4 0.12580 0.95852  11
  -6  -7   4 3.05844 0.58387   9
  -6  -7   4 3.57729 0.58692  15
  -5  -7   4 26.9963 2.78555   9
  -5  -7   4 27.3153 2.14301  15
  -5  -7   4 24.9003 1.86721   8
   4   7  -4 6.48324 1.11473   8
  -4  -7   4 5.93662 1.10187   8
   3   7  -4 73.3448 4.90542   8
   2   7  -4 69.2365 4.96776  11
   2   7  -4 67.5148 4.57034   8
   2   7  -4 71.6926 5.10973   9
   1   7  -4 83.3993 6.05470   9
   1   7  -4 92.2137 6.27342  11
   1   7  -4 89.1274 5.95253  10
   1   7  -4 87.6636 5.70216   8
   0   7  -4 54.3541 4.40108  11
   0   7  -4 61.0606 4.22577   9
   0   7  -4 59.8727 4.07691  10
  -1   7  -4 0.81207 1.13339  11
  -1   7  -4 1.21526 0.70047  10
  -1   7  -4 0.49014 0.65440   9
  -2   7  -4 55.2688 4.01910  10
  -2   7  -4 61.6691 4.49979  11
  -3   7  -4 12.5649 2.08841  11
  -3   7  -4 11.8733 2.29394  18
  -4   7  -4 19.2919 1.96758  11
  -7  -6   4 22.6651 1.70208  15
  -7  -6   4 21.7602 1.56042   9
  -6  -6   4 0.32798 1.10526  15
  -6  -6   4 2.15523 1.34346   9
  -5  -6   4 27.9953 3.93321   9
  -4  -6   4 46.9499 3.85106   8
   3   6  -4 13.8229 1.52597   8
   2   6  -4 56.8202 3.93570   8
   1   6  -4 78.5757 5.64654   9
   1   6  -4 87.0709 5.42985   8
   1   6  -4 78.4533 6.98838   4
   0   6  -4 3.48672 1.13514  11
   0   6  -4 3.23767 1.13517   9
   0   6  -4 4.71323 0.65635  10
   0   6  -4 3.12528 0.52637   8
  -1   6  -4 297.622 20.0730   9
  -1   6  -4 310.372 20.0022  10
  -1   6  -4 322.405 20.2323  11
  -2   6  -4 -0.7818 1.76968  18
  -2   6  -4 -0.3146 0.55335  10
  -2   6  -4 -0.6855 1.63860  11
  -3   6  -4 87.7100 6.33452  11
  -3   6  -4 81.4939 5.61742  10
  -4   6  -4 14.8126 3.14017  18
  -4   6  -4 14.8371 2.27157  11
  -5   6  -4 16.8604 3.17246  11
  -5   6  -4 12.8482 2.76555  18
  -8  -5   4 12.7395 0.99369  15
  -8  -5   4 12.1881 0.87582  10
  -7  -5   4 14.9146 1.32007  10
  -7  -5   4 16.3005 1.53190  15
  -7  -5   4 15.9210 1.34570   9
  -6  -5   4 22.1886 1.95404  15
  -6  -5   4 19.8961 1.99531  10
  -6  -5   4 21.0896 2.36413   9
  -5  -5   4 109.213 8.06603   9
  -4  -5   4 24.9748 2.29335   8
  -4  -5   4 19.8688 5.35930   6
   2   5  -4 23.9574 2.05296   8
   2   5  -4 28.3043 3.46447   4
   1   5  -4 81.5079 5.44700   8
   1   5  -4 76.0477 5.70491   9
   1   5  -4 89.0861 6.75703   4
   1   5  -4 83.9063 6.04711   2
   0   5  -4 165.909 11.3144  10
   0   5  -4 169.413 11.2267   8
   0   5  -4 177.680 12.4452   4
   0   5  -4 177.417 11.4377  11
   0   5  -4 177.763 11.8011   2
   0   5  -4 172.763 11.4666   9
  -1   5  -4 0.94421 1.91407  18
  -1   5  -4 1.73467 2.26176  17
  -1   5  -4 -2.0727 4.90103   3
  -1   5  -4 0.27848 1.35212  11
  -1   5  -4 -0.5895 1.23826  12
  -1   5  -4 0.35427 1.02993   4
  -1   5  -4 1.66922 0.57459  10
  -1   5  -4 0.58402 0.94112   2
  -1   5  -4 0.48593 0.85980   9
  -2   5  -4 218.295 14.5751  17
  -2   5  -4 196.549 14.5479  12
  -2   5  -4 206.092 15.6892   4
  -2   5  -4 211.168 14.2012  18
  -2   5  -4 224.655 14.3006  11
  -2   5  -4 223.446 13.6419  10
  -3   5  -4 64.0471 5.63808  18
  -3   5  -4 62.8977 4.27146  10
  -3   5  -4 64.3833 5.48510  11
  -3   5  -4 59.6474 6.17407  17
  -4   5  -4 51.8664 5.02910  18
  -4   5  -4 48.4646 5.77634  17
  -4   5  -4 46.7790 4.30690  11
  -5   5  -4 21.1651 2.75404  11
  -5   5  -4 17.3558 2.98340  18
  -6   5  -4 -0.5382 1.52469  18
  -6   5  -4 -1.9873 1.72837  11
  -8  -4   4 7.90593 0.78026  10
  -8  -4   4 8.17050 0.99718  15
  -7  -4   4 16.6323 1.33244   9
  -7  -4   4 16.0725 1.45471  15
  -7  -4   4 14.3612 1.36714  10
  -6  -4   4 84.5604 5.63154  10
  -6  -4   4 77.9892 5.79902   9
  -6  -4   4 83.4818 5.60399  15
  -5  -4   4 1.48109 0.98265  10
  -5  -4   4 2.91841 1.58821   9
  -5  -4   4 2.44537 2.91827   6
  -4  -4   4 276.346 19.4500   6
  -4  -4   4 238.499 25.7901   3
  -4  -4   4 256.904 17.5190   9
  -4  -4   4 264.410 17.1610   8
  -4  -4   4 292.012 18.2132   2
  -3  -4   4 53.8178 4.08685   8
   1   4  -4 756.612 49.8612   2
   1   4  -4 764.449 48.1701   4
   0   4  -4 5.29648 5.30943   3
   0   4  -4 7.97866 2.19709   4
   0   4  -4 8.30770 1.47668   2
  -1   4  -4 196.288 13.1759   8
  -1   4  -4 207.801 12.6906  10
  -1   4  -4 211.951 13.0531   2
  -1   4  -4 197.028 13.3756   9
  -1   4  -4 216.510 13.9462   4
  -1   4  -4 186.894 17.5626   3
  -1   4  -4 200.995 13.6546  11
  -2   4  -4 0.64336 0.97548  11
  -2   4  -4 -0.0746 0.39035  10
  -2   4  -4 -1.7276 3.41601   3
  -2   4  -4 0.43000 1.33062   4
  -2   4  -4 2.80001 1.99113  17
  -2   4  -4 -0.1862 1.60166  18
  -3   4  -4 127.770 8.83032  10
  -3   4  -4 136.853 9.84303  17
  -3   4  -4 138.777 9.70989  18
  -3   4  -4 129.990 10.8144   4
  -3   4  -4 143.113 9.75107  11
  -3   4  -4 141.198 9.31614  12
  -4   4  -4 15.0192 3.10210  18
  -4   4  -4 15.1349 1.12457  10
  -4   4  -4 17.0237 2.42494  12
  -4   4  -4 16.6748 3.41932  11
  -4   4  -4 17.3539 3.11397  17
  -4   4  -4 16.4409 3.83663   4
  -5   4  -4 90.6983 7.48832  17
  -5   4  -4 88.3908 6.95476  11
  -5   4  -4 82.9818 6.47515  12
  -5   4  -4 99.5982 7.57098  18
  -6   4  -4 21.4551 2.92223  12
  -6   4  -4 20.1418 3.49451  11
  -6   4  -4 18.3628 3.27618  18
  -7   4  -4 -0.9919 1.23447  11
  -8  -3   4 10.5344 1.11085  15
  -8  -3   4 11.1517 0.97225  10
  -7  -3   4 30.5466 3.02263  14
  -7  -3   4 31.2976 2.31671   9
  -7  -3   4 36.6385 2.59773  15
  -7  -3   4 36.6588 2.37062  10
  -6  -3   4 -0.4159 1.07871  15
  -6  -3   4 -0.2816 0.79474  10
  -6  -3   4 0.77589 1.00556   9
  -5  -3   4 152.502 10.6822   2
  -5  -3   4 170.369 11.7904   6
  -5  -3   4 150.995 10.2151   9
  -5  -3   4 132.195 16.0509   3
  -5  -3   4 148.114 10.2569  10
  -5  -3   4 151.107 9.71438   8
  -5  -3   4 165.762 9.99813  15
  -4  -3   4 18.1074 2.50043   9
  -4  -3   4 21.6622 2.74120   2
  -4  -3   4 18.5530 8.98967   3
  -4  -3   4 18.4453 2.08110   8
  -4  -3   4 18.1200 4.87531   6
  -3  -3   4 113.826 14.0472   3
  -3  -3   4 96.7136 8.92034   6
  -3  -3   4 113.573 7.83854   2
   2   3  -4 102.256 7.11929   2
  -2  -3   4 101.575 7.30802   2
  -2  -3   4 108.977 12.7307   3
   1   3  -4 107.856 7.78150   1
   1   3  -4 127.604 7.74354   2
   1   3  -4 120.212 12.0000   3
  -1  -3   4 111.410 8.09293   1
   0   3  -4 281.912 17.6399   2
   0   3  -4 273.492 17.9773   4
   0   3  -4 270.542 21.8707   3
  -1   3  -4 31.1996 3.30291   4
  -1   3  -4 29.2657 6.01326   3
  -1   3  -4 33.2483 2.59332   2
  -2   3  -4 234.122 18.4766   3
  -2   3  -4 251.385 16.7687   4
  -3   3  -4 18.0052 2.54392  11
  -3   3  -4 21.1818 1.60759  10
  -3   3  -4 21.9324 3.33602  18
  -3   3  -4 21.3964 2.33032  12
  -3   3  -4 26.0112 3.30072  17
  -3   3  -4 22.3595 3.96157   4
  -4   3  -4 66.0964 7.01026   4
  -4   3  -4 78.7320 6.29614  11
  -4   3  -4 66.3548 4.72810  10
  -4   3  -4 71.3110 5.44312  12
  -4   3  -4 82.0061 6.33595  18
  -4   3  -4 81.6402 6.21844  17
  -5   3  -4 87.1818 7.64116  17
  -5   3  -4 88.9286 6.86739  12
  -5   3  -4 95.3076 7.63346  11
  -5   3  -4 101.837 8.00330  18
  -6   3  -4 5.40062 2.85748  11
  -6   3  -4 5.35289 3.58331  18
  -6   3  -4 6.50097 1.46150  12
  -7   3  -4 283.970 17.7133  12
  -7   3  -4 245.763 17.6886  11
  -9  -2   4 15.0275 1.33852  15
  -8  -2   4 32.8229 3.12116  14
  -8  -2   4 34.0425 2.44165  15
  -7  -2   4 27.9997 3.19386  14
  -7  -2   4 27.5624 2.30245  15
  -7  -2   4 27.6041 2.03201  10
  -6  -2   4 69.4595 5.47975  14
  -6  -2   4 67.5328 4.96284   2
  -6  -2   4 72.1032 6.80608   6
  -6  -2   4 71.9324 4.85109  10
  -6  -2   4 57.6256 5.06826  13
  -6  -2   4 75.0626 4.84416  15
  -6  -2   4 72.1363 4.76247   9
  -5  -2   4 38.7862 2.75199   8
  -5  -2   4 45.6046 3.77915   2
  -5  -2   4 39.7071 3.57239  13
  -5  -2   4 45.6823 3.25072  15
  -5  -2   4 44.5942 3.47087   9
  -5  -2   4 48.7099 4.98716   6
  -5  -2   4 39.9507 3.16943  16
  -5  -2   4 34.7421 7.91367   3
  -5  -2   4 42.3108 3.61518  14
  -5  -2   4 46.0295 3.12735  10
  -4  -2   4 46.0997 4.16438   2
  -4  -2   4 45.7842 8.24929   3
  -4  -2   4 50.7762 5.09809   6
  -3  -2   4 15.5485 3.31856   6
  -3  -2   4 16.7594 6.47268   3
  -3  -2   4 16.0638 2.08896   2
   2   2  -4 335.664 20.3271   1
   2   2  -4 320.949 20.4155   2
   2   2  -4 324.723 23.6935   3
   2   2  -4 317.583 20.3440   1
  -2  -2   4 310.092 20.7501   1
  -2  -2   4 290.498 17.3182   2
  -2  -2   4 303.725 20.7776   1
  -2  -2   4 283.226 21.5092   6
   1   2  -4 567.330 35.1901   1
   1   2  -4 564.012 34.3733   2
   1   2  -4 533.510 35.1987   1
   1   2  -4 601.046 37.4989   3
  -1  -2   4 541.169 35.3203   1
  -1  -2   4 499.734 35.3323   1
  -1  -2   4 544.684 39.3166   3
  -1  -2   4 525.011 35.4954   2
   0   2  -4 139.068 9.07046   4
   0   2  -4 138.944 11.9291   3
   0   2  -4 139.265 8.69555   1
   0   2  -4 138.594 8.58918   2
   0   2  -4 134.507 8.70854   1
   0  -2   4 111.707 9.02978   2
   0  -2   4 131.059 8.90141   1
   0  -2   4 118.547 12.7753   3
   0  -2   4 138.039 8.89127   1
  -1   2  -4 331.707 22.3474   5
  -1   2  -4 342.169 22.4576   2
  -1   2  -4 354.137 22.3805   1
  -1   2  -4 359.391 22.9807   4
  -1   2  -4 359.315 22.3809   1
   1  -2   4 355.706 22.4302   1
   1  -2   4 339.967 22.5102   1
  -2   2  -4 45.4706 4.28195   4
  -2   2  -4 48.0653 3.38807   2
  -2   2  -4 49.0263 5.94983   3
  -2   2  -4 43.9302 3.29919   5
  -3   2  -4 26.7986 1.90110   2
  -3   2  -4 26.9177 2.39047   5
  -3   2  -4 29.3408 1.91573   2
  -3   2  -4 30.6196 3.93052   4
  -4   2  -4 152.798 11.4683   4
  -4   2  -4 156.109 10.2237  11
  -4   2  -4 156.358 10.7374  18
  -4   2  -4 135.588 9.72718  13
  -4   2  -4 139.273 9.48041  10
  -4   2  -4 147.821 9.99785  12
  -4   2  -4 149.772 10.3951  17
  -5   2  -4 31.5903 4.28673  11
  -5   2  -4 26.4992 4.46700   4
  -5   2  -4 33.0918 4.45253  17
  -5   2  -4 29.9065 2.88808  12
  -5   2  -4 31.0941 2.65476  13
  -5   2  -4 33.5992 5.36307  18
  -6   2  -4 171.738 12.6723  13
  -6   2  -4 173.245 12.2130  12
  -6   2  -4 176.861 12.7586  11
  -6   2  -4 208.211 13.4416  18
  -7   2  -4 4.89927 1.48799  12
  -7   2  -4 1.46870 3.14847  11
  -7   2  -4 6.33732 1.21921  13
  -8   2  -4 21.0144 2.95694  13
  -8   2  -4 18.8067 2.88788  12
  -9  -1   4 66.0966 4.38148  15
  -9  -1   4 62.6053 4.58799  14
  -8  -1   4 59.1240 4.19212  15
  -8  -1   4 59.7176 4.76478  14
  -7  -1   4 102.012 6.52466  10
  -7  -1   4 88.3638 7.18854  13
  -7  -1   4 103.280 7.48834  14
  -7  -1   4 112.500 7.00480  15
  -6  -1   4 14.0722 2.61550  14
  -6  -1   4 15.0526 1.60293  15
  -6  -1   4 13.5459 2.08829  13
  -6  -1   4 12.5467 3.69233   6
  -6  -1   4 13.1819 1.54119  16
  -6  -1   4 14.8072 1.30895  10
  -5  -1   4 369.564 22.6280  15
  -5  -1   4 335.803 22.5697  16
  -5  -1   4 328.662 22.4800   9
  -5  -1   4 296.853 25.0014   3
  -5  -1   4 358.531 22.7183  13
  -5  -1   4 368.259 21.3165   2
  -5  -1   4 350.812 22.8709  14
  -5  -1   4 366.425 22.5327   6
  -5  -1   4 347.072 22.5212  10
  -4  -1   4 37.9456 3.18325   2
  -4  -1   4 38.5552 4.19432   6
  -4  -1   4 37.8239 6.28229   3
  -3  -1   4 717.902 45.5993   6
  -3  -1   4 742.340 53.6565   2
  -3  -1   4 775.849 47.7339   3
   2   1  -4 3.02417 0.62916   2
   2   1  -4 3.72435 0.62151   1
   2   1  -4 2.88128 2.38511   3
   2   1  -4 3.50308 0.53314   1
  -2  -1   4 2.98275 0.70738   1
  -2  -1   4 3.28598 0.83512   2
  -2  -1   4 3.72237 2.89309   3
  -2  -1   4 5.75679 1.66807   6
  -2  -1   4 3.27837 0.68640   1
   1   1  -4 1038.72 71.5342   2
   1   1  -4 1091.69 69.2121   1
   1   1  -4 1143.69 69.1645   1
   1   1  -4 916.335 56.5029   3
  -1  -1   4 1046.88 71.4854   1
  -1  -1   4 925.973 56.6331   3
  -1  -1   4 1092.68 68.8315   1
  -1  -1   4 1040.90 75.1428   2
   0   1  -4 123.197 7.76532   1
   0   1  -4 116.775 8.23193   2
   0   1  -4 117.739 7.72478   1
   0   1  -4 117.378 8.39872   4
   0   1  -4 119.260 9.94376   3
   0  -1   4 116.136 7.75546   1
   0  -1   4 110.726 8.78148   2
   0  -1   4 121.930 7.80500   1
   0  -1   4 118.641 10.1250   3
  -1   1  -4 31.3383 6.18708   3
  -1   1  -4 22.1583 2.16891   2
  -1   1  -4 23.6184 2.48959   4
  -1   1  -4 24.4560 1.92229   1
  -1   1  -4 23.4334 2.07757   2
  -1   1  -4 23.6985 1.96011   1
   1  -1   4 29.3479 1.90338   1
   1  -1   4 25.8809 1.98438   1
  -2   1  -4 235.127 16.8786   2
  -2   1  -4 249.237 16.8728   5
  -2   1  -4 249.691 16.8129   1
  -2   1  -4 279.910 18.9244   3
  -2   1  -4 271.942 16.8328   2
  -2   1  -4 294.757 17.5696   4
  -2   1  -4 250.180 16.7606   1
   2  -1   4 265.735 16.7662   1
  -3   1  -4 254.652 16.8241   5
  -3   1  -4 237.050 16.2603   3
  -3   1  -4 253.306 16.5481   2
  -3   1  -4 251.286 15.1798   4
  -3   1  -4 255.191 16.5872   2
  -3   1  -4 241.081 16.5368   1
   3  -1   4 241.624 16.5243   1
  -4   1  -4 124.553 9.23014   4
  -4   1  -4 120.565 8.38535   5
  -5   1  -4 256.957 15.4407  11
  -5   1  -4 238.854 15.2555  13
  -5   1  -4 221.836 15.9275  14
  -5   1  -4 207.943 15.9815  17
  -5   1  -4 236.578 15.7276   5
  -5   1  -4 241.250 16.6327  18
  -5   1  -4 248.546 16.7105   4
  -5   1  -4 208.962 14.8900  10
  -5   1  -4 241.723 15.5048  12
  -6   1  -4 27.4669 5.15890  14
  -6   1  -4 37.8203 6.01982  18
  -6   1  -4 33.9159 2.65776  13
  -6   1  -4 30.8665 3.53763  12
  -6   1  -4 27.5842 3.55380  11
  -7   1  -4 65.6417 6.86273  14
  -7   1  -4 76.6517 6.55042  11
  -7   1  -4 88.4415 6.44979  12
  -8   1  -4 1.17971 1.67496  12
  -8   1  -4 1.41992 1.11705  13
  -9   0   4 6.49408 1.43172  14
  -9   0   4 3.52915 1.03470  15
  -8   0   4 20.8334 2.87274  14
  -8   0   4 18.3585 2.10185  15
  -7   0   4 6.44469 2.59105  14
  -7   0   4 1.39592 1.44341  15
  -7   0   4 1.00417 0.67377  16
  -7   0   4 0.30269 1.06325  13
  -6   0   4 101.476 6.17211  10
  -6   0   4 92.1269 6.42134  16
  -6   0   4 107.822 7.40396  14
  -6   0   4 99.8887 6.65344  15
  -6   0   4 85.0197 8.12378   6
  -6   0   4 86.5224 6.54786  13
  -5   0   4 0.56843 0.97899  15
  -5   0   4 2.35883 0.83336  13
  -5   0   4 1.85722 0.60199  16
  -5   0   4 2.29266 0.41961  10
  -5   0   4 -0.2100 1.95741   6
  -5   0   4 2.22903 1.93603  14
  -4   0   4 806.878 54.3312   3
  -4   0   4 893.328 53.7881   6
  -4   0   4 795.301 53.1063   2
  -3   0   4 284.341 18.9772   6
  -3   0   4 245.653 18.3173   7
  -3   0   4 310.713 20.3395   3
  -3   0   4 293.632 18.1529   2
   2   0  -4 217.576 13.0962   1
   2   0  -4 217.370 13.0553   1
  -2   0   4 258.727 16.5012   1
  -2   0   4 244.402 20.6017   3
  -2   0   4 257.716 16.4262   1
  -2   0   4 227.871 17.4563   2
  -2   0   4 216.989 13.0988   2
  -2   0   4 264.401 16.9096   6
   1   0  -4 1159.98 77.6685   3
   1   0  -4 1169.66 84.9930   2
   1   0  -4 1260.57 75.4644   1
   1   0  -4 1215.53 75.3713   1
  -1   0   4 1256.86 75.2138   1
  -1   0   4 1224.11 75.2898   1
  -1   0   4 1194.21 79.2497   2
  -1   0   4 1184.86 79.0584   6
   0   0  -4 32.3822 2.75482   4
   0   0  -4 33.7855 2.29413   1
   0   0  -4 34.5949 6.54435   3
   0   0  -4 33.4548 2.55693   2
   0   0   4 33.6308 2.20005   1
   0   0   4 34.3840 2.21068   1
   0   0   4 32.7865 2.53028   2
   0   0   4 33.5259 2.66873   6
   0   0   4 35.2606 4.52788   3
  -1   0  -4 68.2248 4.45309   1
  -1   0  -4 65.9133 4.82631   4
  -1   0  -4 70.2035 9.43973   3
  -1   0  -4 63.2608 4.51305   2
  -1   0  -4 65.7258 4.48792   1
   1   0   4 66.6773 4.45648   1
   1   0   4 65.8917 7.21866   3
   1   0   4 67.5939 4.46056   1
  -2   0  -4 83.7026 6.34559   2
  -2   0  -4 105.120 10.7589   3
  -2   0  -4 97.5017 6.28098   2
  -2   0  -4 95.4729 6.66569   4
  -2   0  -4 97.0590 6.35678   5
  -2   0  -4 91.5691 6.20694   1
  -2   0  -4 89.1648 7.63613   3
  -2   0  -4 94.6118 6.25475   1
   2   0   4 101.063 6.24633   1
   2   0   4 100.754 6.25134   1
  -3   0  -4 487.252 37.1870   3
  -3   0  -4 543.701 35.8201   1
  -3   0  -4 503.468 29.7566   2
  -3   0  -4 530.156 35.9599   2
  -3   0  -4 505.066 29.9223   5
  -3   0  -4 469.437 30.3517   4
   3   0   4 487.982 29.7153   1
  -4   0  -4 296.118 19.8761   5
  -4   0  -4 332.028 20.1598   4
  -4   0  -4 304.423 19.4717   2
  -4   0  -4 318.550 22.0613   2
  -5   0  -4 129.498 8.49287  10
  -5   0  -4 133.353 8.75893  13
  -5   0  -4 131.791 9.36641  14
  -5   0  -4 135.251 9.21018   5
  -5   0  -4 141.438 9.09335  12
  -5   0  -4 117.287 10.8313  18
  -5   0  -4 141.971 9.52886  11
  -6   0  -4 158.028 9.93555  13
  -6   0  -4 134.197 10.5993   5
  -6   0  -4 147.318 10.2788  12
  -6   0  -4 139.295 9.58067  10
  -6   0  -4 153.447 10.9596  14
  -6   0  -4 168.908 10.9641  11
  -7   0  -4 19.4787 3.32604  12
  -7   0  -4 20.6712 2.34667  13
  -7   0  -4 16.1331 4.05256  14
  -8   0  -4 46.7270 5.15108  14
  -8   0  -4 48.9136 4.45736  12
  -9   0  -4 6.46705 1.68142  13
  -8   1   4 28.8785 2.88439  14
  -8   1   4 27.5529 2.73835  15
  -7   1   4 61.9390 5.04406  13
  -7   1   4 61.6863 4.75843  15
  -7   1   4 72.3839 5.65324  14
  -7   1   4 68.5121 4.65360  16
  -6   1   4 -0.5393 2.43276   6
  -6   1   4 0.22571 1.33315  15
  -6   1   4 3.30877 2.66142  14
  -6   1   4 0.99972 1.04863  13
  -6   1   4 -0.3191 0.66949  16
  -5   1   4 429.689 25.6482  14
  -5   1   4 361.113 25.3669  12
  -5   1   4 401.214 25.1576  15
  -5   1   4 388.023 24.8550  10
  -5   1   4 387.188 25.0764  16
  -5   1   4 379.376 26.3964   6
  -5   1   4 392.307 25.1933  13
  -4   1   4 13.0752 1.44008   7
  -4   1   4 17.2104 3.36119   6
   3  -1  -4 750.816 50.1116   1
  -3   1   4 743.730 50.1408   1
  -3   1   4 834.737 50.3733   6
  -3   1   4 668.227 50.1657   2
  -3   1   4 801.672 50.3342   7
  -3   1   4 792.410 45.4685   3
  -3   1   4 756.468 51.9354   3
  -3   1   4 843.187 50.0616   2
   2  -1  -4 350.919 20.2425   1
   2  -1  -4 369.858 23.7957   1
  -2   1   4 352.719 24.6940   2
  -2   1   4 362.524 26.1361   3
  -2   1   4 372.875 24.1883   6
  -2   1   4 329.184 20.2347   1
  -2   1   4 351.682 24.7789   7
  -2   1   4 373.326 23.7204   1
  -2   1   4 335.160 20.2828   2
   1  -1  -4 561.223 42.1832   3
   1  -1  -4 575.219 35.2690   1
   1  -1  -4 554.961 36.1278   1
  -1   1   4 537.671 36.0414   2
  -1   1   4 553.992 35.9954   1
  -1   1   4 556.441 36.2961   6
  -1   1   4 535.326 31.7415   3
   0  -1  -4 607.531 38.3079   3
   0  -1  -4 600.559 37.8429   1
   0  -1  -4 580.595 41.5087   2
   0  -1  -4 598.345 36.4838   1
   0   1   4 604.731 41.6030   6
   0   1   4 613.246 37.8820   1
   0   1   4 619.372 37.7415   1
   0   1   4 602.333 41.5056   2
  -1  -1  -4 889.592 53.9454   3
  -1  -1  -4 883.558 59.5940   1
  -1  -1  -4 862.076 59.5871   1
  -1  -1  -4 863.297 59.2490   2
   1   1   4 854.310 54.7988   1
   1   1   4 867.629 52.9388   3
   1   1   4 857.914 54.7485   1
  -2  -1  -4 63.5935 4.81155   4
  -2  -1  -4 67.9524 4.58466   5
  -2  -1  -4 65.6579 4.45769   1
  -2  -1  -4 69.9654 4.55734   2
  -2  -1  -4 76.5195 9.30757   3
   2   1   4 56.8823 6.79576   3
   2   1   4 66.9144 4.46269   1
   2   1   4 69.1559 4.49594   1
  -3  -1  -4 509.198 31.6090   2
  -3  -1  -4 517.465 35.4109   3
  -3  -1  -4 509.595 31.6842   5
  -3  -1  -4 461.296 32.9514   6
  -3  -1  -4 480.809 32.4988   1
   3   1   4 515.292 31.5821   1
  -4  -1  -4 272.420 17.3998   2
  -4  -1  -4 260.461 22.5001   3
  -4  -1  -4 273.291 17.6662   5
  -5  -1  -4 328.748 21.9256  12
  -5  -1  -4 346.739 22.2843  11
  -5  -1  -4 333.101 23.0070   9
  -5  -1  -4 348.901 22.0317  14
  -5  -1  -4 326.713 22.0763  10
  -5  -1  -4 354.773 21.5808   2
  -5  -1  -4 326.931 21.6105  13
  -5  -1  -4 361.523 22.1406   5
  -6  -1  -4 40.2756 2.72060  10
  -6  -1  -4 37.2873 3.97022   5
  -6  -1  -4 39.9395 4.39187  14
  -6  -1  -4 38.9956 3.00580  13
  -6  -1  -4 40.3996 3.93073  12
  -7  -1  -4 65.7929 5.60889  12
  -7  -1  -4 75.6433 6.64768  14
  -8  -1  -4 22.7343 2.94242  12
  -8  -1  -4 25.1472 3.53833  14
  -9  -1  -4 46.9893 4.07945  14
  -9  -1  -4 38.3119 3.33250  13
  -8   2   4 19.8389 2.56852  14
  -8   2   4 19.6989 2.02239  16
  -8   2   4 19.3578 2.44046  15
  -7   2   4 19.7860 2.49541  15
  -7   2   4 23.0971 2.95607  14
  -7   2   4 23.3961 2.25084  16
  -6   2   4 147.864 10.9908  13
  -6   2   4 160.048 10.9114  15
  -6   2   4 183.518 11.3571  14
  -6   2   4 171.949 10.4804  16
  -6   2   4 142.839 12.4075   6
  -5   2   4 0.01428 2.25363   6
  -5   2   4 6.64008 2.54314  14
  -5   2   4 0.96353 1.26613  15
  -5   2   4 0.48393 0.52113  16
  -5   2   4 1.00880 0.95828  13
  -5   2   4 0.38712 0.73875  17
  -4   2   4 388.905 25.0972   6
  -4   2   4 359.465 24.2142   7
  -3   2   4 780.056 51.9748   2
  -3   2   4 787.519 52.0371   7
  -3   2   4 834.444 49.9337   6
   2  -2  -4 557.548 35.4712   1
  -2   2   4 538.804 37.2629   3
  -2   2   4 588.324 34.0010   6
  -2   2   4 491.956 36.1312   2
  -2   2   4 538.764 35.5825   1
  -2   2   4 548.154 33.5374   2
  -2   2   4 532.227 33.5793   7
  -2   2   4 593.513 35.2015   3
  -2   2   4 507.987 36.0858   1
   1  -2  -4 805.719 51.1766   1
   1  -2  -4 823.633 50.6422   1
  -1   2   4 750.013 53.1071   4
  -1   2   4 809.456 51.0199   1
  -1   2   4 804.533 51.2218   2
  -1   2   4 811.336 51.1321   7
  -1   2   4 759.018 55.0455   3
  -1   2   4 889.741 50.6764   6
  -1   2   4 828.267 53.3698   1
   0  -2  -4 330.837 21.0730   1
   0  -2  -4 288.574 21.6543   2
   0  -2  -4 356.968 21.0617   1
   0  -2  -4 336.270 24.2215   3
   0   2   4 324.846 21.1012   2
   0   2   4 342.000 22.8441   3
   0   2   4 334.138 21.0677   1
   0   2   4 332.325 21.0433   1
   0   2   4 325.146 21.1807   7
  -1  -2  -4 638.365 39.3357   1
  -1  -2  -4 640.952 43.4244   2
  -1  -2  -4 641.635 40.9918   1
  -1  -2  -4 632.301 43.7589   3
   1   2   4 637.680 42.6803   3
   1   2   4 650.278 43.3989   2
   1   2   4 640.239 39.3215   1
   1   2   4 639.033 39.3299   1
  -2  -2  -4 353.388 24.5044   5
  -2  -2  -4 366.654 23.5462   2
  -2  -2  -4 378.660 22.9949   1
  -2  -2  -4 343.895 24.4543   1
  -2  -2  -4 385.427 26.6938   3
   2   2   4 367.417 26.0223   3
   2   2   4 370.172 22.9858   1
   2   2   4 346.310 24.5879   2
   2   2   4 395.017 23.0224   1
  -3  -2  -4 1134.01 72.6718   3
  -3  -2  -4 1012.88 68.3799   5
  -3  -2  -4 1075.21 69.2836   2
  -4  -2  -4 407.843 30.9592   6
  -4  -2  -4 480.690 29.7280   2
  -4  -2  -4 457.718 34.8268   3
  -4  -2  -4 498.510 29.8666   5
  -5  -2  -4 72.2798 5.50617  14
  -5  -2  -4 72.7236 5.05967   2
  -5  -2  -4 73.5992 5.31803   5
  -5  -2  -4 72.2901 11.9690   3
  -5  -2  -4 69.0825 4.97709   9
  -5  -2  -4 72.2717 5.07630  13
  -5  -2  -4 72.8029 4.90225  10
  -5  -2  -4 69.9547 5.64009  12
  -6  -2  -4 52.4129 4.63893  12
  -6  -2  -4 55.1712 4.87340   5
  -6  -2  -4 51.8129 4.15365   2
  -6  -2  -4 60.7299 4.19865  13
  -6  -2  -4 59.4601 5.05185  14
  -6  -2  -4 61.2898 3.87464  10
  -6  -2  -4 56.8265 3.95995   9
  -7  -2  -4 2.53718 2.57043  14
  -7  -2  -4 3.79261 1.93316  12
  -7  -2  -4 4.83410 0.85657  10
  -8  -2  -4 86.3405 6.68939  14
  -9  -2  -4 11.7194 2.43010  14
  -8   3   4 0.98060 1.71370  15
  -7   3   4 142.009 10.2806  14
  -7   3   4 148.469 9.47168  15
  -7   3   4 138.807 9.67391  16
  -6   3   4 1.25506 1.05743  16
  -6   3   4 0.70807 2.02637  15
  -6   3   4 0.27622 3.13384  14
  -5   3   4 264.484 17.7330  15
  -5   3   4 271.971 17.5995  17
  -5   3   4 285.303 18.3523  14
  -5   3   4 263.890 17.6017  16
  -4   3   4 2.26129 0.30951  10
  -4   3   4 1.61336 0.65920  16
  -4   3   4 2.71872 2.55411  14
  -4   3   4 1.02357 0.86265  17
  -4   3   4 7.30641 2.86781   6
  -4   3   4 -1.7528 1.71153  18
  -4   3   4 0.97987 1.10410   7
  -4   3   4 3.30350 1.43737  15
  -3   3   4 143.973 10.5239   6
  -3   3   4 143.148 9.72383   7
  -2   3   4 73.9055 5.36794   7
  -2   3   4 77.4132 5.07108   2
  -1   3   4 23.2152 1.81849   2
  -1   3   4 17.4836 1.98208   4
  -1   3   4 20.9462 4.28997   3
  -1   3   4 19.1177 1.59503   1
  -1   3   4 20.7478 2.06637   7
   0  -3  -4 1162.04 73.8430   1
   0  -3  -4 1174.89 73.8157   1
   0   3   4 1145.84 73.5257   7
   0   3   4 1197.92 75.7640   3
   0   3   4 1135.19 74.0408   2
   0   3   4 1119.52 73.6679   1
   0   3   4 1146.44 73.4356   1
  -1  -3  -4 20.3781 1.76757   1
  -1  -3  -4 18.7906 1.62305   5
  -1  -3  -4 21.1467 1.93240   2
  -1  -3  -4 23.6196 1.81577   1
   1   3   4 25.3013 5.32221   3
   1   3   4 21.4401 1.81308   1
   1   3   4 21.5813 1.96873   2
   1   3   4 21.1527 1.87074   7
   1   3   4 21.6825 1.80132   1
  -2  -3  -4 1367.61 90.3254   3
  -2  -3  -4 1466.80 100.801   1
  -2  -3  -4 1363.35 85.9443   1
  -2  -3  -4 1556.26 101.165   5
  -2  -3  -4 1374.12 86.3000   2
   2   3   4 1492.08 100.711   7
   2   3   4 1382.03 89.2625   3
   2   3   4 1376.86 85.9319   1
   2   3   4 1356.84 86.0104   2
   2   3   4 1435.40 85.9707   1
  -3  -3  -4 14.3953 1.79810   5
  -3  -3  -4 15.6162 2.05342   2
  -4  -3  -4 476.926 30.2450   5
  -4  -3  -4 437.838 36.1629   3
  -4  -3  -4 491.781 30.3116   2
  -5  -3  -4 383.136 23.9862   2
  -5  -3  -4 381.197 23.5006  10
  -5  -3  -4 385.540 23.8527  14
  -5  -3  -4 373.317 23.5898   9
  -5  -3  -4 312.260 30.4272   3
  -5  -3  -4 338.683 24.0110  12
  -5  -3  -4 360.270 23.5400  13
  -5  -3  -4 372.408 23.3855   8
  -5  -3  -4 395.291 24.0822   5
  -6  -3  -4 157.999 10.4664  14
  -6  -3  -4 133.071 10.5331   5
  -6  -3  -4 143.384 9.70941  10
  -6  -3  -4 165.644 9.88680   9
  -6  -3  -4 144.377 9.89113  13
  -7  -3  -4 57.2293 3.80014  10
  -7  -3  -4 54.8575 4.16460  13
  -7  -3  -4 57.4900 4.80754  14
  -8  -3  -4 1.83959 2.77452  14
  -8  -3  -4 1.77980 0.70341  10
  -9  -3  -4 21.7113 3.56487  14
  -7   4   4 11.4826 1.78116  16
  -6   4   4 42.4754 3.66373  16
  -6   4   4 37.9692 4.13305  15
  -5   4   4 0.02975 1.86311  18
  -5   4   4 3.12172 2.21591  15
  -5   4   4 0.67467 1.13375  16
  -4   4   4 245.317 15.4735  15
  -4   4   4 231.529 15.8072   7
  -4   4   4 243.920 15.3280  16
  -4   4   4 215.488 14.9427  10
  -4   4   4 242.298 15.2509  17
  -4   4   4 227.366 15.7016  18
  -3   4   4 165.564 11.3761  18
  -3   4   4 166.736 11.0734  17
  -3   4   4 155.599 11.2382  16
  -3   4   4 169.492 11.3035  15
  -3   4   4 169.256 10.7495  10
  -3   4   4 187.804 11.7789   7
  -2   4   4 123.418 8.96353   7
  -2   4   4 135.717 8.60420   2
  -1   4   4 543.068 33.1115   7
  -1   4   4 549.353 32.8946   2
  -1   4   4 508.979 37.0587   3
  -1   4   4 492.502 34.7427   4
   0   4   4 20.4668 2.06357   2
   0   4   4 18.6126 2.24895   7
   1   4   4 1415.86 89.6351   2
   1   4   4 1467.49 89.5677   7
   1   4   4 1368.34 95.0984   3
  -3  -4  -4 298.653 19.8449   2
  -3  -4  -4 283.369 19.4611   5
  -3  -4  -4 305.106 26.3158   3
  -4  -4  -4 64.4509 5.07874   2
  -4  -4  -4 69.1872 4.28952   8
  -4  -4  -4 58.0816 4.60672   9
  -4  -4  -4 63.5081 4.79336   5
  -4  -4  -4 59.5612 12.7116   3
  -5  -4  -4 87.6750 6.21417  10
  -5  -4  -4 92.0167 6.74648  14
  -5  -4  -4 91.3462 6.88519   5
  -5  -4  -4 94.8436 6.46292   9
  -5  -4  -4 100.478 6.17183   8
  -5  -4  -4 90.8693 6.89739   2
  -6  -4  -4 118.314 8.64379  14
  -6  -4  -4 120.958 7.99285   9
  -6  -4  -4 117.862 8.60989  15
  -6  -4  -4 124.093 7.83436  10
  -7  -4  -4 0.90261 1.43635  14
  -7  -4  -4 1.56408 0.66771  10
  -8  -4  -4 34.8312 2.64881  10
  -8  -4  -4 37.5502 3.21540  14
  -6   5   4 12.0944 2.59255  18
  -5   5   4 47.1469 4.47824  18
  -4   5   4 12.9511 2.88755  18
  -4   5   4 14.1817 2.85431  16
  -3   5   4 192.832 12.2693  17
  -3   5   4 188.202 12.5360  18
  -3   5   4 174.354 12.3022  16
  -3   5   4 183.628 11.8411  10
  -2   5   4 422.670 26.0499  10
  -2   5   4 410.694 26.3156  17
  -2   5   4 388.484 26.0569   9
  -2   5   4 402.805 26.4935  18
  -2   5   4 424.401 26.9248   7
  -2   5   4 412.642 26.2818   2
  -2   5   4 398.564 26.4171  16
  -1   5   4 30.6924 2.44616  10
  -1   5   4 31.7426 3.23336  18
  -1   5   4 28.7317 2.69494  17
  -1   5   4 36.8170 2.79729   9
  -1   5   4 36.2653 3.68396  16
  -1   5   4 36.6937 2.29851   8
  -1   5   4 34.2179 3.12764   2
  -1   5   4 35.9947 3.53185   7
   0   5   4 548.362 39.2132   8
   0   5   4 664.411 38.1060   2
   0   5   4 653.932 38.2246   7
   0   5   4 545.469 43.6137   3
   1   5   4 21.0258 2.60758   7
   1   5   4 18.8418 2.63253   2
  -4  -5  -4 74.5164 6.37551   2
  -4  -5  -4 78.3809 5.15020   8
  -4  -5  -4 71.6461 5.55475   9
  -5  -5  -4 93.6344 6.46949  14
  -5  -5  -4 74.2923 10.2024   6
  -5  -5  -4 88.8742 6.18603   9
  -6  -5  -4 9.29014 1.34590  10
  -6  -5  -4 4.81067 1.90340  14
  -6  -5  -4 5.66020 1.34262  15
  -7  -5  -4 43.0233 3.58912  14
  -7  -5  -4 40.8367 3.22398  15
  -8  -5  -4 1.98422 1.27009  14
  -5   6   4 3.80037 2.02719  18
  -4   6   4 49.7900 4.55046  18
  -4   6   4 47.9199 4.85211  16
  -3   6   4 51.3817 4.77137  18
  -3   6   4 46.7733 3.29536  10
  -3   6   4 51.8930 4.98605  16
  -2   6   4 26.9279 3.81821  16
  -2   6   4 14.8482 1.44118  10
  -2   6   4 11.3948 3.02132  18
  -2   6   4 13.6008 2.23700  17
  -1   6   4 779.966 52.1364   2
  -1   6   4 787.385 52.6019   7
  -1   6   4 738.030 51.8707  17
  -1   6   4 823.880 50.3923   9
  -1   6   4 836.240 51.9458  18
  -1   6   4 783.657 52.1739  11
  -1   6   4 866.528 49.4062  10
   0   6   4 46.9705 4.42694   2
   0   6   4 45.3967 4.82381   7
   0   6   4 50.3957 3.73661  10
   0   6   4 48.8542 4.48862  18
   0   6   4 58.9482 3.55753   8
   0   6   4 55.0600 4.09177   9
   1   6   4 336.942 20.4710   2
   1   6   4 293.866 19.4150   8
   1   6   4 281.634 19.6562   9
   2   6   4 20.6964 2.05150   8
   3   6   4 99.3194 6.82845   8
  -5  -6  -4 142.576 9.77220  14
  -6  -6  -4 24.6641 2.86429  15
  -6  -6  -4 22.2396 2.37774  14
  -7  -6  -4 1.17794 1.02259  14
  -7  -6  -4 2.54859 1.23998  15
  -5   7   4 16.4396 2.78385  18
  -4   7   4 21.5056 2.65120  18
  -3   7   4 90.8717 6.76053  18
  -3   7   4 94.7148 6.00939  10
  -2   7   4 91.1451 6.07112  10
  -2   7   4 93.1836 7.06322  18
  -1   7   4 47.9104 3.40308  10
  -1   7   4 56.1032 4.68696  18
  -1   7   4 48.0678 4.86488  11
   0   7   4 31.8101 2.89206   9
   0   7   4 32.6208 3.58776  18
   0   7   4 24.4293 3.12368  11
   0   7   4 22.4990 2.41203  10
   1   7   4 66.8864 4.84351   9
   1   7   4 54.2141 5.08383  18
   2   7   4 89.0628 6.70326  18
  -6  -7  -4 2.61885 1.18178  15
  -3   8   4 34.8280 3.11364  18
  -2   8   4 41.7649 4.43713  18
  -1   8   4 41.0655 3.51510  18
   0   8   4 12.6100 2.04575  18
   0   8   4 12.6064 2.12050  11
   0   8   4 16.8987 1.69265  10
   1   8   4 22.7874 2.03731  10
   1   8   4 24.2704 3.28746  11
   1   8   4 27.8601 2.94609  18
   1   9   4 0.41658 0.93640  11
   2   9   4 32.8700 3.06845  11
   3   9   4 11.7917 1.66946  11
   3   8  -5 23.2056 2.02045   9
   3   8  -5 28.3262 2.02580  11
  -3  -8   5 24.8850 2.03897   8
   2   8  -5 -0.0708 0.55498  11
   2   8  -5 0.31715 0.81692   9
   1   8  -5 23.6082 1.75966  10
   1   8  -5 23.9756 2.05035  11
   0   8  -5 12.6614 1.73112  11
   0   8  -5 11.5408 1.03573  10
  -1   8  -5 11.1055 0.91303  10
  -1   8  -5 9.52055 1.81229  11
   5   7  -5 19.6196 1.33786   8
  -5  -7   5 19.3390 1.63622  15
  -5  -7   5 18.2188 1.31272   8
  -5  -7   5 19.1116 2.05370   9
   4   7  -5 35.9669 2.55983   8
   3   7  -5 0.38890 0.77164  11
   3   7  -5 1.21398 0.61571   8
   2   7  -5 82.5768 5.28365   8
   2   7  -5 77.0344 5.52927   9
   2   7  -5 82.0915 5.59955  11
   1   7  -5 62.6477 4.09775   8
   1   7  -5 55.9257 4.32645  10
   1   7  -5 63.7374 4.67439  11
   1   7  -5 69.5338 4.40795   9
   0   7  -5 54.4252 4.30366  11
   0   7  -5 54.9679 3.91793   9
   0   7  -5 53.6215 3.80178  10
  -1   7  -5 54.0280 3.77435  10
  -1   7  -5 56.1422 4.44999  11
  -2   7  -5 1.23179 1.17175  11
  -2   7  -5 1.49993 0.46333  10
  -3   7  -5 37.0297 3.05779  11
  -6  -6   5 147.729 9.98989  15
  -6  -6   5 160.327 10.0905   9
  -5  -6   5 0.25333 1.20343   9
  -5  -6   5 0.42449 0.84838   8
  -5  -6   5 0.17267 0.78558  15
   4   6  -5 5.58881 0.87579   8
  -4  -6   5 5.60960 1.40050   8
   3   6  -5 75.6208 5.09737   8
   2   6  -5 24.5532 2.47047   9
   2   6  -5 23.7102 1.96480   8
   1   6  -5 48.9719 3.97973  11
   1   6  -5 47.8919 3.80642   9
   1   6  -5 49.5426 3.35532   8
   0   6  -5 41.2931 3.32588  10
   0   6  -5 48.2277 3.17794   8
   0   6  -5 51.9132 4.08156  11
   0   6  -5 53.0083 3.68998   9
  -1   6  -5 0.57761 0.64036  10
  -1   6  -5 0.23668 1.05555  11
  -2   6  -5 123.049 7.79714  10
  -2   6  -5 99.1931 8.41977  18
  -2   6  -5 129.057 8.26276  11
  -3   6  -5 -2.2101 1.66604  11
  -3   6  -5 -0.1995 1.95580  18
  -3   6  -5 -0.1856 0.37462  10
  -4   6  -5 33.7485 3.87678  18
  -4   6  -5 41.0590 3.26555  11
  -5   6  -5 -0.4266 1.40499  11
  -5   6  -5 1.70260 2.39393  18
  -7  -5   5 41.9122 2.95700  10
  -7  -5   5 44.4391 2.82520   9
  -7  -5   5 40.6795 2.93540  15
  -6  -5   5 17.3225 2.04448   9
  -6  -5   5 15.1439 1.66903  15
  -6  -5   5 16.7243 2.00300  10
  -5  -5   5 13.0252 1.56848   8
  -5  -5   5 13.8884 2.88380   9
  -5  -5   5 12.2195 1.86743  15
  -4  -5   5 361.472 23.3039   8
   3   5  -5 78.1118 6.10547   4
  -3  -5   5 76.9360 5.64924   8
  -3  -5   5 63.3863 7.65857   6
   2   5  -5 273.611 17.6894   4
   2   5  -5 256.540 17.3356   8
   1   5  -5 32.8348 8.97469   3
   1   5  -5 40.6980 2.73503   8
   1   5  -5 35.6249 2.91997   9
   1   5  -5 40.8119 4.16891   4
   1   5  -5 37.7973 3.36890   2
   0   5  -5 70.5619 5.44394   2
   0   5  -5 77.0265 5.18867   9
   0   5  -5 73.4106 4.92989  10
   0   5  -5 68.9912 6.26887   4
   0   5  -5 70.9896 4.82722   8
   0   5  -5 78.3028 5.41894  11
  -1   5  -5 104.188 6.86963   9
  -1   5  -5 90.1646 7.20908  12
  -1   5  -5 97.9628 8.18783   4
  -1   5  -5 96.8782 7.16438   2
  -1   5  -5 105.190 6.71747  10
  -1   5  -5 114.089 7.34932  11
  -2   5  -5 35.7109 2.38709  10
  -2   5  -5 31.2641 3.02440  12
  -2   5  -5 30.7645 3.69954  18
  -2   5  -5 32.3737 2.50107   9
  -2   5  -5 26.4928 4.53743   4
  -2   5  -5 31.5370 3.66697  11
  -3   5  -5 41.0119 2.81931  10
  -3   5  -5 38.6908 4.39160  18
  -3   5  -5 42.1913 4.18301  11
  -3   5  -5 40.2947 3.76759  12
  -4   5  -5 0.80396 1.53963  12
  -4   5  -5 -0.6708 1.39614  11
  -4   5  -5 1.96163 1.75416  18
  -5   5  -5 31.8275 3.52054  11
  -5   5  -5 32.0262 3.86095  18
  -6   5  -5 12.6488 2.27113  11
  -6   5  -5 11.6553 2.80981  18
  -8  -4   5 19.6590 1.30152  15
  -8  -4   5 17.4567 1.35620  10
  -7  -4   5 2.86483 0.65650  15
  -7  -4   5 2.50511 0.52120   9
  -7  -4   5 1.41984 0.61064  10
  -6  -4   5 40.4399 3.04991   9
  -6  -4   5 33.1255 2.70965  10
  -6  -4   5 35.4231 2.66107  15
  -5  -4   5 139.407 8.87208   8
  -5  -4   5 138.001 9.49760   9
  -5  -4   5 137.577 9.20606  10
  -5  -4   5 132.902 10.9420   6
  -5  -4   5 135.439 9.02688  15
  -4  -4   5 -2.3009 7.61105   3
  -4  -4   5 0.91704 1.65326   9
  -4  -4   5 2.80952 1.14895   8
  -4  -4   5 -0.0897 1.67937   2
  -4  -4   5 1.16339 2.73853   6
  -3  -4   5 321.465 20.8115   6
  -3  -4   5 267.022 19.1522   8
   2   4  -5 79.1615 6.08719   4
   1   4  -5 561.289 35.8063   4
   1   4  -5 539.152 35.4220   2
   0   4  -5 176.448 12.0485   4
   0   4  -5 186.016 11.4729   2
   0   4  -5 162.652 11.7785   8
  -1   4  -5 124.659 8.21069   2
  -1   4  -5 125.115 7.74890  10
  -1   4  -5 121.749 9.08169   4
  -1   4  -5 115.370 8.17327  11
  -1   4  -5 112.858 7.64157   8
  -1   4  -5 112.532 7.86734   9
  -2   4  -5 235.150 16.2994   4
  -2   4  -5 222.975 16.0497  17
  -2   4  -5 245.655 14.7825  10
  -2   4  -5 224.524 15.7362  18
  -2   4  -5 227.759 15.4249  11
  -2   4  -5 236.996 15.2105  12
  -3   4  -5 7.35687 2.82020  17
  -3   4  -5 0.61659 0.85595  12
  -3   4  -5 -0.1805 1.74546   4
  -3   4  -5 1.34662 2.16329  18
  -3   4  -5 -0.4240 1.70784  11
  -3   4  -5 1.45011 0.48350  10
  -4   4  -5 67.2345 4.56533  10
  -4   4  -5 70.1979 5.35015  12
  -4   4  -5 74.9871 6.19553  18
  -4   4  -5 66.4349 6.83154  17
  -4   4  -5 66.4152 5.52913  11
  -5   4  -5 12.4392 3.75788  18
  -5   4  -5 9.75056 2.16340  12
  -5   4  -5 8.98762 2.98223  11
  -6   4  -5 19.0794 2.41783  12
  -6   4  -5 21.2333 3.74813  18
  -6   4  -5 22.4433 3.59459  11
  -7   4  -5 43.9792 4.89851  11
  -8  -3   5 -0.0675 0.21787  10
  -8  -3   5 -0.1233 0.55618  15
  -7  -3   5 33.1130 2.34464  15
  -7  -3   5 28.3924 2.22804   9
  -7  -3   5 33.7672 2.14469  10
  -6  -3   5 31.9009 2.57849  10
  -6  -3   5 32.5089 2.55916  15
  -6  -3   5 31.4463 2.61109   9
  -5  -3   5 15.0417 3.84899   6
  -5  -3   5 13.2111 2.54447   2
  -5  -3   5 14.7560 1.31209   8
  -5  -3   5 13.5559 1.47673  10
  -5  -3   5 13.8769 2.45122   9
  -5  -3   5 13.2419 1.84882  15
  -4  -3   5 313.985 21.6961  10
  -4  -3   5 368.101 23.4465   6
  -4  -3   5 349.015 22.5212   2
  -4  -3   5 307.995 21.9381   9
  -4  -3   5 349.412 29.6885   3
  -3  -3   5 20.1968 2.84867   2
  -3  -3   5 18.5115 4.17148   6
  -3  -3   5 21.1876 8.64262   3
  -2  -3   5 248.095 17.0462   2
  -2  -3   5 256.876 22.9891   3
   1   3  -5 358.789 29.6385   3
   1   3  -5 390.497 24.7318   4
   1   3  -5 365.402 22.2170   2
   0   3  -5 601.654 45.0070   3
   0   3  -5 620.090 37.4981   4
   0   3  -5 599.286 39.1034   2
  -1   3  -5 50.6603 4.40048   4
  -1   3  -5 48.6109 7.50892   3
  -1   3  -5 48.1401 3.66432   2
  -2   3  -5 183.870 12.3219   4
  -2   3  -5 157.271 14.4420   3
  -3   3  -5 270.295 17.9048   4
  -3   3  -5 238.481 17.3403  17
  -3   3  -5 256.072 16.6044  10
  -3   3  -5 277.524 16.5174  12
  -3   3  -5 239.762 17.1650  11
  -3   3  -5 268.123 17.1904  18
  -3   3  -5 246.241 16.4803   9
  -3   3  -5 258.502 16.5452   2
  -4   3  -5 9.60484 0.88123  10
  -4   3  -5 9.08879 2.44008  11
  -4   3  -5 4.75796 2.14017   4
  -4   3  -5 7.26581 1.46687  12
  -4   3  -5 8.84852 2.82632  18
  -4   3  -5 13.1540 2.43055  17
  -5   3  -5 34.6765 4.55110  11
  -5   3  -5 34.5577 3.56225  12
  -5   3  -5 27.6548 4.35996  18
  -6   3  -5 36.9067 4.19142  12
  -6   3  -5 23.8436 4.51025  18
  -6   3  -5 34.1177 4.28944  11
  -7   3  -5 13.1967 3.40640  11
  -7   3  -5 12.4682 2.81437  12
  -8  -2   5 15.6213 2.06297  14
  -8  -2   5 17.2589 1.46794  15
  -7  -2   5 25.8540 2.69017  14
  -7  -2   5 29.4722 2.09962  10
  -7  -2   5 32.5131 2.44797  15
  -6  -2   5 56.0837 3.84729  10
  -6  -2   5 51.9067 3.91229  16
  -6  -2   5 56.8379 3.79910   9
  -6  -2   5 54.3809 3.86506  15
  -6  -2   5 51.7810 4.56796  14
  -6  -2   5 52.1473 5.63386   6
  -5  -2   5 303.950 20.9596  10
  -5  -2   5 317.604 21.0623  16
  -5  -2   5 333.004 20.1538  15
  -5  -2   5 322.183 20.1703   9
  -5  -2   5 314.556 20.4333   8
  -5  -2   5 343.688 21.5026   6
  -5  -2   5 345.979 20.5335   2
  -5  -2   5 318.087 21.2318  14
  -5  -2   5 279.844 25.6191   3
  -4  -2   5 183.379 12.1518   6
  -4  -2   5 177.438 17.2168   3
  -4  -2   5 172.283 12.1953   8
  -4  -2   5 175.958 11.4634   2
  -3  -2   5 302.980 22.4168   6
  -3  -2   5 314.686 20.9317   2
  -3  -2   5 302.801 22.5426   3
   2   2  -5 1.34628 0.54221   1
  -2  -2   5 2.01250 1.04847   1
  -2  -2   5 0.95728 5.14703   3
  -2  -2   5 2.47756 1.39250   2
  -2  -2   5 2.52164 2.03244   6
   1   2  -5 799.542 51.9844   3
   1   2  -5 779.395 49.2511   4
   1   2  -5 746.601 48.9911   1
   1   2  -5 748.016 49.0411   1
   1   2  -5 800.066 48.3335   2
  -1  -2   5 723.320 49.1563   1
  -1  -2   5 727.242 49.4049   2
  -1  -2   5 717.366 44.8257   3
  -1  -2   5 698.334 49.1865   1
   0   2  -5 350.986 23.3237   3
   0   2  -5 301.715 19.5142   1
   0   2  -5 300.644 19.7949   4
   0   2  -5 313.900 21.5949   1
   0   2  -5 303.275 19.5411   2
   0  -2   5 320.598 21.8181   1
   0  -2   5 292.837 19.5744   1
  -1   2  -5 236.331 18.1999   3
  -1   2  -5 208.155 14.4403   2
  -1   2  -5 218.116 14.9555   4
  -2   2  -5 1524.41 96.8807   3
  -2   2  -5 1444.30 93.9913   2
  -2   2  -5 1475.55 100.385   5
  -2   2  -5 1550.38 94.7126   4
  -3   2  -5 116.047 10.5311   3
  -3   2  -5 127.924 8.83267   5
  -3   2  -5 136.163 8.55652   2
  -3   2  -5 147.267 10.1746   4
  -4   2  -5 250.496 16.2861  18
  -4   2  -5 227.355 16.0972  11
  -4   2  -5 240.365 15.7251  12
  -4   2  -5 254.256 17.2300   4
  -4   2  -5 225.296 15.5632  10
  -4   2  -5 240.545 16.1722  17
  -4   2  -5 241.074 15.4678  13
  -5   2  -5 169.162 11.5184  11
  -5   2  -5 153.308 12.8109   4
  -5   2  -5 166.729 11.0035  12
  -5   2  -5 149.081 12.3079  18
  -5   2  -5 174.662 10.7110  13
  -5   2  -5 154.024 11.8698  17
  -6   2  -5 39.8522 6.51187  18
  -6   2  -5 39.5012 4.31436  12
  -6   2  -5 37.0687 3.18299  13
  -6   2  -5 35.2921 4.46897  11
  -7   2  -5 60.3962 6.63899  11
  -7   2  -5 66.4684 6.05748  12
  -7   2  -5 63.8706 5.20374  13
  -8   2  -5 2.57959 2.02659  12
  -9  -1   5 8.91565 1.12650  15
  -8  -1   5 39.3741 2.83080  15
  -8  -1   5 36.8032 3.44907  14
  -7  -1   5 38.5881 3.78364  14
  -7  -1   5 37.6926 2.49746  10
  -7  -1   5 39.1379 2.86846  15
  -7  -1   5 35.8271 2.88618  16
  -6  -1   5 75.4301 4.77600  10
  -6  -1   5 76.3648 5.03159  15
  -6  -1   5 66.6163 5.42152  13
  -6  -1   5 72.1948 5.14617  16
  -6  -1   5 76.2323 5.94645  14
  -6  -1   5 72.2058 6.80259   6
  -5  -1   5 143.684 14.1698   3
  -5  -1   5 167.252 10.4192  10
  -5  -1   5 173.965 10.6246   2
  -5  -1   5 173.405 11.7761   6
  -5  -1   5 169.248 10.9225  15
  -5  -1   5 167.891 10.6045   9
  -5  -1   5 169.027 10.7361  16
  -5  -1   5 151.311 11.2626  13
  -5  -1   5 167.791 11.4774  14
  -4  -1   5 943.705 60.4310   6
  -4  -1   5 951.968 62.8622   3
  -4  -1   5 1009.30 65.8632   2
  -3  -1   5 165.943 12.0655   6
  -3  -1   5 166.240 11.6733   2
  -3  -1   5 198.618 15.0631   3
   2   1  -5 3185.52 192.339   1
   2   1  -5 3696.79 245.680   1
  -2  -1   5 3091.73 194.393   6
  -2  -1   5 3712.36 246.639   2
  -2  -1   5 3000.44 192.277   1
   1   1  -5 486.543 29.2569   1
   1   1  -5 500.565 32.1853   3
   1   1  -5 559.425 39.6211   2
   1   1  -5 581.528 37.3415   1
  -1  -1   5 534.090 39.9067   6
  -1  -1   5 554.277 38.1002   2
  -1  -1   5 578.812 37.3727   1
  -1  -1   5 596.493 37.3530   1
  -1  -1   5 522.736 32.1620   3
   0   1  -5 402.047 24.9545   1
   0   1  -5 409.623 28.7876   4
   0   1  -5 395.715 28.1064   3
   0   1  -5 387.410 24.9731   1
   0   1  -5 392.753 25.0542   2
   0  -1   5 400.156 28.6723   2
   0  -1   5 380.893 24.9487   1
   0  -1   5 399.022 24.9294   1
   0  -1   5 443.173 28.3766   3
  -1   1  -5 181.807 12.6974   4
  -1   1  -5 200.621 16.6664   3
   1  -1   5 187.769 12.1477   1
   1  -1   5 180.713 12.1995   1
  -2   1  -5 3.10946 0.72121   2
  -2   1  -5 2.00274 1.24157   4
  -2   1  -5 3.93138 4.86828   3
  -2   1  -5 3.02368 0.81617   5
   2  -1   5 2.83126 0.66075   1
  -3   1  -5 377.032 25.2169   5
  -3   1  -5 404.424 26.0555   4
  -3   1  -5 382.057 25.0233   2
  -3   1  -5 400.879 28.1522   3
  -4   1  -5 273.975 19.0227  10
  -4   1  -5 285.315 19.0718   5
  -4   1  -5 307.667 19.4367  11
  -4   1  -5 312.738 20.1927   4
  -4   1  -5 302.804 19.6520  18
  -4   1  -5 281.988 19.3953  12
  -5   1  -5 309.107 19.0515  13
  -5   1  -5 299.883 19.9327  11
  -5   1  -5 296.556 20.6710   4
  -5   1  -5 279.168 18.6941  10
  -5   1  -5 279.946 19.4812   5
  -5   1  -5 300.250 19.3597  12
  -6   1  -5 153.579 10.9870  12
  -6   1  -5 159.927 10.5295  13
  -6   1  -5 141.727 13.0187  18
  -6   1  -5 177.106 11.7185  11
  -7   1  -5 47.4990 4.59330  12
  -7   1  -5 49.1153 3.83935  13
  -7   1  -5 43.6717 5.13913  11
  -8   1  -5 34.5228 2.98258  13
  -8   1  -5 24.5130 3.48515  12
  -8   0   5 80.5772 6.46086  14
  -8   0   5 103.480 6.34992  15
  -7   0   5 1.17565 1.51648  15
  -7   0   5 3.88756 2.49958  14
  -7   0   5 0.67927 0.80082  16
  -6   0   5 11.2615 1.55993  15
  -6   0   5 13.1192 1.01829  10
  -6   0   5 13.6436 2.83213  14
  -6   0   5 12.1896 1.59617  16
  -6   0   5 11.0467 2.03632  13
  -6   0   5 11.8076 3.45721   6
  -5   0   5 297.734 19.3425   2
  -5   0   5 260.837 19.5548  13
  -5   0   5 303.922 19.4659  16
  -5   0   5 291.703 19.2395   9
  -5   0   5 307.293 19.4635  15
  -5   0   5 318.178 19.6968   6
  -5   0   5 313.954 19.6046  14
  -5   0   5 303.051 19.2794  10
  -4   0   5 47.4447 4.23963   6
  -4   0   5 45.2751 3.16842   2
  -4   0   5 40.5178 5.53266   3
  -3   0   5 542.299 39.9676   7
  -3   0   5 575.979 35.1480   3
  -3   0   5 613.917 39.2350   2
  -3   0   5 621.664 39.7884   6
   2   0  -5 121.255 7.93285   1
  -2   0   5 116.509 8.36503   6
  -2   0   5 127.703 8.01322   2
  -2   0   5 115.683 7.84691   1
   1   0  -5 1163.98 75.4590   1
   1   0  -5 1196.05 79.3462   3
  -1   0   5 1207.75 76.1052   2
  -1   0   5 1000.24 58.8203   1
  -1   0   5 1131.01 78.8673   6
  -1   0   5 1159.83 75.7249   1
   0   0  -5 1224.81 84.0084   3
   0   0  -5 1265.95 81.2581   1
   0   0  -5 1353.04 92.1069   2
   0   0  -5 1409.42 81.5755   1
   0   0  -5 1275.98 92.1248   4
   0   0   5 1416.20 82.7346   3
   0   0   5 1354.50 91.9097   2
   0   0   5 1319.71 91.9858   6
   0   0   5 1288.68 80.9621   1
   0   0   5 1393.03 81.1355   1
  -1   0  -5 97.6228 6.67673   2
  -1   0  -5 101.457 6.46806   1
  -1   0  -5 101.215 6.63300   1
  -1   0  -5 97.0211 6.93129   4
  -1   0  -5 102.070 11.6385   3
   1   0   5 83.1076 6.62165   2
   1   0   5 102.769 6.57065   1
   1   0   5 104.167 6.45305   1
   1   0   5 91.6435 9.35516   3
  -2   0  -5 642.652 43.0075   3
  -2   0  -5 581.437 38.6038   4
  -2   0  -5 610.170 38.3603   2
  -2   0  -5 613.871 38.2818   5
  -2   0  -5 580.523 38.1167   1
  -2   0  -5 585.408 40.3144   1
   2   0   5 586.131 38.8927   1
   2   0   5 631.193 38.1533   1
  -3   0  -5 4.94199 0.84506   2
  -3   0  -5 4.96896 1.09680   5
  -3   0  -5 3.41787 1.00535   4
  -3   0  -5 5.93922 6.48320   3
  -4   0  -5 615.127 39.1585   4
  -4   0  -5 619.586 38.4334   5
  -4   0  -5 614.540 47.2669   3
  -4   0  -5 599.150 38.0442   2
  -5   0  -5 228.615 15.3278   5
  -5   0  -5 221.252 15.0434  12
  -5   0  -5 235.023 15.6726  11
  -5   0  -5 222.064 15.4108  14
  -5   0  -5 231.446 14.8208  13
  -5   0  -5 229.246 14.5749  10
  -6   0  -5 180.167 12.8703  12
  -6   0  -5 181.938 13.6220  14
  -6   0  -5 183.583 12.0821  10
  -6   0  -5 210.112 13.4597  11
  -6   0  -5 187.724 12.4033  13
  -7   0  -5 68.8100 5.77561  12
  -7   0  -5 69.3230 7.16270  14
  -7   0  -5 68.7666 4.98602  13
  -8   0  -5 1.50675 1.09708  13
  -8   0  -5 1.14463 1.71081  12
  -8   0  -5 1.23216 3.61374  14
  -8   1   5 2.39567 0.90725  16
  -8   1   5 3.10213 1.23229  15
  -8   1   5 3.92076 1.54252  14
  -7   1   5 89.1000 6.91672  14
  -7   1   5 92.8136 6.42664  16
  -7   1   5 104.399 6.70928  15
  -6   1   5 94.7430 7.26222  13
  -6   1   5 89.2271 8.72167   6
  -6   1   5 102.104 6.76692  16
  -6   1   5 116.965 7.79332  14
  -6   1   5 106.638 6.92306  15
  -6   1   5 99.5716 6.36662  10
  -5   1   5 82.4508 5.39884  10
  -5   1   5 81.9737 7.14424   6
  -5   1   5 82.6756 5.68384  16
  -5   1   5 93.8011 6.58586  14
  -5   1   5 74.7768 5.99827  13
  -5   1   5 88.6001 5.76328  15
  -4   1   5 622.554 40.0925   2
  -4   1   5 620.346 41.5544   7
  -4   1   5 622.267 38.3877   6
  -3   1   5 33.6438 2.66055   7
  -3   1   5 35.0734 3.53105   6
  -3   1   5 34.8502 2.54491   2
  -3   1   5 39.3656 4.79039   3
   2  -1  -5 942.180 59.4236   1
   2  -1  -5 821.080 49.3712   1
  -2   1   5 922.676 59.8055   2
  -2   1   5 913.662 59.8902   7
  -2   1   5 898.577 59.3004   1
  -2   1   5 897.943 59.3153   1
  -2   1   5 964.812 59.7904   6
   1  -1  -5 3.56528 0.79745   2
   1  -1  -5 3.65768 0.85294   1
   1  -1  -5 3.73614 0.59948   1
   1  -1  -5 2.82875 3.92733   3
  -1   1   5 3.89686 2.99995   3
  -1   1   5 3.76072 0.78651   2
  -1   1   5 3.52471 1.03524   6
  -1   1   5 3.61833 0.55043   1
  -1   1   5 3.25078 0.72255   1
   0  -1  -5 244.082 14.8523   1
   0  -1  -5 220.840 14.9251   2
   0  -1  -5 244.332 19.2827   3
   0  -1  -5 235.381 14.8479   1
   0   1   5 231.215 14.8431   1
   0   1   5 210.982 14.9057   2
   0   1   5 228.048 15.0265   6
  -1  -1  -5 2433.73 150.345   3
  -1  -1  -5 2246.16 160.110   4
  -1  -1  -5 2178.53 141.072   1
  -1  -1  -5 2127.90 147.935   2
  -1  -1  -5 2250.15 141.028   1
   1   1   5 2177.89 159.080   2
   1   1   5 2338.28 141.171   1
   1   1   5 2422.54 142.807   3
   1   1   5 2306.35 141.133   1
  -2  -1  -5 233.087 15.4645   4
  -2  -1  -5 238.148 15.1704   5
  -2  -1  -5 228.152 15.0562   1
  -2  -1  -5 220.308 15.0146   1
  -2  -1  -5 240.705 15.1498   2
  -2  -1  -5 246.834 19.5526   3
   2   1   5 231.866 15.0701   1
   2   1   5 232.291 15.0534   1
  -3  -1  -5 824.068 56.6948   3
  -3  -1  -5 835.324 52.0766   2
  -3  -1  -5 952.108 62.9804   5
  -4  -1  -5 47.0777 3.50011   2
  -4  -1  -5 42.4656 10.7300   3
  -4  -1  -5 47.6328 3.82510   5
  -5  -1  -5 636.636 42.1441   9
  -5  -1  -5 651.222 42.3143  13
  -5  -1  -5 693.566 43.0709  11
  -5  -1  -5 647.463 42.5934  12
  -5  -1  -5 662.023 42.1645  10
  -5  -1  -5 670.254 42.3173   2
  -5  -1  -5 681.787 42.7859  14
  -6  -1  -5 53.4486 4.00926  13
  -6  -1  -5 57.0930 5.72647  11
  -6  -1  -5 59.3220 4.78899  12
  -6  -1  -5 48.0646 4.57891   5
  -6  -1  -5 50.0927 3.52880  10
  -6  -1  -5 52.3305 4.75352  14
  -7  -1  -5 53.1168 4.31555  13
  -7  -1  -5 52.7717 6.02516  14
  -7  -1  -5 57.7760 5.35253  12
  -8  -1  -5 38.5198 2.98525  13
  -8  -1  -5 33.4912 3.60199  12
  -8  -1  -5 35.6102 3.95637  14
  -9  -1  -5 10.2799 1.37414  13
  -8   2   5 57.6039 3.94094  16
  -8   2   5 54.3428 4.27698  15
  -7   2   5 24.8449 2.20507  16
  -7   2   5 26.0651 3.58652  14
  -7   2   5 21.0440 2.48114  15
  -6   2   5 85.8461 5.89032  16
  -6   2   5 82.8665 5.81374  15
  -6   2   5 81.1492 6.52543  14
  -5   2   5 140.499 9.16604  16
  -5   2   5 118.765 9.27672  13
  -5   2   5 136.867 10.6845   6
  -5   2   5 156.966 9.92810  14
  -5   2   5 140.423 9.12272  17
  -5   2   5 134.041 9.16870  15
  -5   2   5 138.255 8.77923  10
  -4   2   5 57.9112 5.32860  14
  -4   2   5 66.0336 5.86691   6
  -4   2   5 64.5275 4.08417  10
  -4   2   5 63.4738 4.53222  15
  -4   2   5 63.0513 4.67957   7
  -4   2   5 59.7761 4.38933  16
  -3   2   5 34.4761 4.58514   3
  -3   2   5 30.4959 3.63973   6
  -3   2   5 33.3625 2.32829   2
  -3   2   5 32.2270 2.80830   7
   2  -2  -5 322.254 21.8024   1
  -2   2   5 341.119 21.8346   2
  -2   2   5 332.510 21.9996   7
  -2   2   5 359.903 23.8882   3
  -2   2   5 350.556 22.3836   6
   1  -2  -5 190.768 12.2404   1
   1  -2  -5 193.506 12.2623   1
  -1   2   5 186.919 12.2771   1
  -1   2   5 189.020 12.9542   7
  -1   2   5 185.522 11.9452   6
  -1   2   5 189.411 12.3300   2
   0  -2  -5 219.236 19.2081   3
   0  -2  -5 218.211 15.7818   2
   0  -2  -5 241.442 14.9719   1
   0  -2  -5 247.070 14.9429   1
   0   2   5 235.300 15.0159   2
   0   2   5 231.879 14.9258   1
   0   2   5 226.015 14.9389   1
   0   2   5 251.966 17.5551   3
  -1  -2  -5 48.2990 3.40469   1
  -1  -2  -5 49.5586 3.38776   1
  -1  -2  -5 48.9153 9.14828   3
  -1  -2  -5 50.5661 3.90078   2
   1   2   5 48.2328 3.40323   1
   1   2   5 49.1667 3.42593   1
   1   2   5 49.9392 3.89364   2
   1   2   5 49.4670 6.32918   3
  -2  -2  -5 2262.19 146.114   5
  -2  -2  -5 2280.52 145.951   1
  -2  -2  -5 2192.75 145.680   1
  -2  -2  -5 2343.98 153.682   3
  -2  -2  -5 2327.04 146.552   2
   2   2   5 2433.68 146.031   1
   2   2   5 2199.50 144.976   2
   2   2   5 2164.40 148.034   3
   2   2   5 2328.68 145.659   1
  -3  -2  -5 229.001 14.8399   5
  -3  -2  -5 229.047 14.8471   2
  -3  -2  -5 221.992 20.0919   3
  -4  -2  -5 3697.00 258.565   3
  -4  -2  -5 4076.34 252.621   2
  -4  -2  -5 4077.19 252.799   5
  -5  -2  -5 32.9214 3.28936  14
  -5  -2  -5 19.9408 11.4848   3
  -5  -2  -5 29.6101 2.40911  13
  -5  -2  -5 27.9304 2.43899   9
  -5  -2  -5 29.5657 3.35180   5
  -5  -2  -5 29.6795 3.32004  12
  -5  -2  -5 30.1020 2.17397  10
  -5  -2  -5 31.5827 2.74784   2
  -6  -2  -5 141.497 10.1653   2
  -6  -2  -5 158.629 9.94841  13
  -6  -2  -5 165.158 10.6827  14
  -6  -2  -5 137.224 10.7571  12
  -6  -2  -5 162.373 9.72983  10
  -6  -2  -5 149.423 9.68204   9
  -6  -2  -5 142.993 10.8393   5
  -7  -2  -5 25.7747 1.93428  10
  -7  -2  -5 24.7960 3.49367  14
  -7  -2  -5 23.7679 3.92973  12
  -7  -2  -5 27.2950 2.67256  13
  -8  -2  -5 0.84168 2.46517  14
  -8  -2  -5 0.86051 0.95182  13
  -9  -2  -5 18.4016 2.03521  13
  -9  -2  -5 18.4148 2.95658  14
  -8   3   5 2.15783 0.61668  16
  -8   3   5 -0.4745 1.11774  15
  -7   3   5 14.3366 2.07582  16
  -7   3   5 11.9742 2.57524  15
  -6   3   5 60.5555 5.15485  15
  -6   3   5 65.2450 4.87938  16
  -6   3   5 70.6189 6.13909  14
  -5   3   5 74.9299 7.62661   6
  -5   3   5 85.9270 6.12696  15
  -5   3   5 85.6405 5.83137  17
  -5   3   5 84.9183 5.92460  16
  -5   3   5 94.2110 7.10110  14
  -4   3   5 250.157 15.9528  10
  -4   3   5 253.494 16.3005  16
  -4   3   5 228.697 16.2774  15
  -4   3   5 255.190 17.5513   6
  -4   3   5 254.264 16.5391   7
  -4   3   5 257.450 16.5181  14
  -4   3   5 247.667 16.2372  17
  -3   3   5 18.7236 1.41078   2
  -3   3   5 16.8742 3.38089   6
  -3   3   5 18.9459 2.13470   7
  -2   3   5 303.018 19.5159   7
  -2   3   5 305.099 19.2146   2
  -2   3   5 287.130 20.0082   6
  -1   3   5 109.858 7.94662   7
  -1   3   5 111.548 7.75406   2
  -1   3   5 128.973 10.8377   3
   0  -3  -5 12.0909 1.23584   1
   0   3   5 10.9299 1.25080   1
  -1  -3  -5 885.594 59.0126   5
  -1  -3  -5 893.944 58.7490   1
  -1  -3  -5 923.816 58.8199   1
  -1  -3  -5 918.280 63.6348   3
  -1  -3  -5 893.182 60.7245   2
   1   3   5 977.003 58.8031   1
   1   3   5 904.773 58.8000   1
   1   3   5 908.118 58.8758   2
   1   3   5 1040.73 62.2002   3
   1   3   5 909.851 58.8264   7
  -2  -3  -5 169.968 10.9301   5
  -2  -3  -5 168.126 11.1634   2
  -2  -3  -5 167.117 17.5021   3
  -2  -3  -5 157.266 10.9819   1
   2   3   5 172.151 11.0398   1
   2   3   5 157.918 10.9279   7
  -3  -3  -5 906.156 56.6167   5
  -3  -3  -5 913.677 56.8042   2
  -3  -3  -5 866.129 64.1226   3
  -5  -3  -5 190.416 12.6471   2
  -5  -3  -5 199.279 12.0579  10
  -5  -3  -5 189.546 12.2177   9
  -5  -3  -5 182.055 12.6906  13
  -5  -3  -5 199.772 21.5196   3
  -5  -3  -5 174.056 12.4914   8
  -5  -3  -5 185.398 12.6695   5
  -5  -3  -5 185.723 12.5759  14
  -6  -3  -5 444.873 27.8579  13
  -6  -3  -5 369.087 28.3669  12
  -6  -3  -5 464.102 27.8150   9
  -6  -3  -5 403.250 28.5095   5
  -6  -3  -5 452.941 27.7451  10
  -6  -3  -5 461.415 28.3826  14
  -7  -3  -5 23.4062 3.00014  14
  -7  -3  -5 24.2273 1.92069  10
  -7  -3  -5 24.3012 2.35957  13
  -8  -3  -5 71.3839 4.88622  10
  -8  -3  -5 78.6112 5.82984  14
  -9  -3  -5 -0.9326 1.54993  14
  -7   4   5 10.2449 2.22762  16
  -6   4   5 88.0915 6.04412  16
  -6   4   5 77.3861 6.41483  15
  -5   4   5 10.4241 2.21106  16
  -5   4   5 7.44902 2.43016  15
  -5   4   5 9.54496 2.09542  18
  -4   4   5 25.3652 2.67192  15
  -4   4   5 24.0095 3.23530   7
  -4   4   5 25.6326 2.75883  16
  -4   4   5 22.5031 3.08396  18
  -4   4   5 25.2920 1.67366  10
  -4   4   5 23.5710 2.39471  17
  -3   4   5 332.806 21.1708  15
  -3   4   5 326.944 21.0323  16
  -3   4   5 318.219 21.6699  18
  -3   4   5 328.501 21.0003  17
  -3   4   5 323.731 20.7306  10
  -3   4   5 330.522 21.5025   7
  -2   4   5 11.3502 1.00791  10
  -2   4   5 10.2944 2.00617   7
  -2   4   5 10.8468 1.38946   2
  -1   4   5 362.051 23.4816   7
  -1   4   5 358.259 23.2592   2
  -1   4   5 359.855 26.6985   3
   0   4   5 542.712 39.8792   3
   0   4   5 561.802 35.0512   7
   0   4   5 569.875 36.3643   2
   1   4   5 497.074 31.9535   2
   1   4   5 485.134 35.7920   3
   1   4   5 503.543 31.8996   7
  -3  -4  -5 42.4667 3.36163   5
  -3  -4  -5 40.8622 3.73460   2
  -4  -4  -5 375.094 25.4771   8
  -4  -4  -5 413.359 24.4920   5
  -4  -4  -5 415.676 24.7550   2
  -4  -4  -5 362.044 35.1248   3
  -4  -4  -5 377.613 25.7352   9
  -5  -4  -5 33.1679 2.76603  10
  -5  -4  -5 34.5712 3.86553  14
  -5  -4  -5 37.2771 3.59580   5
  -5  -4  -5 35.4353 3.66348   2
  -5  -4  -5 41.9392 3.18909   9
  -5  -4  -5 42.2910 13.4313   3
  -6  -4  -5 10.4589 2.45934  14
  -6  -4  -5 8.96131 1.38790  10
  -7  -4  -5 37.7533 4.15767  14
  -7  -4  -5 32.1107 3.10342   9
  -7  -4  -5 37.7793 2.74661  10
  -8  -4  -5 1.08055 0.63608  10
  -8  -4  -5 -0.2046 2.22190  14
  -5   5   5 17.2065 2.39463  18
  -5   5   5 20.9812 2.46540  16
  -4   5   5 73.5942 5.46250  17
  -4   5   5 73.4009 4.80902  10
  -4   5   5 76.1526 5.77564  16
  -4   5   5 77.4777 5.90572  18
  -3   5   5 16.2231 2.84941  18
  -3   5   5 19.5134 2.67364  16
  -3   5   5 9.12102 1.97097  17
  -3   5   5 13.2497 1.26821  10
  -2   5   5 164.354 10.9839  18
  -2   5   5 157.718 10.6231   2
  -2   5   5 157.364 10.6293  17
  -2   5   5 154.825 10.3830   9
  -2   5   5 161.792 11.3160   7
  -2   5   5 160.063 10.7894  16
  -2   5   5 164.181 10.2358  10
  -1   5   5 239.812 20.8406   3
  -1   5   5 239.586 16.3599  18
  -1   5   5 271.278 15.8076   2
  -1   5   5 221.331 16.2169  16
  -1   5   5 247.446 16.1037  17
  -1   5   5 256.053 15.6033  10
  -1   5   5 242.216 16.0248   9
  -1   5   5 228.513 15.7871   8
  -1   5   5 261.186 16.0872   7
   0   5   5 170.673 12.5890   8
   0   5   5 210.494 12.7688   7
   0   5   5 189.735 17.9257   3
   0   5   5 208.154 12.6856   2
   0   5   5 187.706 12.8231   9
   1   5   5 487.772 28.9823   7
   1   5   5 481.006 29.1047   2
   1   5   5 415.941 33.7935   3
   1   5   5 397.581 28.3721   8
  -3  -5  -5 175.461 11.4479   8
  -4  -5  -5 14.2811 2.32225   9
  -5  -5  -5 116.313 7.91600   9
  -5  -5  -5 111.049 8.10005  14
  -6  -5  -5 48.3515 3.65335  10
  -6  -5  -5 54.7145 3.80642   9
  -6  -5  -5 48.4412 4.22406  14
  -6  -5  -5 45.3314 4.17285  15
  -7  -5  -5 8.52875 1.06228  10
  -7  -5  -5 10.4613 1.86803  14
  -8  -5  -5 31.9502 2.98014  14
  -8  -5  -5 30.1448 2.30085  10
  -5   6   5 35.3793 3.50403  18
  -4   6   5 2.56470 1.53331  18
  -4   6   5 2.55516 2.07470  16
  -3   6   5 46.3608 4.72881  16
  -3   6   5 47.7123 4.54903  18
  -3   6   5 45.3692 3.16193  10
  -2   6   5 0.04581 1.97782  18
  -2   6   5 -0.1420 1.78255  16
  -2   6   5 0.78779 0.67772  10
  -2   6   5 -1.1740 0.75043   9
  -1   6   5 8.64921 1.78038  17
   0   6   5 97.2614 6.92304  18
   0   6   5 92.0413 6.43680   9
   0   6   5 96.1175 6.18682  10
   0   6   5 89.5894 6.87663   2
   0   6   5 90.1735 5.97698   8
   0   6   5 82.7845 12.4038   3
   0   6   5 87.5366 7.03888   7
   1   6   5 186.884 12.2457   8
   1   6   5 193.993 13.2455   2
   1   6   5 187.816 12.6411   9
   2   6   5 132.159 8.70473   8
  -5  -6  -5 81.6994 6.16643  14
  -6  -6  -5 53.4549 4.24147  14
  -6  -6  -5 49.5187 4.19129  15
  -6  -6  -5 56.8441 3.85007  10
  -7  -6  -5 37.4752 3.11112  14
  -4   7   5 54.7568 4.73563  18
  -3   7   5 1.94315 0.46176  10
  -3   7   5 5.17606 1.69633  18
  -2   7   5 139.060 9.47603  18
  -2   7   5 137.629 9.36762  10
  -1   7   5 17.8893 3.57598  18
  -1   7   5 17.9064 2.03335   9
  -1   7   5 11.8878 1.81495  10
   0   7   5 367.377 24.2641  18
   0   7   5 371.199 23.7429  10
   0   7   5 370.530 23.8603   9
   1   7   5 39.6364 4.26350  18
   1   7   5 45.2647 3.93324   9
   2   7   5 23.8961 3.31826  18
  -6  -7  -5 31.2263 2.77609  15
  -3   8   5 40.0860 3.62111  18
  -2   8   5 18.5797 3.10893  18
  -1   8   5 72.3466 5.76220  18
   0   8   5 13.2737 1.40762  10
   0   8   5 16.0590 2.78081  18
   1   8   5 47.9496 4.16989  11
   1   8   5 47.4755 3.87421  18
   2   8   5 88.4158 6.63345  18
   0   9   5 12.1154 1.93526  18
   2   8  -6 10.8001 1.36372  11
   1   8  -6 0.17315 0.31098  10
   1   8  -6 0.13443 0.44048   9
   1   8  -6 -0.0270 0.49675  11
   0   8  -6 14.6304 1.44454  11
   0   8  -6 15.1541 1.13531  10
   5   7  -6 3.31134 0.43383   8
  -5  -7   6 2.44495 0.46388   8
   4   7  -6 17.5349 1.56222  11
   4   7  -6 18.0820 1.44741   8
  -4  -7   6 16.7788 1.40989   8
   3   7  -6 31.4858 2.06557   8
   3   7  -6 25.9260 2.18846  11
   2   7  -6 0.62195 0.91875   9
   2   7  -6 0.29580 0.45572   8
   2   7  -6 0.01971 1.05366  11
   1   7  -6 63.8417 4.37158   9
   1   7  -6 62.0582 4.36314  11
   1   7  -6 57.0030 4.10323  10
   0   7  -6 9.76126 2.02156  11
   0   7  -6 8.86652 1.02436  10
  -1   7  -6 41.8805 3.45715  11
  -1   7  -6 44.1855 2.99178  10
  -2   7  -6 18.1408 2.13993  11
  -2   7  -6 21.9442 1.50477  10
  -3   7  -6 11.2102 1.44281  11
  -6  -6   6 27.0331 2.22161   9
  -6  -6   6 22.4839 1.93745  15
  -5  -6   6 83.1956 5.81523  15
  -5  -6   6 87.9347 6.12700   9
  -5  -6   6 85.6511 5.45083   8
   4   6  -6 20.5515 1.72071   8
   3   6  -6 0.73863 0.50784   8
  -3  -6   6 -2.2213 1.54078   8
   2   6  -6 80.9853 5.42013  11
   2   6  -6 78.6109 5.31807   8
   2   6  -6 78.7475 5.61945   9
   1   6  -6 27.1304 2.44072  11
   1   6  -6 27.5344 2.02262   8
   1   6  -6 28.4230 2.54623   9
   0   6  -6 112.504 7.50215  10
   0   6  -6 119.823 7.67894   9
   0   6  -6 104.853 8.15855  12
   0   6  -6 119.926 7.94150  11
  -1   6  -6 4.43675 0.89583   9
  -1   6  -6 4.27757 0.76477  10
  -1   6  -6 2.52293 1.25138  12
  -1   6  -6 4.61794 1.54090  11
  -2   6  -6 25.2489 1.82564  10
  -2   6  -6 23.2687 2.55092  11
  -3   6  -6 28.1106 2.77424  11
  -3   6  -6 22.1461 3.38434  18
  -3   6  -6 25.2486 1.76508  10
  -4   6  -6 4.49351 2.34252  18
  -4   6  -6 3.38285 2.07193  11
  -7  -5   6 2.21309 0.46582   9
  -7  -5   6 2.28823 0.39966  10
  -7  -5   6 2.19842 0.76164  15
  -6  -5   6 30.0324 2.19620  15
  -6  -5   6 29.9512 2.37891   9
  -6  -5   6 32.0079 2.23600  10
  -5  -5   6 8.50922 1.91061   9
  -5  -5   6 7.69000 1.56692  15
  -5  -5   6 8.38025 1.31934   8
   3   5  -6 219.680 12.3383   8
  -3  -5   6 182.626 12.7110   8
  -3  -5   6 169.738 14.6617   6
   2   5  -6 2.62637 1.08174   4
   2   5  -6 5.40168 0.75124   8
   1   5  -6 152.423 11.3151   2
   1   5  -6 176.682 10.7577   8
   1   5  -6 167.813 11.9949   4
   1   5  -6 167.562 11.0241   9
   0   5  -6 3.24156 0.69170  10
   0   5  -6 3.22250 0.98071   9
   0   5  -6 3.63901 1.38310   4
   0   5  -6 2.31081 1.02897   2
   0   5  -6 3.91565 0.56534   8
   0   5  -6 2.70764 1.18698  11
  -1   5  -6 165.081 11.6950  12
  -1   5  -6 175.571 11.4195   9
  -1   5  -6 175.421 11.0692  10
  -1   5  -6 160.553 12.6450   4
  -1   5  -6 183.013 11.5241  11
  -2   5  -6 143.301 8.79298  10
  -2   5  -6 138.482 9.29899  11
  -2   5  -6 125.423 9.42930  12
  -2   5  -6 139.850 8.77152   9
  -2   5  -6 120.530 9.44302  18
  -3   5  -6 99.8440 7.41570  11
  -3   5  -6 103.771 6.62382  10
  -3   5  -6 101.040 7.59180  12
  -3   5  -6 100.325 7.81436  18
  -4   5  -6 30.6863 4.50250  18
  -4   5  -6 32.0282 3.18791  11
  -4   5  -6 30.5272 2.96921  12
  -5   5  -6 -1.2997 1.48075  12
  -5   5  -6 -0.0835 1.67346  18
  -5   5  -6 1.05020 1.32487  11
  -6   5  -6 18.4404 3.23357  11
  -8  -4   6 12.7436 1.20519  15
  -8  -4   6 11.8066 0.89863  10
  -7  -4   6 35.5333 2.35176   9
  -7  -4   6 35.5901 2.51282  15
  -7  -4   6 34.0237 2.42982  10
  -6  -4   6 1.01418 0.57553  10
  -6  -4   6 3.47867 0.95559   9
  -6  -4   6 -0.0198 0.80720  15
  -5  -4   6 45.5776 3.07899   8
  -5  -4   6 41.3345 3.79849   9
  -5  -4   6 42.4363 3.28383  15
  -4  -4   6 143.763 10.5718   9
  -4  -4   6 161.541 12.0228   6
   3   4  -6 24.5283 2.76975   4
  -3  -4   6 24.6437 4.68820   6
  -3  -4   6 23.7508 2.63178   8
   2   4  -6 165.950 10.6463   8
  -2  -4   6 163.559 12.5254   6
   1   4  -6 35.1565 3.65907   4
   1   4  -6 32.9839 2.49980   8
   1   4  -6 35.0703 3.09108   2
   0   4  -6 294.508 19.9964   9
   0   4  -6 311.377 20.1492   4
   0   4  -6 298.818 19.1568  10
   0   4  -6 335.209 19.6967   2
   0   4  -6 293.438 19.3695  11
   0   4  -6 294.317 20.5433   8
  -1   4  -6 22.9063 2.62124  11
  -1   4  -6 26.3623 2.49007   2
  -1   4  -6 24.9427 1.76060   8
  -1   4  -6 24.5036 1.93178  10
  -1   4  -6 21.8082 2.20229   9
  -1   4  -6 26.5006 3.45397   4
  -2   4  -6 156.780 11.1632  18
  -2   4  -6 164.870 11.0039  11
  -2   4  -6 155.675 10.7605   2
  -2   4  -6 162.422 10.5022   9
  -2   4  -6 167.602 10.4081  10
  -2   4  -6 153.991 10.8993  12
  -2   4  -6 160.104 12.0540   4
  -3   4  -6 193.646 12.6636  18
  -3   4  -6 178.603 12.7119  11
  -3   4  -6 190.681 12.3744  12
  -3   4  -6 172.167 13.9921   4
  -3   4  -6 188.668 12.0798  10
  -4   4  -6 0.09824 1.43178  12
  -4   4  -6 -0.4065 2.57056  18
  -4   4  -6 -1.0959 1.49209  11
  -4   4  -6 -0.0002 0.34972  10
  -5   4  -6 64.5969 6.07889  18
  -5   4  -6 65.2246 5.61502  12
  -5   4  -6 71.6533 5.85405  11
  -6   4  -6 2.22113 2.26046  12
  -6   4  -6 1.44489 3.34503  18
  -6   4  -6 3.55812 2.18131  11
  -8  -3   6 24.2257 1.77999  15
  -7  -3   6 1.62512 0.49557  10
  -7  -3   6 1.45675 0.79274  15
  -6  -3   6 43.8633 3.19101   9
  -6  -3   6 44.9156 3.19037  10
  -6  -3   6 40.8244 3.23186  16
  -6  -3   6 45.2757 3.21011  15
  -5  -3   6 151.362 9.94385  15
  -5  -3   6 149.712 11.3531   6
  -5  -3   6 144.842 10.4717   2
  -5  -3   6 158.818 10.1437   9
  -5  -3   6 154.824 9.72999   8
  -5  -3   6 147.765 9.97228  10
  -4  -3   6 40.5060 2.89577   8
  -4  -3   6 43.4334 4.87601   6
  -4  -3   6 38.4857 2.98278  15
  -4  -3   6 40.8950 4.13171   2
  -4  -3   6 37.2218 3.70805   9
  -4  -3   6 30.8552 9.49431   3
  -3  -3   6 337.790 29.0096   3
  -3  -3   6 316.370 22.0463   8
  -3  -3   6 344.639 22.3266   6
  -3  -3   6 335.328 22.8118   2
   2   3  -6 1.05761 0.58986   4
  -2  -3   6 1.39457 1.69973   6
   1   3  -6 617.325 49.3925   3
   1   3  -6 701.079 42.9537   4
   1   3  -6 696.232 42.1035   2
   0   3  -6 117.444 13.9436   3
   0   3  -6 138.904 8.66669   2
   0   3  -6 131.748 8.99353   4
  -1   3  -6 432.056 27.8423   4
  -1   3  -6 436.931 27.2796   2
  -1   3  -6 411.935 33.1710   3
  -2   3  -6 186.155 12.4435   4
  -2   3  -6 144.711 15.2172   3
  -2   3  -6 170.419 11.2217  12
  -2   3  -6 151.066 10.8716   9
  -2   3  -6 171.027 10.7835  10
  -2   3  -6 165.133 11.3011  11
  -2   3  -6 182.484 11.2532   2
  -3   3  -6 97.1886 8.30523   4
  -3   3  -6 93.1778 7.44826  18
  -3   3  -6 92.8017 6.41619   2
  -3   3  -6 91.5966 6.25996   9
  -3   3  -6 100.835 6.17705  10
  -3   3  -6 98.7787 6.77928  12
  -3   3  -6 96.3854 7.34181  11
  -3   3  -6 88.2522 7.70675  17
  -4   3  -6 126.546 9.78896  18
  -4   3  -6 120.472 10.8893   4
  -4   3  -6 131.210 8.34463  10
  -4   3  -6 142.069 9.74126  11
  -4   3  -6 127.370 8.97493  12
  -5   3  -6 1.08606 2.37880  18
  -5   3  -6 1.83166 2.60229  11
  -5   3  -6 2.08904 1.29514  12
  -6   3  -6 45.4201 4.28079  12
  -6   3  -6 36.2540 5.03647  18
  -6   3  -6 45.3063 4.78650  11
  -7   3  -6 -0.3527 1.59491  11
  -7   3  -6 -0.7053 1.75864  12
  -8  -2   6 4.43716 0.83436  15
  -8  -2   6 2.68752 0.32140  10
  -7  -2   6 35.2855 2.51645  15
  -7  -2   6 31.5149 3.19784  14
  -7  -2   6 34.0253 2.23012  10
  -6  -2   6 34.6040 2.58064   9
  -6  -2   6 34.7115 2.52273  10
  -6  -2   6 37.8438 2.71587  15
  -6  -2   6 32.2087 2.78816  16
  -5  -2   6 103.056 6.87918  10
  -5  -2   6 107.626 8.30508   6
  -5  -2   6 102.710 6.89365  15
  -5  -2   6 97.9344 6.61507   8
  -5  -2   6 104.506 6.92107   9
  -5  -2   6 105.036 7.18331   2
  -4  -2   6 545.634 33.0772   2
  -4  -2   6 511.051 34.3957  15
  -4  -2   6 502.485 34.2724   8
  -4  -2   6 522.196 38.1664   3
  -4  -2   6 576.049 33.7726   6
  -4  -2   6 500.992 35.3937   9
  -3  -2   6 94.3839 7.02501   2
  -3  -2   6 98.8520 11.8971   3
  -3  -2   6 95.6693 7.65039   6
   2   2  -6 500.494 37.5899   1
   2   2  -6 581.695 36.2598   4
  -2  -2   6 543.561 35.3686   3
  -2  -2   6 587.975 38.0105   2
  -2  -2   6 539.783 37.6884   1
  -2  -2   6 585.625 36.8262   6
   1   2  -6 0.54960 0.65422   2
   1   2  -6 -0.3053 3.07462   3
   1   2  -6 0.64626 0.54361   1
   1   2  -6 0.54876 0.41499   4
  -1  -2   6 0.63997 0.97223   2
  -1  -2   6 -0.4888 3.81893   3
  -1  -2   6 0.48230 0.71393   1
  -1  -2   6 -0.1063 1.29642   6
   0   2  -6 359.348 21.5739   2
   0   2  -6 376.366 24.5486   4
   0   2  -6 354.509 24.6954   1
  -1   2  -6 234.234 15.6308   4
  -1   2  -6 227.473 19.4547   3
  -1   2  -6 230.626 15.1540   2
  -2   2  -6 10.4719 6.04761   3
  -2   2  -6 10.6882 1.57375   5
  -2   2  -6 11.7315 2.89101   4
  -2   2  -6 9.93725 1.47682   2
  -3   2  -6 557.398 36.2276   9
  -3   2  -6 608.912 36.4422   2
  -3   2  -6 528.339 36.7871  17
  -3   2  -6 566.877 36.9428  11
  -3   2  -6 612.926 36.0976   4
  -3   2  -6 609.956 36.6079  12
  -3   2  -6 510.297 36.2243  10
  -3   2  -6 524.372 39.4807   3
  -4   2  -6 -1.1665 1.77308   4
  -4   2  -6 -2.8114 2.52777  18
  -4   2  -6 -0.3970 0.37842  10
  -4   2  -6 -0.1401 0.71113  13
  -4   2  -6 -2.7967 2.07078  11
  -4   2  -6 0.14362 1.06778  12
  -5   2  -6 153.384 11.2152  11
  -5   2  -6 141.770 11.4752  18
  -5   2  -6 152.581 9.91500  13
  -5   2  -6 125.524 11.6350   4
  -5   2  -6 153.656 10.0665  12
  -6   2  -6 10.7233 4.24714  18
  -6   2  -6 12.4591 3.47114  11
  -6   2  -6 13.0956 2.69755  12
  -6   2  -6 13.9161 2.39702  13
  -7   2  -6 71.2411 5.84935  12
  -7   2  -6 66.9375 6.24876  11
  -7   2  -6 64.5449 5.14140  13
  -8   2  -6 40.6999 4.10179  12
  -8  -1   6 11.7344 1.89334  14
  -8  -1   6 11.4133 1.40218  15
  -7  -1   6 9.31521 1.76314  14
  -7  -1   6 8.32600 1.72789  15
  -7  -1   6 8.29148 1.34460  16
  -6  -1   6 166.729 10.4148  10
  -6  -1   6 158.387 10.8260   9
  -6  -1   6 161.822 11.5603  14
  -6  -1   6 164.528 12.4056   6
  -6  -1   6 172.081 11.1369  16
  -6  -1   6 172.075 10.4048  15
  -5  -1   6 154.485 11.8210  14
  -5  -1   6 176.758 12.5316   6
  -5  -1   6 168.228 11.4685  15
  -5  -1   6 175.843 11.1625   2
  -5  -1   6 174.429 11.5912  16
  -5  -1   6 184.184 10.9305  10
  -5  -1   6 176.476 11.2425   9
  -4  -1   6 251.764 15.4843   2
  -4  -1   6 235.852 16.1196   6
  -4  -1   6 242.271 20.8180   3
  -3  -1   6 200.835 13.3983   2
  -3  -1   6 185.428 13.8853   6
  -3  -1   6 186.393 15.1054   3
   2   1  -6 0.22149 0.29586   4
   2   1  -6 0.26600 0.43590   1
  -2  -1   6 0.36418 0.60641   1
  -2  -1   6 -0.7075 3.33759   3
  -2  -1   6 0.33395 0.70932   2
   1   1  -6 1981.32 119.419   1
   1   1  -6 2336.69 152.113   1
   1   1  -6 2241.41 152.066   2
   1   1  -6 2134.12 152.071   4
   1   1  -6 2353.62 154.911   3
  -1  -1   6 1902.96 120.080   6
  -1  -1   6 2328.37 151.508   1
  -1  -1   6 2314.76 151.636   1
  -1  -1   6 2110.40 121.483   3
  -1  -1   6 1876.46 119.058   2
   0   1  -6 64.8460 4.27053   4
   0   1  -6 57.7112 9.17984   3
   0   1  -6 64.9015 4.84038   1
   0   1  -6 63.9418 4.79617   1
   0   1  -6 65.2810 4.15269   2
   0  -1   6 62.8978 4.10313   2
   0  -1   6 66.0947 4.89178   6
   0  -1   6 67.7466 4.59370   1
   0  -1   6 69.8898 4.64835   1
   0  -1   6 65.2282 9.20268   3
  -1   1  -6 391.678 27.9409   4
  -1   1  -6 480.951 32.9414   3
  -1   1  -6 421.499 27.5642   1
  -1   1  -6 435.756 27.6738   2
   1  -1   6 416.975 27.4121   1
   1  -1   6 423.528 27.4766   1
  -2   1  -6 374.852 25.0147   5
  -2   1  -6 364.120 25.7126   4
  -2   1  -6 431.038 30.5425   3
  -2   1  -6 377.589 24.9802   2
  -3   1  -6 12.8693 1.95717   5
  -3   1  -6 12.2154 3.05192   4
  -3   1  -6 12.1396 1.49637   2
  -3   1  -6 10.6428 6.75058   3
  -4   1  -6 49.2684 3.39349  10
  -4   1  -6 50.4944 3.74266  13
  -4   1  -6 48.4125 6.40729  18
  -4   1  -6 47.7675 4.02976  12
  -4   1  -6 58.5945 6.06955   4
  -4   1  -6 46.5852 5.23834  11
  -4   1  -6 53.6715 4.32157   5
  -5   1  -6 156.822 9.46599  13
  -5   1  -6 141.820 11.5582   4
  -5   1  -6 141.322 11.2287  18
  -5   1  -6 145.858 9.88715  12
  -5   1  -6 117.161 10.3388  11
  -5   1  -6 144.698 9.01888  10
  -5   1  -6 132.990 10.0394   5
  -6   1  -6 124.774 10.3275  11
  -6   1  -6 125.671 9.39188  12
  -6   1  -6 130.893 8.82240  13
  -7   1  -6 19.3165 3.31113  12
  -7   1  -6 15.7105 4.29324  11
  -7   1  -6 23.8579 3.02169  13
  -8   1  -6 41.9811 4.10230  13
  -8   1  -6 41.9408 4.50416  12
  -8   0   6 5.94203 1.16660  15
  -8   0   6 7.14812 1.76486  14
  -7   0   6 401.101 26.6659  16
  -7   0   6 431.086 26.7036  15
  -6   0   6 27.8807 4.25214   6
  -6   0   6 33.2388 3.69809  14
  -6   0   6 30.3362 2.54960  16
  -6   0   6 29.2598 2.72142  15
  -5   0   6 403.310 28.8711   9
  -5   0   6 455.860 27.8977  16
  -5   0   6 453.023 27.6632  10
  -5   0   6 430.125 28.4712  14
  -5   0   6 481.949 28.9977   6
  -5   0   6 454.884 27.8132  15
  -5   0   6 405.050 29.0151   2
  -4   0   6 526.698 37.9766   3
  -4   0   6 544.639 34.7430   2
  -4   0   6 517.158 32.4763   6
  -3   0   6 14.6231 4.34557   3
  -3   0   6 17.3460 1.74706   7
  -3   0   6 17.2746 2.51035   6
  -3   0   6 17.3258 1.66986   2
   2   0  -6 378.371 24.2379   1
  -2   0   6 388.070 24.5189   6
  -2   0   6 390.302 24.2503   2
  -2   0   6 455.866 30.9106   1
   1   0  -6 271.103 20.5152   3
   1   0  -6 305.559 21.3923   2
   1   0  -6 261.131 16.5104   1
  -1   0   6 250.935 16.3743   1
  -1   0   6 260.013 18.4753   3
  -1   0   6 258.914 16.3843   1
  -1   0   6 249.132 16.5697   6
  -1   0   6 256.713 16.4701   2
   0   0  -6 30.1036 2.78191   4
   0   0  -6 35.6461 2.84208   1
   0   0  -6 35.1480 2.87313   2
   0   0  -6 34.9210 2.65846   1
   0   0  -6 34.9189 9.83272   3
   0   0   6 34.8865 2.74996   2
   0   0   6 32.4111 2.59825   6
   0   0   6 35.6870 2.53538   1
   0   0   6 34.2725 2.44134   1
   0   0   6 33.9813 6.22932   3
  -1   0  -6 189.159 13.6730   4
  -1   0  -6 201.263 13.1967   2
  -1   0  -6 200.176 13.1206   1
  -1   0  -6 228.702 19.7184   3
  -1   0  -6 208.935 13.0939   1
   1   0   6 212.939 13.0257   1
   1   0   6 191.782 16.4912   3
   1   0   6 190.911 14.0468   2
   1   0   6 208.009 13.0331   1
  -2   0  -6 301.977 20.4574   4
  -2   0  -6 319.539 19.9929   5
  -2   0  -6 315.443 26.8217   3
  -2   0  -6 307.247 19.8554   2
  -2   0  -6 289.660 19.7416   1
  -3   0  -6 299.433 21.2410   4
  -3   0  -6 295.991 17.8499   2
  -3   0  -6 331.499 20.4989   5
  -3   0  -6 281.584 27.2279   3
  -4   0  -6 6.65198 8.06457   3
  -4   0  -6 8.19317 1.68587   5
  -4   0  -6 8.21755 0.79722  10
  -4   0  -6 5.05848 1.75376   4
  -4   0  -6 8.32379 1.13742   2
  -5   0  -6 348.519 22.6383  12
  -5   0  -6 333.427 24.0880  11
  -5   0  -6 343.941 23.7864  14
  -5   0  -6 361.787 22.3528  13
  -5   0  -6 362.251 22.0962  10
  -5   0  -6 349.003 22.9399   5
  -6   0  -6 1.09038 0.36931  10
  -6   0  -6 -2.1406 3.21011  14
  -6   0  -6 0.34905 0.76521  13
  -6   0  -6 1.01097 1.54917  12
  -6   0  -6 -0.7389 1.30601   5
  -6   0  -6 -1.8354 2.90791  11
  -7   0  -6 101.026 6.84108  13
  -7   0  -6 97.2553 7.54553  12
  -7   0  -6 102.463 8.74548  14
  -8   0  -6 15.0267 2.47888  12
  -8   0  -6 12.6469 1.75892  13
  -8   1   6 55.3004 4.78030  14
  -8   1   6 60.3903 4.08809  16
  -8   1   6 61.1326 4.11527  15
  -7   1   6 16.3195 2.37132  15
  -7   1   6 18.8986 3.16546  14
  -7   1   6 16.5525 1.70113  16
  -6   1   6 105.185 6.79120  15
  -6   1   6 105.243 6.75295  16
  -6   1   6 104.746 7.69715  14
  -6   1   6 86.5441 8.53470   6
  -6   1   6 103.958 6.72721  10
  -5   1   6 120.594 8.01817  15
  -5   1   6 132.497 8.57417  14
  -5   1   6 111.550 9.28759   6
  -5   1   6 114.335 7.72334  10
  -5   1   6 120.747 7.97584  16
  -4   1   6 240.286 14.0437   2
  -4   1   6 246.013 16.0589   6
  -4   1   6 248.535 15.6428  16
  -4   1   6 214.585 17.1872   3
  -4   1   6 222.796 15.8131   7
  -3   1   6 475.955 32.2127   3
  -3   1   6 485.996 30.6475   6
  -3   1   6 456.165 30.2136   7
  -3   1   6 465.787 30.1244   2
  -2   1   6 160.467 10.9736   6
  -2   1   6 165.677 10.5995   2
  -2   1   6 153.950 10.6073   1
  -2   1   6 167.364 13.0191   3
   1  -1  -6 835.890 49.4458   1
   1  -1  -6 832.952 49.4292   1
   1  -1  -6 730.016 52.2418   2
   1  -1  -6 738.477 57.0297   3
  -1   1   6 823.754 49.7002   6
  -1   1   6 782.616 49.3273   1
  -1   1   6 769.120 49.6977   2
  -1   1   6 772.709 49.6192   1
   0  -1  -6 8.56693 0.98425   1
   0  -1  -6 7.48981 1.09485   2
   0   1   6 9.16653 0.96838   1
   0   1   6 9.21137 1.03831   1
  -1  -1  -6 1215.09 78.1361   3
  -1  -1  -6 1160.20 73.9324   1
  -1  -1  -6 1086.98 73.5168   1
  -1  -1  -6 1156.32 73.5950   4
  -1  -1  -6 1089.09 73.9934   2
   1   1   6 1143.61 73.4053   2
   1   1   6 1217.35 73.6829   1
  -2  -1  -6 998.139 61.4233   2
  -2  -1  -6 1007.18 61.6391   4
  -2  -1  -6 948.784 61.2120   5
  -2  -1  -6 871.411 61.0553   1
  -2  -1  -6 1034.83 66.5183   3
  -2  -1  -6 896.953 61.0720   1
   2   1   6 961.526 61.1126   1
  -3  -1  -6 142.230 9.61304   2
  -3  -1  -6 143.899 16.8996   3
  -3  -1  -6 142.988 9.73783   5
  -4  -1  -6 1217.56 75.1956   5
  -4  -1  -6 1119.96 83.8905   3
  -4  -1  -6 1230.47 75.0247   2
  -5  -1  -6 36.2294 2.42625  10
  -5  -1  -6 28.4293 4.62535  11
  -5  -1  -6 28.9307 3.95098  14
  -5  -1  -6 36.3143 2.69623   2
  -5  -1  -6 31.7614 2.76501  13
  -5  -1  -6 32.9008 3.47732   5
  -5  -1  -6 33.2070 3.28827  12
  -5  -1  -6 31.7276 2.47520   9
  -6  -1  -6 120.284 9.65709   5
  -6  -1  -6 140.390 8.66270  10
  -6  -1  -6 132.551 10.0543  14
  -6  -1  -6 134.185 9.42246  12
  -6  -1  -6 135.935 9.02042  13
  -7  -1  -6 -0.3918 1.75965  12
  -7  -1  -6 -0.3345 1.06099  13
  -7  -1  -6 0.78818 3.56061  14
  -8  -1  -6 22.0712 2.35580  13
  -8  -1  -6 20.0596 3.31205  12
  -8  -1  -6 23.2970 3.62216  14
  -8   2   6 1.15616 1.18115  15
  -8   2   6 0.91277 0.88912  16
  -7   2   6 117.564 7.90572  16
  -7   2   6 123.361 9.31029  14
  -7   2   6 124.178 7.93297  15
  -6   2   6 3.14519 1.13762  16
  -6   2   6 6.48455 2.88498  14
  -6   2   6 2.65376 1.49020  15
  -5   2   6 264.028 16.4542  10
  -5   2   6 270.206 16.7908  15
  -5   2   6 238.604 18.0322   6
  -5   2   6 257.042 17.4150  14
  -5   2   6 265.430 16.7923  16
  -5   2   6 253.646 16.7194  17
  -4   2   6 104.304 6.73073  10
  -4   2   6 106.984 8.29636   6
  -4   2   6 102.322 7.01143  16
  -4   2   6 108.020 7.82848  14
  -4   2   6 109.273 7.33147   7
  -4   2   6 100.281 6.93172  17
  -4   2   6 100.605 7.03362  15
  -3   2   6 288.759 21.1218   3
  -3   2   6 283.735 18.8832   7
  -3   2   6 286.779 18.5999   2
  -3   2   6 299.136 19.5323   6
  -2   2   6 456.086 29.4858   2
  -2   2   6 449.580 29.6705   7
  -2   2   6 457.687 32.0135   3
  -2   2   6 471.274 29.6286   6
   1  -2  -6 3.39331 0.63215   1
   1  -2  -6 2.51877 0.60344   1
  -1   2   6 2.78213 0.86628   7
  -1   2   6 3.29070 0.83419   2
  -1   2   6 2.50046 1.08922   6
  -1   2   6 3.39774 0.71710   1
   0  -2  -6 526.585 38.4101   3
   0  -2  -6 508.918 33.1318   1
   0  -2  -6 515.631 31.5146   1
   0  -2  -6 451.263 33.1921   2
   0   2   6 531.710 34.3045   3
   0   2   6 523.737 33.1027   1
   0   2   6 516.729 33.1971   2
   0   2   6 510.297 33.1263   1
  -1  -2  -6 795.593 53.4392   1
  -1  -2  -6 846.559 53.4108   1
  -1  -2  -6 887.131 58.8231   3
  -1  -2  -6 792.120 53.5313   2
   1   2   6 773.693 53.9111   2
   1   2   6 820.870 53.4467   1
   1   2   6 928.373 57.1052   3
   1   2   6 871.388 53.4399   1
  -2  -2  -6 51.8574 9.82168   3
  -2  -2  -6 51.8095 3.85143   1
  -2  -2  -6 59.2253 4.01792   5
  -2  -2  -6 54.7466 4.05800   2
   2   2   6 53.7284 3.86537   1
  -3  -2  -6 230.481 15.5506   2
  -3  -2  -6 202.904 20.5295   3
  -3  -2  -6 207.077 13.4453   5
  -4  -2  -6 230.519 23.4830   3
  -4  -2  -6 237.495 15.5453   2
  -4  -2  -6 237.524 15.6518   5
  -5  -2  -6 775.693 49.1013   2
  -5  -2  -6 773.448 48.8170  13
  -5  -2  -6 745.727 48.7615   9
  -5  -2  -6 790.771 48.7158  10
  -5  -2  -6 724.728 49.1255  12
  -5  -2  -6 780.728 49.2512  14
  -6  -2  -6 7.78248 1.28756   9
  -6  -2  -6 5.92381 2.58883  14
  -6  -2  -6 4.83425 1.72736   5
  -6  -2  -6 7.85952 1.05944  10
  -6  -2  -6 9.12137 1.28567  13
  -6  -2  -6 7.94932 1.58261  12
  -7  -2  -6 35.2959 4.04627  12
  -7  -2  -6 43.4396 4.45534  14
  -7  -2  -6 44.1826 3.57223  13
  -7  -2  -6 42.0158 2.92563  10
  -8  -2  -6 15.2197 2.69860  14
  -8  -2  -6 16.0675 1.75972  13
  -8   3   6 76.5954 5.45888  15
  -7   3   6 -0.8032 1.82201  15
  -7   3   6 -0.0395 1.09666  16
  -6   3   6 98.7819 7.96077  14
  -6   3   6 100.187 7.05549  15
  -6   3   6 102.021 6.95273  16
  -5   3   6 25.1310 4.20989  14
  -5   3   6 22.1886 2.21520  16
  -5   3   6 21.6542 2.13715  17
  -5   3   6 17.4407 4.24892   6
  -5   3   6 20.2681 2.21775  15
  -4   3   6 183.079 11.9980  17
  -4   3   6 188.917 12.8289  14
  -4   3   6 190.511 12.0136  16
  -4   3   6 170.947 13.4314   6
  -4   3   6 179.581 12.3864   7
  -4   3   6 186.474 11.7231  10
  -4   3   6 183.687 12.1289  15
  -3   3   6 290.750 18.1638   7
  -3   3   6 279.265 17.8848  15
  -3   3   6 258.663 18.3127  14
  -3   3   6 275.134 17.7453  17
  -3   3   6 279.315 20.0435   3
  -3   3   6 276.270 18.9366   6
  -3   3   6 250.268 17.5312   9
  -3   3   6 285.765 17.6638   2
  -3   3   6 292.629 17.5506  10
  -3   3   6 262.691 17.7665  16
  -2   3   6 85.6467 6.61683   6
  -2   3   6 86.5552 5.61416   2
  -2   3   6 83.8316 5.92456   7
  -2   3   6 78.6796 8.72198   3
  -1   3   6 1419.23 87.8850   2
  -1   3   6 1358.19 91.0289   7
  -1   3   6 1406.45 90.8157   3
  -1  -3  -6 977.930 64.4034   1
  -1  -3  -6 922.819 59.0689   2
  -1  -3  -6 899.916 64.2848   5
  -1  -3  -6 934.917 63.6702   3
  -1  -3  -6 908.217 58.8466   1
   1   3   6 928.252 58.9115   1
   1   3   6 1023.01 61.7155   3
   1   3   6 977.746 64.4654   7
   1   3   6 933.337 59.0073   2
  -2  -3  -6 713.473 44.0394   2
  -2  -3  -6 695.763 43.8429   5
  -2  -3  -6 661.053 43.8908   1
  -2  -3  -6 706.461 50.4030   3
   2   3   6 669.447 43.8482   1
   2   3   6 666.504 43.8667   7
  -3  -3  -6 52.7073 4.54736   2
  -3  -3  -6 61.8722 13.5868   3
  -3  -3  -6 59.3299 4.47895   5
  -4  -3  -6 378.516 22.2471   5
  -4  -3  -6 347.080 23.9403   9
  -4  -3  -6 333.233 32.8592   3
  -4  -3  -6 383.290 22.3417   2
  -4  -3  -6 345.194 23.7073   8
  -5  -3  -6 112.675 18.8023   3
  -5  -3  -6 143.948 9.17785   9
  -5  -3  -6 126.521 8.74876   8
  -5  -3  -6 144.147 8.95190  10
  -5  -3  -6 143.162 9.71407   5
  -5  -3  -6 141.457 9.64948   2
  -5  -3  -6 138.317 9.00574  13
  -5  -3  -6 138.967 9.68644  14
  -6  -3  -6 97.3098 7.68402  14
  -6  -3  -6 85.8818 7.60994  12
  -6  -3  -6 91.1243 6.48545  10
  -6  -3  -6 111.915 6.75982   9
  -6  -3  -6 98.5547 7.84981   5
  -6  -3  -6 97.7856 6.74956  13
  -7  -3  -6 20.5861 2.23408  13
  -7  -3  -6 22.1693 1.80993  10
  -7  -3  -6 22.9614 3.59215  14
  -8  -3  -6 3.89049 0.57554  10
  -8  -3  -6 4.70946 0.87808  13
  -8  -3  -6 5.47062 2.05043  14
  -7   4   6 49.0159 3.56332  17
  -7   4   6 48.9706 3.76098  16
  -6   4   6 45.1296 4.31874  15
  -6   4   6 54.0020 4.14221  16
  -5   4   6 163.027 10.7958  17
  -5   4   6 162.087 11.0474  15
  -5   4   6 161.031 10.9247  16
  -4   4   6 118.290 7.27913  10
  -4   4   6 106.957 7.78238  15
  -4   4   6 113.104 8.25111   7
  -4   4   6 120.535 7.82281  16
  -4   4   6 113.637 7.62623  17
  -4   4   6 106.147 7.96036  18
  -3   4   6 100.155 6.48509   2
  -3   4   6 100.997 6.86217  16
  -3   4   6 95.0947 6.57479   9
  -3   4   6 101.854 7.09344  15
  -3   4   6 95.5064 7.08292  18
  -3   4   6 96.8572 6.72799  17
  -3   4   6 104.156 7.43664   7
  -3   4   6 105.664 6.45059  10
  -2   4   6 402.180 25.2635  10
  -2   4   6 412.451 25.0501   7
  -2   4   6 410.748 24.7127   2
  -2   4   6 390.443 25.6537  18
  -2   4   6 373.268 25.4284  17
  -2   4   6 362.406 25.2932   9
  -2   4   6 396.120 25.6268  15
  -1   4   6 -0.2349 3.87233   3
  -1   4   6 0.47061 0.75263   2
  -1   4   6 0.15417 1.00284   7
   0   4   6 553.553 41.6237   3
   0   4   6 590.101 36.0220   2
   0   4   6 560.907 36.2236   7
   1   4   6 665.751 42.2881   7
   1   4   6 652.285 49.9259   3
   1   4   6 703.012 42.2390   2
  -2  -4  -6 391.314 25.2233   5
  -3  -4  -6 292.971 30.4391   3
  -3  -4  -6 320.952 21.1979   2
  -3  -4  -6 318.297 19.4801   5
  -4  -4  -6 77.5457 5.85176   9
  -4  -4  -6 92.4925 6.20022   5
  -4  -4  -6 74.8820 5.51513   8
  -4  -4  -6 88.5421 6.44180   2
  -5  -4  -6 98.4220 7.96010   2
  -5  -4  -6 104.247 6.59231   8
  -5  -4  -6 101.706 7.70810   5
  -5  -4  -6 103.252 6.76437  10
  -5  -4  -6 103.593 7.25838   9
  -5  -4  -6 103.897 7.87383  14
  -6  -4  -6 -0.6717 1.41056  14
  -6  -4  -6 0.29762 1.15576   9
  -6  -4  -6 0.70984 0.61873  10
  -7  -4  -6 49.9163 4.25183  14
  -7  -4  -6 49.0204 3.47266  10
  -7  -4  -6 46.6406 3.53383   9
  -8  -4  -6 -0.0764 0.58644  10
  -8  -4  -6 -2.2755 1.63682  14
  -6   5   6 40.1584 3.42622  16
  -5   5   6 24.4169 2.47239  16
  -5   5   6 19.2378 2.76046  18
  -4   5   6 8.30905 1.89115  18
  -4   5   6 8.36609 0.71664  10
  -4   5   6 6.52369 1.50544  16
  -3   5   6 231.073 15.1241  18
  -3   5   6 216.313 15.1279  17
  -3   5   6 234.298 14.5029  10
  -3   5   6 228.814 15.0098  16
  -2   5   6 0.34450 0.62485   9
  -2   5   6 -0.8660 1.44870   7
  -2   5   6 0.07137 0.88544   2
  -2   5   6 0.49888 0.55665  10
  -2   5   6 0.51872 1.03930  16
  -2   5   6 -1.4508 1.57177  18
  -2   5   6 -0.4395 0.87434  17
  -1   5   6 235.819 15.9151   8
  -1   5   6 268.892 16.5065   2
  -1   5   6 278.348 16.8392   7
  -1   5   6 254.066 16.0390  10
  -1   5   6 234.991 21.3699   3
  -1   5   6 238.363 16.1719  17
  -1   5   6 244.390 16.1091   9
   0   5   6 75.1181 11.1976   3
   0   5   6 74.6283 5.54866   9
   0   5   6 77.1232 5.15571  10
   0   5   6 83.6467 5.92195   7
   0   5   6 82.9882 5.83109   2
   0   5   6 75.1518 5.32863   8
   1   5   6 442.335 29.3891   8
   1   5   6 501.303 30.1748   2
   1   5   6 394.343 35.0106   3
   1   5   6 507.393 30.0377   7
  -3  -5  -6 55.8412 3.91762   8
  -4  -5  -6 103.956 7.96219   9
  -4  -5  -6 118.707 7.42031   8
  -5  -5  -6 -1.2005 1.82932  14
  -5  -5  -6 1.89586 0.78812   8
  -5  -5  -6 0.51408 1.23689   9
  -5  -5  -6 0.33860 0.93072  10
  -6  -5  -6 15.8924 1.85521  10
  -6  -5  -6 17.4531 2.29961   9
  -6  -5  -6 14.6224 3.17262  14
  -7  -5  -6 21.2256 2.34138   9
  -7  -5  -6 19.8573 2.84195  14
  -7  -5  -6 21.2714 1.97957  10
  -8  -5  -6 13.4673 1.29838  10
  -8  -5  -6 13.6693 2.72244  14
  -5   6   6 20.4216 2.31059  18
  -4   6   6 22.5083 3.10033  18
  -4   6   6 22.5818 3.52325  16
  -3   6   6 29.0133 3.62567  18
  -3   6   6 27.9953 1.99441  10
  -3   6   6 25.1770 3.07250  16
  -2   6   6 118.039 9.26959  16
  -2   6   6 138.300 9.43843  18
  -2   6   6 131.973 8.51607   9
  -2   6   6 130.235 8.48853  10
  -1   6   6 0.56215 1.53837   7
  -1   6   6 -0.1456 0.95532  17
  -1   6   6 -0.7832 1.32805   2
  -1   6   6 -0.0541 0.54676  10
  -1   6   6 0.16116 2.01826  18
  -1   6   6 0.44051 1.23927   9
   0   6   6 188.162 12.9577   2
   0   6   6 199.258 12.2238  10
   0   6   6 191.228 12.0876   8
   0   6   6 172.926 12.9541   7
   0   6   6 185.673 12.4006   9
   1   6   6 26.8973 2.79793   9
   1   6   6 31.6582 2.40740   8
   1   6   6 25.6153 3.57035   2
   1   6   6 33.9806 9.47205   3
   2   6   6 151.499 9.94087   8
  -5  -6  -6 31.2218 3.56552  14
  -6  -6  -6 41.5537 3.79279  14
  -6  -6  -6 41.7877 3.03444  10
  -7  -6  -6 14.3814 1.33153  10
  -7  -6  -6 13.8896 1.76997  14
  -4   7   6 11.7622 2.03476  18
  -3   7   6 41.8380 3.02277  10
  -3   7   6 55.5472 4.61639  18
  -2   7   6 12.4656 1.21813  10
  -2   7   6 19.0337 3.49835  18
  -1   7   6 194.818 13.0072  10
  -1   7   6 212.623 13.8244  18
  -1   7   6 196.478 13.0657   9
   0   7   6 88.9200 7.42492  18
   0   7   6 89.0363 6.24583  10
   0   7   6 90.9423 6.39973   9
   1   7   6 485.177 33.3683   9
   1   7   6 528.451 32.3750   8
   1   7   6 530.288 33.8002  18
   2   7   6 47.6653 3.44584   8
   2   7   6 40.3465 4.30913   9
   3   7   6 19.3732 2.28886   8
  -4  -7  -6 36.1044 3.15794  14
  -5  -7  -6 6.54340 1.67886  14
  -6  -7  -6 31.7435 2.94686  14
  -3   8   6 2.47934 1.91585  18
  -2   8   6 81.4185 6.33552  18
  -1   8   6 5.69777 2.21137  18
   0   8   6 93.4188 6.47243  18
   0   8   6 84.0442 5.90765  10
   1   8   6 21.7364 3.17211  18
   2   8   6 1.36317 1.50757  18
   0   9   6 2.77047 1.31755  18
   1   9   6 17.6281 2.34598  18
   4   7  -7 0.23026 0.39539   8
  -4  -7   7 0.15951 0.42487   8
   3   7  -7 28.5933 1.79475   8
   3   7  -7 24.2602 2.00971   9
   3   7  -7 23.2022 1.90024  11
  -3  -7   7 24.5659 1.98618   8
   2   7  -7 22.2474 1.99749  11
   2   7  -7 22.3001 1.56774   8
   2   7  -7 23.6722 2.08583   9
   1   7  -7 7.09856 0.84213  10
   1   7  -7 7.59945 1.45422  11
   0   7  -7 57.1045 3.93248  10
   0   7  -7 64.3914 3.97388   9
   0   7  -7 57.4249 4.44361  11
  -1   7  -7 0.36405 0.48359  10
  -1   7  -7 -0.0822 1.16299  11
  -2   7  -7 46.8300 3.00773  10
  -2   7  -7 44.6806 3.42916  11
  -5  -6   7 2.92296 0.61241   8
  -5  -6   7 3.69973 0.90442   9
  -5  -6   7 2.70240 0.61847  15
   4   6  -7 24.6156 1.75963   8
  -4  -6   7 19.9843 1.70809  15
  -4  -6   7 21.8858 1.77905   8
   3   6  -7 10.3380 1.02736   8
   3   6  -7 12.0591 1.44876  11
   2   6  -7 3.34356 0.53714   8
   2   6  -7 4.07963 1.03746   9
   2   6  -7 3.11218 0.97522  11
   1   6  -7 118.019 7.64968   8
   1   6  -7 117.611 7.98276   9
   1   6  -7 117.117 7.93281  11
   0   6  -7 0.22884 1.13091  11
   0   6  -7 0.31752 0.66092  12
   0   6  -7 0.35298 0.61049  10
  -1   6  -7 191.716 13.3054  12
  -1   6  -7 208.831 12.9083   9
  -1   6  -7 178.702 12.8433  10
  -1   6  -7 207.325 12.7317  11
  -2   6  -7 5.27269 1.30319  11
  -2   6  -7 4.34507 0.68607  10
  -2   6  -7 4.31576 1.08739  12
  -3   6  -7 46.9523 2.99118  10
  -3   6  -7 44.0405 3.83155  11
  -4   6  -7 17.3936 2.14466  11
  -7  -5   7 26.9708 1.81970  10
  -7  -5   7 27.2310 1.84408  15
  -6  -5   7 16.8477 1.55527  15
  -6  -5   7 12.5996 1.36162  10
  -6  -5   7 20.0346 1.87304   9
  -5  -5   7 66.4284 4.64420  15
  -5  -5   7 72.8277 5.04044   9
  -5  -5   7 67.0548 4.47497   8
  -4  -5   7 41.4896 3.20009   8
  -4  -5   7 40.1940 3.17086  15
   3   5  -7 2.30171 0.67085   8
   2   5  -7 73.2442 4.70070   8
   2   5  -7 65.4382 5.70298   4
   1   5  -7 15.9801 1.96739  11
   1   5  -7 14.0243 2.60025   4
   1   5  -7 16.1253 1.45533   8
   1   5  -7 19.9262 1.99396   9
   0   5  -7 115.808 9.64765   4
   0   5  -7 132.246 8.64788   9
   0   5  -7 124.677 8.77160  11
   0   5  -7 131.590 8.34915  10
   0   5  -7 136.500 8.22774   8
  -1   5  -7 0.40354 1.19207  11
  -1   5  -7 1.58038 1.12366  12
  -1   5  -7 0.67444 0.60431  10
  -2   5  -7 109.711 7.07388  10
  -2   5  -7 105.024 7.05082   9
  -2   5  -7 114.135 7.73069  11
  -2   5  -7 100.069 7.56189  12
  -3   5  -7 90.8774 5.78705  10
  -3   5  -7 98.8462 6.90756  11
  -3   5  -7 72.8896 6.92522  18
  -3   5  -7 86.9930 6.78946  12
  -4   5  -7 42.8776 3.91976  12
  -4   5  -7 40.3680 3.96300  11
  -5   5  -7 42.8208 4.89069  18
  -5   5  -7 42.9442 3.90217  11
  -5   5  -7 38.7442 3.41141  12
  -7  -4   7 15.1136 1.17741  10
  -7  -4   7 15.7447 1.06071   9
  -7  -4   7 13.0226 1.20265  15
  -6  -4   7 41.7971 2.96375  15
  -6  -4   7 42.7778 2.97130  10
  -6  -4   7 36.4117 2.91384  16
  -6  -4   7 45.8224 3.07945   9
  -5  -4   7 0.78835 0.54929   8
  -5  -4   7 1.19505 1.20641   9
  -5  -4   7 0.32996 0.86193  15
  -4  -4   7 123.102 9.98437   6
  -4  -4   7 119.355 7.95308  15
  -4  -4   7 121.026 7.65276   8
  -4  -4   7 118.908 8.71832   9
  -3  -4   7 113.465 9.35837   6
   2   4  -7 622.583 39.6422   8
   1   4  -7 275.246 18.3606   8
   1   4  -7 293.113 18.9796   2
   1   4  -7 276.320 18.6700   9
   1   4  -7 294.848 18.8349   4
   0   4  -7 48.1845 3.36760  10
   0   4  -7 46.3629 3.25471   8
   0   4  -7 48.8324 4.56521   4
   0   4  -7 44.4180 3.70630  11
   0   4  -7 44.9562 3.60982   9
   0   4  -7 49.8573 3.94048   2
  -1   4  -7 226.441 14.9341   8
  -1   4  -7 224.528 15.9281   4
  -1   4  -7 232.732 15.0529  11
  -1   4  -7 236.810 14.7441  10
  -2   4  -7 14.8188 3.15248  18
  -2   4  -7 14.8721 3.70822   4
  -2   4  -7 18.0914 1.57103  10
  -2   4  -7 15.9608 2.55054  12
  -2   4  -7 16.9491 2.74905  11
  -2   4  -7 15.2763 2.07300   2
  -2   4  -7 19.4286 1.88419   9
  -3   4  -7 58.7096 5.85593  18
  -3   4  -7 65.2607 4.29478  10
  -3   4  -7 64.8347 5.31027  12
  -3   4  -7 65.0324 5.46851  11
  -4   4  -7 20.8196 3.16295  12
  -4   4  -7 19.9290 1.46278  10
  -4   4  -7 15.8851 4.18827  18
  -4   4  -7 15.2903 3.65224  11
  -5   4  -7 -3.5372 2.48629  18
  -5   4  -7 -1.7871 1.63479  12
  -5   4  -7 -2.6836 2.02046  11
  -6   4  -7 46.2979 4.81882  11
  -6   4  -7 46.2969 4.71256  12
  -8  -3   7 20.2166 1.49373  15
  -8  -3   7 20.2307 1.31490  10
  -7  -3   7 18.2172 1.45720  15
  -7  -3   7 18.8775 1.34217  10
  -6  -3   7 1.16029 0.68653   9
  -6  -3   7 0.67611 0.60968  10
  -6  -3   7 -0.7836 0.77334  15
  -6  -3   7 0.31097 0.65694  16
  -5  -3   7 125.643 8.83242   8
  -5  -3   7 145.282 9.19872   9
  -5  -3   7 131.698 10.3509   6
  -5  -3   7 144.292 9.08029  10
  -5  -3   7 142.804 9.04901  15
  -4  -3   7 105.341 6.92833   8
  -4  -3   7 105.209 7.21945  15
  -4  -3   7 104.928 7.56678   9
  -4  -3   7 106.224 7.75157   2
  -4  -3   7 109.783 8.48313   6
  -3  -3   7 170.161 12.0242   2
  -3  -3   7 170.795 11.5021   6
  -3  -3   7 147.811 18.2583   3
   2   3  -7 491.880 30.9296   4
  -2  -3   7 480.656 33.1383   6
   1   3  -7 119.215 8.32517   4
   1   3  -7 119.973 8.56283   2
   0   3  -7 724.846 43.7727   4
   0   3  -7 678.091 54.2403   3
   0   3  -7 732.230 45.5664   2
  -1   3  -7 1.18178 0.40799  10
  -1   3  -7 -0.2416 0.90023   4
  -1   3  -7 -0.4760 5.07484   3
  -1   3  -7 1.34429 0.56945   8
  -2   3  -7 246.340 16.0465   2
  -2   3  -7 204.283 20.8841   3
  -2   3  -7 250.490 16.3102  18
  -2   3  -7 259.757 16.0722  12
  -2   3  -7 228.000 15.6873   9
  -2   3  -7 226.772 15.5841  10
  -2   3  -7 275.917 17.3679   4
  -2   3  -7 254.810 16.0967  11
  -3   3  -7 59.3642 5.08119  11
  -3   3  -7 57.7879 4.68687  12
  -3   3  -7 53.3985 5.54444  18
  -3   3  -7 58.2667 3.89035  10
  -3   3  -7 56.1101 4.19527   2
  -3   3  -7 58.1519 6.34365   4
  -3   3  -7 57.6610 3.92181   9
  -4   3  -7 34.3263 3.75478  12
  -4   3  -7 28.0343 5.18919   4
  -4   3  -7 27.8936 5.12477  18
  -4   3  -7 36.0168 2.40503  10
  -4   3  -7 36.4049 4.52043  11
  -5   3  -7 25.6200 4.07887  18
  -5   3  -7 30.9688 4.50672  11
  -5   3  -7 29.0490 3.87340  12
  -6   3  -7 7.35931 1.58835  12
  -6   3  -7 7.11062 2.00336  11
  -7   3  -7 53.1318 5.01088  11
  -7   3  -7 43.1820 3.90644  12
  -8  -2   7 20.7411 1.54929  15
  -7  -2   7 5.97254 0.66537  10
  -7  -2   7 5.99771 0.85275  15
  -7  -2   7 5.40421 1.05643  16
  -6  -2   7 70.0505 4.50042  10
  -6  -2   7 68.2114 4.51363   9
  -6  -2   7 64.4568 4.71310  16
  -6  -2   7 64.7893 4.58739  15
  -5  -2   7 24.9609 3.63198   6
  -5  -2   7 26.8404 2.06856  10
  -5  -2   7 23.0567 2.10939  15
  -5  -2   7 25.2268 2.21812   9
  -5  -2   7 24.9675 1.71003   8
  -5  -2   7 23.8690 2.37313   2
  -4  -2   7 141.086 9.09601   8
  -4  -2   7 137.668 9.22129  15
  -4  -2   7 134.515 10.0108  10
  -4  -2   7 170.445 10.6488   6
  -4  -2   7 149.324 9.41470   9
  -4  -2   7 137.016 15.8942   3
  -3  -2   7 77.7195 11.8178   3
  -3  -2   7 85.8859 6.41821   6
  -3  -2   7 82.8060 5.83709   2
   2   2  -7 498.312 31.8408   4
  -2  -2   7 471.252 38.8845   3
  -2  -2   7 468.624 28.2141   6
  -2  -2   7 494.318 32.0882   2
   1   2  -7 364.551 22.1283   2
   1   2  -7 368.705 23.3884   4
   1   2  -7 330.872 28.0667   3
  -1  -2   7 348.302 23.7688   6
   0   2  -7 65.1624 10.1758   3
   0   2  -7 66.0633 4.61274   2
   0   2  -7 65.3106 4.88654   4
  -1   2  -7 592.139 37.0232   4
  -1   2  -7 564.429 43.0351   3
  -2   2  -7 0.71273 1.08812   4
  -2   2  -7 0.58405 0.93854   5
  -2   2  -7 0.25504 5.31050   3
  -2   2  -7 0.02094 1.01012   2
  -3   2  -7 74.6097 5.18070   9
  -3   2  -7 84.7627 6.22270  11
  -3   2  -7 78.6322 5.30544  13
  -3   2  -7 83.4023 7.22759   4
  -3   2  -7 67.7957 10.2639   3
  -3   2  -7 74.0764 5.11655  10
  -3   2  -7 80.1196 5.68509  12
  -3   2  -7 80.2449 5.48436   2
  -3   2  -7 62.6122 6.43282  18
  -4   2  -7 101.264 8.23261  11
  -4   2  -7 96.3687 8.40593  18
  -4   2  -7 103.625 6.72630  10
  -4   2  -7 102.490 9.46087   4
  -4   2  -7 102.123 7.53230  12
  -4   2  -7 107.726 7.09501  13
  -5   2  -7 6.14595 3.58415  18
  -5   2  -7 7.14770 1.40356  13
  -5   2  -7 5.05643 2.97827  11
  -5   2  -7 8.17484 0.71428  10
  -5   2  -7 8.03746 1.62470  12
  -6   2  -7 57.1709 5.65340  12
  -6   2  -7 62.6214 6.53847  11
  -6   2  -7 56.7677 4.80034  13
  -7   2  -7 -1.6669 1.39470  12
  -7   2  -7 0.52977 1.81381  13
  -7   2  -7 0.46694 2.56854  11
  -8  -1   7 38.0188 2.39194  15
  -8  -1   7 35.3012 3.27423  14
  -7  -1   7 52.5426 3.74753  16
  -7  -1   7 51.1084 4.36428  14
  -7  -1   7 54.1668 3.62318  15
  -6  -1   7 0.61715 0.41736  10
  -6  -1   7 -0.5250 0.70633  16
  -6  -1   7 -1.6695 0.82285  15
  -6  -1   7 0.16762 1.77342  14
  -6  -1   7 0.38686 0.42688   9
  -5  -1   7 511.768 30.5960  10
  -5  -1   7 474.239 30.5993   9
  -5  -1   7 478.887 30.7995  16
  -5  -1   7 481.506 30.6496  15
  -5  -1   7 454.385 30.7969   2
  -5  -1   7 514.271 31.7984   6
  -5  -1   7 443.937 30.9030  14
  -4  -1   7 55.0783 4.64979   6
  -4  -1   7 44.8949 3.41313  15
  -4  -1   7 53.8623 3.74354   2
  -4  -1   7 45.0478 7.81467   3
  -4  -1   7 50.7240 3.40481  10
  -4  -1   7 50.3125 3.27573   8
  -4  -1   7 45.6161 3.48164   9
  -3  -1   7 638.680 46.6175   3
  -3  -1   7 685.948 43.1057   2
  -3  -1   7 694.752 43.5380   6
  -2  -1   7 18.6900 2.10487   2
  -2  -1   7 17.8908 2.84350   6
  -2  -1   7 13.1116 6.08266   3
   1   1  -7 536.126 35.8846   4
   1   1  -7 549.186 35.8356   1
   1   1  -7 532.421 40.5425   3
   1   1  -7 577.140 35.9011   1
   1   1  -7 481.201 28.9514   2
  -1  -1   7 568.625 35.9511   2
  -1  -1   7 526.824 35.7634   1
  -1  -1   7 551.367 39.5838   3
  -1  -1   7 472.810 29.0156   6
  -1  -1   7 563.692 35.8396   1
   0   1  -7 350.878 25.8158   3
   0   1  -7 340.598 21.1410   4
   0  -1   7 357.868 24.9525   1
   0  -1   7 360.455 24.4232   1
  -1   1  -7 4.67555 5.65070   3
  -1   1  -7 4.32268 1.02880   2
  -1   1  -7 3.60402 1.02646   4
  -2   1  -7 625.132 40.6447   2
  -2   1  -7 661.746 46.6778   3
  -2   1  -7 608.025 41.3542   4
  -2   1  -7 633.663 40.7123   5
  -3   1  -7 74.3872 5.40135   2
  -3   1  -7 71.2298 6.93015   4
  -3   1  -7 80.1134 5.63833   5
  -3   1  -7 74.3510 11.8163   3
  -4   1  -7 334.691 23.7843   9
  -4   1  -7 372.160 23.8994   2
  -4   1  -7 363.809 24.9133  11
  -4   1  -7 374.100 23.8777  10
  -4   1  -7 378.943 24.5904   5
  -4   1  -7 411.851 24.1412  13
  -4   1  -7 399.165 26.2836   4
  -4   1  -7 363.113 24.3083  12
  -5   1  -7 56.5047 3.93215  13
  -5   1  -7 44.9105 5.93404  11
  -5   1  -7 44.9396 4.44038   5
  -5   1  -7 35.4047 6.37851  18
  -5   1  -7 49.3017 3.24930  10
  -5   1  -7 45.3795 6.48389   4
  -5   1  -7 47.7669 4.53459  12
  -6   1  -7 3.50317 1.35624  12
  -6   1  -7 2.42149 2.50430  11
  -6   1  -7 4.15450 1.02185  13
  -7   1  -7 93.1590 7.81302  11
  -7   1  -7 90.2434 6.62460  13
  -7   1  -7 91.4006 7.26077  12
  -8   1  -7 6.69646 2.34335  12
  -8   1  -7 7.05110 1.91436  13
  -8   0   7 4.56154 0.91937  16
  -8   0   7 4.95163 2.22294  14
  -8   0   7 5.76074 0.89344  15
  -7   0   7 115.356 8.14942  14
  -7   0   7 122.630 7.66576  15
  -7   0   7 122.311 7.70002  16
  -7   0   7 105.201 7.56384  10
  -6   0   7 281.708 18.9739  14
  -6   0   7 297.260 18.5193  15
  -6   0   7 282.910 18.5584  16
  -5   0   7 0.46462 3.54096   3
  -5   0   7 1.47505 0.44588  10
  -5   0   7 -1.1997 0.82562  15
  -5   0   7 0.92216 0.57611   9
  -5   0   7 1.90071 2.05597  14
  -5   0   7 -0.0873 1.84134   6
  -5   0   7 -1.1552 0.82016  16
  -5   0   7 0.73682 0.66917   2
  -4   0   7 602.359 38.7796  10
  -4   0   7 587.528 38.8501  15
  -4   0   7 615.009 35.4136   6
  -4   0   7 589.300 42.4351   3
  -4   0   7 593.340 38.8311   9
  -4   0   7 556.214 38.9866  16
  -4   0   7 617.093 37.2065   2
  -3   0   7 146.328 9.48734   2
  -3   0   7 135.468 13.2389   3
  -3   0   7 147.461 9.94915   6
  -2   0   7 675.647 42.7906   2
  -2   0   7 670.584 45.3430   3
  -2   0   7 664.123 43.0216   6
   1   0  -7 1334.30 88.2958   3
   1   0  -7 1201.29 82.7304   2
   1   0  -7 1332.25 82.6519   1
   1   0  -7 1282.88 82.6403   1
  -1   0   7 1284.78 82.6828   6
  -1   0   7 1309.71 82.5885   2
  -1   0   7 1291.79 82.4643   1
  -1   0   7 1105.49 67.6160   3
  -1   0   7 1232.54 82.4463   1
   0   0  -7 388.408 28.3551   4
   0   0  -7 420.752 28.3107   1
   0   0  -7 479.098 34.0265   3
   0   0  -7 451.838 28.4464   2
   0   0  -7 442.853 28.3075   1
   0   0   7 438.687 31.1042   3
   0   0   7 456.015 28.2836   2
   0   0   7 397.633 28.1766   6
   0   0   7 479.859 28.1903   1
   0   0   7 453.126 28.1743   1
  -1   0  -7 760.026 46.5728   2
  -1   0  -7 775.137 53.1771   3
  -1   0  -7 674.960 46.7274   4
  -1   0  -7 694.697 46.3898   1
   1   0   7 723.475 46.3052   1
   1   0   7 727.699 46.2937   1
  -2   0  -7 1.43073 0.80786   2
  -2   0  -7 0.66986 7.48429   3
  -2   0  -7 2.20447 1.10707   4
  -2   0  -7 1.26970 1.01473   5
  -3   0  -7 295.013 28.5795   3
  -3   0  -7 319.791 19.7597   2
  -3   0  -7 325.326 22.4772   4
  -3   0  -7 317.900 19.9735   5
  -4   0  -7 232.416 24.2766   3
  -4   0  -7 245.561 15.8632  10
  -4   0  -7 239.141 17.7426   4
  -4   0  -7 217.443 17.5778  11
  -4   0  -7 259.919 15.9351   5
  -4   0  -7 240.329 15.6710  12
  -4   0  -7 262.480 15.5418   2
  -4   0  -7 254.727 15.4436  13
  -4   0  -7 247.674 15.9011   9
  -5   0  -7 17.0077 2.82259  12
  -5   0  -7 21.4277 2.29255  13
  -5   0  -7 20.8399 1.60730  10
  -5   0  -7 21.4867 3.00578   5
  -5   0  -7 18.6598 3.57775  11
  -6   0  -7 203.614 13.3159  12
  -6   0  -7 175.429 15.0048  11
  -6   0  -7 206.789 12.7562  13
  -6   0  -7 206.640 13.0945  10
  -7   0  -7 1.92659 1.27161  13
  -7   0  -7 2.07052 1.44506  12
  -8   0  -7 63.1852 5.70894  12
  -8   0  -7 50.3317 3.74352  13
  -8   1   7 7.35328 0.99277  15
  -8   1   7 7.14357 1.15646  16
  -7   1   7 66.5923 4.44397  15
  -7   1   7 58.6275 4.36669  16
  -7   1   7 61.3841 5.12251  14
  -6   1   7 10.0609 1.61784  16
  -6   1   7 10.5757 0.94952  10
  -6   1   7 12.8015 2.83111  14
  -6   1   7 10.8401 1.89048  15
  -5   1   7 37.5369 2.59670  10
  -5   1   7 37.3015 3.57606  14
  -5   1   7 37.7491 4.36205   6
  -5   1   7 38.8734 3.11425  16
  -5   1   7 39.7271 2.96423  15
  -4   1   7 37.1692 2.76267   2
  -4   1   7 28.6894 5.39751   3
  -4   1   7 36.4840 2.86031  16
  -4   1   7 34.1103 3.98997   6
  -4   1   7 32.8608 2.48331   9
  -4   1   7 34.7258 2.65987  15
  -4   1   7 37.7751 3.85053  14
  -3   1   7 258.047 16.6878   2
  -3   1   7 271.939 21.7991   3
  -3   1   7 274.559 17.2310   6
  -3   1   7 264.109 16.8387   7
  -2   1   7 177.286 11.2171   2
  -2   1   7 171.457 11.5946   6
  -2   1   7 161.764 13.8891   3
   1  -1  -7 339.699 22.0099   1
   1  -1  -7 407.490 26.7962   1
  -1   1   7 364.388 22.0506   2
  -1   1   7 398.222 26.6448   1
  -1   1   7 345.571 22.1979   6
  -1   1   7 343.063 21.9502   1
   0  -1  -7 1082.08 71.0982   2
   0  -1  -7 1113.24 70.9463   1
   0  -1  -7 1142.67 70.9756   1
   0  -1  -7 1120.65 77.3227   3
   0   1   7 1151.56 71.5800   3
   0   1   7 1114.15 70.9136   1
   0   1   7 988.647 71.0031   6
   0   1   7 1081.75 71.0149   2
   0   1   7 1121.78 67.6229   1
  -1  -1  -7 191.252 18.5373   3
  -1  -1  -7 171.202 11.8991   1
  -1  -1  -7 182.381 11.9510   1
  -1  -1  -7 184.360 12.0728   2
  -1  -1  -7 172.604 12.2987   4
   1   1   7 184.662 11.9308   1
   1   1   7 178.241 12.0702   2
   1   1   7 185.083 11.9542   1
   1   1   7 196.460 16.5161   3
  -2  -1  -7 803.477 51.9372   4
  -2  -1  -7 778.797 57.5281   1
  -2  -1  -7 811.520 51.4210   2
  -2  -1  -7 827.932 51.5000   5
  -2  -1  -7 884.875 58.4321   3
  -3  -1  -7 25.0825 11.3987   3
  -3  -1  -7 32.8946 2.86451   2
  -3  -1  -7 31.4098 2.96293   5
  -4  -1  -7 214.139 13.1013   2
  -4  -1  -7 197.539 12.8532   9
  -4  -1  -7 203.941 12.8236  13
  -4  -1  -7 207.587 13.3147   5
  -4  -1  -7 198.534 12.6712  10
  -4  -1  -7 186.556 23.2701   3
  -4  -1  -7 193.156 14.4444  11
  -5  -1  -7 311.851 18.9469  13
  -5  -1  -7 312.113 18.7312  10
  -5  -1  -7 298.592 18.9680   2
  -5  -1  -7 297.610 19.6196   5
  -5  -1  -7 278.736 19.5231  14
  -5  -1  -7 288.073 18.7027   9
  -5  -1  -7 299.040 19.2318  12
  -5  -1  -7 251.526 20.6680  11
  -6  -1  -7 26.6713 3.68402  12
  -6  -1  -7 26.6861 3.36088   5
  -6  -1  -7 26.4900 2.61303  13
  -6  -1  -7 25.7626 4.48610  14
  -6  -1  -7 27.2527 2.05495  10
  -7  -1  -7 137.521 9.73080  14
  -7  -1  -7 133.526 8.62882  13
  -7  -1  -7 125.429 10.2267  12
  -8  -1  -7 5.55738 1.89784  14
  -8  -1  -7 2.53129 1.49193  12
  -8  -1  -7 3.92399 0.99009  13
  -8   2   7 27.4749 2.24232  16
  -8   2   7 27.6762 2.32790  15
  -7   2   7 6.66036 3.04826  14
  -7   2   7 6.96657 1.42388  15
  -7   2   7 6.28275 1.32733  16
  -6   2   7 128.813 9.02855  15
  -6   2   7 141.189 9.22721  16
  -6   2   7 140.546 9.88042  14
  -5   2   7 30.7832 1.99690  10
  -5   2   7 27.2851 2.74030  16
  -5   2   7 24.6783 4.05597   6
  -5   2   7 30.1259 3.46931  14
  -5   2   7 27.8427 2.37491  15
  -5   2   7 28.3527 2.36241  17
  -4   2   7 216.322 13.7169  10
  -4   2   7 222.781 13.5746  15
  -4   2   7 214.428 14.2260  16
  -4   2   7 214.295 14.7005   7
  -4   2   7 214.199 13.7525   2
  -4   2   7 226.558 14.1677  14
  -4   2   7 201.092 14.1063   9
  -4   2   7 214.921 15.0035   6
  -4   2   7 214.379 13.8881  17
  -3   2   7 125.473 8.12318   2
  -3   2   7 121.408 11.4736   3
  -3   2   7 120.862 9.17740   6
  -3   2   7 126.097 8.44657   7
  -2   2   7 346.153 21.3629   7
  -2   2   7 374.461 24.4596   6
  -2   2   7 359.255 27.2356   3
  -2   2   7 369.549 23.9185   2
  -1   2   7 658.013 44.4594   3
  -1   2   7 649.079 41.7878   2
  -1   2   7 610.865 41.7279   1
  -1   2   7 669.442 41.4096   6
   0  -2  -7 37.1936 2.82771   1
   0  -2  -7 37.3612 3.10407   2
   0  -2  -7 41.7636 2.85217   1
   0  -2  -7 37.4877 9.52269   3
   0   2   7 37.7884 2.86838   1
   0   2   7 43.9787 3.05103   2
  -1  -2  -7 1414.64 92.2287   2
  -1  -2  -7 1394.34 92.1079   1
  -1  -2  -7 1502.37 98.4894   3
  -1  -2  -7 1470.55 92.2358   1
   1   2   7 1340.70 92.1850   2
   1   2   7 1460.80 92.1232   1
   1   2   7 1552.52 96.4336   3
  -2  -2  -7 215.177 20.7583   3
  -2  -2  -7 205.696 15.0843   1
  -2  -2  -7 208.972 13.3534   5
  -2  -2  -7 206.770 13.3842   2
  -3  -2  -7 221.286 23.9284   3
  -3  -2  -7 215.401 13.9772   5
  -3  -2  -7 236.953 15.5021   2
  -4  -2  -7 36.1617 2.60331  10
  -4  -2  -7 32.2899 2.87905   9
  -4  -2  -7 37.7894 3.47952   5
  -4  -2  -7 39.6357 3.34540   2
  -4  -2  -7 33.0507 2.48670   8
  -4  -2  -7 30.2651 14.8588   3
  -4  -2  -7 31.5771 2.78364  13
  -5  -2  -7 27.0590 1.98864  10
  -5  -2  -7 23.0243 3.31958   5
  -5  -2  -7 27.0057 2.47322   9
  -5  -2  -7 26.2590 2.84181   2
  -5  -2  -7 16.3995 12.4102   3
  -5  -2  -7 19.9001 3.54156  14
  -5  -2  -7 22.9536 2.42687  13
  -5  -2  -7 21.8562 3.08223  12
  -6  -2  -7 28.0692 2.01720  10
  -6  -2  -7 23.1432 1.94865   9
  -6  -2  -7 22.0792 3.48516  12
  -6  -2  -7 20.9784 3.93560  14
  -6  -2  -7 15.8101 3.13103   5
  -6  -2  -7 27.3711 2.54470  13
  -7  -2  -7 14.9876 2.12389  13
  -7  -2  -7 11.5510 2.67389  14
  -7  -2  -7 14.5700 1.27836  10
  -7  -2  -7 11.8280 2.43666  12
  -8  -2  -7 36.1907 3.56653  14
  -8  -2  -7 43.2352 3.57473  13
  -8   3   7 7.11580 1.07679  15
  -7   3   7 88.1965 6.12631  15
  -7   3   7 91.6584 6.18085  16
  -6   3   7 5.45239 1.14071  17
  -6   3   7 3.58768 1.33162  16
  -6   3   7 5.61022 1.41398  15
  -5   3   7 160.516 11.0110  17
  -5   3   7 161.276 10.6835  10
  -5   3   7 177.154 12.0159  14
  -5   3   7 173.845 11.1757  15
  -5   3   7 169.849 11.1362  16
  -4   3   7 31.1927 4.58856   6
  -4   3   7 34.5973 2.93030  15
  -4   3   7 31.8642 4.50624  14
  -4   3   7 31.4042 2.84781  16
  -4   3   7 31.2212 3.23254   7
  -4   3   7 35.3742 2.21710  10
  -4   3   7 28.1774 2.60711  17
  -3   3   7 161.199 10.7666  15
  -3   3   7 162.907 11.9842   6
  -3   3   7 163.648 10.4736   7
  -3   3   7 146.764 13.4795   3
  -3   3   7 162.089 10.7029  17
  -3   3   7 154.403 10.4957   9
  -3   3   7 160.529 10.7215  16
  -3   3   7 162.400 9.83327  10
  -3   3   7 164.530 10.0111   2
  -2   3   7 107.715 7.43172   7
  -2   3   7 109.051 7.04390   2
  -2   3   7 107.215 8.27117   6
  -2   3   7 92.0674 10.2343   3
  -1   3   7 83.9937 6.10395   7
  -1   3   7 83.9252 5.82713   2
   0   3   7 650.795 41.0894   2
   0   3   7 635.772 41.1807   7
   0   3   7 634.281 44.9804   3
  -1  -3  -7 5.04090 1.27817   2
   1   3   7 5.73406 1.47545   7
   1   3   7 6.31089 5.55912   3
   1   3   7 5.16914 1.06456   1
   1   3   7 5.51993 1.19559   2
  -2  -3  -7 212.132 13.8580   5
  -2  -3  -7 211.395 14.0559   2
  -2  -3  -7 208.675 22.8085   3
   2   3   7 203.160 13.9584   7
  -3  -3  -7 68.6084 5.34675   2
  -3  -3  -7 69.9287 5.20966   5
  -4  -3  -7 356.427 22.6713   8
  -4  -3  -7 325.850 22.8751   9
  -4  -3  -7 372.538 23.2966   5
  -4  -3  -7 373.093 23.3950   2
  -4  -3  -7 356.886 22.7738  10
  -4  -3  -7 346.036 22.7652  13
  -5  -3  -7 424.304 26.6163  10
  -5  -3  -7 407.814 27.1995   2
  -5  -3  -7 431.467 26.6769  13
  -5  -3  -7 427.945 26.7422   9
  -5  -3  -7 413.791 27.1721  14
  -5  -3  -7 422.101 27.3880   5
  -5  -3  -7 391.329 27.1877   8
  -6  -3  -7 406.109 25.1894  10
  -6  -3  -7 388.903 25.9668  14
  -6  -3  -7 386.206 25.3050  13
  -6  -3  -7 388.365 25.2298   9
  -7  -3  -7 17.5669 1.96963  13
  -7  -3  -7 18.4528 1.60558  10
  -7  -3  -7 16.0955 3.48435  14
  -8  -3  -7 -1.0390 1.68053  14
  -8  -3  -7 -0.5257 0.85001  13
  -7   4   7 3.84457 0.83511  17
  -7   4   7 4.70397 1.13006  16
  -6   4   7 8.09854 2.08616  15
  -6   4   7 6.00632 1.44684  16
  -6   4   7 7.13849 1.48775  17
  -5   4   7 19.2594 2.64106  16
  -5   4   7 15.5252 2.30042  15
  -5   4   7 20.3895 2.17070  17
  -4   4   7 148.088 9.78983  16
  -4   4   7 150.706 9.70039  17
  -4   4   7 146.696 9.31048  10
  -4   4   7 147.412 9.88484  15
  -4   4   7 135.135 10.4194   7
  -3   4   7 133.814 9.70869  15
  -3   4   7 151.391 9.99051   7
  -3   4   7 147.109 9.23200   2
  -3   4   7 142.807 9.92369  18
  -3   4   7 146.477 9.40031  17
  -3   4   7 137.760 9.33200   9
  -3   4   7 157.828 9.11705  10
  -3   4   7 150.313 9.48992  16
  -3   4   7 122.234 11.7588   3
  -2   4   7 152.694 8.82704  10
  -2   4   7 138.582 9.71238  18
  -2   4   7 141.063 9.44674  17
  -2   4   7 150.543 10.0256   7
  -2   4   7 134.674 9.47642  16
  -2   4   7 135.015 9.74591  15
  -2   4   7 148.302 9.37712   2
  -2   4   7 132.316 9.27212   9
  -1   4   7 143.368 9.04611   2
  -1   4   7 123.952 13.2905   3
  -1   4   7 138.678 9.41641   7
   0   4   7 79.2346 5.65113   2
   0   4   7 83.8569 5.78217   7
   0   4   7 69.6859 10.6999   3
   1   4   7 80.0420 11.6998   3
   1   4   7 91.9152 6.53912   2
   1   4   7 84.5336 6.21929   7
  -2  -4  -7 125.177 8.51200   5
  -3  -4  -7 156.214 21.5526   3
  -3  -4  -7 124.435 9.59667   8
  -3  -4  -7 157.243 10.5348   2
  -3  -4  -7 157.055 10.0636   5
  -4  -4  -7 116.699 8.41265   2
  -4  -4  -7 110.257 7.40896   8
  -4  -4  -7 114.515 8.11857   5
  -4  -4  -7 106.270 7.75413   9
  -5  -4  -7 81.8923 5.37686   8
  -5  -4  -7 73.7017 6.18261   5
  -5  -4  -7 80.3723 6.55463  14
  -5  -4  -7 83.8924 5.87922   9
  -5  -4  -7 81.5536 5.55234  10
  -6  -4  -7 75.7235 5.62192   9
  -6  -4  -7 77.4184 5.36682  10
  -6  -4  -7 75.8785 6.50388  14
  -7  -4  -7 22.1481 1.81910  10
  -7  -4  -7 24.8073 3.60445  14
  -8  -4  -7 116.479 8.16128  14
  -8  -4  -7 114.718 7.49239  10
  -6   5   7 0.59065 1.56540  16
  -5   5   7 34.2271 3.44655  16
  -4   5   7 -1.0016 1.63927  18
  -4   5   7 0.69378 0.36867  10
  -4   5   7 0.86703 1.32202  16
  -3   5   7 43.0076 2.81505  10
  -3   5   7 38.8499 3.88753  18
  -3   5   7 42.6861 3.38226  17
  -3   5   7 36.2255 4.10816   7
  -3   5   7 41.2597 3.67219  16
  -2   5   7 204.256 12.5009  10
  -2   5   7 191.853 12.7467  17
  -2   5   7 195.153 12.8896   9
  -2   5   7 192.589 12.8454   2
  -2   5   7 204.486 13.1339  18
  -2   5   7 191.052 13.2567  16
  -2   5   7 195.804 13.7081   7
  -1   5   7 1.57190 0.50708   8
  -1   5   7 0.72872 1.00367  17
  -1   5   7 2.50079 0.69535  10
  -1   5   7 0.81372 1.52025   7
  -1   5   7 -0.6540 5.07130   3
  -1   5   7 1.39155 0.89789   9
  -1   5   7 0.52796 1.37681   2
   0   5   7 255.397 15.7218   2
   0   5   7 248.241 15.9591  10
   0   5   7 230.674 16.1073   9
   0   5   7 222.490 22.2924   3
   0   5   7 255.440 15.8210   7
   0   5   7 246.183 15.8818   8
   1   5   7 10.0768 2.53633   2
   1   5   7 7.77558 1.93538   7
   1   5   7 8.17495 8.15732   3
   1   5   7 8.85894 1.49009   8
  -3  -5  -7 28.3768 2.51559   8
  -4  -5  -7 134.702 10.0411   9
  -4  -5  -7 161.051 9.78308   8
  -5  -5  -7 49.5352 4.23316   9
  -5  -5  -7 50.9107 3.52494   8
  -5  -5  -7 46.2606 3.65041  10
  -5  -5  -7 42.5019 4.29217  14
  -6  -5  -7 -0.1022 0.59240  10
  -6  -5  -7 0.88659 1.23869   9
  -6  -5  -7 -0.5951 1.97836  14
  -7  -5  -7 37.7058 2.77291  10
  -7  -5  -7 36.0220 3.82654  14
  -7  -5  -7 36.7498 2.99271   9
  -8  -5  -7 12.1570 1.44117  10
  -8  -5  -7 12.9177 2.41484  14
  -5   6   7 1.88182 1.50782  18
  -5   6   7 2.15717 1.80199  16
  -4   6   7 52.5297 4.24510  16
  -4   6   7 51.6703 4.24598  18
  -3   6   7 4.62763 1.83112  16
  -3   6   7 6.08095 0.89909  10
  -3   6   7 8.57053 1.84557  18
  -2   6   7 40.4428 3.00535   9
  -2   6   7 44.2685 4.42392  18
  -2   6   7 36.0501 4.13100  16
  -2   6   7 38.8165 3.36096  17
  -2   6   7 38.8998 2.79405  10
  -1   6   7 101.390 8.41983   7
  -1   6   7 107.792 7.53163   9
  -1   6   7 107.380 7.61243  17
  -1   6   7 112.502 7.03670  10
  -1   6   7 117.001 8.00761  18
   0   6   7 0.86587 1.47278   2
   0   6   7 0.88828 1.84465   7
   0   6   7 3.19086 1.31975   9
   0   6   7 1.96724 0.85163   8
   0   6   7 1.62944 0.66592  10
   1   6   7 187.290 12.5476   9
   1   6   7 179.470 13.1233   2
   1   6   7 193.682 12.1602   8
   2   6   7 64.3627 4.68622   8
  -3  -6  -7 66.2279 4.75301   8
  -4  -6  -7 20.2463 1.93741   8
  -5  -6  -7 19.3449 1.88585   8
  -5  -6  -7 17.1923 3.32411  14
  -6  -6  -7 34.4658 3.22925  14
  -6  -6  -7 32.5559 2.72298  10
  -7  -6  -7 0.60010 1.52130  14
  -7  -6  -7 1.04294 0.73886  10
  -7  -6  -7 0.86266 1.44012   9
  -4   7   7 1.92354 1.83635  18
  -3   7   7 49.9454 4.52889  18
  -3   7   7 59.2460 3.68865  10
  -2   7   7 45.3090 4.50346  18
  -2   7   7 35.4163 2.66620  10
  -1   7   7 14.7885 3.69477  18
  -1   7   7 8.21891 1.13250  10
   0   7   7 24.5544 2.74248   9
   0   7   7 26.7898 3.90022  18
   0   7   7 19.8319 1.58379   8
   0   7   7 21.2274 2.16001  10
   1   7   7 82.5716 6.92724  18
   2   7   7 99.2345 6.79539   8
   3   7   7 38.0248 3.35685   8
  -5  -7  -7 32.4612 2.99962  14
  -6  -7  -7 -0.0635 1.22974  14
  -3   8   7 8.21555 1.87789  18
  -2   8   7 10.2441 2.79282  18
  -1   8   7 82.6323 6.52619  18
   0   8   7 1.80937 1.55846  18
   0   8   7 0.17196 0.82271  10
   1   8   7 49.0615 4.63147  18
   2   8   7 14.6868 3.36960  18
   3   8   7 10.9803 2.19467  18
  -1   9   7 -0.5410 0.41941  10
   0   9   7 27.9781 3.03318  18
   1   9   7 0.14925 0.86942  18
   4   7  -8 34.8559 2.55582   8
  -4  -7   8 34.9817 2.16365   8
   3   7  -8 0.23546 0.31155   8
  -3  -7   8 0.39495 0.49572   8
   1   7  -8 14.9100 1.38547  10
   1   7  -8 19.1731 1.56501   9
   1   7  -8 21.1547 1.86548  11
   0   7  -8 11.8456 1.51555  11
   0   7  -8 13.2540 1.07705   9
   0   7  -8 10.7363 1.00288  10
  -1   7  -8 32.0024 2.19677  10
  -1   7  -8 32.5266 2.53930  11
  -6  -6   8 19.6312 1.48013   9
   5   6  -8 29.1967 2.05289   8
  -5  -6   8 30.4457 1.98848   8
   4   6  -8 7.56921 0.94397   8
  -4  -6   8 9.37730 1.12064   8
   3   6  -8 57.1107 3.67710   8
  -3  -6   8 52.8169 3.83013   8
   2   6  -8 31.7647 2.58434  11
   2   6  -8 31.7602 2.22530   8
   2   6  -8 31.3170 2.62613   9
   1   6  -8 18.2954 1.30671   8
   1   6  -8 15.9527 1.60839  11
   0   6  -8 113.578 7.01445   9
   0   6  -8 102.297 7.15185  11
   0   6  -8 98.4492 7.06076  12
   0   6  -8 103.179 6.89065  10
  -1   6  -8 2.50930 0.63169   9
  -1   6  -8 2.82363 0.51932  10
  -1   6  -8 1.73885 0.79103  12
  -1   6  -8 2.99300 0.94085  11
  -2   6  -8 75.4752 5.48797  11
  -2   6  -8 73.8565 5.01089  10
  -2   6  -8 80.6531 5.65707  12
  -3   6  -8 -0.4481 0.92070  11
  -4   6  -8 18.0005 2.08531  11
  -6  -5   8 43.6411 2.79374   9
  -6  -5   8 39.0706 2.80868  15
  -5  -5   8 7.76617 1.52900   9
  -5  -5   8 9.29595 1.21755  15
  -5  -5   8 7.72556 0.83340   8
  -4  -5   8 240.247 15.4517   8
   3   5  -8 30.7260 2.30874   8
  -3  -5   8 26.7602 2.75697   8
   2   5  -8 131.370 8.56895   8
   1   5  -8 97.2032 6.20094   8
   1   5  -8 92.4072 6.50667  11
   1   5  -8 93.1231 6.53088   9
   0   5  -8 35.5525 3.04721  11
   0   5  -8 34.7310 2.62593  10
   0   5  -8 34.1317 2.40232   8
  -1   5  -8 126.014 8.33067  10
  -1   5  -8 127.847 8.72144  11
  -1   5  -8 127.847 8.43786   9
  -1   5  -8 125.575 8.65119  12
  -2   5  -8 5.89743 0.95467   9
  -2   5  -8 4.47924 1.65602  11
  -2   5  -8 2.39182 1.37543  12
  -2   5  -8 6.46968 0.95358  10
  -3   5  -8 10.0532 1.85988  12
  -3   5  -8 7.71852 2.24887  18
  -3   5  -8 9.71298 0.84384  10
  -3   5  -8 10.0433 1.92796  11
  -4   5  -8 4.32695 1.59597  11
  -4   5  -8 4.87371 1.41759  12
  -4   5  -8 4.56295 1.81882  18
  -5   5  -8 11.2124 1.67594  12
  -5   5  -8 12.1407 2.22231  11
  -7  -4   8 16.9853 1.28724  15
  -7  -4   8 16.0883 1.17074  10
  -6  -4   8 47.1928 3.17648  16
  -6  -4   8 43.6587 3.08391   9
  -6  -4   8 45.1682 3.12134  15
  -6  -4   8 43.0971 3.05145  10
  -5  -4   8 101.744 6.70392   8
  -5  -4   8 108.376 6.83899   9
  -5  -4   8 97.9957 6.80444  15
  -4  -4   8 0.79107 1.47311   9
  -4  -4   8 1.29939 0.92130   8
  -4  -4   8 2.36151 0.85829  15
  -3  -4   8 102.945 6.82254   8
   2   4  -8 403.269 25.5434   8
   2   4  -8 396.339 26.3833   4
   1   4  -8 602.732 38.1225   9
   1   4  -8 590.302 37.8900   8
   1   4  -8 591.911 38.6946   2
   0   4  -8 178.503 11.4636  10
   0   4  -8 173.335 11.3666   8
   0   4  -8 174.112 11.6328   9
   0   4  -8 186.241 11.6938  11
   0   4  -8 172.353 11.9712   2
   0   4  -8 174.049 12.4384   4
  -1   4  -8 81.3403 5.87783  11
  -1   4  -8 78.3895 5.93242   2
  -1   4  -8 77.7308 6.88269   4
  -1   4  -8 86.2952 5.64968   9
  -1   4  -8 81.5618 5.28580   8
  -1   4  -8 84.5698 5.48772  10
  -2   4  -8 158.818 13.0962   4
  -2   4  -8 181.309 11.8648  11
  -2   4  -8 173.436 11.4347   9
  -2   4  -8 186.038 11.3735  10
  -2   4  -8 177.366 11.7816  12
  -3   4  -8 1.87690 1.26666  11
  -3   4  -8 0.81008 1.34995  12
  -3   4  -8 -0.8287 2.18170  18
  -3   4  -8 5.05198 0.83097  10
  -4   4  -8 70.1777 5.91365  11
  -4   4  -8 75.7798 4.92417  10
  -4   4  -8 73.2257 5.62165  12
  -5   4  -8 0.06522 1.32402  11
  -5   4  -8 -0.4404 1.64954  18
  -5   4  -8 -1.0175 1.11737  12
  -6   4  -8 6.10921 2.37257  12
  -6   4  -8 8.07607 2.00397  11
  -8  -3   8 4.11906 0.31194  10
  -8  -3   8 4.02107 0.46607  15
  -7  -3   8 63.4196 4.06284  10
  -7  -3   8 60.7145 4.11544  15
  -6  -3   8 34.8024 2.55928  15
  -6  -3   8 37.9467 2.56499   9
  -6  -3   8 34.2655 2.43610  10
  -6  -3   8 32.3010 2.55159  16
  -5  -3   8 24.1953 1.74657   8
  -5  -3   8 24.8384 2.35679   9
  -5  -3   8 24.4270 2.03709  15
  -5  -3   8 24.0259 2.07076  10
  -4  -3   8 221.528 14.8943   6
  -4  -3   8 199.317 14.7945   2
  -4  -3   8 210.217 13.5880  15
  -4  -3   8 212.888 14.2195   9
  -4  -3   8 221.962 13.5127   8
  -3  -3   8 43.5867 3.39371   8
  -3  -3   8 47.1220 4.89854   6
  -2  -3   8 273.759 19.1835   6
   1   3  -8 264.392 16.5594   2
   1   3  -8 266.609 16.7468   4
   1   3  -8 248.592 18.0357   8
   0   3  -8 12.2228 1.69028   9
   0   3  -8 13.5134 2.17565   4
   0   3  -8 10.7355 1.17364   8
   0   3  -8 14.3785 1.86529   2
  -1   3  -8 370.553 21.2239   2
  -1   3  -8 348.000 20.9691   9
  -1   3  -8 349.693 22.4085   4
  -1   3  -8 332.336 22.0192   8
  -1   3  -8 292.756 28.7172   3
  -1   3  -8 330.931 22.3572  11
  -1   3  -8 332.192 22.1103  10
  -2   3  -8 15.4893 2.51957  11
  -2   3  -8 17.3106 1.95932  12
  -2   3  -8 16.1932 1.82414   9
  -2   3  -8 16.9979 2.17987   2
  -2   3  -8 13.9784 2.57360  18
  -2   3  -8 16.0051 3.43123   4
  -2   3  -8 16.7587 1.45914  10
  -3   3  -8 182.680 13.6840  18
  -3   3  -8 192.858 14.6699   4
  -3   3  -8 201.946 12.4494  10
  -3   3  -8 196.776 12.9543  12
  -3   3  -8 212.023 13.2348  11
  -3   3  -8 182.640 12.9382   2
  -3   3  -8 192.083 12.6489   9
  -4   3  -8 29.5953 3.54876  12
  -4   3  -8 30.8396 4.02167  11
  -4   3  -8 28.5367 2.13097  10
  -4   3  -8 28.1170 4.62637  18
  -5   3  -8 62.9458 5.78521  12
  -5   3  -8 64.5768 6.10468  11
  -6   3  -8 33.0585 3.84346  11
  -6   3  -8 32.2050 3.67915  12
  -7   3  -8 4.11858 2.30860  11
  -7   3  -8 3.94114 1.89838  12
  -8  -2   8 41.0745 2.75509  15
  -7  -2   8 12.4050 1.01165  10
  -7  -2   8 12.1437 1.32253  16
  -7  -2   8 14.2526 1.32424  15
  -6  -2   8 52.4053 3.93548  16
  -6  -2   8 54.1982 3.67590   9
  -6  -2   8 54.1464 3.78635  15
  -6  -2   8 57.2083 3.68589  10
  -5  -2   8 183.709 11.4126   9
  -5  -2   8 167.195 12.4870   6
  -5  -2   8 174.079 11.1777   8
  -5  -2   8 174.657 11.3820  15
  -5  -2   8 176.139 11.3440  10
  -4  -2   8 0.86605 0.68184  10
  -4  -2   8 1.15106 0.53651   8
  -4  -2   8 1.08620 0.71713  15
  -4  -2   8 0.25119 1.01436   9
  -4  -2   8 0.09474 4.84437   3
  -4  -2   8 1.26658 1.75969   6
  -4  -2   8 0.38308 1.08936   2
  -3  -2   8 311.434 22.2530   9
  -3  -2   8 334.331 19.8976   2
  -3  -2   8 341.505 22.0092   8
  -2  -2   8 57.5598 5.22949   6
  -2  -2   8 55.0681 4.87680   2
   1   2  -8 284.197 18.1817   4
   1   2  -8 263.905 24.9183   3
   1   2  -8 297.368 18.1725   2
   0   2  -8 129.829 8.35553   2
   0   2  -8 129.692 8.57839   4
   0   2  -8 116.887 14.7077   3
  -1   2  -8 31.5544 2.88037   2
  -1   2  -8 25.6638 8.79326   3
  -1   2  -8 31.4755 3.52514   4
  -2   2  -8 361.126 30.6335   3
  -2   2  -8 392.222 24.1067   2
  -2   2  -8 389.213 23.8949   4
  -2   2  -8 360.440 23.5104  10
  -2   2  -8 337.800 23.3683   8
  -2   2  -8 393.469 23.8952  12
  -2   2  -8 323.062 23.6294   9
  -3   2  -8 12.1990 1.37316  10
  -3   2  -8 15.5554 2.93026  11
  -3   2  -8 13.7856 1.90968   2
  -3   2  -8 12.6924 2.30521  12
  -3   2  -8 14.5264 1.68619   9
  -3   2  -8 13.7602 2.01442  13
  -3   2  -8 15.3436 4.32535   4
  -3   2  -8 8.97538 7.48382   3
  -3   2  -8 13.4861 2.90027  18
  -4   2  -8 237.727 20.1933   4
  -4   2  -8 302.640 18.7070  11
  -4   2  -8 278.146 17.8579  13
  -4   2  -8 282.504 18.8441  18
  -4   2  -8 259.826 18.0655  12
  -4   2  -8 279.840 17.5363  10
  -5   2  -8 39.4410 3.86031  12
  -5   2  -8 39.6762 5.26858  11
  -5   2  -8 41.0588 3.59245  13
  -5   2  -8 36.2618 5.83971  18
  -5   2  -8 36.1021 2.57632  10
  -6   2  -8 36.8172 3.70176  13
  -6   2  -8 35.9244 4.69421  11
  -6   2  -8 36.1317 4.11909  12
  -7   2  -8 40.3985 4.61977  11
  -7   2  -8 40.8299 3.55031  13
  -7   2  -8 34.7341 3.28713  12
  -8  -1   8 11.8163 1.03607  15
  -7  -1   8 20.0677 1.88962  16
  -7  -1   8 20.4750 1.65393  15
  -7  -1   8 22.6083 2.90981  14
  -7  -1   8 21.5190 1.43692  10
  -6  -1   8 33.9916 2.21757   9
  -6  -1   8 31.0699 2.69107  16
  -6  -1   8 26.3763 3.19203  14
  -6  -1   8 32.5962 2.49272  15
  -6  -1   8 33.4462 2.24971  10
  -5  -1   8 88.9557 7.11419   6
  -5  -1   8 91.5177 6.14699  16
  -5  -1   8 91.1564 5.91028  15
  -5  -1   8 89.9135 5.85793   9
  -5  -1   8 91.6402 5.78364  10
  -5  -1   8 80.1060 6.30005   2
  -4  -1   8 360.059 22.7064  10
  -4  -1   8 364.372 21.9701   6
  -4  -1   8 346.873 22.6028   8
  -4  -1   8 338.672 22.7500   9
  -4  -1   8 334.885 22.7174  15
  -3  -1   8 0.08560 1.20964   2
  -3  -1   8 0.00791 4.16968   3
  -3  -1   8 0.57291 1.80777   6
   1   1  -8 129.732 8.44977   4
   1   1  -8 119.966 13.8916   3
  -1  -1   8 133.651 8.28288   2
  -1  -1   8 125.727 8.58101   6
  -1  -1   8 103.805 12.3725   3
   0   1  -8 195.074 17.5948   3
   0   1  -8 192.530 12.3601   4
   0   1  -8 188.924 13.9477   1
   0   1  -8 184.906 12.2065   2
  -1   1  -8 508.376 34.2526   4
  -1   1  -8 499.821 36.7705   3
  -1   1  -8 509.645 33.9564   2
  -2   1  -8 1.36122 6.00757   3
  -2   1  -8 -0.0638 1.03406   4
  -2   1  -8 -0.2061 0.88535   2
  -2   1  -8 0.76387 1.02313   5
  -3   1  -8 290.638 20.1569   9
  -3   1  -8 315.193 19.2771  13
  -3   1  -8 308.579 21.1886   4
  -3   1  -8 298.747 27.0516   3
  -3   1  -8 313.156 19.5424   2
  -3   1  -8 267.947 20.8929  18
  -3   1  -8 305.632 19.6258  12
  -3   1  -8 311.740 20.8796  11
  -3   1  -8 329.861 19.8794   5
  -3   1  -8 303.890 19.3379  10
  -4   1  -8 248.059 17.1012  11
  -4   1  -8 248.122 16.0981   2
  -4   1  -8 235.272 15.8809   9
  -4   1  -8 257.421 17.3476  18
  -4   1  -8 219.607 18.3232   4
  -4   1  -8 246.936 16.4707  12
  -4   1  -8 259.613 15.9658  10
  -4   1  -8 276.065 16.2696  13
  -4   1  -8 239.303 16.8104   5
  -5   1  -8 255.226 16.6793  12
  -5   1  -8 244.340 15.8386  10
  -5   1  -8 255.106 17.5344  11
  -5   1  -8 253.935 16.2094  13
  -5   1  -8 223.681 18.6109   4
  -6   1  -8 49.5652 4.64523  12
  -6   1  -8 52.4957 3.99824  13
  -6   1  -8 46.2404 5.66637  11
  -7   1  -8 3.64621 1.95958  12
  -7   1  -8 2.56711 1.80775  13
  -7   1  -8 5.62443 2.37582  11
  -8   1  -8 36.3796 3.26514  13
  -8   1  -8 36.2457 4.58210  12
  -8   0   8 71.2186 4.76176  15
  -8   0   8 73.0041 4.82487  16
  -7   0   8 12.3296 1.55438  16
  -7   0   8 14.3245 2.22329  14
  -7   0   8 12.9526 0.97927  10
  -7   0   8 11.6081 1.74282  15
  -6   0   8 5.80348 0.70597  10
  -6   0   8 6.53438 2.15587  14
  -6   0   8 5.52102 1.13565  16
  -6   0   8 5.69984 0.90269  15
  -5   0   8 282.215 16.9671  10
  -5   0   8 261.752 17.9392  14
  -5   0   8 266.778 17.0967  15
  -5   0   8 265.098 17.2890  16
  -5   0   8 261.900 18.1029   6
  -5   0   8 282.930 17.0219   9
  -5   0   8 250.796 17.7772   2
  -4   0   8 13.9754 2.35981  14
  -4   0   8 6.88015 5.49020   3
  -4   0   8 12.4552 2.75424   6
  -4   0   8 10.9142 1.28846   9
  -4   0   8 10.8528 0.85289   8
  -4   0   8 8.72501 1.31180  16
  -4   0   8 11.7655 1.11953  10
  -4   0   8 10.4492 1.59175   2
  -4   0   8 8.19824 1.30483  15
  -3   0   8 543.217 34.1667   6
  -3   0   8 514.736 34.2845   2
  -2   0   8 5.86342 1.37217   2
  -2   0   8 6.71615 2.04329   6
  -2   0   8 2.92834 4.52224   3
   1   0  -8 83.5890 6.18606   1
  -1   0   8 90.0479 10.3559   3
  -1   0   8 83.4899 5.95376   1
  -1   0   8 92.0466 6.28610   6
  -1   0   8 92.2227 6.15789   2
   0   0  -8 1513.63 97.1054   4
   0   0  -8 1553.28 103.902   3
   0   0  -8 1552.40 97.1655   2
   0   0  -8 1471.39 98.7086   1
   0   0   8 1489.87 100.597   3
   0   0   8 1489.03 96.7907   1
   0   0   8 1379.60 82.8488   2
  -1   0  -8 52.7268 12.4341   3
  -1   0  -8 46.3633 3.80904   1
  -1   0  -8 51.0009 4.36594   4
  -1   0  -8 55.8555 4.18090   2
  -2   0  -8 409.230 37.3476   3
  -2   0  -8 460.610 30.8587   4
  -2   0  -8 497.817 29.1112   2
  -2   0  -8 455.690 29.2343   5
  -3   0  -8 0.23305 0.97796   2
  -3   0  -8 0.83516 8.96673   3
  -3   0  -8 -0.2802 1.22165   5
  -3   0  -8 0.63118 1.23015   4
  -4   0  -8 197.006 15.8456  11
  -4   0  -8 230.576 17.1384   4
  -4   0  -8 190.411 22.4742   3
  -4   0  -8 231.337 14.9863  12
  -4   0  -8 230.263 14.0753  10
  -4   0  -8 238.439 14.3414   2
  -4   0  -8 229.394 14.8854   5
  -4   0  -8 219.331 14.7348   9
  -4   0  -8 232.675 14.1288  13
  -5   0  -8 62.1380 5.51349   5
  -5   0  -8 62.9080 4.91980  12
  -5   0  -8 68.5690 4.73872  13
  -5   0  -8 65.4850 4.26128  10
  -5   0  -8 49.6013 5.82616  11
  -6   0  -8 -0.9899 1.54588  12
  -6   0  -8 0.63787 0.48863  10
  -6   0  -8 -3.0649 3.52353  11
  -6   0  -8 -0.5150 1.04482  13
  -7   0  -8 126.653 9.30412  12
  -7   0  -8 131.985 8.83581  13
  -8   0  -8 -0.2749 0.78897  13
  -8   0  -8 -0.5285 1.30143  12
  -8   1   8 0.81886 0.78747  15
  -8   1   8 0.40845 0.75137  16
  -7   1   8 37.2329 3.79333  14
  -7   1   8 42.6497 2.85065  15
  -7   1   8 40.0579 3.30545  16
  -6   1   8 153.588 10.0845  14
  -6   1   8 152.492 9.63360  16
  -6   1   8 140.683 10.3293  10
  -6   1   8 146.774 9.44890  15
  -5   1   8 347.065 25.0466   6
  -5   1   8 366.261 23.2417  16
  -5   1   8 365.919 23.5809  14
  -5   1   8 368.915 22.9176  10
  -5   1   8 362.229 23.0797  15
  -4   1   8 188.387 11.9825   2
  -4   1   8 195.058 12.3616  14
  -4   1   8 181.508 11.7763  15
  -4   1   8 181.029 11.9482  16
  -4   1   8 193.384 12.8092   6
  -4   1   8 177.294 12.6861   9
  -4   1   8 182.719 11.6565  10
  -4   1   8 178.882 12.2285  17
  -3   1   8 7.30594 1.61224   7
  -3   1   8 8.70640 1.43261   2
  -3   1   8 4.72083 3.81849   3
  -3   1   8 7.37931 2.27659   6
  -2   1   8 342.893 20.2492   2
  -2   1   8 355.167 27.9804   3
  -2   1   8 368.452 24.4614   6
   1  -1  -8 53.0607 4.52544   1
  -1   1   8 66.0822 4.80563   6
  -1   1   8 64.0934 4.50962   2
  -1   1   8 63.6950 8.47631   3
  -1   1   8 61.4295 4.33012   1
   0  -1  -8 179.602 11.8703   1
   0  -1  -8 177.176 12.0405   2
   0  -1  -8 162.357 18.7542   3
   0  -1  -8 177.999 11.8365   1
   0   1   8 178.693 11.8998   6
   0   1   8 195.305 16.3806   3
   0   1   8 176.026 11.8979   2
   0   1   8 182.884 11.7668   1
   0   1   8 176.968 11.7269   1
  -1  -1  -8 445.338 35.1407   3
  -1  -1  -8 416.404 28.3845   1
  -1  -1  -8 451.587 28.5553   2
   1   1   8 430.603 28.3263   1
  -2  -1  -8 46.7539 3.80723   5
  -2  -1  -8 42.8755 12.2122   3
  -2  -1  -8 51.8913 3.75737   2
  -2  -1  -8 43.2710 4.29177   4
  -3  -1  -8 430.310 26.6408   2
  -3  -1  -8 430.603 26.8156   5
  -3  -1  -8 363.916 35.3643   3
  -4  -1  -8 88.5983 5.87942  10
  -4  -1  -8 85.9947 6.01318   9
  -4  -1  -8 87.9339 6.02684  13
  -4  -1  -8 87.3423 6.63219  12
  -4  -1  -8 92.9165 6.45338   2
  -4  -1  -8 86.4964 6.78637  14
  -4  -1  -8 98.1495 6.91581   5
  -5  -1  -8 54.7923 5.18326  14
  -5  -1  -8 40.0616 6.17751  11
  -5  -1  -8 51.4047 4.96104   5
  -5  -1  -8 51.8404 4.02938   2
  -5  -1  -8 55.1836 4.02545  13
  -5  -1  -8 54.8989 3.62791  10
  -5  -1  -8 52.0092 4.59730  12
  -5  -1  -8 51.5104 3.72235   9
  -6  -1  -8 50.8773 4.69986  12
  -6  -1  -8 52.7010 5.54357  14
  -6  -1  -8 56.8830 4.33342  13
  -6  -1  -8 52.0422 3.68625  10
  -7  -1  -8 13.9860 2.54135  14
  -7  -1  -8 12.3273 2.03391  13
  -7  -1  -8 11.1647 2.41509  12
  -8  -1  -8 49.0307 4.12962  13
  -8  -1  -8 42.3164 4.65617  12
  -8   2   8 21.1128 1.87233  15
  -8   2   8 18.8374 1.90224  16
  -7   2   8 22.4347 1.96359  16
  -7   2   8 21.2475 1.87690  15
  -6   2   8 73.4997 5.85762  14
  -6   2   8 74.2844 5.20858  15
  -6   2   8 77.6358 5.25471  16
  -5   2   8 133.482 11.1366   6
  -5   2   8 143.640 9.44973  17
  -5   2   8 158.890 9.51209  15
  -5   2   8 138.252 9.20625  10
  -5   2   8 148.268 9.64676  16
  -5   2   8 143.567 10.0534  14
  -4   2   8 4.90232 0.88822   2
  -4   2   8 4.85258 2.05679   6
  -4   2   8 3.22753 1.19097   7
  -4   2   8 2.05550 3.01188   3
  -4   2   8 4.38047 0.86602  17
  -4   2   8 4.22615 0.65572  10
  -4   2   8 4.35526 1.07697  15
  -4   2   8 8.26939 2.70234  14
  -4   2   8 4.85617 0.72585   9
  -4   2   8 2.95898 0.90381  16
  -3   2   8 433.826 25.9459   7
  -3   2   8 425.663 26.3440   6
  -3   2   8 450.468 27.3849  17
  -3   2   8 445.930 27.4784   2
  -3   2   8 387.266 31.5930   3
  -3   2   8 435.291 28.4062  14
  -3   2   8 426.332 28.4166  10
  -3   2   8 414.352 28.4761   9
  -2   2   8 117.110 7.49449   7
  -2   2   8 122.181 7.94203   2
  -2   2   8 103.484 11.4276   3
  -2   2   8 117.135 8.44741   6
  -1   2   8 110.103 7.86248   6
  -1   2   8 108.122 7.43305   2
  -1   2   8 107.761 11.4829   3
   0  -2  -8 433.556 28.3200   1
   0   2   8 466.362 28.4707   2
   0   2   8 422.328 28.3580   1
  -1  -2  -8 155.047 18.4654   3
  -1  -2  -8 135.392 10.0829   1
  -1  -2  -8 152.827 10.0547   2
   1   2   8 155.072 10.0610   2
  -2  -2  -8 193.631 12.9491   2
  -2  -2  -8 193.930 12.9825   5
  -2  -2  -8 191.172 22.0951   3
  -3  -2  -8 8.49722 1.80401   5
  -3  -2  -8 7.93745 9.69669   3
  -4  -2  -8 580.263 35.8282  13
  -4  -2  -8 596.995 36.3991   5
  -4  -2  -8 613.131 36.3435   2
  -4  -2  -8 542.156 35.7126  10
  -4  -2  -8 486.741 45.5976   3
  -4  -2  -8 542.280 35.6002   8
  -4  -2  -8 557.780 35.8715   9
  -5  -2  -8 137.967 8.93380  13
  -5  -2  -8 133.461 9.55828  14
  -5  -2  -8 129.990 9.71892   5
  -5  -2  -8 131.933 8.82179   9
  -5  -2  -8 142.430 8.74060  10
  -5  -2  -8 128.327 9.23658   2
  -5  -2  -8 124.611 9.56775  12
  -6  -2  -8 28.4615 2.24138   9
  -6  -2  -8 28.4741 3.42510  12
  -6  -2  -8 31.6114 2.24172  10
  -6  -2  -8 30.6479 4.31897  14
  -6  -2  -8 31.6972 2.93615  13
  -7  -2  -8 80.0029 7.06305  12
  -7  -2  -8 92.8936 5.79303  10
  -7  -2  -8 83.2231 6.69597  14
  -7  -2  -8 88.6819 6.23068  13
  -8  -2  -8 0.27376 1.01255  13
  -8  -2  -8 -0.3284 1.47062  14
  -7   3   8 20.3725 1.99487  15
  -7   3   8 23.5442 2.62137  16
  -6   3   8 49.0237 3.55669  17
  -6   3   8 45.2013 3.66061  15
  -6   3   8 46.5096 3.45526  16
  -5   3   8 54.0038 3.35096  10
  -5   3   8 54.1901 4.19214  16
  -5   3   8 49.6301 3.69783  17
  -5   3   8 47.4923 3.82692  15
  -4   3   8 243.986 14.4038  10
  -4   3   8 207.685 16.2125   6
  -4   3   8 225.904 14.7179  16
  -4   3   8 221.227 15.4234   7
  -4   3   8 231.644 14.6570  17
  -4   3   8 226.722 14.6695  15
  -3   3   8 1.17333 4.47097   3
  -3   3   8 0.25055 0.77909  17
  -3   3   8 1.75637 0.75716   2
  -3   3   8 -0.4367 1.81863   6
  -3   3   8 1.20028 0.52783  10
  -3   3   8 0.20827 0.79445  16
  -3   3   8 0.15105 1.22069   7
  -3   3   8 1.84282 0.62257   9
  -2   3   8 285.346 17.2513   2
  -2   3   8 285.167 17.5718   7
  -2   3   8 222.127 20.3227   3
  -1   3   8 10.5515 1.87654   2
  -1   3   8 9.49798 2.03960   7
   0   3   8 36.7642 7.46597   3
   0   3   8 48.1347 3.58209   2
   1   3   8 228.387 15.5542   7
   1   3   8 249.066 15.5229   2
   1   3   8 228.019 21.5546   3
  -2  -3  -8 0.19685 0.99889   2
  -2  -3  -8 -0.0291 0.91265   5
  -2  -3  -8 -0.0329 8.30558   3
  -3  -3  -8 133.752 9.18053   5
  -3  -3  -8 130.891 9.53267   2
  -4  -3  -8 70.2541 5.04914   9
  -4  -3  -8 70.7802 5.43495   5
  -4  -3  -8 73.1150 5.57466   2
  -4  -3  -8 66.6439 4.72086  10
  -4  -3  -8 68.0427 4.97245  13
  -4  -3  -8 69.3415 4.66514   8
  -5  -3  -8 28.3206 2.65339   9
  -5  -3  -8 22.7072 3.38414   5
  -5  -3  -8 22.2374 1.75062   8
  -5  -3  -8 23.8136 3.03373   2
  -5  -3  -8 19.0711 3.80629  14
  -5  -3  -8 24.2515 2.41493  13
  -5  -3  -8 27.4317 2.21570  10
  -6  -3  -8 466.973 31.5959  14
  -6  -3  -8 492.697 30.8498  10
  -6  -3  -8 459.830 30.9599  13
  -6  -3  -8 505.912 30.9313   9
  -7  -3  -8 36.3626 2.62720  10
  -7  -3  -8 36.4468 3.09519  13
  -7  -3  -8 36.8285 4.32574  14
  -8  -3  -8 47.2700 3.92458  14
  -8  -3  -8 41.6449 3.35489  13
  -7   4   8 16.9803 1.95885  16
  -6   4   8 33.2184 2.88457  15
  -6   4   8 34.4434 2.98404  16
  -6   4   8 31.3792 2.62976  17
  -5   4   8 15.7616 2.40785  15
  -5   4   8 17.0908 1.91990  17
  -5   4   8 15.0246 1.92491  16
  -4   4   8 -1.7267 0.92020  17
  -4   4   8 -0.6514 1.06952  16
  -4   4   8 0.45448 0.38136  10
  -4   4   8 0.03394 1.29257   7
  -3   4   8 250.820 17.4896  18
  -3   4   8 266.592 16.8004  17
  -3   4   8 253.957 17.0055   9
  -3   4   8 272.796 16.5328  10
  -3   4   8 262.368 16.8807  15
  -3   4   8 255.606 17.1883   2
  -3   4   8 259.083 16.8381  16
  -3   4   8 268.874 17.4036   7
  -2   4   8 24.8152 2.22282  17
  -2   4   8 26.4785 3.08384   7
  -2   4   8 19.9414 2.64575  18
  -2   4   8 20.3375 2.38038  16
  -2   4   8 21.6734 3.02486  15
  -2   4   8 25.3393 1.90276  10
  -2   4   8 27.6363 2.47735   2
  -2   4   8 24.1764 2.14265   9
  -1   4   8 341.214 20.5671   2
  -1   4   8 295.418 20.6777   9
  -1   4   8 289.476 20.5040   8
  -1   4   8 341.004 20.6445  10
  -1   4   8 334.257 20.3066   7
  -1   4   8 306.853 20.7454  17
   0   4   8 166.296 10.9576   2
   0   4   8 169.644 11.1280   7
   0   4   8 142.756 16.2543   3
   1   4   8 546.761 45.4358   3
   1   4   8 612.465 37.8432   7
   1   4   8 619.181 37.8928   2
  -2  -4  -8 41.2066 3.44481   5
  -3  -4  -8 0.97027 11.0142   3
  -3  -4  -8 3.97783 0.87721   8
  -3  -4  -8 3.76439 1.41113   2
  -3  -4  -8 3.98211 1.32593   5
  -4  -4  -8 252.850 16.9759   5
  -4  -4  -8 239.592 16.5569   9
  -4  -4  -8 255.011 17.2025   2
  -4  -4  -8 261.512 16.2667   8
  -5  -4  -8 120.930 7.75106   8
  -5  -4  -8 98.8896 8.54864   5
  -5  -4  -8 121.103 7.91195   9
  -5  -4  -8 120.075 7.91746  10
  -6  -4  -8 6.29826 1.59036   9
  -6  -4  -8 3.42599 2.80044  14
  -6  -4  -8 6.65315 1.21335  10
  -7  -4  -8 7.97077 1.18505  10
  -7  -4  -8 6.67648 3.33227  14
  -8  -4  -8 64.8116 4.93122  14
  -8  -4  -8 61.3389 4.13114  10
  -6   5   8 21.5741 2.29602  16
  -6   5   8 22.7575 2.16301  17
  -5   5   8 6.24829 1.11000  17
  -5   5   8 4.06840 1.14637  16
  -4   5   8 197.061 11.8127  10
  -4   5   8 174.349 12.3776  18
  -4   5   8 171.398 12.2447  16
  -4   5   8 194.251 12.2809  17
  -3   5   8 3.13842 0.98199  17
  -3   5   8 2.41229 1.87980  18
  -3   5   8 1.49748 1.22455  16
  -3   5   8 2.73968 0.61515  10
  -2   5   8 171.100 11.4154  17
  -2   5   8 162.287 11.4761  16
  -2   5   8 170.474 12.1441   7
  -2   5   8 167.257 11.5115   2
  -2   5   8 172.468 11.2021   9
  -2   5   8 170.921 11.5002  18
  -2   5   8 180.715 10.8089  10
  -1   5   8 84.4669 6.12097   2
  -1   5   8 85.1280 6.34268   7
  -1   5   8 81.1867 5.45571   8
  -1   5   8 79.1035 5.76743  17
  -1   5   8 83.5012 5.37617  10
  -1   5   8 79.4609 5.79001   9
   0   5   8 146.928 10.5937  17
   0   5   8 163.375 10.5313  10
   0   5   8 170.172 11.4857   7
   0   5   8 157.880 10.7309   9
   0   5   8 162.513 10.4497   8
   0   5   8 168.033 11.2217   2
   1   5   8 310.006 18.6416   2
   1   5   8 246.733 25.4123   3
   1   5   8 250.352 17.6696   8
   1   5   8 297.933 18.4905   7
   2   5   8 23.7521 2.51652   8
  -3  -5  -8 343.509 22.0962   8
  -4  -5  -8 25.9736 2.38865   8
  -4  -5  -8 21.6300 3.07761   9
  -5  -5  -8 79.4361 5.99862   9
  -5  -5  -8 78.3677 5.49795   8
  -6  -5  -8 52.9537 4.04382   9
  -6  -5  -8 46.6821 4.64438  14
  -6  -5  -8 46.4793 3.50993  10
  -7  -5  -8 2.91424 1.66756  14
  -7  -5  -8 0.69763 1.02341  10
  -7  -5  -8 1.00630 0.99249   9
  -8  -5  -8 8.86798 3.26663  14
  -8  -5  -8 11.7828 1.32614  10
  -5   6   8 48.5288 3.56710  17
  -5   6   8 45.4244 4.13085  16
  -4   6   8 -0.2022 1.63350  16
  -4   6   8 -0.0609 1.27110  17
  -4   6   8 -0.3596 1.19338  18
  -3   6   8 109.751 7.36539  17
  -3   6   8 100.617 7.66459  16
  -3   6   8 111.022 6.91523  10
  -3   6   8 100.780 7.76413  18
  -2   6   8 55.4046 3.68438  10
  -2   6   8 48.7264 4.10525  17
  -2   6   8 53.0169 5.06525  18
  -2   6   8 53.0294 3.82482   9
  -1   6   8 41.4850 3.43375  17
  -1   6   8 39.4780 4.43279   7
  -1   6   8 44.3481 3.11606  10
  -1   6   8 43.3877 3.42615   9
  -1   6   8 43.5700 4.70582  18
   0   6   8 36.2057 4.01337   7
   0   6   8 32.1983 4.05962   2
   0   6   8 43.9514 3.06255  10
   0   6   8 41.7251 2.85988   8
   0   6   8 43.5718 3.45058   9
   1   6   8 1.60192 1.93925   2
   1   6   8 5.01970 1.14377   8
   1   6   8 5.63736 1.79124   9
   2   6   8 193.381 12.6344   8
  -3  -6  -8 12.2135 2.10715   8
  -4  -6  -8 121.373 8.08483   8
  -5  -6  -8 36.3601 3.77445  14
  -5  -6  -8 44.9459 3.25255   8
  -5  -6  -8 49.5392 4.00798   9
  -6  -6  -8 11.7720 1.52481  10
  -6  -6  -8 10.2156 2.78711  14
  -6  -6  -8 11.4704 1.74996   9
  -7  -6  -8 23.7383 2.11260   9
  -7  -6  -8 22.5827 1.88206  10
  -7  -6  -8 21.3605 2.25540  14
  -4   7   8 49.6803 3.98741  17
  -4   7   8 52.1135 4.12854  18
  -3   7   8 -0.4761 2.07853  18
  -3   7   8 -0.3836 0.52198  10
  -2   7   8 63.9331 4.18121  10
  -2   7   8 66.7199 5.58782  18
  -2   7   8 57.0719 4.81723  17
  -1   7   8 17.5848 1.91650  10
  -1   7   8 20.2563 2.33613   9
  -1   7   8 16.6631 4.25521  18
   0   7   8 45.0189 3.21007  10
   0   7   8 48.8993 4.27431  18
   0   7   8 37.9223 2.86134   8
   0   7   8 50.4641 3.81982   9
   1   7   8 20.2242 2.53437   9
   1   7   8 24.7156 2.12864   8
   2   7   8 2.42756 1.17949   8
   2   7   8 0.41553 1.42612   9
   3   7   8 88.1028 6.03046   8
  -4  -7  -8 5.08007 0.94678   8
  -5  -7  -8 35.4663 2.76486   8
  -5  -7  -8 32.1430 3.55613  14
  -6  -7  -8 30.8681 3.15689  14
  -6  -7  -8 32.9448 3.01098   9
  -3   8   8 30.5189 3.36615  18
  -2   8   8 13.5960 1.21463  10
  -2   8   8 16.1122 3.07062  18
  -1   8   8 17.6997 2.65797  18
  -1   8   8 17.2339 1.67353  10
   0   8   8 49.0546 3.72715  10
   0   8   8 55.2913 4.96120  18
   1   8   8 14.1335 3.30227  18
   1   8   8 9.95036 1.81769  10
   2   8   8 221.823 16.0069   9
   2   8   8 219.649 13.6596  18
   3   8   8 45.0340 4.01491  18
  -5  -8  -8 5.57413 1.05489   8
   0   9   8 5.46605 1.98749  18
   0   9   8 4.86606 0.87771  10
   1   9   8 38.4889 3.48344  18
  -3  -7   9 29.4509 2.04393   8
   2   7  -9 2.93430 0.61272   9
   1   7  -9 26.8898 1.76258   9
   1   7  -9 20.2707 1.63208  10
   0   7  -9 0.60810 0.29231  10
   0   7  -9 1.60660 0.54359  11
  -1   7  -9 10.7910 0.81820  10
   5   6  -9 15.7756 1.10573   8
  -5  -6   9 15.2366 1.04977   8
   4   6  -9 35.2779 2.60937   8
  -4  -6   9 32.8376 2.11200   8
   3   6  -9 13.1933 1.10038   8
  -3  -6   9 15.5436 1.58282   8
   2   6  -9 58.0826 3.83962   8
   1   6  -9 6.30109 1.01839   9
   1   6  -9 6.02828 0.59141   8
   0   6  -9 39.7483 2.71887  10
   0   6  -9 34.8650 2.83783  11
   0   6  -9 37.6362 2.85927  12
   0   6  -9 41.2638 2.85496   9
  -1   6  -9 35.3712 2.83923  11
  -1   6  -9 35.3013 2.30978   9
  -1   6  -9 31.9033 2.29098  10
  -1   6  -9 29.3865 2.65600  12
  -2   6  -9 17.7838 2.17943  11
  -2   6  -9 17.9907 1.80886  12
  -2   6  -9 17.8290 1.37330  10
  -3   6  -9 26.7490 2.39464  11
  -6  -5   9 42.0700 2.81517   9
  -5  -5   9 45.1463 2.96471   8
  -4  -5   9 4.54418 0.68020   8
   3   5  -9 115.357 7.27825   8
  -3  -5   9 112.439 7.66754   8
   2   5  -9 0.34390 0.43038   8
   1   5  -9 43.9098 3.02910   8
   0   5  -9 12.2558 1.32697  10
   0   5  -9 12.4601 1.69842   9
   0   5  -9 12.4837 1.69416  11
   0   5  -9 12.6670 1.05457   8
  -1   5  -9 62.1677 4.65751  12
  -1   5  -9 64.6085 4.36898  10
  -1   5  -9 64.7929 4.48671   9
  -1   5  -9 63.2537 4.78717  11
  -2   5  -9 67.8465 4.38401   9
  -2   5  -9 60.6591 5.07452  11
  -2   5  -9 70.3424 4.48721  10
  -2   5  -9 69.9961 4.90419  12
  -3   5  -9 29.8349 2.87111  11
  -3   5  -9 28.5625 2.06963  10
  -3   5  -9 34.0129 3.23849  12
  -4   5  -9 22.2128 2.30224  11
  -4   5  -9 22.8069 2.24627  12
  -5   5  -9 -0.0414 0.84744  11
  -6  -4   9 14.0341 1.16839  15
  -6  -4   9 15.0270 1.26018  16
  -6  -4   9 16.8548 1.35392   9
  -6  -4   9 14.0891 1.15551  10
  -5  -4   9 88.0681 5.57273   8
  -5  -4   9 84.3186 5.78519   9
  -4  -4   9 40.3704 3.37961   9
  -4  -4   9 42.0714 2.88462   8
  -3  -4   9 60.8292 4.32113   8
   2   4  -9 9.22162 1.14227   8
   1   4  -9 81.8908 6.62721   4
   1   4  -9 80.3209 5.94954   9
   1   4  -9 96.1619 5.73927   8
   0   4  -9 104.225 7.27790  11
   0   4  -9 109.727 6.96390   8
   0   4  -9 98.1668 7.90594   4
   0   4  -9 112.712 7.06603  10
  -1   4  -9 26.4487 2.68188  12
  -1   4  -9 25.1901 2.65085  11
  -1   4  -9 23.8134 1.74185   8
  -1   4  -9 27.3665 2.35141   9
  -1   4  -9 27.0970 2.03756  10
  -1   4  -9 22.3396 3.52425   4
  -2   4  -9 85.8642 6.44424  11
  -2   4  -9 89.7798 5.87904  10
  -2   4  -9 91.6716 6.47238  12
  -2   4  -9 85.3113 5.94571   9
  -3   4  -9 95.9712 6.62285  12
  -3   4  -9 87.7968 5.84933  10
  -3   4  -9 82.8132 6.40346  11
  -4   4  -9 0.56443 1.99193  11
  -4   4  -9 -2.0988 2.18129  18
  -4   4  -9 1.13678 1.15321  12
  -4   4  -9 1.58419 0.41490  10
  -5   4  -9 114.920 7.41213  12
  -5   4  -9 113.124 8.87000  11
  -6   4  -9 2.19534 1.05549  11
  -7  -3   9 14.2385 1.31849  15
  -7  -3   9 13.0976 1.33709  16
  -6  -3   9 157.098 9.44041  10
  -6  -3   9 143.050 9.45697  15
  -6  -3   9 154.718 9.56411  16
  -6  -3   9 136.154 9.76133   9
  -5  -3   9 54.3521 3.42957   8
  -5  -3   9 47.0033 3.52623  10
  -5  -3   9 57.3368 3.80745   9
  -5  -3   9 49.7871 3.59135  15
  -4  -3   9 52.4685 3.90397   9
  -4  -3   9 54.2236 3.50619   8
  -4  -3   9 45.1828 4.69200   6
  -3  -3   9 121.896 8.03681   8
   1   3  -9 369.998 23.4389   4
   1   3  -9 360.443 23.9397   8
   0   3  -9 3.26016 6.95354   3
   0   3  -9 7.53021 2.08136   4
   0   3  -9 6.38348 1.04210   8
  -1   3  -9 43.2235 3.67616  11
  -1   3  -9 44.9569 3.17808   8
  -1   3  -9 45.9363 3.53333   9
  -1   3  -9 46.1616 3.86276   2
  -1   3  -9 46.1652 3.11799  10
  -1   3  -9 45.9039 4.71412   4
  -2   3  -9 72.2317 5.16102   9
  -2   3  -9 80.8802 5.56768  12
  -2   3  -9 72.2917 5.53150  11
  -2   3  -9 77.9242 4.99344  10
  -2   3  -9 72.0487 6.61777   4
  -2   3  -9 71.7397 5.73327   2
  -3   3  -9 13.7610 3.80686   4
  -3   3  -9 16.7116 3.70931  18
  -3   3  -9 18.5616 1.75097   9
  -3   3  -9 17.0250 2.47890  11
  -3   3  -9 16.4735 1.58889  10
  -3   3  -9 16.9285 2.81517  12
  -4   3  -9 112.350 8.17347  12
  -4   3  -9 118.100 8.41042  11
  -4   3  -9 110.571 7.47051  10
  -5   3  -9 1.79077 1.82448  11
  -5   3  -9 2.33638 1.43235  12
  -6   3  -9 27.6632 4.09269  11
  -6   3  -9 28.0607 3.34822  12
  -7  -2   9 60.6602 4.18354  16
  -7  -2   9 63.2381 4.14132  15
  -6  -2   9 5.52767 0.76262  10
  -6  -2   9 5.52888 0.79724   9
  -6  -2   9 3.77335 0.96661  15
  -6  -2   9 5.43293 1.17011  16
  -5  -2   9 90.5681 6.03340  15
  -5  -2   9 89.3535 5.96130  10
  -5  -2   9 86.0567 5.81671   8
  -5  -2   9 95.0250 6.24931  16
  -5  -2   9 94.6122 6.10274   9
  -4  -2   9 77.5481 5.91664   2
  -4  -2   9 79.7078 6.41307   6
  -4  -2   9 77.7355 5.30515   8
  -4  -2   9 82.0026 5.43778   9
  -4  -2   9 78.5660 5.22761  10
  -3  -2   9 10.3278 2.21832   2
  -3  -2   9 5.18581 4.88533   3
  -3  -2   9 12.5645 2.45807   6
  -3  -2   9 10.4221 1.22675   8
  -3  -2   9 8.16593 1.36702   9
  -2  -2   9 282.205 18.1397   8
   0   2  -9 196.382 21.2988   3
   0   2  -9 228.748 14.0450   4
  -1   2  -9 110.408 8.20057   9
  -1   2  -9 121.715 7.99361   8
  -1   2  -9 127.568 8.29247   2
  -1   2  -9 107.565 15.1917   3
  -1   2  -9 129.803 8.60178   4
  -2   2  -9 117.522 9.51263  18
  -2   2  -9 145.892 9.75757   4
  -2   2  -9 117.210 15.7002   3
  -2   2  -9 127.404 8.83579   9
  -2   2  -9 134.970 9.26944   2
  -2   2  -9 127.927 8.60794  10
  -2   2  -9 131.756 9.12236  11
  -2   2  -9 145.176 9.10898  12
  -2   2  -9 129.306 8.47078   8
  -3   2  -9 211.060 13.8121  11
  -3   2  -9 196.198 13.8405  13
  -3   2  -9 194.492 14.5672  18
  -3   2  -9 199.715 15.2696   4
  -3   2  -9 201.413 13.1273  10
  -3   2  -9 216.892 13.2300   9
  -3   2  -9 201.262 13.8621   2
  -3   2  -9 219.460 13.6715  12
  -4   2  -9 0.77825 0.62360  10
  -4   2  -9 -0.1241 1.42583  12
  -4   2  -9 -2.1276 2.81043  18
  -4   2  -9 2.69497 2.14754   4
  -4   2  -9 0.23094 2.27326  11
  -4   2  -9 -0.6716 1.08125  13
  -5   2  -9 85.7658 6.18709  12
  -5   2  -9 84.4112 5.76305  10
  -5   2  -9 84.4179 6.46565  13
  -5   2  -9 88.0058 7.16318  11
  -6   2  -9 0.16489 2.08952  11
  -6   2  -9 -0.5092 1.21693  12
  -6   2  -9 0.91394 1.34564  13
  -7   2  -9 15.3646 2.97046  12
  -8  -1   9 41.5992 2.78510  15
  -7  -1   9 0.26813 0.60943  15
  -7  -1   9 0.32270 0.28363  10
  -7  -1   9 -1.1396 0.56410  16
  -6  -1   9 142.204 9.15530  16
  -6  -1   9 146.302 8.87396   9
  -6  -1   9 129.443 8.96899  15
  -6  -1   9 134.053 8.87327  10
  -5  -1   9 42.7522 2.94048   9
  -5  -1   9 37.6043 2.99237  15
  -5  -1   9 41.6470 3.09339  16
  -5  -1   9 44.7132 2.85925  10
  -5  -1   9 37.5431 4.13745   6
  -4  -1   9 16.9404 1.51197  10
  -4  -1   9 17.1373 1.75400   9
  -4  -1   9 17.2052 2.88288   6
  -4  -1   9 17.5914 1.39860   8
  -4  -1   9 16.1860 1.52991  15
  -4  -1   9 17.4619 1.93632   2
  -3  -1   9 108.778 7.78996   8
  -3  -1   9 115.258 7.36121   2
  -3  -1   9 115.480 7.82024   6
  -3  -1   9 110.854 8.02012   9
  -2  -1   9 13.1980 2.18265   6
  -2  -1   9 13.9128 1.85522   2
   0   1  -9 30.8913 2.84812   4
   0   1  -9 29.9818 2.69751   2
  -1   1  -9 227.552 23.2131   3
  -1   1  -9 227.038 15.6365   2
  -1   1  -9 241.189 15.0729   4
  -2   1  -9 203.346 13.4389   4
  -2   1  -9 172.621 20.0246   3
  -2   1  -9 188.791 13.4849   5
  -2   1  -9 200.333 12.9697   2
  -2   1  -9 200.817 12.7326   8
  -3   1  -9 40.7597 3.40713  12
  -3   1  -9 40.0841 3.15175   9
  -3   1  -9 39.3224 4.02069  11
  -3   1  -9 40.5061 3.56194   2
  -3   1  -9 30.2969 10.5433   3
  -3   1  -9 37.9587 2.88161  10
  -3   1  -9 43.4487 5.75564   4
  -3   1  -9 38.9545 3.75806   5
  -3   1  -9 37.3319 3.14231  13
  -4   1  -9 118.581 7.40915  10
  -4   1  -9 116.896 8.13172  12
  -4   1  -9 119.886 7.78063  13
  -4   1  -9 104.459 8.56444   5
  -4   1  -9 109.320 7.90756   2
  -4   1  -9 106.697 10.4579   4
  -4   1  -9 127.321 8.79168  11
  -4   1  -9 107.060 7.56617   9
  -5   1  -9 39.2000 4.54329  11
  -5   1  -9 43.3803 4.43928  12
  -5   1  -9 42.0551 2.98422  10
  -5   1  -9 44.0151 3.76695  13
  -6   1  -9 21.1413 4.22695  11
  -6   1  -9 25.9266 3.22174  13
  -6   1  -9 29.6389 3.51786  12
  -7   1  -9 14.3413 2.18201  13
  -7   1  -9 14.9976 2.51551  12
  -8   0   9 -0.2664 0.46740  16
  -8   0   9 -0.1803 0.43588  15
  -7   0   9 215.070 14.2616  15
  -7   0   9 214.382 14.3696  16
  -7   0   9 188.839 11.4168  10
  -6   0   9 0.54720 1.84796  14
  -6   0   9 0.45632 0.79476  16
  -6   0   9 0.21685 0.84866  15
  -6   0   9 1.50779 0.43821  10
  -5   0   9 162.727 12.8033   6
  -5   0   9 185.044 12.4452  14
  -5   0   9 197.186 11.9290   9
  -5   0   9 187.981 11.9968  15
  -5   0   9 190.606 12.2240  16
  -4   0   9 349.665 22.2562   9
  -4   0   9 362.018 21.1840  10
  -4   0   9 340.424 22.2545  15
  -4   0   9 350.664 22.4358  16
  -4   0   9 358.612 22.5098   2
  -4   0   9 318.234 22.0922   8
  -4   0   9 303.544 22.5969  14
  -4   0   9 358.457 22.0484   6
  -3   0   9 16.1608 2.86890   6
  -3   0   9 16.0941 1.63950   2
  -3   0   9 15.6399 1.78544   9
  -3   0   9 16.0437 1.41717   8
  -2   0   9 317.337 21.3290   6
  -2   0   9 316.840 20.1878   2
  -1   0   9 3.86117 0.85958   2
  -1   0   9 4.81379 3.96794   3
  -1   0   9 3.15059 0.90593   6
   0   0  -9 10.4137 2.10290   2
   0   0  -9 5.45885 7.49002   3
  -1   0  -9 228.340 23.6047   3
  -1   0  -9 261.126 16.7864   4
  -1   0  -9 250.457 16.5055   2
  -2   0  -9 87.2151 6.50400   5
  -2   0  -9 74.8792 14.7404   3
  -2   0  -9 94.4368 6.49347   2
  -2   0  -9 84.4168 7.16110   4
  -3   0  -9 256.420 16.3384  12
  -3   0  -9 246.013 15.8863   8
  -3   0  -9 266.171 15.9597   2
  -3   0  -9 231.059 16.1553   9
  -3   0  -9 265.985 16.7523   5
  -3   0  -9 245.000 16.0809  10
  -3   0  -9 259.173 18.0500   4
  -3   0  -9 206.379 24.8409   3
  -4   0  -9 3.59610 8.16172   3
  -4   0  -9 1.57062 1.17410   2
  -4   0  -9 1.20803 2.40771  11
  -4   0  -9 1.66760 2.05730   4
  -4   0  -9 2.52353 0.71396  10
  -4   0  -9 1.70132 1.55477   5
  -4   0  -9 1.78103 0.83097   9
  -4   0  -9 0.38230 1.09892  12
  -4   0  -9 -0.3052 0.85174  13
  -5   0  -9 77.3687 5.36752  13
  -5   0  -9 70.0530 5.53262  12
  -5   0  -9 57.2464 6.31073  11
  -5   0  -9 72.7937 4.78946  10
  -6   0  -9 16.3171 3.30237  12
  -6   0  -9 16.9802 2.00130  13
  -6   0  -9 14.2684 1.26078  10
  -6   0  -9 18.2957 4.13925  11
  -7   0  -9 -0.1530 0.89084  13
  -7   0  -9 -0.2265 1.40390  12
  -8   0  -9 23.9065 2.47349  13
  -8   0  -9 23.4065 4.10457  12
  -8   1   9 25.9041 1.94491  15
  -8   1   9 24.9741 1.88759  16
  -7   1   9 13.1886 1.98497  16
  -7   1   9 11.4735 1.34234  15
  -6   1   9 1.92078 1.13313  16
  -6   1   9 4.96101 0.54814  10
  -6   1   9 3.28643 0.99095  15
  -6   1   9 4.30749 1.72012  14
  -5   1   9 433.761 31.2049   6
  -5   1   9 475.583 30.1766  15
  -5   1   9 439.471 30.2908  16
  -5   1   9 481.001 28.7804  10
  -5   1   9 449.257 29.9692   9
  -5   1   9 497.704 28.7714  14
  -4   1   9 60.8037 4.41135   2
  -4   1   9 57.9107 4.24649  15
  -4   1   9 57.9197 4.50097  16
  -4   1   9 60.7038 5.23863  14
  -4   1   9 66.2495 4.07318  10
  -4   1   9 59.1529 4.14817   9
  -4   1   9 62.5311 5.44766   6
  -4   1   9 66.4996 4.30137  17
  -3   1   9 459.193 28.4455   2
  -3   1   9 386.073 28.0303   8
  -3   1   9 454.393 27.2839   7
  -3   1   9 463.664 29.0360   6
  -3   1   9 437.508 28.2881  16
  -3   1   9 424.398 28.1687   9
  -3   1   9 437.353 28.0761  10
  -2   1   9 1.47299 1.04763   2
  -2   1   9 2.68430 1.18883   6
  -2   1   9 1.41403 4.46631   3
  -1   1   9 155.451 15.1883   3
  -1   1   9 178.565 11.4346   2
  -1   1   9 178.531 11.6213   6
   0  -1  -9 100.695 7.09299   2
   0  -1  -9 83.5282 15.9598   3
   0   1   9 97.8761 11.9558   3
   0   1   9 95.9916 6.09287   2
  -1  -1  -9 681.467 43.0205   2
  -1  -1  -9 682.056 53.6341   3
  -2  -1  -9 14.8945 2.04822   2
  -2  -1  -9 12.3373 2.08169   5
  -2  -1  -9 12.5786 10.5067   3
  -3  -1  -9 140.411 9.60691   5
  -3  -1  -9 143.721 9.24407   2
  -3  -1  -9 135.111 8.70492   8
  -3  -1  -9 135.179 9.44329   9
  -3  -1  -9 121.864 20.1505   3
  -4  -1  -9 259.944 18.2624  12
  -4  -1  -9 284.112 18.5244   2
  -4  -1  -9 281.681 18.1168  13
  -4  -1  -9 293.062 18.8902   5
  -4  -1  -9 267.569 18.0194   9
  -4  -1  -9 285.158 17.9254  10
  -5  -1  -9 13.1144 2.61957  14
  -5  -1  -9 7.53573 1.41973   9
  -5  -1  -9 6.47888 1.29542  13
  -5  -1  -9 8.88918 1.22277  10
  -5  -1  -9 7.81175 1.71771   2
  -5  -1  -9 9.75967 3.53868  11
  -5  -1  -9 5.77965 2.09119   5
  -5  -1  -9 8.21455 1.44377  12
  -6  -1  -9 28.1776 2.66546  13
  -6  -1  -9 27.7959 2.20070  10
  -6  -1  -9 24.9282 3.30790  14
  -6  -1  -9 24.6605 3.40192  12
  -7  -1  -9 52.2009 5.33903  12
  -7  -1  -9 52.1557 3.80934  13
  -8  -1  -9 12.3937 3.10574  12
  -8  -1  -9 16.9175 2.69757  13
  -7   2   9 31.4147 2.54736  16
  -7   2   9 27.4811 2.17102  15
  -6   2   9 16.6596 2.18632  16
  -6   2   9 16.3678 1.11302  10
  -6   2   9 15.4934 1.55035  15
  -5   2   9 32.6057 2.51979  15
  -5   2   9 34.6577 2.61912  17
  -5   2   9 30.3579 4.19052  14
  -5   2   9 32.5445 2.26424  10
  -5   2   9 32.1731 2.97604  16
  -4   2   9 52.6810 3.83391  15
  -4   2   9 54.8649 3.58423  10
  -4   2   9 54.3567 3.87486   2
  -4   2   9 56.0399 3.86765  17
  -4   2   9 51.8328 4.29682   7
  -4   2   9 53.9670 3.62586   9
  -4   2   9 50.1760 3.97799  16
  -4   2   9 51.9061 5.04378   6
  -3   2   9 23.7905 2.11965  17
  -3   2   9 24.7302 1.75022  10
  -3   2   9 21.5042 2.20700  16
  -3   2   9 21.6875 1.51623   8
  -3   2   9 19.0872 5.66501   3
  -3   2   9 26.4377 2.85162   7
  -3   2   9 22.6242 2.00890  15
  -3   2   9 23.6491 2.20622   2
  -3   2   9 26.1747 3.32324   6
  -3   2   9 20.6078 1.90538   9
  -2   2   9 357.675 25.2147   6
  -2   2   9 399.007 24.0973   7
  -2   2   9 372.325 24.8001   2
  -1   2   9 81.0775 9.92882   3
  -1   2   9 79.4833 5.49191   2
  -1   2   9 80.5961 5.96655   6
   0   2   9 695.137 44.4194   2
   0   2   9 687.576 49.6980   3
  -1  -2  -9 485.575 30.4542   2
  -1  -2  -9 455.364 39.7545   3
  -2  -2  -9 85.2405 16.9479   3
  -2  -2  -9 92.2835 6.63308   2
  -2  -2  -9 92.2443 6.64467   5
  -3  -2  -9 284.066 19.8102   8
  -3  -2  -9 278.915 31.3341   3
  -3  -2  -9 314.330 19.1277   2
  -3  -2  -9 312.387 19.1485   5
  -4  -2  -9 14.2794 1.41939   8
  -4  -2  -9 18.2330 2.03537  13
  -4  -2  -9 17.5517 2.27190   9
  -4  -2  -9 16.9825 2.87050   2
  -4  -2  -9 17.6916 1.72877  10
  -4  -2  -9 17.6303 2.94118   5
  -4  -2  -9 12.5975 14.0076   3
  -5  -2  -9 72.3339 4.90853  13
  -5  -2  -9 65.2402 4.92585   9
  -5  -2  -9 63.8065 5.61864  12
  -5  -2  -9 60.2066 5.90556   5
  -5  -2  -9 61.3866 5.46558   2
  -5  -2  -9 71.6684 4.77638  10
  -5  -2  -9 75.7715 5.59238  14
  -6  -2  -9 46.1592 4.85497  12
  -6  -2  -9 50.7684 3.89839  13
  -6  -2  -9 48.4240 3.45088  10
  -6  -2  -9 52.2804 4.77284  14
  -7  -2  -9 33.9090 2.43127  10
  -7  -2  -9 35.3333 2.88321  13
  -7  -2  -9 34.7136 5.11328  12
  -7  -2  -9 34.1349 3.46363  14
  -8  -2  -9 36.8474 3.48134  13
  -8  -2  -9 32.9499 3.65332  14
  -7   3   9 9.36779 1.12251  15
  -7   3   9 10.3726 1.35431  16
  -6   3   9 50.5589 4.02609  16
  -6   3   9 52.0175 4.13072  15
  -6   3   9 54.6627 3.59198  17
  -5   3   9 79.7001 5.82981  16
  -5   3   9 77.0661 5.66914  15
  -5   3   9 87.9338 5.77336  17
  -5   3   9 86.7186 5.38793  10
  -4   3   9 54.4211 3.93193  15
  -4   3   9 53.2568 3.49346  10
  -4   3   9 50.1584 4.35021   7
  -4   3   9 50.8381 3.99863  16
  -4   3   9 55.8598 3.87961  17
  -4   3   9 46.1181 5.37305   6
  -3   3   9 208.841 12.9171  17
  -3   3   9 212.253 13.0183   2
  -3   3   9 213.844 13.4241   7
  -3   3   9 187.742 13.9686   6
  -3   3   9 193.923 12.6844   9
  -3   3   9 185.518 12.8566  16
  -3   3   9 177.366 12.8084  15
  -3   3   9 192.291 12.6373  10
  -2   3   9 1.00796 0.45081   8
  -2   3   9 0.57196 1.27170   7
  -2   3   9 -0.3104 0.69304   9
  -2   3   9 -0.1685 0.71068  17
  -2   3   9 0.20235 3.97465   3
  -2   3   9 0.04999 0.91534   2
  -2   3   9 -0.3616 0.52397  10
  -1   3   9 271.294 25.3152   3
  -1   3   9 341.261 21.1134   2
  -1   3   9 345.082 20.8709   7
   0   3   9 25.5709 2.80160   2
   0   3   9 26.9020 3.15214   7
  -2  -3  -9 144.117 9.43252   5
  -2  -3  -9 119.537 19.9946   3
  -2  -3  -9 138.275 9.57151   2
  -3  -3  -9 4.85926 0.76836  13
  -3  -3  -9 2.86803 1.54561   2
  -3  -3  -9 2.68244 1.22727   9
  -3  -3  -9 0.32485 10.1523   3
  -3  -3  -9 2.38238 1.52940   5
  -3  -3  -9 2.86919 0.78092   8
  -4  -3  -9 210.834 14.1039   5
  -4  -3  -9 208.121 13.3161   8
  -4  -3  -9 207.448 14.3911  10
  -4  -3  -9 212.502 13.4958  13
  -4  -3  -9 207.311 14.2145   2
  -4  -3  -9 206.988 13.6369   9
  -5  -3  -9 31.1888 2.40740  10
  -5  -3  -9 28.1887 2.60469  13
  -5  -3  -9 24.9191 3.48075   5
  -5  -3  -9 26.7580 3.20857  14
  -5  -3  -9 28.5516 2.76522   9
  -6  -3  -9 2.19641 1.98267  14
  -6  -3  -9 0.97382 1.30641  13
  -6  -3  -9 3.63029 1.06879   9
  -6  -3  -9 1.94130 0.94885  10
  -7  -3  -9 60.2853 4.09725  10
  -7  -3  -9 62.5139 4.94140  14
  -7  -3  -9 53.7952 4.39277  13
  -8  -3  -9 4.15610 1.42911  13
  -8  -3  -9 8.85955 2.46688  14
  -7   4   9 28.3147 2.39897  16
  -6   4   9 36.7561 3.20254  16
  -6   4   9 40.1442 3.13826  17
  -6   4   9 38.6360 3.09822  15
  -5   4   9 51.6542 3.62369  17
  -5   4   9 44.2010 3.18733  10
  -5   4   9 53.3874 4.12752  15
  -5   4   9 52.4566 4.16177  16
  -4   4   9 165.783 10.6298  17
  -4   4   9 162.086 10.6699  15
  -4   4   9 160.548 10.2382  10
  -4   4   9 148.112 10.6535  16
  -3   4   9 9.61938 2.10852  15
  -3   4   9 10.3081 2.20037   7
  -3   4   9 10.3336 2.10189  16
  -3   4   9 11.0500 1.26956   9
  -3   4   9 9.65383 1.82434  17
  -3   4   9 10.3669 1.52702   2
  -3   4   9 10.4032 1.17365  10
  -2   4   9 297.612 18.1104  17
  -2   4   9 301.680 18.9361   2
  -2   4   9 307.656 18.8331   7
  -2   4   9 297.649 17.8809  10
  -2   4   9 263.775 18.5458   8
  -2   4   9 255.455 19.0653  18
  -2   4   9 291.811 19.0478  15
  -2   4   9 284.548 18.9528  16
  -2   4   9 286.197 18.7869   9
  -1   4   9 9.28387 1.88948   2
  -1   4   9 8.92361 1.26133  10
  -1   4   9 9.50021 2.21389   7
  -1   4   9 8.65024 1.33440   9
  -1   4   9 7.43181 1.52254  17
  -1   4   9 6.71635 1.08164   8
   0   4   9 367.407 23.0015   7
   0   4   9 373.628 22.9053   2
   0   4   9 324.294 23.6809   8
  -1  -4  -9 385.855 26.4834   5
   1   4   9 399.969 25.0033   7
  -2  -4  -9 79.2818 5.82741   5
  -3  -4  -9 195.154 13.3549   8
  -3  -4  -9 217.978 14.0138   5
  -4  -4  -9 5.94692 1.93101   2
  -4  -4  -9 7.21725 1.75202   5
  -4  -4  -9 0.68739 12.0249   3
  -4  -4  -9 8.43082 1.71057   9
  -4  -4  -9 7.80930 1.15641   8
  -5  -4  -9 101.970 6.93909  10
  -5  -4  -9 95.7554 6.69637   8
  -5  -4  -9 105.060 7.26640   9
  -6  -4  -9 35.5510 3.20077   9
  -6  -4  -9 35.5362 5.18459  14
  -6  -4  -9 36.8656 2.85297  10
  -7  -4  -9 106.248 7.29227  10
  -7  -4  -9 116.918 8.29150  14
  -8  -4  -9 18.7451 2.88546  14
  -6   5   9 21.8428 2.14261  16
  -6   5   9 24.2143 1.94717  17
  -5   5   9 30.8670 2.68949  17
  -5   5   9 26.6220 2.95115  16
  -4   5   9 0.43725 0.87052  17
  -4   5   9 1.75297 1.22744  16
  -4   5   9 2.02513 0.40692  10
  -3   5   9 265.356 18.6387  16
  -3   5   9 304.285 18.6275  17
  -3   5   9 295.764 18.3050  10
  -3   5   9 277.819 18.8243  18
  -2   5   9 6.00627 1.02539   9
  -2   5   9 5.06767 2.00945   7
  -2   5   9 2.15956 1.74528  18
  -2   5   9 4.88975 1.24668  17
  -2   5   9 6.24352 0.88902  10
  -1   5   9 240.723 15.7262   9
  -1   5   9 231.945 16.2145   2
  -1   5   9 237.262 16.4805   7
  -1   5   9 253.461 15.4973   8
  -1   5   9 240.057 15.7840  17
  -1   5   9 249.399 15.6233  10
   0   5   9 38.2482 2.82375   8
   0   5   9 35.9609 3.82596   7
   0   5   9 32.4485 2.79110  10
   0   5   9 34.5373 3.12573   9
   0   5   9 34.5207 3.50057   2
   0   5   9 31.0959 2.89370  17
   1   5   9 88.8671 6.26797   8
   1   5   9 94.3238 7.24049   7
   2   5   9 151.282 10.0163   8
  -3  -5  -9 39.3014 3.11277   8
  -4  -5  -9 273.736 17.7049   8
  -4  -5  -9 275.944 18.3159   9
  -5  -5  -9 40.4473 3.79797   9
  -5  -5  -9 39.9692 3.15094   8
  -6  -5  -9 67.2068 4.78436   9
  -6  -5  -9 61.8662 5.44587  14
  -6  -5  -9 66.7904 5.06937  10
  -7  -5  -9 8.15391 1.24000  10
  -7  -5  -9 4.99012 3.08961  14
  -5   6   9 14.1038 2.53879  16
  -5   6   9 15.5760 2.02464  17
  -4   6   9 35.8810 3.27373  18
  -4   6   9 35.1114 3.74043  16
  -4   6   9 37.4664 2.94640  17
  -3   6   9 14.6836 2.86954  18
  -3   6   9 14.6522 1.34769  10
  -3   6   9 14.5914 2.21326  17
  -3   6   9 13.7346 2.74139  16
  -2   6   9 40.6168 3.96119  18
  -2   6   9 44.4923 3.09536   9
  -2   6   9 40.1491 2.90829  10
  -2   6   9 40.3903 3.49106  17
  -1   6   9 51.6121 3.90741   9
  -1   6   9 46.9623 3.83240  17
  -1   6   9 47.8566 5.24449  18
  -1   6   9 50.3565 3.61290  10
   0   6   9 64.0430 4.75566   9
   0   6   9 65.3677 4.17836   8
   0   6   9 62.1141 4.54899  10
   0   6   9 52.8429 5.64432   7
   1   6   9 104.572 7.63155   9
   1   6   9 108.161 7.15730   8
   2   6   9 1.70287 1.21577   8
  -3  -6  -9 147.666 9.79878   8
  -4  -6  -9 1.31067 1.02582   8
  -5  -6  -9 83.5734 7.02998  14
  -5  -6  -9 89.4696 5.80309   8
  -5  -6  -9 78.3971 6.23728   9
  -6  -6  -9 2.07575 2.64751  14
  -6  -6  -9 4.09401 1.05871  10
  -6  -6  -9 10.1843 2.15117   9
  -7  -6  -9 10.6282 1.05989  10
  -7  -6  -9 10.2417 1.68025  14
  -4   7   9 7.19408 1.55285  18
  -4   7   9 6.00444 1.15914  17
  -3   7   9 31.3911 2.98020  17
  -3   7   9 33.5924 2.30932  10
  -3   7   9 36.3889 3.63138  18
  -2   7   9 8.64580 2.04041  18
  -2   7   9 5.91934 0.91295  10
  -2   7   9 5.16417 1.46195  17
  -1   7   9 50.6938 3.71941  10
  -1   7   9 54.2664 5.40185  18
  -1   7   9 51.4565 3.93448   9
   0   7   9 3.68661 2.88076  18
   0   7   9 3.79397 0.97578  10
   0   7   9 5.37029 1.56306   9
   1   7   9 51.9520 3.61226   8
   1   7   9 51.4123 4.33543   9
   2   7   9 140.350 9.26669   8
  -3  -7  -9 8.25716 1.18175   8
   3   7   9 9.18774 1.48229   8
  -4  -7  -9 92.3184 6.08112   8
   4   7   9 85.7701 6.02279   8
  -5  -7  -9 1.12708 1.13700   9
  -5  -7  -9 1.77158 0.86064   8
  -5  -7  -9 -0.7233 1.59555  14
  -6  -7  -9 29.2492 2.75223   9
  -6  -7  -9 28.1320 3.11751  14
  -2   8   9 20.9020 1.60652  10
  -2   8   9 25.5441 2.79342  18
  -1   8   9 0.72502 2.52290  18
  -1   8   9 1.16326 0.72184  10
   0   8   9 39.6668 3.04162  10
   0   8   9 42.0729 3.29706   9
   0   8   9 37.8469 3.75167  18
   1   8   9 59.9886 4.48501   9
   1   8   9 61.2023 4.96445  18
   2   8   9 2.05058 0.80182   8
   2   8   9 2.46205 1.37039   9
   2   8   9 0.17216 1.57558  18
   3   8   9 215.603 14.0318  18
   3   8   9 201.881 13.5799   8
  -4  -8  -9 1.38754 1.28624   8
  -4  -8  -9 0.04541 1.07334  14
   4   8   9 1.23815 1.02161   8
   5   8   9 26.1599 1.99676   8
   0   9   9 11.8492 1.26211  10
   1   9   9 21.5253 1.93550   9
   2   9   9 36.7910 3.10260   9
   1   7 -10 25.4618 1.82277   9
   4   6 -10 30.0532 2.17671   8
  -4  -6  10 35.5662 2.22758   8
   3   6 -10 27.0723 1.89310   8
   2   6 -10 29.0932 2.55623   9
   2   6 -10 29.5411 1.83486   8
   1   6 -10 41.0999 2.94690  12
   1   6 -10 38.8876 2.83641   9
   0   6 -10 1.02016 0.52228  10
   0   6 -10 1.18483 0.53144   9
   0   6 -10 0.92581 0.70701  12
  -1   6 -10 47.1644 3.39867  12
  -1   6 -10 49.6505 3.23035  10
  -1   6 -10 46.3337 3.49364  11
  -2   6 -10 11.5185 1.49257  12
  -2   6 -10 11.0407 1.57399  11
  -2   6 -10 10.8425 0.92013  10
  -6  -5  10 0.68272 0.48738   9
  -5  -5  10 56.6970 3.59735   8
  -5  -5  10 55.0558 3.77903   9
   4   5 -10 6.87996 0.72823   8
  -4  -5  10 7.63051 0.80894   8
   3   5 -10 73.8760 4.59700   8
  -3  -5  10 64.8077 4.63441   8
   2   5 -10 39.9571 2.76970   8
   1   5 -10 8.78042 1.36039   9
   1   5 -10 10.8771 1.06035   8
   0   5 -10 33.4788 2.66390   9
   0   5 -10 37.8015 2.36441   8
   0   5 -10 33.7807 2.51793  10
   0   5 -10 37.7217 2.90266  12
  -1   5 -10 8.20509 1.64542  11
  -1   5 -10 8.20906 1.31153   9
  -1   5 -10 8.01977 1.13271  10
  -1   5 -10 8.02481 1.34818  12
  -2   5 -10 50.2481 3.91825  11
  -2   5 -10 50.8780 3.50843  10
  -2   5 -10 51.0290 3.87561  12
  -3   5 -10 38.9247 2.50450  10
  -3   5 -10 41.6345 3.22051  12
  -3   5 -10 29.9540 2.99156  11
  -4   5 -10 12.4984 1.77062  12
  -4   5 -10 8.79777 1.56702  11
  -6  -4  10 66.7969 4.72709  16
  -6  -4  10 77.4225 4.73440   9
  -5  -4  10 9.57931 1.40064   9
  -5  -4  10 7.84856 0.70591   8
  -4  -4  10 107.155 6.25045   8
  -4  -4  10 102.349 7.83433   9
  -3  -4  10 25.5457 2.22801   8
   2   4 -10 384.574 24.5725   8
   1   4 -10 21.9867 1.77214   8
   0   4 -10 6.40054 0.86806  10
   0   4 -10 7.22736 1.24293   9
   0   4 -10 6.45894 0.91413   8
  -1   4 -10 132.362 9.45831  11
  -1   4 -10 143.669 9.54346  12
  -1   4 -10 143.778 9.31747   9
  -1   4 -10 143.559 9.20541  10
  -2   4 -10 28.0515 2.80764  12
  -2   4 -10 25.3205 2.54280  11
  -2   4 -10 25.3968 1.99580  10
  -2   4 -10 28.8669 2.25207   9
  -3   4 -10 34.4367 2.52002  10
  -3   4 -10 35.8850 3.53244  11
  -3   4 -10 39.5767 3.19870  12
  -4   4 -10 22.1138 1.50281  10
  -4   4 -10 23.9586 2.82219  12
  -4   4 -10 15.5185 2.37152  11
  -5   4 -10 1.03193 1.20546  12
  -5   4 -10 0.19052 1.35980  11
  -7  -3  10 10.5530 0.91333  16
  -7  -3  10 10.3407 0.75893  10
  -6  -3  10 2.82056 0.67912  10
  -6  -3  10 4.09498 0.70839  16
  -6  -3  10 6.40403 1.01366   9
  -5  -3  10 166.839 10.8838   8
  -5  -3  10 167.797 10.9999  10
  -5  -3  10 177.720 11.1162   9
  -4  -3  10 5.23089 1.14037   9
  -4  -3  10 5.34590 0.77821   8
  -3  -3  10 115.548 7.61125   8
   1   3 -10 -0.1453 0.54176   8
   0   3 -10 920.834 56.0625   8
   0   3 -10 911.522 55.6772   2
   0   3 -10 814.672 57.0034   9
   0   3 -10 886.860 57.7984   4
  -1   3 -10 1.71465 6.98481   3
  -1   3 -10 5.44672 0.78772  10
  -1   3 -10 2.70791 1.20160   4
  -1   3 -10 5.27598 1.31308   2
  -1   3 -10 4.77893 0.65006   8
  -1   3 -10 5.46073 1.04570   9
  -2   3 -10 218.981 14.6294  10
  -2   3 -10 228.303 14.7861   9
  -2   3 -10 240.826 15.0697  12
  -2   3 -10 219.674 15.0096  11
  -3   3 -10 85.7480 5.60335  10
  -3   3 -10 84.1039 6.10859  12
  -3   3 -10 84.2705 5.59342   9
  -3   3 -10 78.2601 6.35862  11
  -4   3 -10 5.98098 0.92605  10
  -4   3 -10 4.58048 1.70300  12
  -4   3 -10 5.02069 2.11419  11
  -5   3 -10 34.3301 3.88682  12
  -5   3 -10 27.5425 3.30141  11
  -6   3 -10 5.55626 2.62351  11
  -6   3 -10 5.89373 1.69075  12
  -7  -2  10 6.13274 0.69621  16
  -7  -2  10 5.76013 0.49682  10
  -7  -2  10 5.71814 0.62854  15
  -6  -2  10 119.097 8.20921  15
  -6  -2  10 133.838 8.33304  16
  -6  -2  10 122.240 8.15006   9
  -6  -2  10 131.480 8.16706  10
  -5  -2  10 0.07105 0.25112   8
  -5  -2  10 1.12340 0.64100  10
  -5  -2  10 0.24817 0.83774   9
  -5  -2  10 0.55532 0.81390  16
  -4  -2  10 46.8318 4.53147   6
  -4  -2  10 53.7907 3.43279   8
  -4  -2  10 51.4634 3.76474   9
  -3  -2  10 18.7820 6.59725   3
  -2  -2  10 32.6690 2.60466   8
   1   2 -10 216.284 13.9293   8
   0   2 -10 15.8296 2.55876   4
   0   2 -10 15.6981 1.43397   8
   0   2 -10 14.7443 2.06823   2
   0   2 -10 13.2054 1.69701   9
  -1   2 -10 246.236 15.6748   8
  -1   2 -10 239.757 15.9015   9
  -1   2 -10 259.746 16.3935   2
  -1   2 -10 252.413 16.7932   4
  -1   2 -10 223.375 15.7114  10
  -2   2 -10 180.757 12.8392   4
  -2   2 -10 177.257 12.2236   9
  -2   2 -10 186.767 11.4410  10
  -2   2 -10 173.333 11.8813   8
  -2   2 -10 181.201 12.7023   2
  -2   2 -10 185.840 11.8290  12
  -3   2 -10 143.097 12.5342   4
  -3   2 -10 173.992 11.6697  11
  -3   2 -10 188.408 11.0529  10
  -3   2 -10 171.725 11.4372  12
  -3   2 -10 164.497 11.2497  13
  -3   2 -10 154.915 11.4818   2
  -3   2 -10 182.841 11.1473   9
  -4   2 -10 143.914 9.36670  10
  -4   2 -10 130.669 9.71772  13
  -4   2 -10 149.471 10.1657  12
  -4   2 -10 148.590 10.3587  11
  -5   2 -10 4.82147 2.74558  11
  -5   2 -10 5.66460 0.84227  10
  -5   2 -10 4.15712 1.92269  12
  -5   2 -10 3.74716 1.36835  13
  -6   2 -10 37.6768 3.74331  12
  -6   2 -10 27.6495 3.86846  11
  -6   2 -10 38.5484 3.23790  13
  -7   2 -10 -0.8683 1.03104  12
  -7  -1  10 56.4760 3.59483  16
  -7  -1  10 49.9403 3.57362  15
  -7  -1  10 51.2726 3.34853  10
  -6  -1  10 27.4783 2.13787  15
  -6  -1  10 30.7901 2.04201   9
  -6  -1  10 31.2300 2.44243  16
  -5  -1  10 133.126 8.39187   9
  -5  -1  10 119.168 8.38261  15
  -5  -1  10 120.082 8.30231  10
  -5  -1  10 142.999 8.59323  16
  -4  -1  10 11.6785 1.56772   9
  -4  -1  10 12.8397 1.10968   8
  -4  -1  10 11.6627 2.44991   6
  -4  -1  10 12.5913 1.21729  10
  -4  -1  10 10.4438 1.54827   2
  -3  -1  10 44.9467 3.20786   8
  -3  -1  10 50.0945 3.88622   2
  -3  -1  10 42.8856 3.55117   9
  -3  -1  10 49.4116 4.54237   6
  -2  -1  10 158.982 10.8936   8
  -2  -1  10 166.940 10.6678   2
   0   1 -10 398.521 24.2194   2
   0   1 -10 368.314 33.0540   3
  -1   1 -10 31.6341 3.12569   2
  -1   1 -10 31.3737 3.15982   4
  -1   1 -10 24.2591 9.01716   3
  -1   1 -10 28.5062 2.35874   8
  -2   1 -10 198.263 12.5062   8
  -2   1 -10 199.073 12.6361  10
  -2   1 -10 197.025 13.3336   5
  -2   1 -10 213.347 14.0081   4
  -2   1 -10 194.539 13.2583  12
  -2   1 -10 199.471 13.7059   2
  -2   1 -10 183.571 13.7280   9
  -3   1 -10 151.561 11.8075   4
  -3   1 -10 151.035 10.1979  12
  -3   1 -10 148.352 11.1994   5
  -3   1 -10 148.516 10.3117  10
  -3   1 -10 152.800 10.4454   2
  -3   1 -10 149.845 9.90223   9
  -3   1 -10 152.368 9.99492  13
  -3   1 -10 150.349 10.4227  11
  -4   1 -10 88.8578 6.44913   9
  -4   1 -10 103.666 6.31723  10
  -4   1 -10 100.950 7.66673  11
  -4   1 -10 94.7169 6.66029  13
  -4   1 -10 98.8403 6.88281  12
  -4   1 -10 79.2929 8.49552   4
  -5   1 -10 36.8272 2.75456  10
  -5   1 -10 36.5597 3.66276  13
  -5   1 -10 43.0901 4.23088  12
  -5   1 -10 39.5890 4.82687  11
  -6   1 -10 5.99006 1.52432  12
  -6   1 -10 4.29324 1.57679  13
  -6   1 -10 7.33211 3.02608  11
  -7   1 -10 24.0658 2.17424  13
  -7   1 -10 25.1213 3.34205  12
  -7   0  10 4.72640 0.91602  15
  -7   0  10 4.52720 0.41948  10
  -7   0  10 4.14693 0.88782  16
  -6   0  10 94.9046 6.51812  15
  -6   0  10 109.464 6.69118  16
  -6   0  10 92.5892 6.34099  10
  -5   0  10 2.10671 0.93291  15
  -5   0  10 2.79346 0.65870   9
  -5   0  10 2.78733 0.68427  10
  -5   0  10 1.02815 0.95901  16
  -4   0  10 78.3838 5.16493   8
  -4   0  10 74.6347 5.56832   2
  -4   0  10 80.3410 5.37035   9
  -4   0  10 78.2475 6.42207   6
  -4   0  10 89.6694 5.61358  16
  -3   0  10 142.994 9.84964   6
  -3   0  10 144.657 9.63066  10
  -3   0  10 144.821 9.57353   8
  -3   0  10 149.284 9.31318   2
  -3   0  10 142.493 9.99007   9
  -2   0  10 131.199 9.24651   6
  -2   0  10 129.204 8.88424   2
  -1   0  10 593.556 48.1192   3
  -1   0  10 702.334 40.3140   2
   0   0 -10 11.6237 8.99042   3
   0   0 -10 14.2353 1.91402   2
  -1   0 -10 426.971 28.2372   2
  -1   0 -10 432.504 28.4547   4
  -2   0 -10 43.3379 4.16692   9
  -2   0 -10 54.4807 4.78982   5
  -2   0 -10 53.8235 4.48861   2
  -2   0 -10 52.3773 3.71484   8
  -2   0 -10 53.9138 5.43513   4
  -3   0 -10 200.269 13.6976   8
  -3   0 -10 214.750 14.9787   4
  -3   0 -10 200.438 13.6711  12
  -3   0 -10 217.227 13.7731   2
  -3   0 -10 200.443 14.3278   5
  -3   0 -10 203.950 13.2171   9
  -3   0 -10 202.972 13.9373  10
  -4   0 -10 242.157 15.9838  13
  -4   0 -10 219.644 16.7303   5
  -4   0 -10 227.876 16.2678   2
  -4   0 -10 247.774 16.2388  12
  -4   0 -10 257.155 16.7913  11
  -4   0 -10 264.272 15.7808  10
  -4   0 -10 239.559 15.8282   9
  -5   0 -10 8.36032 1.30762  10
  -5   0 -10 9.13010 3.35553  11
  -5   0 -10 9.39095 1.69541  12
  -5   0 -10 7.63103 1.53672  13
  -6   0 -10 149.675 10.0038  13
  -6   0 -10 148.315 9.55869  10
  -6   0 -10 135.928 10.8862  11
  -6   0 -10 156.600 10.7575  12
  -7   0 -10 0.32038 1.12415  13
  -7   0 -10 0.78852 1.46400  12
  -7   1  10 15.9106 1.56132  16
  -7   1  10 19.7678 1.57222  15
  -6   1  10 15.2664 1.91428  16
  -6   1  10 13.7278 1.38533  15
  -6   1  10 15.5836 1.10496  10
  -5   1  10 38.1490 3.02561  16
  -5   1  10 35.3156 2.60962   9
  -5   1  10 36.3839 2.77191  15
  -5   1  10 40.8782 2.59625  10
  -4   1  10 274.241 17.9054  10
  -4   1  10 279.050 19.0020   6
  -4   1  10 278.799 18.1144  17
  -4   1  10 293.779 18.2013  16
  -4   1  10 287.327 18.0053   9
  -4   1  10 271.460 18.0139  15
  -4   1  10 278.120 18.2702   2
  -3   1  10 47.7056 4.23906   6
  -3   1  10 45.7922 3.38151   9
  -3   1  10 47.6216 3.37854  16
  -3   1  10 48.8862 4.05901   7
  -3   1  10 46.0070 3.35255   8
  -3   1  10 46.1656 3.47792   2
  -3   1  10 45.5640 3.22938  10
  -2   1  10 280.364 18.0925   2
  -2   1  10 274.301 18.3719   6
  -1   1  10 17.2966 6.56382   3
  -1   1  10 24.1310 2.64993   6
  -1   1  10 23.8703 2.35270   2
  -1  -1 -10 274.372 28.9037   3
  -1  -1 -10 318.567 19.8236   2
  -2  -1 -10 705.489 47.2410   5
  -2  -1 -10 756.101 47.3511   2
  -3  -1 -10 110.711 7.59716  10
  -3  -1 -10 110.883 8.15616   5
  -3  -1 -10 111.168 7.80819   9
  -3  -1 -10 113.307 7.64403   8
  -3  -1 -10 114.108 7.95884   2
  -4  -1 -10 116.729 7.34211  10
  -4  -1 -10 108.468 7.49231   9
  -4  -1 -10 108.547 7.57313  13
  -4  -1 -10 109.313 8.85126  11
  -4  -1 -10 107.972 7.85565  12
  -4  -1 -10 106.049 8.46155   5
  -4  -1 -10 105.553 7.97503   2
  -5  -1 -10 59.1967 4.98121  12
  -5  -1 -10 64.4465 4.59419  13
  -5  -1 -10 57.1183 4.32807   9
  -5  -1 -10 64.5748 4.28125  10
  -5  -1 -10 53.6283 5.35260   5
  -6  -1 -10 -0.5243 1.05795  13
  -6  -1 -10 -0.0405 0.64331  10
  -6  -1 -10 -0.3326 1.29283  12
  -7  -1 -10 49.6445 5.88792  12
  -7  -1 -10 44.8047 3.43903  13
  -8  -1 -10 53.5802 4.12745  13
  -7   2  10 1.90659 1.08025  15
  -7   2  10 0.63005 0.69100  16
  -6   2  10 24.3350 2.30756  16
  -6   2  10 25.5391 2.03594  15
  -6   2  10 21.1810 1.53025  10
  -5   2  10 2.36784 1.07022  15
  -5   2  10 1.72744 0.99264  16
  -5   2  10 2.28075 0.81787  17
  -5   2  10 3.40698 0.58558  10
  -4   2  10 185.684 11.4107  17
  -4   2  10 172.444 11.1991   9
  -4   2  10 161.040 11.9083   2
  -4   2  10 179.686 11.4315  16
  -4   2  10 187.122 11.3104  15
  -4   2  10 174.739 12.2711   7
  -4   2  10 158.910 12.6154   6
  -4   2  10 183.076 11.1341  10
  -3   2  10 -1.0446 3.66371   3
  -3   2  10 -0.1802 0.65673   9
  -3   2  10 0.10277 0.54153  10
  -3   2  10 -0.8865 0.72782  16
  -3   2  10 -0.0425 0.78109   2
  -3   2  10 0.53956 1.68608   7
  -3   2  10 0.46156 2.06286   6
  -3   2  10 1.11473 0.36059   8
  -2   2  10 9.70796 1.07946  10
  -2   2  10 7.52305 1.46561   9
  -2   2  10 10.6400 2.84684   7
  -2   2  10 5.14231 4.77761   3
  -2   2  10 10.8814 1.90101   2
  -2   2  10 9.17500 2.33427   6
  -2   2  10 8.08789 1.05438   8
  -1   2  10 271.834 24.7460   3
  -1   2  10 326.402 19.0576   2
   0   2  10 11.2752 1.92589   2
   0   2  10 5.63403 7.10660   3
  -1  -2 -10 720.464 46.6374   2
  -2  -2 -10 133.665 9.24317   5
  -2  -2 -10 137.399 8.98642   2
  -2  -2 -10 112.019 20.9424   3
  -3  -2 -10 88.1443 6.68177   5
  -3  -2 -10 81.4722 5.55323   8
  -3  -2 -10 90.7940 5.70439  10
  -3  -2 -10 76.8130 5.97023   9
  -3  -2 -10 88.6879 6.58784   2
  -3  -2 -10 64.1588 18.7126   3
  -4  -2 -10 439.177 28.1396   5
  -4  -2 -10 395.914 26.9724   8
  -4  -2 -10 450.005 27.3275  13
  -4  -2 -10 418.121 27.3288   9
  -4  -2 -10 402.064 27.8291   2
  -4  -2 -10 436.722 27.1776  10
  -5  -2 -10 0.75260 0.78336  10
  -5  -2 -10 0.05625 0.70476  13
  -5  -2 -10 0.66985 1.74626   5
  -5  -2 -10 0.06943 1.00239   9
  -5  -2 -10 0.51640 1.94241  14
  -6  -2 -10 45.0666 5.89101  12
  -6  -2 -10 47.8683 3.46627  10
  -6  -2 -10 49.6638 3.93012  13
  -6  -2 -10 51.7895 4.57647  14
  -7  -2 -10 13.1640 2.17764  14
  -7  -2 -10 14.4965 1.34671  10
  -7  -2 -10 13.6205 1.76808  13
  -8  -2 -10 24.9903 2.61082  13
  -7   3  10 16.2027 1.48351  16
  -7   3  10 17.5732 1.65240  15
  -6   3  10 2.20631 0.59186  17
  -6   3  10 1.88921 0.86219  15
  -6   3  10 -0.7194 0.98454  16
  -5   3  10 114.099 7.20616  17
  -5   3  10 104.056 7.32253  16
  -5   3  10 104.304 7.02790  10
  -5   3  10 106.958 7.17246  15
  -4   3  10 60.9292 4.30867  15
  -4   3  10 60.1960 3.85398   9
  -4   3  10 56.4611 4.36358  16
  -4   3  10 59.0269 4.21939  17
  -4   3  10 55.6988 4.98630   7
  -4   3  10 58.0711 3.92956  10
  -3   3  10 232.466 15.6249  10
  -3   3  10 236.800 15.7231   9
  -3   3  10 254.704 15.3624  17
  -3   3  10 243.978 16.0821   2
  -3   3  10 236.980 15.7958  15
  -3   3  10 255.135 16.0652   7
  -3   3  10 229.739 15.8450  16
  -2   3  10 282.852 17.4114   2
  -2   3  10 301.956 18.0340   7
  -2   3  10 281.311 18.1603   8
  -2   3  10 277.932 18.2349  10
  -2   3  10 276.169 18.3744   9
  -2   3  10 246.199 18.3414  16
  -1   3  10 36.8590 3.15810   2
  -1   3  10 37.5317 3.78289   7
  -1   3  10 27.5086 7.99103   3
  -1   3  10 31.7010 2.93712   9
  -1   3  10 36.1208 2.52945   8
   0   3  10 511.940 34.2045   2
   0   3  10 544.757 34.6133   7
  -2  -3 -10 95.8446 6.71267   5
  -2  -3 -10 83.8479 6.76161   2
  -2  -3 -10 78.8604 5.77816   8
  -3  -3 -10 88.3544 6.14269   8
  -3  -3 -10 102.722 7.02581   5
  -3  -3 -10 93.4950 7.06608   2
  -3  -3 -10 85.7426 6.51349   9
  -4  -3 -10 22.8477 3.49852   5
  -4  -3 -10 23.8105 2.39085  13
  -4  -3 -10 24.5023 2.19931   8
  -4  -3 -10 24.0402 2.82476   9
  -4  -3 -10 22.7700 3.20523   2
  -4  -3 -10 24.3103 2.26032  10
  -4  -3 -10 15.7862 13.8471   3
  -5  -3 -10 102.749 7.27446   9
  -5  -3 -10 95.1710 6.97356  13
  -5  -3 -10 93.1112 6.73518  10
  -5  -3 -10 109.293 7.91768  14
  -6  -3 -10 0.23938 0.87758  10
  -6  -3 -10 0.54930 1.10062   9
  -6  -3 -10 0.41035 2.36272  14
  -6  -3 -10 0.17970 1.00917  13
  -7  -3 -10 59.8518 4.29460  13
  -7  -3 -10 56.1445 3.88386  10
  -7  -3 -10 55.1065 4.59513  14
  -6   4  10 26.8508 2.19563  17
  -6   4  10 29.2658 2.31354  16
  -6   4  10 28.4559 2.30566  15
  -5   4  10 22.5701 1.51960  10
  -5   4  10 21.3372 2.65637  16
  -5   4  10 23.6398 2.71362  15
  -5   4  10 21.6419 2.13288  17
  -4   4  10 141.521 9.05946  17
  -4   4  10 133.019 8.63482  10
  -4   4  10 134.876 9.02669  15
  -4   4  10 125.273 9.01491  16
  -3   4  10 120.440 8.76898  16
  -3   4  10 122.545 8.86026  15
  -3   4  10 139.269 8.55925  17
  -3   4  10 123.278 9.56296   7
  -3   4  10 123.848 8.13718  10
  -3   4  10 132.250 8.18918   9
  -2   4  10 50.8957 4.46820  18
  -2   4  10 55.6886 3.75032   8
  -2   4  10 60.4304 4.22265  17
  -2   4  10 56.5455 5.14581   7
  -2   4  10 56.3757 3.82393  10
  -2   4  10 56.6622 4.00825   9
  -2   4  10 56.7328 4.52888   2
  -1   4  10 232.851 15.1111  17
  -1   4  10 222.069 15.4926  10
  -1   4  10 218.644 15.0242   9
  -1   4  10 241.313 15.5385   2
  -1   4  10 255.678 15.9286   7
  -1   4  10 228.179 14.8052   8
   0   4  10 32.3803 3.11777   9
   0   4  10 33.5958 3.53804   2
   0   4  10 37.8509 4.25793   7
   0   4  10 32.5556 2.67249   8
  -1  -4 -10 59.4909 4.76115   5
   1   4  10 61.9194 5.12628   7
   1   4  10 58.6316 4.49553   8
  -2  -4 -10 97.1690 7.10069   5
  -3  -4 -10 36.2750 2.80811   8
  -3  -4 -10 39.3468 3.88982   5
  -4  -4 -10 97.6685 7.20524   9
  -4  -4 -10 110.997 6.88986   8
  -4  -4 -10 95.8685 7.79942   5
  -5  -4 -10 1.26325 0.73657  10
  -5  -4 -10 0.72097 0.67416   8
  -5  -4 -10 0.90190 1.77381  14
  -5  -4 -10 0.01373 1.54093   9
  -6  -4 -10 160.966 10.1238   9
  -6  -4 -10 138.318 9.88221  10
  -6  -4 -10 152.524 10.5558  14
  -7  -4 -10 19.1638 1.69363  10
  -7  -4 -10 24.2732 2.72318  14
  -6   5  10 1.78441 0.72433  16
  -6   5  10 2.27232 0.65665  17
  -5   5  10 39.5998 3.09312  17
  -5   5  10 40.9918 3.37669  16
  -4   5  10 -1.3211 1.09877  16
  -4   5  10 -1.6595 1.17147  17
  -4   5  10 -0.0124 0.38179  10
  -3   5  10 36.9610 2.49088  10
  -3   5  10 32.6801 3.25436  18
  -3   5  10 34.0302 2.34592   9
  -3   5  10 29.6567 3.04868  16
  -3   5  10 35.9867 3.13984  17
  -2   5  10 156.878 9.89423   9
  -2   5  10 149.804 10.6262  18
  -2   5  10 150.268 11.3083   7
  -2   5  10 152.668 9.98471  10
  -2   5  10 153.478 10.2817  17
  -1   5  10 11.9456 2.31091   2
  -1   5  10 14.9065 1.70206  10
  -1   5  10 15.7128 1.40488   8
  -1   5  10 13.0183 3.01944   7
  -1   5  10 16.0720 2.19402   9
  -1   5  10 14.8474 2.02724  17
   0   5  10 239.026 16.5404   2
   0   5  10 233.187 15.8721  17
   0   5  10 235.867 15.9465   9
   0   5  10 253.242 15.5057   8
   0   5  10 251.108 16.8076   7
   1   5  10 8.64230 2.56740   7
   1   5  10 6.25114 1.27404   8
   2   5  10 101.073 6.91910   8
  -3  -5 -10 3.55673 1.09492   8
  -4  -5 -10 3.01314 1.20037   8
  -4  -5 -10 2.67963 1.30330   9
  -5  -5 -10 119.616 8.48324   9
  -5  -5 -10 120.695 7.95379   8
  -6  -5 -10 1.00946 1.28283   9
  -6  -5 -10 -1.0858 0.97428  10
  -6  -5 -10 -2.7844 2.28818  14
  -7  -5 -10 63.4832 4.65821  10
  -7  -5 -10 54.4225 4.09258  14
  -5   6  10 1.40801 1.27576  16
  -5   6  10 3.69769 0.86495  17
  -4   6  10 46.0714 3.95794  16
  -4   6  10 47.6296 3.65276  17
  -3   6  10 18.6566 2.31677  18
  -3   6  10 18.3553 2.49252  17
  -3   6  10 22.3095 1.68137  10
  -2   6  10 94.9933 5.87699   9
  -2   6  10 87.2170 5.87702  10
  -2   6  10 85.7562 6.26253  17
  -2   6  10 78.5251 6.49659  18
  -1   6  10 25.3149 3.89168  18
  -1   6  10 22.4999 2.42103  17
  -1   6  10 24.3770 2.17877  10
  -1   6  10 25.3054 2.61789   9
   0   6  10 2.56940 1.13298  10
   0   6  10 3.62174 1.55338   9
   0   6  10 3.36422 0.93081   8
   1   6  10 89.3814 6.95259   9
   1   6  10 92.7485 6.30780   8
   2   6  10 69.0785 5.06414   8
  -3  -6 -10 32.6505 2.77065   8
   3   6  10 39.1546 2.99670   8
  -4  -6 -10 117.791 7.95378   8
  -5  -6 -10 31.2171 2.50408   8
  -5  -6 -10 33.2541 3.49563   9
  -6  -6 -10 67.0458 6.22481  14
  -6  -6 -10 68.3910 5.15278  10
  -6  -6 -10 67.3065 4.50772   9
  -7  -6 -10 0.41567 1.91992  14
  -4   7  10 1.32652 1.13970  17
  -3   7  10 28.1622 2.64404  18
  -3   7  10 28.9108 1.98865  10
  -3   7  10 28.5415 2.44011  17
  -2   7  10 39.3869 3.35465  17
  -2   7  10 40.4723 2.86607  10
  -2   7  10 42.7638 3.76429  18
  -1   7  10 13.7926 1.67853  10
  -1   7  10 13.8589 2.02189   9
  -1   7  10 15.6432 3.58074  18
   0   7  10 77.5144 5.39047   9
   0   7  10 67.9134 4.90285  10
   0   7  10 68.4868 6.36149  18
   1   7  10 3.37284 1.03914   8
   1   7  10 2.87072 1.41086   9
   2   7  10 43.4162 3.75144   9
   2   7  10 44.9988 3.46541   8
  -3  -7 -10 57.4561 4.58519   8
   3   7  10 61.2806 4.40579   8
  -4  -7 -10 20.0154 1.93589   8
   4   7  10 19.2866 2.26444   8
  -5  -7 -10 54.8495 4.53119  14
  -5  -7 -10 50.9090 4.65731   9
  -5  -7 -10 61.4435 4.01413   8
  -6  -7 -10 4.70315 1.03423   9
  -6  -7 -10 4.03465 1.54751  14
  -2   8  10 14.9031 1.22890  10
  -2   8  10 15.5666 2.62062  18
  -1   8  10 35.1479 2.71556  10
  -1   8  10 36.3367 3.71544  18
   0   8  10 0.99437 1.09365   9
   0   8  10 -0.6746 1.45878  18
   0   8  10 0.13585 0.70843  10
   1   8  10 38.1896 3.65339  18
   1   8  10 38.2663 3.19594   9
   2   8  10 7.08158 2.09827  18
   2   8  10 7.44884 2.33440   9
   2   8  10 9.43381 1.38984   8
  -3  -8 -10 4.29008 0.89245   8
   3   8  10 4.28199 2.15974  18
  -4  -8 -10 23.4185 2.91913  14
  -4  -8 -10 27.8673 2.39104   8
   4   8  10 27.5050 2.25617   8
   4   8  10 25.5527 3.20425  18
   4   6 -11 0.04793 0.37075   8
  -4  -6  11 0.34248 0.25857   8
   3   6 -11 47.5337 2.91608   8
  -3  -6  11 43.0498 3.07545   8
   2   6 -11 20.2870 1.35381   8
   2   6 -11 18.6979 1.60938  12
   2   6 -11 20.2257 1.84451   9
   1   6 -11 31.5158 2.21700   9
   1   6 -11 29.0722 2.22726  12
   0   6 -11 16.0421 1.41993  12
   0   6 -11 18.2531 1.36223   9
  -1   6 -11 0.54311 0.25215  10
  -1   6 -11 0.26080 0.59108  12
  -2   6 -11 15.2450 1.05793  10
  -5  -5  11 1.18863 0.40182   9
  -5  -5  11 1.10606 0.55079  16
   4   5 -11 46.3009 3.25846   8
  -4  -5  11 52.4174 3.27975   8
   3   5 -11 2.56197 0.51674   8
  -3  -5  11 2.83901 0.73702   8
   2   5 -11 104.050 6.74001   8
   1   5 -11 14.5158 1.45319   9
   1   5 -11 16.5198 1.21717   8
   0   5 -11 5.33781 0.93783   9
   0   5 -11 5.37086 0.99857  12
   0   5 -11 5.64788 0.69002  10
  -1   5 -11 39.2153 2.69179  10
  -1   5 -11 38.3759 2.72027   9
  -1   5 -11 37.5398 2.88224  12
  -2   5 -11 5.60883 0.71506  10
  -2   5 -11 8.64788 1.20595  12
  -2   5 -11 7.13753 1.63951  11
  -3   5 -11 21.6043 2.01109  12
  -3   5 -11 14.8817 1.67558  11
  -3   5 -11 17.3365 1.21331  10
  -6  -4  11 6.56523 0.67752   9
  -6  -4  11 6.30091 0.76727  16
  -5  -4  11 79.9651 5.21339  16
  -5  -4  11 76.7702 5.04625   8
  -5  -4  11 80.6900 5.23603   9
  -4  -4  11 -0.0539 0.83664   9
  -4  -4  11 0.44359 0.55173   8
   3   4 -11 109.133 6.99120   8
  -3  -4  11 104.511 7.02256   8
   2   4 -11 83.0900 5.54482   8
   1   4 -11 104.984 6.68036   8
   1   4 -11 102.913 7.21657   9
   0   4 -11 50.5241 3.76084   9
   0   4 -11 50.3479 3.29877   8
  -1   4 -11 0.49487 0.80279   9
  -1   4 -11 0.33888 0.38111  10
  -1   4 -11 0.81441 0.84335  12
  -2   4 -11 81.1037 6.55888  11
  -2   4 -11 93.4250 6.25903  12
  -2   4 -11 91.2556 5.81945  10
  -2   4 -11 92.2776 5.87977   9
  -3   4 -11 16.1500 1.92031  12
  -3   4 -11 11.9648 1.85347  11
  -3   4 -11 15.8842 1.25797  10
  -4   4 -11 30.2326 2.89543  12
  -4   4 -11 34.0503 3.00443  11
  -4   4 -11 31.1525 2.02311  10
  -5   4 -11 0.39526 1.02105  12
  -6  -3  11 31.7541 2.11159   9
  -6  -3  11 29.3539 2.14819  16
  -5  -3  11 8.75899 1.48183  16
  -5  -3  11 8.08495 0.71181   8
  -5  -3  11 9.08084 1.25296   9
  -5  -3  11 8.22887 1.12136  10
  -4  -3  11 145.927 10.7715   9
  -4  -3  11 151.155 8.78302   8
  -3  -3  11 0.69290 0.52216   8
   2   3 -11 85.0088 5.63548   8
   1   3 -11 46.5530 3.19344   8
   0   3 -11 120.678 8.41718   9
   0   3 -11 128.976 8.14573   8
  -1   3 -11 376.147 24.1305   8
  -1   3 -11 377.623 24.2588  10
  -1   3 -11 393.947 23.8867  12
  -1   3 -11 394.491 23.2963   9
  -1   3 -11 319.648 25.1683   4
  -2   3 -11 4.37518 1.01767   9
  -2   3 -11 3.36401 0.74309  10
  -2   3 -11 2.74038 1.15348  12
  -3   3 -11 127.014 8.50299   9
  -3   3 -11 122.492 9.11972  11
  -3   3 -11 136.148 9.11835  12
  -3   3 -11 138.365 8.57628  10
  -4   3 -11 26.5619 3.21990  12
  -4   3 -11 25.2185 1.86927  10
  -4   3 -11 21.6121 3.11181  11
  -5   3 -11 27.4886 2.81146  12
  -5   3 -11 24.0038 3.17947  11
  -6   3 -11 31.3251 2.68714  12
  -7  -2  11 25.3698 1.66004  10
  -7  -2  11 24.6164 1.75237  16
  -6  -2  11 37.3224 2.44986   9
  -6  -2  11 35.4125 2.56629  16
  -5  -2  11 184.760 12.5882  10
  -5  -2  11 209.375 12.6734   9
  -5  -2  11 194.250 12.7174  16
  -4  -2  11 6.35076 0.93293   8
  -4  -2  11 3.90157 1.09736   9
  -3  -2  11 129.471 8.42412   8
  -2  -2  11 67.7351 4.58147   8
   1   2 -11 5.79552 0.78774   8
   0   2 -11 237.354 15.2090   8
   0   2 -11 235.792 15.4381   9
  -1   2 -11 -1.0463 5.47772   3
  -1   2 -11 -0.3440 0.53004  10
  -1   2 -11 -0.6926 0.96327   2
  -1   2 -11 -1.4610 0.88829   4
  -1   2 -11 -0.7171 0.52156   8
  -1   2 -11 -0.4791 0.89516   9
  -2   2 -11 9.43556 1.98160  12
  -2   2 -11 10.8273 1.92173   2
  -2   2 -11 9.67785 1.53028  13
  -2   2 -11 10.0842 2.65573   4
  -2   2 -11 14.1436 1.32215  10
  -2   2 -11 10.1418 1.71797   9
  -2   2 -11 10.4694 0.95111   8
  -3   2 -11 55.4081 4.33139  13
  -3   2 -11 60.7354 4.06209  10
  -3   2 -11 58.0495 4.15978   9
  -3   2 -11 55.2948 4.90836  11
  -3   2 -11 55.6578 4.74481  12
  -4   2 -11 61.1161 5.06590  12
  -4   2 -11 57.1103 5.17858  11
  -4   2 -11 56.7966 4.47188  13
  -4   2 -11 61.6560 4.09161  10
  -5   2 -11 17.2478 2.00439  13
  -5   2 -11 18.8737 3.36211  11
  -5   2 -11 20.2154 1.54849  10
  -5   2 -11 20.5901 2.81367  12
  -6   2 -11 18.2014 2.77857  11
  -6   2 -11 18.1788 2.32404  12
  -7  -1  11 21.4475 1.43976  10
  -7  -1  11 21.5752 1.58544  15
  -7  -1  11 21.7434 1.59950  16
  -6  -1  11 63.8887 4.50931  15
  -6  -1  11 67.5829 4.58091  16
  -6  -1  11 67.3702 4.38058   9
  -6  -1  11 72.7956 4.44231  10
  -5  -1  11 37.0256 2.71710   9
  -5  -1  11 38.1842 2.75724  16
  -4  -1  11 58.2697 3.84710   9
  -4  -1  11 56.1110 3.68634  10
  -4  -1  11 54.8298 3.55999   8
  -4  -1  11 49.6903 4.97523   6
  -3  -1  11 4.39840 0.68989   8
  -3  -1  11 3.65940 1.05073   9
  -3  -1  11 0.26575 4.21383   3
  -3  -1  11 2.46255 1.04996   2
  -2  -1  11 84.0111 5.58666   8
   0   1 -11 24.4122 2.64937   2
   0   1 -11 23.8901 1.98725   8
  -1   1 -11 322.064 22.2378   4
  -1   1 -11 318.302 20.4169   8
  -1   1 -11 314.328 21.5203   9
  -1   1 -11 329.265 20.2807   2
  -2   1 -11 0.32222 0.47735  10
  -2   1 -11 -1.1271 1.18869   5
  -2   1 -11 0.03260 0.52619   8
  -2   1 -11 0.13190 1.12736   4
  -2   1 -11 -0.3117 1.15157   2
  -2   1 -11 -0.1978 1.02733   9
  -2   1 -11 -0.2183 5.81748   3
  -2   1 -11 -0.5161 0.83312  12
  -3   1 -11 209.029 14.8080   2
  -3   1 -11 212.003 15.7434   4
  -3   1 -11 211.634 14.8953   5
  -3   1 -11 209.970 14.8344  12
  -3   1 -11 226.517 13.9810  10
  -3   1 -11 223.436 14.0919   9
  -3   1 -11 218.001 14.0752  13
  -4   1 -11 29.1965 3.97824  11
  -4   1 -11 30.0288 2.59151   9
  -4   1 -11 29.4746 3.57287  12
  -4   1 -11 32.9458 3.01505  13
  -4   1 -11 31.1198 2.52806  10
  -5   1 -11 55.3959 5.18544  11
  -5   1 -11 49.0811 4.49613  12
  -5   1 -11 52.5665 3.66666  10
  -5   1 -11 53.7869 4.23570  13
  -6   1 -11 29.8551 3.92041  11
  -6   1 -11 30.9007 2.66725  13
  -6   1 -11 34.2111 3.30864  12
  -7   1 -11 1.97754 2.29629  12
  -7   1 -11 2.32779 0.67038  13
  -7   0  11 17.1069 1.11833  10
  -7   0  11 19.1683 1.37969  16
  -7   0  11 14.9153 1.27981  15
  -6   0  11 41.4268 2.82948  10
  -6   0  11 45.9982 3.08778  16
  -6   0  11 42.4270 3.02785  15
  -5   0  11 99.4611 6.46973   9
  -5   0  11 108.375 6.72938  16
  -5   0  11 90.2575 6.40639  10
  -4   0  11 2.72085 0.40238   8
  -4   0  11 1.69060 1.62429   6
  -4   0  11 3.11480 0.56965  10
  -4   0  11 1.82160 0.78131   2
  -4   0  11 2.30366 0.72193   9
  -4   0  11 3.18902 0.63378  16
  -3   0  11 173.730 11.4389   2
  -3   0  11 167.758 12.4832   6
  -3   0  11 175.943 11.1618   9
  -3   0  11 174.690 10.9808   8
  -2   0  11 129.815 9.39469   9
  -2   0  11 141.100 9.18636   8
  -2   0  11 143.576 9.07202   2
  -1   0 -11 5.06825 0.95587   8
  -1   0 -11 5.66309 1.90924   2
  -1   0 -11 3.32753 9.14335   3
  -2   0 -11 239.318 17.1958   9
  -2   0 -11 263.293 17.8517   2
  -2   0 -11 264.709 16.7875   8
  -2   0 -11 270.897 16.4517   5
  -2   0 -11 263.026 17.6226   4
  -2   0 -11 240.471 17.1041  12
  -2   0 -11 254.512 16.9327  10
  -3   0 -11 31.6614 4.92606   4
  -3   0 -11 33.7469 3.56649   2
  -3   0 -11 31.1383 2.88656  10
  -3   0 -11 37.4310 3.30194  12
  -3   0 -11 32.9041 3.07711   9
  -3   0 -11 33.1729 2.40494   8
  -4   0 -11 113.289 7.45719  10
  -4   0 -11 100.284 8.70078   5
  -4   0 -11 113.672 8.34522  12
  -4   0 -11 113.427 7.70526  13
  -4   0 -11 115.607 8.56143  11
  -4   0 -11 112.694 7.77084   9
  -5   0 -11 27.4778 3.88312  11
  -5   0 -11 30.8760 2.50199  10
  -5   0 -11 28.0052 4.07128  12
  -5   0 -11 32.2640 3.10613  13
  -6   0 -11 -1.3281 1.28969  12
  -6   0 -11 0.02997 0.98576  13
  -6   0 -11 0.23503 0.51915  10
  -7   0 -11 65.7439 5.46188  12
  -7   0 -11 76.4428 5.17411  13
  -7   1  11 35.2443 2.69411  15
  -7   1  11 40.8790 2.67241  16
  -6   1  11 49.6687 3.95753  15
  -6   1  11 50.5842 3.37388  16
  -6   1  11 49.3894 3.07496  10
  -5   1  11 109.682 7.36596   9
  -5   1  11 98.2742 7.46461  15
  -5   1  11 122.798 7.37504  10
  -5   1  11 111.343 6.89887  16
  -4   1  11 94.5209 6.23985   9
  -4   1  11 87.3366 7.22821   6
  -4   1  11 99.7908 6.42210  16
  -4   1  11 87.7862 6.33909  17
  -4   1  11 99.0410 6.13449  10
  -3   1  11 139.900 9.39645   2
  -3   1  11 141.012 8.96951   8
  -3   1  11 137.484 10.3672   7
  -3   1  11 142.866 9.45791   9
  -3   1  11 139.736 9.94232   6
  -3   1  11 141.279 8.99002  10
  -3   1  11 141.903 9.16614  16
  -2   1  11 210.622 13.6273  16
  -2   1  11 206.205 14.2188   6
  -2   1  11 202.445 13.4598   8
  -2   1  11 228.600 13.9846   2
  -2   1  11 201.795 13.6236   9
  -1  -1 -11 141.035 22.6406   3
  -1  -1 -11 192.491 12.0994   2
  -2  -1 -11 66.5947 5.57505   2
  -2  -1 -11 63.4831 4.46969   8
  -2  -1 -11 59.4522 4.94512   9
  -2  -1 -11 70.5675 5.49117   5
  -3  -1 -11 344.680 22.1222   2
  -3  -1 -11 337.710 21.5015   9
  -3  -1 -11 334.550 22.3096   5
  -3  -1 -11 327.471 21.1229   8
  -3  -1 -11 315.355 21.9783  10
  -4  -1 -11 101.772 7.01136   9
  -4  -1 -11 99.1921 7.44477  12
  -4  -1 -11 107.652 6.85606  10
  -4  -1 -11 102.671 7.08390  13
  -4  -1 -11 95.0289 8.01274   5
  -4  -1 -11 90.2957 7.49760   2
  -5  -1 -11 13.1467 1.92635  13
  -5  -1 -11 13.5209 1.68934  10
  -5  -1 -11 13.7892 1.82483   9
  -5  -1 -11 10.3017 2.22808  12
  -6  -1 -11 35.1231 3.59870  13
  -6  -1 -11 36.2643 2.74734  10
  -6  -1 -11 30.0889 4.82117  12
  -7  -1 -11 -0.3105 0.81559  13
  -7  -1 -11 -2.3679 1.87171  12
  -7   2  11 5.73186 0.88004  15
  -7   2  11 6.36706 0.87380  16
  -6   2  11 14.0244 1.40084  16
  -6   2  11 11.7202 1.18948  15
  -6   2  11 11.7403 0.88398  10
  -5   2  11 86.2806 5.39783  10
  -5   2  11 82.5571 5.67475  15
  -5   2  11 79.7058 5.78003  17
  -5   2  11 85.6211 5.68338  16
  -4   2  11 73.4199 4.72246  10
  -4   2  11 70.2695 4.83742   9
  -4   2  11 73.4957 4.96580  15
  -4   2  11 72.9965 4.88679  16
  -4   2  11 71.2803 5.08375  17
  -4   2  11 63.8801 6.04376   6
  -3   2  11 913.641 57.5982   9
  -3   2  11 895.908 58.4506   7
  -3   2  11 873.552 57.9149   2
  -3   2  11 889.240 57.6467  16
  -3   2  11 869.928 57.4130   8
  -3   2  11 960.200 55.9636  10
  -2   2  11 107.973 8.46793   7
  -2   2  11 104.554 8.08047   6
  -2   2  11 104.068 7.10415   8
  -2   2  11 110.472 7.18162   2
  -2   2  11 104.704 7.31703  16
  -2   2  11 112.822 6.98506  10
  -2   2  11 108.600 7.29677   9
  -1   2  11 225.259 15.0287   8
  -1   2  11 242.577 15.5604   2
  -2  -2 -11 148.822 10.5495   8
  -2  -2 -11 168.730 11.5278   5
  -2  -2 -11 168.169 11.6136   2
  -3  -2 -11 24.0862 3.47934   2
  -3  -2 -11 23.8191 2.17014   8
  -3  -2 -11 19.9553 2.32697   9
  -3  -2 -11 24.3547 2.18432  10
  -3  -2 -11 16.2521 13.1423   3
  -3  -2 -11 21.0315 3.22162   5
  -4  -2 -11 27.5921 2.22213   8
  -4  -2 -11 26.3635 3.79096   2
  -4  -2 -11 28.0771 2.63700  13
  -4  -2 -11 30.7618 2.64907  10
  -4  -2 -11 29.4072 4.01081   5
  -4  -2 -11 30.2539 3.14650   9
  -5  -2 -11 55.8058 4.06561  10
  -5  -2 -11 57.5421 4.49941  13
  -5  -2 -11 57.1675 4.74843   9
  -5  -2 -11 55.7380 4.95330  14
  -6  -2 -11 2.16055 1.89932  14
  -6  -2 -11 0.97497 1.36509  13
  -6  -2 -11 1.59277 0.64028  10
  -7  -2 -11 38.1501 2.64770  10
  -7  -2 -11 39.8252 3.09931  13
  -7   3  11 7.66360 0.92200  16
  -6   3  11 26.0758 2.02094  16
  -6   3  11 25.2451 2.10361  15
  -6   3  11 27.2670 2.26282  17
  -5   3  11 0.37727 0.37981  10
  -5   3  11 0.17049 0.77774  16
  -5   3  11 0.32085 0.80742  15
  -5   3  11 -0.3936 0.78690  17
  -4   3  11 284.418 18.0620  10
  -4   3  11 282.951 18.2991  16
  -4   3  11 273.053 18.0215   9
  -4   3  11 304.671 18.3990  17
  -4   3  11 268.357 18.2093  15
  -3   3  11 38.3679 4.11630   7
  -3   3  11 35.5699 3.37700   2
  -3   3  11 39.4727 2.73152  10
  -3   3  11 36.4991 3.08876  16
  -3   3  11 38.4421 3.09552   9
  -3   3  11 39.9146 3.33778  17
  -2   3  11 146.633 10.3161   9
  -2   3  11 152.653 9.62865   8
  -2   3  11 156.047 9.64218  10
  -2   3  11 153.438 10.7415   2
  -2   3  11 156.875 11.2834   7
  -1   3  11 449.132 28.2020   2
  -1   3  11 459.119 28.1572   7
  -1   3  11 407.039 27.5195   8
  -1   3  11 402.360 27.6948   9
   0   3  11 150.883 10.6559   8
   0   3  11 158.682 11.1520   7
   0   3  11 156.346 10.6253   2
  -2  -3 -11 11.6059 2.34588   5
  -2  -3 -11 8.96184 1.62819   8
  -3  -3 -11 187.416 12.5685   8
  -3  -3 -11 202.304 13.6825   2
  -3  -3 -11 182.941 12.8492   9
  -3  -3 -11 203.239 13.5306   5
  -4  -3 -11 23.4093 2.12385  10
  -4  -3 -11 25.2638 2.51514  13
  -4  -3 -11 20.0109 3.26479   5
  -4  -3 -11 22.5910 2.07114   8
  -4  -3 -11 22.9779 2.52852   9
  -5  -3 -11 53.5162 4.08522  10
  -5  -3 -11 49.5707 4.24921  13
  -5  -3 -11 50.6776 4.49216   9
  -5  -3 -11 58.2880 5.23387  14
  -6  -3 -11 73.5583 4.98739   9
  -6  -3 -11 73.5957 5.82558  14
  -6  -3 -11 68.2783 4.92247  10
  -6  -3 -11 64.9729 4.97131  13
  -7  -3 -11 1.41181 1.38731  14
  -7  -3 -11 1.25329 0.48538  10
  -7  -3 -11 -0.2106 0.72938  13
  -6   4  11 0.23242 0.73315  16
  -6   4  11 1.06575 0.64737  17
  -5   4  11 106.147 7.35131  10
  -5   4  11 99.1764 6.69683  17
  -5   4  11 103.994 6.58906  16
  -4   4  11 0.59808 1.06680  16
  -4   4  11 2.59203 1.71766  15
  -4   4  11 0.03974 1.30176  17
  -4   4  11 1.12713 0.59155  10
  -3   4  11 245.657 17.3684  16
  -3   4  11 278.492 16.5679  17
  -3   4  11 244.480 16.1897   9
  -3   4  11 255.069 16.1619  10
  -2   4  11 68.4271 4.47979   8
  -2   4  11 71.1824 4.70993  10
  -2   4  11 66.0561 5.47554   2
  -2   4  11 69.7476 4.90356   9
  -2   4  11 72.6997 5.15147  17
  -2   4  11 68.8536 6.03237   7
  -1   4  11 139.846 9.71462   2
  -1   4  11 139.083 9.19408   9
  -1   4  11 138.398 9.28705   8
  -1   4  11 138.617 10.1164   7
  -1   4  11 135.156 9.33436  10
  -1   4  11 140.298 9.13083  17
   0   4  11 161.166 11.1178   7
   0   4  11 164.171 11.2699   2
   0   4  11 157.901 10.5597   8
   0   4  11 151.036 10.8456   9
  -1  -4 -11 38.2932 3.86662   5
   1   4  11 46.5388 4.73765   7
   1   4  11 42.0998 3.25233   8
  -2  -4 -11 86.6512 6.62609   5
  -2  -4 -11 85.6857 5.99092   8
  -3  -4 -11 0.14794 0.96964   8
  -3  -4 -11 0.08210 1.39922   5
  -4  -4 -11 72.9213 5.65069   9
  -4  -4 -11 73.6276 5.07706   8
  -5  -4 -11 78.8371 5.22599  10
  -5  -4 -11 75.5801 5.90827  13
  -5  -4 -11 76.2635 5.98711   9
  -5  -4 -11 80.2065 6.29751  14
  -5  -4 -11 75.8063 4.76961   8
  -6  -4 -11 6.43997 3.19025  14
  -6  -4 -11 11.4374 1.90222   9
  -6  -4 -11 8.37126 1.48127  10
  -7  -4 -11 37.8337 3.08342  10
  -7  -4 -11 34.4343 2.90744  14
  -5   5  11 0.98820 0.68134  16
  -5   5  11 0.33674 1.14304  17
  -4   5  11 124.590 9.07746  17
  -4   5  11 137.857 8.68599  10
  -4   5  11 140.223 9.09647  16
  -3   5  11 0.28684 0.65319  10
  -3   5  11 -0.8907 1.20504  17
  -3   5  11 -1.2122 0.92893  16
  -3   5  11 0.09131 0.57023   9
  -2   5  11 100.513 6.68858   9
  -2   5  11 98.2825 6.82668  17
  -2   5  11 90.9663 6.93557  18
  -2   5  11 97.0659 6.44684  10
  -1   5  11 57.1678 4.11757  10
  -1   5  11 59.1148 4.39869   9
  -1   5  11 60.2034 4.42899  17
  -1   5  11 54.7836 5.56354   7
  -1   5  11 58.7560 3.92741   8
   0   5  11 106.973 7.36242  17
   0   5  11 101.731 8.07411   2
   0   5  11 105.095 8.40234   7
   0   5  11 108.333 7.09736   8
   0   5  11 107.678 7.50906   9
   1   5  11 207.705 13.8986   8
   1   5  11 222.476 15.1591   7
   2   5  11 2.98788 1.36721   8
  -3  -5 -11 342.459 22.0756   8
  -4  -5 -11 11.5606 1.98761   8
  -4  -5 -11 9.94511 2.25574   9
  -5  -5 -11 32.9314 3.17639   9
  -5  -5 -11 35.4018 2.57275   8
  -5  -5 -11 36.3183 3.69951  14
  -6  -5 -11 76.8567 5.89180  14
  -6  -5 -11 77.4439 5.57671   9
  -6  -5 -11 77.6196 5.42158  10
  -7  -5 -11 1.90051 2.63419  14
  -7  -5 -11 1.44488 0.80382  10
  -5   6  11 33.4914 2.59120  17
  -4   6  11 3.15221 0.92400  17
  -4   6  11 2.30753 0.91669  16
  -3   6  11 81.2457 5.79961  17
  -3   6  11 83.4283 5.46028  10
  -3   6  11 83.6650 5.89750  18
  -2   6  11 96.6335 6.97336  18
  -2   6  11 96.1937 6.30371   9
  -2   6  11 93.3548 6.57526  17
  -2   6  11 84.5936 6.12480  10
  -1   6  11 93.3822 6.35718  10
  -1   6  11 93.6576 7.15100  18
  -1   6  11 103.008 6.62386   9
  -1   6  11 92.3600 6.63855  17
   0   6  11 77.1544 5.75685   9
   0   6  11 80.7286 5.22159   8
   0   6  11 68.8246 5.17010  10
   1   6  11 5.58173 1.57425   9
   1   6  11 4.95555 1.29726   8
   2   6  11 129.665 8.73539   8
  -3  -6 -11 18.1564 2.38644   8
   3   6  11 18.5921 2.81791   8
  -4  -6 -11 40.1902 3.35780   8
  -5  -6 -11 132.621 10.4166  14
  -5  -6 -11 131.204 8.06989   8
  -5  -6 -11 125.763 8.49478   9
  -6  -6 -11 20.1736 1.89571  10
  -6  -6 -11 21.8297 2.54650  14
  -6  -6 -11 29.4580 2.59188   9
  -3   7  11 1.01333 0.41491  10
  -3   7  11 0.87663 1.08176  17
  -3   7  11 2.38717 1.25364  18
  -2   7  11 29.6875 2.52983  17
  -2   7  11 29.0605 2.27268  10
  -2   7  11 37.6573 3.34108  18
  -1   7  11 26.4125 2.15353  10
  -1   7  11 28.2007 3.74192  18
  -1   7  11 28.7632 2.57005   9
   0   7  11 -2.5273 2.06868  18
   0   7  11 -0.8914 1.04875  10
   0   7  11 0.78765 1.54573   9
   1   7  11 100.220 7.01420   9
   1   7  11 99.7101 6.91262   8
   2   7  11 0.81817 1.25481   8
   2   7  11 0.24754 2.49132   9
  -3  -7 -11 44.3105 3.45203   8
   3   7  11 42.2794 3.05100   8
  -4  -7 -11 20.9449 2.12485   8
   4   7  11 22.2826 2.11988   8
  -5  -7 -11 33.3108 3.06675   9
  -5  -7 -11 35.0318 2.67974   8
  -5  -7 -11 31.9474 3.93004  14
  -2   8  11 9.09716 1.48177  18
  -2   8  11 10.0148 0.83492  10
  -1   8  11 12.3669 1.16639  10
  -1   8  11 11.3379 1.93670  18
   0   8  11 22.9596 2.14617   9
   0   8  11 16.3221 1.74274  10
   0   8  11 19.5638 2.47468  18
   1   8  11 1.00891 1.44838  18
   1   8  11 1.07954 1.06903   9
   2   8  11 45.4974 4.11433  18
   2   8  11 42.7330 2.84317   8
   2   8  11 45.1070 3.97207   9
  -3  -8 -11 0.86329 0.90360   8
   3   8  11 -0.5499 1.78588  18
   3   8  11 1.95355 1.07787   8
  -4  -8 -11 29.2587 2.30397   8
  -4  -8 -11 28.7462 3.24255  14
   2   6 -12 34.2177 2.47146   9
   2   6 -12 37.8041 2.50293  12
   1   6 -12 0.67024 0.50277  12
   1   6 -12 0.99437 0.44112   9
   0   6 -12 47.1572 3.33824  10
   0   6 -12 49.5539 3.46118  12
   0   6 -12 46.2461 2.81527   9
  -1   6 -12 0.53292 0.18006  10
   4   5 -12 20.8531 1.54030   8
  -4  -5  12 22.4845 1.44493   8
   3   5 -12 51.6731 3.45550   8
  -3  -5  12 53.9488 3.49832   8
   2   5 -12 0.01439 0.32189   8
   2   5 -12 0.33226 0.83237   9
   1   5 -12 43.4836 3.08946   9
   1   5 -12 45.1325 2.89507   8
   0   5 -12 1.05762 0.78028  12
   0   5 -12 1.16668 0.32953  10
   0   5 -12 2.02872 0.52937   9
  -1   5 -12 12.3453 1.06959  10
  -1   5 -12 11.4438 1.24638  12
  -1   5 -12 12.0376 1.06166   9
  -2   5 -12 18.0794 1.79614  12
  -2   5 -12 21.3996 1.38849  10
  -3   5 -12 0.00362 0.58537  12
  -6  -4  12 18.3649 1.24235   9
  -5  -4  12 16.2375 1.27516   9
  -5  -4  12 15.9710 1.32901  16
  -4  -4  12 62.6896 3.95226   8
  -4  -4  12 58.3409 4.12574   9
   3   4 -12 5.13033 0.65865   8
  -3  -4  12 5.14929 0.82110   8
   2   4 -12 77.0508 5.06876   8
   1   4 -12 9.53103 0.96684   8
   1   4 -12 9.19973 1.22778   9
   0   4 -12 13.0396 1.54059   9
   0   4 -12 12.8365 1.08926   8
  -1   4 -12 17.0951 1.64500   9
  -1   4 -12 17.7898 1.64960  12
  -1   4 -12 16.2367 1.40683  10
  -2   4 -12 3.21351 0.60672  10
  -2   4 -12 3.90509 0.82581  12
  -2   4 -12 4.15505 0.69961   9
  -3   4 -12 64.8078 4.36616  10
  -3   4 -12 65.4655 4.64361  12
  -4   4 -12 -0.2007 0.71467  12
  -6  -3  12 58.0722 3.80213  10
  -6  -3  12 59.9754 3.80207   9
  -6  -3  12 57.7319 3.87739  16
  -5  -3  12 65.5353 4.40252  16
  -4  -3  12 23.0050 2.09288   9
  -4  -3  12 22.8319 1.68995   8
  -3  -3  12 131.834 8.56786   8
   2   3 -12 8.51746 0.99221   8
  -2  -3  12 8.55160 1.58082   8
   1   3 -12 128.922 8.38339   8
   0   3 -12 4.83800 0.92923   9
   0   3 -12 4.03928 0.70705   8
  -1   3 -12 -0.0103 0.85668  12
  -1   3 -12 0.22847 0.39244   8
  -1   3 -12 0.30496 0.60837  10
  -1   3 -12 1.38801 0.98528   9
  -2   3 -12 88.3421 6.23666  12
  -2   3 -12 87.2224 5.82304  10
  -2   3 -12 86.5506 5.94916   9
  -3   3 -12 1.36604 0.41721   9
  -3   3 -12 1.00495 0.49031  10
  -3   3 -12 0.83479 0.94902  12
  -4   3 -12 70.5862 4.45403  10
  -4   3 -12 69.1747 5.03625  12
  -4   3 -12 60.2362 5.14932  11
  -5   3 -12 -0.1397 1.25740  11
  -5   3 -12 0.21962 1.02702  12
  -7  -2  12 19.4611 1.32604  10
  -7  -2  12 21.2400 1.40943  16
  -6  -2  12 22.6985 1.59694  10
  -6  -2  12 24.2706 1.59462   9
  -6  -2  12 22.7993 1.69999  16
  -5  -2  12 9.92479 1.20352   9
  -5  -2  12 9.80519 1.00569  16
  -4  -2  12 165.490 11.1936   9
  -4  -2  12 179.303 11.0518   8
  -3  -2  12 13.8294 1.41514   8
  -2  -2  12 110.676 7.30245   8
   1   2 -12 32.8341 2.40874   8
   0   2 -12 92.9629 6.35541   9
   0   2 -12 91.4860 6.08274   8
  -1   2 -12 244.385 15.3683  12
  -1   2 -12 243.758 15.1298  10
  -1   2 -12 226.486 15.9844   9
  -1   2 -12 236.697 15.0229   8
  -1   2 -12 229.751 15.8250   2
  -2   2 -12 335.561 21.2232  10
  -2   2 -12 333.782 21.3766   9
  -2   2 -12 323.701 21.6285  13
  -2   2 -12 326.930 20.9898   8
  -2   2 -12 336.202 21.5307  12
  -3   2 -12 76.5471 5.18882  10
  -3   2 -12 77.0349 5.74514  12
  -3   2 -12 73.8681 5.26523   9
  -3   2 -12 76.6948 5.37611  13
  -4   2 -12 0.36955 0.49625  10
  -4   2 -12 -0.7094 0.93497  13
  -4   2 -12 0.51099 1.04224  12
  -5   2 -12 31.4287 3.16669  12
  -5   2 -12 31.6373 2.74663  13
  -5   2 -12 30.3134 2.12368  10
  -6   2 -12 5.69976 1.55115  12
  -7  -1  12 8.68900 0.60581  10
  -7  -1  12 8.52596 0.76334  16
  -6  -1  12 87.4445 5.69716  10
  -6  -1  12 89.4343 5.80853  16
  -5  -1  12 71.4400 4.81051  16
  -5  -1  12 70.5745 4.69468  10
  -5  -1  12 71.9078 4.74309   9
  -4  -1  12 22.5852 1.91920   9
  -4  -1  12 18.6342 1.48521   8
  -4  -1  12 20.4253 1.91671  16
  -3  -1  12 66.1865 4.31879   9
  -3  -1  12 51.5481 4.47900   2
  -3  -1  12 61.0994 4.01466   8
  -2  -1  12 10.3561 1.39243   8
   0   1 -12 166.822 10.8306   8
  -1   1 -12 132.960 8.92557   9
  -1   1 -12 137.546 9.32978   2
  -1   1 -12 133.680 8.60033   8
  -1   1 -12 119.679 8.79481  12
  -2   1 -12 199.298 15.3676   4
  -2   1 -12 195.140 14.7734   2
  -2   1 -12 211.571 13.6567   9
  -2   1 -12 208.155 14.3473  12
  -2   1 -12 216.580 14.6008   5
  -2   1 -12 219.570 13.2698   8
  -2   1 -12 226.313 13.4272  10
  -3   1 -12 20.6345 2.18228  13
  -3   1 -12 15.1016 3.58331   4
  -3   1 -12 19.2160 1.65947  10
  -3   1 -12 16.1775 2.21760  12
  -3   1 -12 15.1499 2.75763   5
  -3   1 -12 17.6653 2.53573   9
  -4   1 -12 269.146 19.2762  12
  -4   1 -12 297.875 18.6879   9
  -4   1 -12 314.703 19.0216  13
  -4   1 -12 281.206 18.7724  10
  -5   1 -12 -0.1751 0.73618  13
  -5   1 -12 -0.0232 2.02046  11
  -5   1 -12 0.39861 1.20191  12
  -5   1 -12 0.43622 0.61739  10
  -6   1 -12 30.9257 2.60194  13
  -6   1 -12 27.1379 2.88616  12
  -7   0  12 29.5058 2.10361  16
  -6   0  12 15.2343 1.15739  10
  -6   0  12 16.3800 1.51085  16
  -5   0  12 99.9777 6.50954  16
  -5   0  12 97.7481 6.34153  10
  -5   0  12 96.2149 6.36789   9
  -4   0  12 144.393 8.99223  16
  -4   0  12 133.901 8.84265  10
  -4   0  12 130.483 8.73498   8
  -4   0  12 139.336 8.93691   9
  -3   0  12 2.88040 1.03660   2
  -3   0  12 4.44422 0.92865   9
  -3   0  12 4.77020 0.86495  10
  -3   0  12 4.11913 0.58598   8
  -3   0  12 3.45497 0.77004  16
  -2   0  12 170.910 11.6050   2
  -2   0  12 172.922 11.0871   8
  -1   0  12 99.0588 6.58636   8
   0   0 -12 258.364 16.6450   8
  -1   0 -12 142.185 10.6616  12
  -1   0 -12 166.110 10.6673   2
  -1   0 -12 151.325 10.0339   9
  -1   0 -12 152.043 10.1115   8
  -2   0 -12 115.068 6.97555   8
  -2   0 -12 105.784 7.46615   9
  -2   0 -12 102.206 7.84253  12
  -2   0 -12 117.016 7.93180   5
  -2   0 -12 102.294 7.53842  10
  -2   0 -12 104.250 8.22519   2
  -3   0 -12 239.792 17.3673   2
  -3   0 -12 261.824 16.8099   9
  -3   0 -12 253.103 16.6146  10
  -3   0 -12 254.879 17.5041   5
  -3   0 -12 282.248 16.7347  13
  -3   0 -12 255.194 16.3079   8
  -3   0 -12 239.896 16.9180  12
  -4   0 -12 3.24687 1.10524  13
  -4   0 -12 3.65613 1.48521  12
  -4   0 -12 2.91655 1.34674   9
  -4   0 -12 2.66276 0.80848  10
  -5   0 -12 71.0340 4.92580  10
  -5   0 -12 72.7701 5.41604  13
  -5   0 -12 66.3587 6.11772  12
  -6   0 -12 3.23334 1.42157  13
  -6   0 -12 4.05681 0.69685  10
  -6   0 -12 4.18996 1.82456  12
  -7   0 -12 1.05261 1.00551  13
  -7   0 -12 0.78840 2.04609  12
  -7   1  12 5.99814 0.74729  16
  -6   1  12 33.7506 2.67373  15
  -6   1  12 43.0453 2.84933  16
  -6   1  12 38.0884 2.50108  10
  -5   1  12 160.804 10.1506   9
  -5   1  12 161.950 10.3346  16
  -5   1  12 156.875 10.4546  10
  -4   1  12 18.3530 3.08425   6
  -4   1  12 22.6603 2.03921  17
  -4   1  12 23.5774 1.87765   9
  -4   1  12 25.5699 1.76872  10
  -4   1  12 25.4018 2.14315  16
  -3   1  12 308.772 21.0621   2
  -3   1  12 332.841 20.6311   8
  -3   1  12 306.324 21.4390   7
  -3   1  12 332.132 20.6811  10
  -3   1  12 323.563 20.7752   9
  -3   1  12 336.667 20.8291  16
  -2   1  12 82.2945 5.54565  16
  -2   1  12 78.2873 5.36914   8
  -2   1  12 83.6051 5.94449   2
  -2   1  12 81.8515 5.59868   9
  -1   1  12 408.984 26.1117   8
  -1  -1 -12 206.805 13.5106   8
  -2  -1 -12 8.15335 2.04782   5
  -2  -1 -12 9.82995 1.87314   9
  -2  -1 -12 5.63725 11.8785   3
  -2  -1 -12 10.8170 2.78992   2
  -2  -1 -12 10.7517 1.51607   8
  -3  -1 -12 40.3443 4.65646   2
  -3  -1 -12 40.7574 3.82822   9
  -3  -1 -12 40.5269 2.85893   8
  -3  -1 -12 38.9433 3.41243  10
  -3  -1 -12 38.4583 4.56456   5
  -4  -1 -12 115.360 8.31015  10
  -4  -1 -12 128.823 8.58124   9
  -4  -1 -12 128.001 8.59403  13
  -5  -1 -12 4.93303 1.64325  12
  -5  -1 -12 5.41118 1.19739  10
  -5  -1 -12 5.24922 1.09830   9
  -5  -1 -12 5.88481 1.20922  13
  -6  -1 -12 47.0681 5.31223  12
  -6  -1 -12 49.6043 3.62105  10
  -6  -1 -12 51.0943 3.60533  13
  -7  -1 -12 22.4872 4.24108  12
  -7  -1 -12 29.4744 3.02443  13
  -7   2  12 37.3475 2.55004  16
  -6   2  12 7.99442 1.25716  16
  -6   2  12 6.51350 1.00672  15
  -6   2  12 6.64204 0.54600  10
  -5   2  12 4.49381 0.61205  10
  -5   2  12 5.05806 1.05947  15
  -5   2  12 3.57952 0.80161  17
  -5   2  12 6.72419 1.29453  16
  -4   2  12 27.3520 2.39889  16
  -4   2  12 27.9977 1.98269  10
  -4   2  12 30.0498 2.23340   9
  -4   2  12 28.0390 2.41755  17
  -3   2  12 217.619 15.4516   2
  -3   2  12 238.032 15.2024  16
  -3   2  12 238.592 15.1436   9
  -3   2  12 257.852 15.0515  10
  -3   2  12 215.018 15.9930   7
  -3   2  12 235.053 14.9326   8
  -2   2  12 346.682 21.4714  10
  -2   2  12 336.841 22.8417  16
  -2   2  12 348.475 22.5728   7
  -2   2  12 344.964 22.5927   9
  -2   2  12 341.463 21.4288   8
  -2   2  12 336.231 22.1923   2
  -1   2  12 37.9293 3.23921   9
  -1   2  12 41.0598 3.53462   2
  -1   2  12 40.8603 2.95642   8
   0   2  12 422.775 27.0280   8
  -1  -2 -12 112.317 7.62418   8
  -2  -2 -12 63.8263 4.49161   8
  -2  -2 -12 59.6661 5.57184   2
  -2  -2 -12 64.5528 5.44148   5
  -3  -2 -12 415.351 27.3305   5
  -3  -2 -12 393.449 27.3744   2
  -3  -2 -12 413.563 26.6406   9
  -3  -2 -12 439.112 26.2154   8
  -3  -2 -12 381.265 26.3321  10
  -4  -2 -12 59.0641 4.28838  10
  -4  -2 -12 61.7266 4.64963  13
  -4  -2 -12 57.1622 4.52470   9
  -4  -2 -12 51.8565 5.58597   5
  -4  -2 -12 60.3208 3.94392   8
  -5  -2 -12 55.9170 4.48684   9
  -5  -2 -12 56.5064 4.17063  10
  -5  -2 -12 54.8789 4.07238  13
  -6  -2 -12 8.03232 1.36352  13
  -6  -2 -12 8.25518 1.19127  10
  -7  -2 -12 13.1132 1.60944  13
  -7  -2 -12 13.6099 1.03191  10
  -6   3  12 20.4151 1.62095  17
  -6   3  12 21.0132 1.69020  16
  -5   3  12 50.6566 3.37385  10
  -5   3  12 52.2492 3.62606  17
  -4   3  12 13.8342 1.73552  16
  -4   3  12 13.5211 1.20961   9
  -4   3  12 14.3425 1.11372  10
  -4   3  12 12.9396 1.82072  17
  -3   3  12 144.631 11.8747   7
  -3   3  12 173.544 10.5123  10
  -3   3  12 164.839 10.8996  17
  -3   3  12 166.921 10.6609   9
  -3   3  12 162.557 10.6577  16
  -2   3  12 13.4071 3.01765   7
  -2   3  12 13.3321 1.35844  10
  -2   3  12 11.6005 1.79981   9
  -2   3  12 12.3407 2.29145   2
  -2   3  12 11.5755 1.26477   8
  -1   3  12 20.7729 2.54923   2
  -1   3  12 24.9963 3.88582   7
  -1   3  12 21.0535 1.87960   8
  -1   3  12 21.3157 2.29472   9
   0   3  12 48.9360 5.04845   7
   0   3  12 45.3228 3.49706   8
  -2  -3 -12 153.406 10.8600   5
  -2  -3 -12 149.662 10.1421   8
  -3  -3 -12 17.3432 1.98045   8
  -3  -3 -12 17.1663 3.14421   2
  -3  -3 -12 19.0585 3.08927   5
  -3  -3 -12 16.9104 2.30629   9
  -4  -3 -12 167.611 11.8897  10
  -4  -3 -12 170.633 11.6076   9
  -4  -3 -12 176.204 11.7917  13
  -4  -3 -12 173.776 10.7638   8
  -5  -3 -12 57.2788 4.53075  13
  -5  -3 -12 63.8625 4.60780  10
  -5  -3 -12 60.8339 4.85843   9
  -5  -3 -12 68.2141 5.22925  14
  -6  -3 -12 92.4681 5.83460   9
  -6  -3 -12 90.5578 6.59014  14
  -6  -3 -12 80.6522 6.08750  13
  -6  -3 -12 87.1535 6.04268  10
  -7  -3 -12 14.0374 2.34573  13
  -7  -3 -12 13.4134 1.16285  10
  -7  -3 -12 10.7621 2.08279  14
  -6   4  12 22.8292 1.77765  17
  -6   4  12 22.7433 1.76353  16
  -5   4  12 8.34367 1.13670  16
  -5   4  12 9.12113 1.37979  17
  -5   4  12 8.16250 0.64707  10
  -4   4  12 134.603 9.36949  17
  -4   4  12 141.441 9.07290  16
  -4   4  12 137.560 8.84245  10
  -3   4  12 0.13136 1.32951  17
  -3   4  12 1.89255 0.73615  10
  -3   4  12 -0.0610 0.82918  16
  -3   4  12 1.20865 1.00713   9
  -2   4  12 144.171 11.9239   7
  -2   4  12 156.485 10.5555  17
  -2   4  12 171.617 10.1912  10
  -2   4  12 160.283 10.3260   9
  -2   4  12 153.853 9.98201   8
  -1   4  12 0.54087 1.37631   2
  -1   4  12 0.93412 0.60490  10
  -1   4  12 0.19218 1.10278  17
  -1   4  12 1.06880 1.89206   7
  -1   4  12 1.21786 0.71760   8
  -1   4  12 0.63943 1.23497   9
   0   4  12 183.050 12.2045   8
   0   4  12 196.454 13.4358   7
   0   4  12 187.573 12.5438   9
  -1  -4 -12 40.9023 4.36792   5
   1   4  12 44.1296 5.01877   7
   1   4  12 42.4875 3.47759   8
  -2  -4 -12 42.5937 4.26362   5
  -2  -4 -12 44.3255 3.43444   8
  -3  -4 -12 147.671 11.8245   5
  -3  -4 -12 164.550 10.2502   8
  -3  -4 -12 159.273 10.2896  13
  -4  -4 -12 1.11314 1.72046   9
  -4  -4 -12 1.32268 0.90320   8
  -4  -4 -12 0.52341 0.96275  13
  -5  -4 -12 57.4549 4.85587   9
  -5  -4 -12 60.0571 4.49837  10
  -5  -4 -12 60.8569 4.68685  13
  -5  -4 -12 57.8320 4.96138  14
  -6  -4 -12 31.2361 4.11839  14
  -6  -4 -12 28.3171 2.79377  13
  -6  -4 -12 30.4850 2.60128   9
  -6  -4 -12 32.9451 2.88219  10
  -7  -4 -12 8.63237 1.49224  10
  -7  -4 -12 11.5326 2.75412  14
  -5   5  12 32.2854 2.51440  16
  -5   5  12 30.9192 2.54312  17
  -4   5  12 11.6138 1.87895  17
  -4   5  12 12.9841 1.62808  16
  -4   5  12 12.0571 1.03420  10
  -3   5  12 114.090 7.22303  10
  -3   5  12 114.289 7.67958  17
  -3   5  12 113.463 7.75185   9
  -2   5  12 0.18298 1.32336  18
  -2   5  12 -0.0139 0.86414  17
  -2   5  12 0.03486 1.06804   9
  -2   5  12 -0.1181 0.77460  10
  -1   5  12 89.1758 5.85404   8
  -1   5  12 89.8096 6.08032  17
  -1   5  12 83.0066 5.92432  10
  -1   5  12 88.1310 6.28059   9
   0   5  12 17.0626 3.31513   7
   0   5  12 19.3005 2.87839   9
   0   5  12 19.4137 2.06623   8
   0   5  12 20.4540 2.35779  17
   1   5  12 48.8788 3.72285   8
   2   5  12 87.5363 6.15475   8
  -3  -5 -12 2.73822 1.16105   8
  -4  -5 -12 115.767 8.89137   9
  -4  -5 -12 129.169 8.11000   8
  -5  -5 -12 20.6089 2.90483  14
  -5  -5 -12 22.6723 2.56680   9
  -5  -5 -12 24.2662 1.73285   8
  -6  -5 -12 22.1540 2.64878  14
  -6  -5 -12 26.1418 2.39683   9
  -6  -5 -12 21.4088 1.99062  10
  -7  -5 -12 15.3687 2.67343  14
  -7  -5 -12 15.3267 1.84400  10
  -4   6  12 21.2777 1.85279  17
  -3   6  12 6.43144 0.78771  10
  -3   6  12 6.76482 1.41476  17
  -2   6  12 20.3149 1.96841  17
  -2   6  12 20.3082 2.13441  18
  -2   6  12 18.5156 1.82286   9
  -2   6  12 22.5625 1.81552  10
  -1   6  12 29.2071 3.45202  18
  -1   6  12 28.8314 2.37836  10
  -1   6  12 26.5843 2.46784   9
  -1   6  12 25.5452 2.65987  17
   0   6  12 44.5264 3.67945   9
   0   6  12 44.0830 3.21702   8
   1   6  12 95.1977 6.94033   9
   1   6  12 86.3813 6.08249   8
   2   6  12 8.58642 1.59396   8
  -3  -6 -12 43.4063 3.33648   8
   3   6  12 38.4545 3.22375   8
  -4  -6 -12 -0.0566 1.65834   9
  -4  -6 -12 1.70690 1.07846   8
  -5  -6 -12 1.68830 0.79065   8
  -5  -6 -12 5.71147 1.34072   9
  -5  -6 -12 2.24829 2.05373  14
  -6  -6 -12 22.8439 2.12182  10
  -6  -6 -12 19.0578 2.92570  14
  -3   7  12 19.4224 1.98834  17
  -3   7  12 21.0463 1.42064  10
  -2   7  12 0.68734 0.49546  10
  -2   7  12 0.40865 1.05555  17
  -2   7  12 2.08426 1.34031  18
  -1   7  12 22.7277 2.60343  18
  -1   7  12 24.1341 2.06766  10
  -1   7  12 23.9646 2.19684   9
   0   7  12 -0.0818 0.73387  10
   0   7  12 -0.8456 1.98882  18
   0   7  12 0.85484 1.44340   9
   1   7  12 2.50707 1.37495   9
   1   7  12 1.88450 0.75753   8
   2   7  12 31.3751 3.41982   9
   2   7  12 33.1693 2.79404   8
  -3  -7 -12 0.36681 0.76920   8
   3   7  12 1.04777 0.79424   8
  -4  -7 -12 20.4167 2.05137   8
   4   7  12 21.4197 2.11692   8
  -5  -7 -12 2.73005 1.84998  14
  -5  -7 -12 3.04062 2.13220   9
   5   7  12 2.88948 1.21132   8
  -1   8  12 0.63503 1.41943  18
  -1   8  12 1.37720 0.52776  10
   0   8  12 24.0254 2.06248  10
   0   8  12 26.2246 2.11886   9
   0   8  12 25.7853 2.83843  18
   1   8  12 14.1705 2.36172   9
   1   8  12 13.8251 2.02353  18
   2   8  12 14.6269 1.93657   9
   2   8  12 15.5345 2.04450  18
  -3  -8 -12 21.9748 2.10322   8
   3   8  12 23.3358 1.70401   8
   3   8  12 21.6388 2.66018  18
   4   5 -13 35.9914 2.45380   8
  -4  -5  13 36.7575 2.48148  16
  -4  -5  13 35.9741 2.23069   8
   3   5 -13 34.7716 2.22396   8
  -3  -5  13 31.9022 2.23703   8
   2   5 -13 64.6438 4.04495   8
   2   5 -13 61.9462 4.22919   9
  -2  -5  13 60.8844 4.12822   8
   1   5 -13 0.80881 0.39245  12
   1   5 -13 1.14131 0.46288   9
   0   5 -13 49.3183 3.07158   9
   0   5 -13 41.5683 3.06864  10
  -1   5 -13 2.29492 0.38126   9
  -1   5 -13 1.46615 0.55666  12
  -1   5 -13 1.67431 0.34729  10
  -2   5 -13 8.39278 1.06025  12
  -2   5 -13 7.07056 0.63053  10
  -5  -4  13 12.2924 1.03147  16
  -5  -4  13 12.9722 1.08006   9
   4   4 -13 18.0389 1.36569   8
  -4  -4  13 18.7909 1.51690   9
  -4  -4  13 21.1393 1.37411   8
   3   4 -13 35.1726 2.37542   8
  -3  -4  13 35.1156 2.40534   8
   2   4 -13 9.62149 1.09809   8
  -2  -4  13 10.4038 1.24288   8
   1   4 -13 79.7187 4.98326   8
   1   4 -13 72.8735 5.13608   9
   0   4 -13 0.87236 0.85613   9
   0   4 -13 0.24557 0.29783   8
   0   4 -13 0.48557 0.77974  12
  -1   4 -13 37.9096 2.52763  10
  -1   4 -13 35.2066 2.65066   9
  -1   4 -13 35.9461 2.67477  12
  -2   4 -13 27.3686 1.91778   9
  -2   4 -13 27.5988 2.03165  10
  -2   4 -13 31.1394 2.46287  12
  -3   4 -13 2.63925 0.75724  12
  -3   4 -13 3.06934 0.43392  10
  -4   4 -13 25.7267 2.16039  12
  -6  -3  13 7.33812 0.63417  16
  -6  -3  13 7.30124 0.51815   9
  -6  -3  13 9.60477 0.82416  10
  -5  -3  13 50.0664 3.22543   9
  -5  -3  13 44.6219 3.16482  16
  -4  -3  13 42.0361 2.84190   9
  -4  -3  13 38.7123 2.64723   8
  -3  -3  13 54.5844 3.69923   8
   2   3 -13 84.2830 5.49386   8
  -2  -3  13 83.2301 5.58915   8
   1   3 -13 4.38655 0.75323   8
   0   3 -13 289.767 18.7791   8
   0   3 -13 268.444 17.1850   9
  -1   3 -13 0.11922 0.86778  12
  -1   3 -13 0.38986 0.83554   9
  -1   3 -13 0.48631 0.31993   8
  -1   3 -13 0.21577 0.43578  10
  -2   3 -13 83.7961 5.55389  10
  -2   3 -13 81.8784 5.79463  12
  -2   3 -13 84.5826 5.65366   9
  -3   3 -13 106.741 7.08254  10
  -3   3 -13 110.036 7.42350  12
  -4   3 -13 3.91810 0.57517  10
  -4   3 -13 3.10880 0.94684  12
  -5   3 -13 31.0314 2.69318  12
  -6  -2  13 57.0076 3.55899  16
  -6  -2  13 50.5825 3.41807   9
  -5  -2  13 1.53219 0.40759  16
  -5  -2  13 1.81194 0.52220  10
  -5  -2  13 2.30602 0.44670   9
  -4  -2  13 30.7755 2.34935   9
  -4  -2  13 28.5176 2.00164   8
  -3  -2  13 117.647 7.64911   8
  -2  -2  13 41.5994 3.04325   8
   1   2 -13 132.958 8.62726   8
   0   2 -13 26.2141 2.36363   9
   0   2 -13 28.2569 2.02927   8
  -1   2 -13 56.6783 3.72196   8
  -1   2 -13 56.7232 4.20577  12
  -1   2 -13 56.9881 4.10152   9
  -1   2 -13 54.2370 3.95288  10
  -2   2 -13 401.141 27.4924  13
  -2   2 -13 421.631 25.6242   9
  -2   2 -13 396.086 25.6688  10
  -2   2 -13 403.634 25.7420  12
  -3   2 -13 167.846 11.5739  13
  -3   2 -13 174.872 11.8174  12
  -3   2 -13 186.954 11.5161  10
  -3   2 -13 177.735 11.5181   9
  -4   2 -13 91.7650 6.42869  10
  -4   2 -13 107.930 7.00848  12
  -4   2 -13 92.1177 6.55938  13
  -5   2 -13 2.60861 1.03142  12
  -7  -1  13 26.6255 1.80458  16
  -6  -1  13 0.07005 0.20933  10
  -6  -1  13 -0.4338 0.29032  16
  -5  -1  13 102.276 6.82475  10
  -5  -1  13 107.480 6.92980  16
  -5  -1  13 107.462 6.86661   9
  -4  -1  13 42.3162 2.82589  10
  -4  -1  13 42.5021 2.97994  16
  -4  -1  13 39.1221 2.66630   8
  -4  -1  13 39.0178 2.87951   9
  -3  -1  13 135.964 8.20311   8
  -3  -1  13 129.346 9.23295   9
  -2  -1  13 75.0787 5.06204   8
   1   1 -13 0.25367 0.55141   8
   0   1 -13 224.889 14.4825   8
  -1   1 -13 65.2726 5.65802   2
  -1   1 -13 72.5884 4.81041   8
  -1   1 -13 72.3875 4.99821   9
  -1   1 -13 72.0123 5.18904  12
  -2   1 -13 109.794 8.72693   5
  -2   1 -13 117.353 8.19995  12
  -2   1 -13 115.055 8.08062   9
  -2   1 -13 121.779 7.71566   8
  -2   1 -13 131.448 7.93474  10
  -3   1 -13 90.2243 5.81643  10
  -3   1 -13 88.7493 5.96511  13
  -3   1 -13 77.7898 6.29657  12
  -3   1 -13 85.9244 6.00838   9
  -4   1 -13 9.31728 1.38894  10
  -4   1 -13 4.99500 1.61151  12
  -4   1 -13 10.5946 1.43640  13
  -4   1 -13 9.71707 1.14765   9
  -5   1 -13 69.7748 4.56623  10
  -5   1 -13 65.7798 5.20392  12
  -5   1 -13 68.7853 4.78872  13
  -6   1 -13 0.88174 0.78803  13
  -6   1 -13 1.44189 1.06437  12
  -7   0  13 5.07643 0.53094  16
  -6   0  13 60.9020 4.04019  16
  -6   0  13 60.4943 3.92891  10
  -5   0  13 12.5985 1.21510  16
  -5   0  13 13.5162 1.07385  10
  -5   0  13 12.7707 1.07463   9
  -4   0  13 151.359 9.56677   9
  -4   0  13 137.906 9.35780   8
  -4   0  13 154.417 9.60798  16
  -4   0  13 145.470 9.47941  10
  -3   0  13 39.4071 2.83987   8
  -3   0  13 43.3787 3.10778  16
  -3   0  13 43.9074 3.18510   9
  -2   0  13 49.9111 3.43957   8
  -1   0  13 285.329 18.3154   8
   0   0 -13 16.7157 1.48269   8
  -1   0 -13 227.311 15.5377   9
  -1   0 -13 241.460 15.1745   8
  -2   0 -13 56.7279 3.91012  10
  -2   0 -13 48.5717 4.34625   9
  -2   0 -13 47.3797 4.87651   2
  -2   0 -13 56.8239 3.71146   8
  -2   0 -13 47.0678 4.15124  12
  -2   0 -13 55.2657 4.79047   5
  -3   0 -13 81.9013 6.57233  12
  -3   0 -13 90.9327 6.48167   9
  -3   0 -13 83.1823 5.75722   8
  -3   0 -13 94.0032 6.21898  10
  -3   0 -13 100.683 6.32343  13
  -4   0 -13 69.6515 5.08421  10
  -4   0 -13 79.7404 5.30871  13
  -4   0 -13 77.8693 5.25024   9
  -4   0 -13 62.1648 5.68846  12
  -5   0 -13 0.65296 0.85189  10
  -5   0 -13 1.28548 0.86197  13
  -5   0 -13 0.75565 1.79308  12
  -6   0 -13 39.1178 3.97905  12
  -6   0 -13 36.4675 2.70453  13
  -6   0 -13 40.3332 2.71916  10
  -7   1  13 42.1730 2.80691  16
  -6   1  13 0.86279 0.54920  16
  -6   1  13 1.06431 0.23369  10
  -5   1  13 57.4682 3.67242   9
  -5   1  13 53.8324 3.81599  16
  -5   1  13 56.8291 3.69559  10
  -4   1  13 78.8595 4.91998   9
  -4   1  13 73.8727 4.82385  10
  -4   1  13 68.2768 4.95817  17
  -4   1  13 72.6392 4.96353  16
  -3   1  13 25.2824 2.86737   7
  -3   1  13 29.1513 1.99067   8
  -3   1  13 28.3033 2.31759   9
  -3   1  13 30.0454 2.11950  10
  -3   1  13 28.3774 2.18589  16
  -2   1  13 143.320 9.46640  16
  -2   1  13 148.189 9.34783   8
  -2   1  13 147.285 9.54932   9
  -2   1  13 139.705 9.87593   2
  -1   1  13 20.0700 1.77616   8
  -1  -1 -13 35.6979 2.75552   8
  -2  -1 -13 229.027 17.9122   2
  -2  -1 -13 236.549 17.1838   9
  -2  -1 -13 264.313 16.6564   5
  -2  -1 -13 265.243 15.6483   8
  -3  -1 -13 93.5720 6.95290  10
  -3  -1 -13 94.1346 7.02403   9
  -3  -1 -13 101.945 6.31113   8
  -3  -1 -13 91.8166 7.38110   5
  -4  -1 -13 3.30215 1.01384  10
  -4  -1 -13 5.47306 1.30584  13
  -4  -1 -13 4.44593 1.55665   9
  -5  -1 -13 46.8603 3.73461  10
  -5  -1 -13 54.7475 3.66196   9
  -6  -1 -13 2.29306 0.78065  10
  -6  -1 -13 0.05177 1.31163  13
  -6   2  13 46.4666 3.16059  16
  -6   2  13 45.4985 2.94996  10
  -5   2  13 0.67235 0.25448  10
  -5   2  13 0.46076 0.40858  17
  -5   2  13 0.51796 0.45031  16
  -4   2  13 128.386 8.02874  10
  -4   2  13 127.728 8.07908   9
  -4   2  13 124.428 8.26054  17
  -4   2  13 115.975 8.14272  16
  -3   2  13 3.31312 0.87768   9
  -3   2  13 3.67694 0.55074  10
  -3   2  13 3.04141 0.47092   8
  -3   2  13 1.44011 0.75632  16
  -2   2  13 5.09108 1.24332   2
  -2   2  13 6.05358 1.97940   7
  -2   2  13 5.88433 1.09744   9
  -2   2  13 4.52422 0.73118   8
  -2   2  13 5.47219 0.78060  10
  -1   2  13 89.4413 11.6927   3
   0   2  13 10.0926 1.24408   8
  -1  -2 -13 143.529 9.53440   8
  -2  -2 -13 26.6396 2.53338   8
  -2  -2 -13 28.9147 3.55832   9
  -2  -2 -13 24.0152 3.60357   5
  -3  -2 -13 30.7739 4.19903   5
  -3  -2 -13 35.1979 3.68645   9
  -3  -2 -13 34.8306 2.80771   8
  -4  -2 -13 263.042 17.7853  10
  -4  -2 -13 268.523 17.3083   8
  -4  -2 -13 282.341 18.0082   9
  -4  -2 -13 273.791 17.8575  13
  -5  -2 -13 -0.4317 1.09608  13
  -5  -2 -13 -1.1225 1.04827  10
  -5  -2 -13 -0.7358 1.09681   9
  -6  -2 -13 65.8586 4.54700  10
  -6  -2 -13 65.2410 4.74220  13
  -7  -2 -13 2.51278 1.06703  13
  -6   3  13 0.06450 0.52982  16
  -5   3  13 37.8766 2.82188  16
  -5   3  13 38.9962 2.61500  10
  -5   3  13 41.8555 2.88820  17
  -4   3  13 14.3327 1.58891  16
  -4   3  13 13.9744 1.71319  17
  -4   3  13 15.8840 1.22774  10
  -4   3  13 14.3267 1.24952   9
  -3   3  13 96.9592 6.89853  16
  -3   3  13 93.7251 6.44276  17
  -3   3  13 94.6596 6.03178  10
  -3   3  13 93.0925 6.21249   9
  -2   3  13 288.288 18.7265  10
  -2   3  13 283.407 20.5277   7
  -2   3  13 302.314 18.0598   8
  -2   3  13 282.797 18.2438   9
  -1   3  13 384.804 25.7741   7
  -1   3  13 388.712 24.6760   8
  -1   3  13 385.239 24.8735   9
   0   3  13 162.470 11.2367   8
   0   3  13 179.634 12.1640   7
  -2  -3 -13 82.0850 5.73331   8
  -2  -3 -13 78.9407 6.73345   5
  -3  -3 -13 94.9517 6.31290   8
  -3  -3 -13 93.0034 6.39567  13
  -3  -3 -13 86.9103 7.85856   5
  -3  -3 -13 96.2108 7.05854   9
  -4  -3 -13 4.03240 1.42296  10
  -4  -3 -13 5.44105 1.57944   9
  -4  -3 -13 3.24523 1.27250  13
  -4  -3 -13 4.87294 1.04462   8
  -5  -3 -13 25.4782 2.83328  10
  -5  -3 -13 27.9298 3.02205  13
  -5  -3 -13 27.1461 3.38451  14
  -5  -3 -13 28.2364 3.23443   9
  -6  -3 -13 23.4840 2.03039  10
  -6  -3 -13 24.8927 2.54451  13
  -6  -3 -13 27.1107 2.44591  14
  -7  -3 -13 16.0865 1.26937  10
  -7  -3 -13 8.53583 1.79751  13
  -6   4  13 6.64546 0.78898  16
  -5   4  13 5.22840 1.02052  16
  -5   4  13 4.37624 1.06815  17
  -5   4  13 4.95110 0.48817  10
  -4   4  13 48.6471 3.52000  16
  -4   4  13 48.7867 3.58872  17
  -4   4  13 49.5600 3.28640  10
  -3   4  13 97.9258 6.25130  10
  -3   4  13 95.9437 6.71715  17
  -3   4  13 94.3543 6.50689   9
  -2   4  13 35.2837 2.34276   8
  -2   4  13 35.1324 3.09559  17
  -2   4  13 35.9337 2.89180   9
  -2   4  13 34.6629 2.56217  10
  -1   4  13 191.346 12.1820  17
  -1   4  13 193.941 12.3959  10
  -1   4  13 172.108 13.6618   7
  -1   4  13 189.385 12.5067   8
  -1   4  13 193.880 12.1180   9
   0   4  13 4.41054 0.83855   8
   0   4  13 1.20016 1.94902   7
   0   4  13 3.16376 1.53819   9
   1   4  13 201.730 14.3081   7
   1   4  13 197.958 12.9926   8
  -2  -4 -13 39.2521 4.23574   5
  -2  -4 -13 41.4219 3.24840   8
  -3  -4 -13 38.7710 3.31789  13
  -3  -4 -13 37.9909 3.15087   8
  -4  -4 -13 64.0519 5.59465   9
  -4  -4 -13 62.9995 4.80720  13
  -4  -4 -13 64.6592 4.55563   8
  -5  -4 -13 0.54214 1.34155   9
  -5  -4 -13 0.39873 1.38217  10
  -5  -4 -13 0.38844 0.81638  13
  -5  -4 -13 0.99283 1.93384  14
  -6  -4 -13 33.2190 2.88144  10
  -6  -4 -13 32.0772 3.42574  14
  -6  -4 -13 34.4577 2.43093   9
  -7  -4 -13 0.18428 0.80361  10
  -5   5  13 10.3053 1.12686  16
  -4   5  13 11.4118 1.85633  17
  -4   5  13 11.6817 1.00667  10
  -3   5  13 26.3457 2.01544  10
  -3   5  13 27.2358 2.54755  17
  -2   5  13 65.5169 4.89134   9
  -2   5  13 65.2158 4.38420  10
  -2   5  13 65.6600 4.78278  17
  -1   5  13 14.6903 1.72988  17
  -1   5  13 14.5334 1.63121  10
  -1   5  13 14.6718 1.38609   8
  -1   5  13 14.0201 2.30675   9
   0   5  13 98.1686 6.99629  17
   0   5  13 98.5064 7.17267   9
   0   5  13 103.805 6.70459   8
   1   5  13 36.0794 3.03065   8
  -2  -5 -13 56.8018 4.53679   8
   2   5  13 65.1491 4.46062   8
  -3  -5 -13 19.4965 2.45924   8
  -4  -5 -13 0.20147 1.47557   9
  -4  -5 -13 -0.0393 1.02772   8
  -5  -5 -13 28.8655 3.18654   9
  -5  -5 -13 26.7761 2.85430  14
  -6  -5 -13 0.98775 1.60471  14
  -6  -5 -13 0.01610 0.93537  10
  -6  -5 -13 -0.3657 0.99242   9
  -4   6  13 22.7349 1.92240  17
  -3   6  13 23.1197 1.73287  10
  -3   6  13 25.5568 2.16714  17
  -2   6  13 21.4747 1.78152   9
  -2   6  13 21.2180 2.18887  17
  -2   6  13 20.1415 2.09520  18
  -2   6  13 22.3034 1.89360  10
  -1   6  13 21.8176 2.33832   9
  -1   6  13 20.9154 2.22978  18
  -1   6  13 22.0304 1.90916  10
  -1   6  13 20.0997 2.15116  17
   0   6  13 1.59474 1.59239   9
   0   6  13 0.48828 0.82121   8
   1   6  13 72.8058 5.27733   8
   1   6  13 82.1542 5.92980   9
   2   6  13 34.2299 3.09907   8
  -3  -6 -13 26.8239 2.66898   8
   3   6  13 26.5120 2.55241   8
  -4  -6 -13 37.4078 2.94860   8
  -5  -6 -13 25.4771 2.51151   9
  -5  -6 -13 19.7648 3.07338  14
  -6  -6 -13 7.24192 1.70019  14
  -6  -6 -13 5.41681 1.49036   9
  -3   7  13 7.42737 1.00279  17
  -2   7  13 28.8380 2.41433  18
  -2   7  13 23.5357 2.04737  17
  -2   7  13 26.8385 1.88706  10
  -1   7  13 -0.7739 0.79634  10
  -1   7  13 -0.1875 1.40506  18
  -1   7  13 -0.3639 0.70198   9
   0   7  13 92.6156 6.38686  10
   0   7  13 99.7499 6.54230  18
   0   7  13 91.0566 6.55052   9
   1   7  13 -1.1917 0.67216   8
   1   7  13 0.58651 1.21510   9
   2   7  13 40.6028 2.86120   8
   2   7  13 37.1340 3.51557   9
  -3  -7 -13 9.68998 1.67447   8
   3   7  13 13.0529 1.49093   8
  -4  -7 -13 3.09973 0.95358   8
   4   7  13 4.05814 0.79306   8
  -5  -7 -13 20.5541 2.71869  14
  -1   8  13 20.4192 1.49179  10
   0   8  13 1.46436 0.97420  18
   0   8  13 0.65576 0.66084   9
   0   8  13 0.30650 0.59045  10
   1   8  13 27.5656 2.15126   9
   1   8  13 26.6981 2.67197  18
   2   8  13 25.7735 2.57071   9
   2   8  13 27.2051 2.83201  18
   3   5 -14 10.1344 0.83523  12
   2   5 -14 14.5694 1.09111  12
   2   5 -14 13.7927 1.08871   9
  -2  -5  14 13.6437 1.05775   8
   1   5 -14 19.8917 1.44200   9
   0   5 -14 4.93151 0.64536  12
   0   5 -14 4.73931 0.69313   9
  -1   5 -14 24.1426 1.73503  10
   4   4 -14 0.47156 0.21925   8
  -4  -4  14 0.82398 0.16587   8
  -4  -4  14 0.48953 0.27426  16
  -4  -4  14 0.87486 0.37222   9
   3   4 -14 58.8067 3.55643   8
  -3  -4  14 49.4587 3.53985   8
   2   4 -14 10.9939 0.88446   8
  -2  -4  14 11.9714 1.02956   8
   1   4 -14 8.35627 0.95084  12
   1   4 -14 8.36516 1.00380   9
   1   4 -14 8.38456 0.74660   8
   0   4 -14 41.7673 3.43694  12
   0   4 -14 45.8914 2.87153   9
  -1   4 -14 4.25387 0.96836  12
  -1   4 -14 2.85825 0.57758  10
  -1   4 -14 3.93120 0.73415   9
  -2   4 -14 26.0148 1.93897  10
  -2   4 -14 29.4009 2.25499  12
  -3   4 -14 7.09520 0.61037  10
  -3   4 -14 7.41807 1.01538  12
  -5  -3  14 -0.0702 0.25745  16
  -5  -3  14 -0.1317 0.37102   9
  -4  -3  14 50.2653 3.48938  16
  -4  -3  14 53.6295 3.35285   8
  -4  -3  14 51.3183 3.49614   9
   3   3 -14 13.8661 1.16408   8
  -3  -3  14 13.7884 1.23952   8
   2   3 -14 73.0540 4.84883   8
  -2  -3  14 75.2497 4.88898   8
   1   3 -14 79.4852 5.20692   8
   0   3 -14 0.72182 0.49875  12
   0   3 -14 1.31129 0.59563   9
   0   3 -14 0.92228 0.39628   8
  -1   3 -14 75.1563 4.86383  12
  -1   3 -14 64.9986 4.61026  10
  -1   3 -14 66.4320 4.73361   9
  -2   3 -14 3.38901 0.77541   9
  -2   3 -14 2.89894 0.81107  12
  -2   3 -14 3.59615 0.57468  10
  -3   3 -14 26.2942 1.89395  10
  -3   3 -14 26.3631 2.18120  12
  -4   3 -14 13.6422 1.01863  10
  -4   3 -14 17.0682 1.91151  12
  -6  -2  14 7.01471 0.66313  16
  -6  -2  14 6.73014 0.51647  10
  -5  -2  14 87.0856 5.35927  16
  -5  -2  14 76.9794 5.30429   9
  -4  -2  14 0.03284 0.50317  16
  -4  -2  14 -0.0345 0.24714   8
  -4  -2  14 0.46548 0.45430   9
  -3  -2  14 118.686 7.65572   8
   2   2 -14 54.3337 3.87968   8
  -2  -2  14 58.0597 3.80833   8
   1   2 -14 88.7193 5.84564   8
   0   2 -14 102.198 6.61847   8
   0   2 -14 100.135 6.88311   9
  -1   2 -14 3.94662 0.99782   9
  -1   2 -14 3.64070 0.88739  12
  -1   2 -14 4.73657 0.73765   8
  -2   2 -14 0.79519 1.00628   9
  -2   2 -14 -0.6002 0.87893  12
  -2   2 -14 -0.7052 0.61864  13
  -2   2 -14 0.74019 0.66652  10
  -3   2 -14 96.3191 6.56590  12
  -3   2 -14 87.4659 6.07792   9
  -3   2 -14 94.2370 6.12389  10
  -4   2 -14 11.0778 1.67477  12
  -4   2 -14 11.1211 1.11984  10
  -5   2 -14 9.28889 1.55398  12
  -6  -1  14 38.1693 2.27694  16
  -6  -1  14 31.1769 2.31151  10
  -5  -1  14 0.26556 0.54066   9
  -5  -1  14 0.18327 0.37077  10
  -5  -1  14 -0.5620 0.45380  16
  -4  -1  14 96.7794 6.67698   8
  -4  -1  14 107.129 6.89358  16
  -4  -1  14 110.550 6.88658   9
  -3  -1  14 60.0137 4.01931   8
  -3  -1  14 61.1815 4.28744   9
  -2  -1  14 148.053 9.57029   8
   1   1 -14 88.0368 5.84521   8
   0   1 -14 5.83693 1.09899   8
  -1   1 -14 77.9842 5.46743   9
  -1   1 -14 77.5787 5.36422  12
  -1   1 -14 74.3985 5.06018   8
  -2   1 -14 0.41801 0.99088  12
  -2   1 -14 1.61939 1.22070   9
  -2   1 -14 1.71806 0.56771   8
  -2   1 -14 1.61280 0.78523  10
  -3   1 -14 173.544 10.7701  10
  -3   1 -14 157.713 10.8170  13
  -3   1 -14 156.006 11.0855  12
  -3   1 -14 170.204 10.8750   9
  -4   1 -14 25.7950 2.06395  10
  -4   1 -14 21.8105 2.47296  12
  -4   1 -14 23.7657 2.04710  13
  -5   1 -14 0.16564 0.64700  13
  -5   1 -14 0.07640 0.47242  10
  -5   1 -14 0.91697 1.33070  12
  -6   0  14 7.81429 0.57598  10
  -6   0  14 7.73693 0.74985  16
  -5   0  14 129.538 8.02647  16
  -5   0  14 117.320 7.90476   9
  -4   0  14 4.80392 0.74957  10
  -4   0  14 4.16039 0.92480   9
  -4   0  14 2.92810 0.83814  16
  -3   0  14 131.591 9.01395  16
  -3   0  14 138.039 8.88631   8
  -3   0  14 145.568 9.09582   9
  -2   0  14 7.53075 1.08272  16
  -2   0  14 6.75774 1.18412   8
  -1   0  14 69.4290 4.64424   8
   0   0 -14 135.928 8.88447   8
  -1   0 -14 -0.4374 0.64645   8
  -1   0 -14 1.26021 1.18108   9
  -2   0 -14 167.169 10.6420  10
  -2   0 -14 145.075 10.8641  12
  -2   0 -14 162.617 10.9051   9
  -2   0 -14 170.004 10.4714   8
  -3   0 -14 13.9001 1.98763  12
  -3   0 -14 13.8564 2.40788   9
  -3   0 -14 16.5215 1.81807  10
  -3   0 -14 16.4324 1.96061  13
  -4   0 -14 45.2516 4.28075  12
  -4   0 -14 45.6052 3.40672   9
  -4   0 -14 46.3901 3.43687  13
  -4   0 -14 45.6231 3.44838  10
  -5   0 -14 29.1663 2.34885  13
  -5   0 -14 27.3713 2.97117  12
  -5   0 -14 28.9935 2.18510  10
  -6   0 -14 22.0611 1.97482  13
  -6   0 -14 21.5871 2.84709  12
  -6   1  14 19.5917 1.40999  10
  -6   1  14 22.8682 1.56327  16
  -5   1  14 0.27007 0.33643  10
  -5   1  14 0.19660 0.27816   9
  -5   1  14 0.19959 0.39601  16
  -4   1  14 187.104 11.7660  16
  -4   1  14 173.602 11.7617  17
  -4   1  14 181.970 11.6928   9
  -4   1  14 183.984 11.6573  10
  -3   1  14 20.7272 1.48029   8
  -3   1  14 18.3205 1.77728  16
  -3   1  14 19.3647 1.51123  10
  -3   1  14 20.5331 1.80896   9
  -2   1  14 74.7851 5.13518  16
  -2   1  14 75.5756 4.87358   8
  -2   1  14 75.3733 5.32666   9
  -1   1  14 131.928 8.59128   8
   0  -1 -14 12.8105 1.66531   8
  -1  -1 -14 112.011 7.50474   8
  -2  -1 -14 0.82032 1.15282   9
  -2  -1 -14 -0.5453 1.49261   5
  -2  -1 -14 0.75886 0.85333   8
  -3  -1 -14 114.781 8.11439  10
  -3  -1 -14 121.666 8.04248  13
  -3  -1 -14 124.461 7.75830   8
  -3  -1 -14 112.374 8.37388   9
  -4  -1 -14 32.8624 2.88556  13
  -4  -1 -14 32.4513 3.02709   9
  -4  -1 -14 28.2312 2.67116  10
  -5  -1 -14 5.62370 0.97060  10
  -5  -1 -14 4.74858 1.05622  13
  -6  -1 -14 38.9394 3.06543  13
  -6  -1 -14 43.8141 3.11341  10
  -6   2  14 3.73974 0.76448  16
  -5   2  14 68.9545 4.45779  17
  -5   2  14 64.8148 4.44142  16
  -5   2  14 66.6071 4.32859  10
  -4   2  14 0.12379 0.59263  17
  -4   2  14 0.01800 0.36881  10
  -4   2  14 -0.4479 0.42280  16
  -4   2  14 -0.0705 0.55694   9
  -3   2  14 213.927 14.2311   9
  -3   2  14 227.973 13.7752  10
  -3   2  14 236.688 16.0485  16
  -3   2  14 231.168 13.9966  17
  -3   2  14 235.246 15.8097   8
  -2   2  14 25.1813 2.41324   9
  -2   2  14 27.0543 1.99355   8
  -1   2  14 73.3929 4.91931   8
   0   2  14 204.236 13.1841   8
  -1  -2 -14 3.95856 1.11351   8
  -2  -2 -14 81.0760 6.66564   9
  -2  -2 -14 90.6851 6.02180   8
  -2  -2 -14 85.0794 7.12105   5
  -3  -2 -14 2.22611 1.76730   9
  -3  -2 -14 0.19042 0.80131   8
  -4  -2 -14 0.15580 1.62641   9
  -4  -2 -14 0.80697 0.87254  13
  -4  -2 -14 0.39584 0.90111  10
  -5  -2 -14 45.7565 3.32770   9
  -5  -2 -14 39.7444 3.34752  10
  -5  -2 -14 40.0570 3.25980  13
  -6  -2 -14 1.52457 0.96086  13
  -6  -2 -14 0.92149 0.65343  10
  -6   3  14 22.7825 1.67589  16
  -5   3  14 11.0695 1.17985  16
  -5   3  14 9.08794 0.73060  10
  -5   3  14 10.4380 0.93233  17
  -4   3  14 67.7038 4.35500   9
  -4   3  14 67.4088 4.56077  16
  -4   3  14 67.0547 4.38456  10
  -4   3  14 66.1981 4.58660  17
  -3   3  14 24.2363 1.97092  10
  -3   3  14 23.0705 1.89271   9
  -3   3  14 22.4890 2.19616  17
  -2   3  14 2.97196 0.52765   8
  -2   3  14 2.85739 0.72883   9
  -2   3  14 2.69573 0.52761  10
  -1   3  14 477.049 29.0872   8
  -1   3  14 434.524 29.2468   9
   0   3  14 54.6956 5.42551   7
   0   3  14 65.3130 4.27329   8
  -1  -3 -14 142.237 9.46219   8
  -1  -3 -14 124.023 10.2268   5
   1   3  14 151.039 10.4918   7
  -2  -3 -14 7.61389 1.23555   8
  -3  -3 -14 59.3293 4.15546   8
  -3  -3 -14 57.0498 5.30726   9
  -3  -3 -14 56.1787 4.52660  13
  -4  -3 -14 37.0785 3.98792   9
  -4  -3 -14 30.0289 3.00383  10
  -4  -3 -14 36.8645 2.57006   8
  -4  -3 -14 36.9249 3.51768  14
  -4  -3 -14 32.9062 2.99746  13
  -5  -3 -14 73.2479 4.88135   9
  -5  -3 -14 59.1498 5.02103  13
  -5  -3 -14 65.6030 4.78859  10
  -6  -3 -14 0.75220 0.93258  13
  -6  -3 -14 0.91298 0.76263  10
  -5   4  14 21.0114 1.63441  17
  -5   4  14 18.7452 1.58880  16
  -4   4  14 0.29294 0.74254  16
  -4   4  14 0.21422 0.35559  10
  -4   4  14 -0.1348 0.76125  17
  -3   4  14 50.9341 3.53111  10
  -3   4  14 53.9963 3.62454   9
  -3   4  14 54.0545 3.84019  17
  -2   4  14 85.8951 5.57395  10
  -2   4  14 86.2899 5.74319   9
  -2   4  14 78.5929 5.78245  17
  -1   4  14 28.0715 2.65420   9
  -1   4  14 27.3388 2.57043  17
  -1   4  14 26.5642 2.05728   8
   0   4  14 43.2989 3.23224   8
   0   4  14 42.2479 3.76340   9
   1   4  14 127.973 8.51079   8
  -2  -4 -14 106.587 7.45812   8
  -3  -4 -14 29.1492 3.83033   9
  -3  -4 -14 31.8953 2.68994   8
  -3  -4 -14 27.6165 2.61120  13
  -4  -4 -14 27.9712 2.34150   8
  -4  -4 -14 28.0379 3.86892   9
  -4  -4 -14 26.7861 2.77168  13
  -5  -4 -14 41.3210 3.27663  14
  -5  -4 -14 40.8569 3.55252  13
  -5  -4 -14 43.9977 3.63654   9
  -5  -4 -14 40.3391 3.62404  10
  -6  -4 -14 8.38634 1.75972  14
  -6  -4 -14 6.07966 1.45214  10
  -5   5  14 0.43621 0.31536  17
  -4   5  14 37.9908 2.67321  17
  -4   5  14 35.5625 2.41176  10
  -3   5  14 41.7230 2.88898  10
  -3   5  14 36.7076 2.93627  17
  -2   5  14 22.8049 1.76114  10
  -2   5  14 23.4239 2.07826  17
  -2   5  14 23.4262 2.09338   9
  -1   5  14 49.4833 3.84327   9
  -1   5  14 47.9486 3.53207  10
  -1   5  14 51.7205 3.19246   8
  -1   5  14 48.2335 3.67135  17
  -1   5  14 49.4908 4.17825  18
   0   5  14 2.99164 0.92782  17
   0   5  14 2.66898 0.69000   8
   0   5  14 1.58088 1.48714   9
   1   5  14 71.1278 4.97704   8
  -2  -5 -14 0.70044 1.41353   8
   2   5  14 0.34065 1.24033   8
  -3  -5 -14 33.1089 2.76116   8
  -4  -5 -14 17.5978 3.32877   9
  -4  -5 -14 15.3008 1.94445   8
  -5  -5 -14 22.6258 2.58744   9
  -5  -5 -14 28.6793 2.60832  14
  -6  -5 -14 16.3893 1.96814  14
  -6  -5 -14 15.1723 1.83972  10
  -4   6  14 0.47391 0.67705  17
  -3   6  14 35.7995 2.38528  10
  -3   6  14 35.0126 2.59993  17
  -2   6  14 44.6391 3.50995  17
  -2   6  14 46.8763 3.31156  10
  -2   6  14 47.3369 2.97221   9
  -1   6  14 18.5233 1.85145   9
  -1   6  14 19.3873 2.06131  17
  -1   6  14 19.2737 1.63407  10
  -1   6  14 19.1473 2.14840  18
   0   6  14 58.0773 4.68606   9
   0   6  14 66.8846 4.11550   8
   1   6  14 0.50750 1.71420   9
   1   6  14 0.59049 0.92726   8
  -2  -6 -14 56.3341 4.61173   8
   2   6  14 69.1455 4.32997   8
  -3  -6 -14 9.74528 1.61647   8
   3   6  14 13.9871 2.06994   8
  -4  -6 -14 16.6275 1.95640   8
  -4  -6 -14 16.5756 2.73333   9
  -5  -6 -14 52.8302 4.47903   9
  -5  -6 -14 56.2217 4.36664  14
  -2   7  14 16.1634 1.25284  10
  -1   7  14 26.4859 1.91177  10
  -1   7  14 26.2978 2.17750  18
   0   7  14 1.61392 0.72450  10
   0   7  14 4.19533 1.56461  18
   0   7  14 2.79301 1.22952   9
   1   7  14 101.029 6.50781   8
   1   7  14 110.521 7.26290  18
   1   7  14 98.5299 7.28984   9
  -2  -7 -14 2.37036 0.98814   8
   2   7  14 3.35702 1.44338   9
   2   7  14 3.57797 0.81374   8
  -3  -7 -14 24.1621 2.31463   8
   3   7  14 25.2485 1.96486   8
  -4  -7 -14 6.87698 1.11226   8
  -4  -7 -14 6.87864 2.49567  14
   4   7  14 6.82941 0.95985   8
   1   8  14 0.94598 0.90478  18
   1   8  14 0.65376 0.98048   9
   3   4 -15 0.76856 0.39318   8
  -3  -4  15 1.06222 0.29206   8
   2   4 -15 89.9262 5.78850  12
   2   4 -15 95.8288 5.68976   8
  -2  -4  15 83.7505 6.00317   8
   1   4 -15 12.2776 0.80117   8
   1   4 -15 10.7007 1.03845  12
   1   4 -15 12.0428 1.02162   9
   0   4 -15 23.1251 1.72608   9
   0   4 -15 23.3371 1.71354  12
  -1   4 -15 21.8750 1.71317  10
  -1   4 -15 25.1721 1.79653  12
  -1   4 -15 25.5018 1.68141   9
  -2   4 -15 7.36387 0.93578  12
  -2   4 -15 7.20151 0.63301  10
  -5  -3  15 21.2040 1.45260   9
  -5  -3  15 20.9749 1.45607  16
  -4  -3  15 1.47424 0.21670   8
  -4  -3  15 1.62658 0.42339  16
  -4  -3  15 1.80333 0.38105   9
   3   3 -15 39.0043 2.97692   8
  -3  -3  15 51.9638 3.01075   8
   2   3 -15 6.72397 0.75874   8
  -2  -3  15 5.39665 0.95116   8
   1   3 -15 51.8039 3.61418   8
   1   3 -15 59.4980 3.86145   9
   0   3 -15 28.3808 2.23646   9
   0   3 -15 30.2783 2.24833  12
   0   3 -15 31.7103 2.04246   8
  -1   3 -15 28.0748 2.21004  12
  -1   3 -15 28.3147 2.13480   9
  -1   3 -15 30.6223 2.08709  10
  -2   3 -15 23.3101 1.81513  12
  -2   3 -15 20.6194 1.57108  10
  -2   3 -15 21.9987 1.59674   9
  -3   3 -15 -0.1132 0.49571  12
  -3   3 -15 -0.1163 0.33537  10
  -5  -2  15 2.05979 0.41094  16
  -5  -2  15 2.03486 0.43702   9
  -4  -2  15 79.4787 5.02180  16
  -4  -2  15 74.4951 4.93306   8
  -3  -2  15 1.20754 0.96535   9
  -3  -2  15 1.32340 0.45052   8
   2   2 -15 108.492 7.21641   8
  -2  -2  15 114.160 7.21456   8
   1   2 -15 23.4843 1.81400   8
   0   2 -15 76.9711 5.18618   8
   0   2 -15 81.7828 5.46821   9
   0   2 -15 79.4275 5.40407  12
  -1   2 -15 27.3006 2.16688   9
  -1   2 -15 26.6509 1.82847   8
  -1   2 -15 26.8197 2.12880  12
  -2   2 -15 97.4317 6.59602  10
  -2   2 -15 96.9546 6.39034   9
  -2   2 -15 96.5984 6.52220  12
  -3   2 -15 16.9300 1.85656  12
  -3   2 -15 14.6925 1.14248   9
  -3   2 -15 14.0719 1.20899  10
  -4   2 -15 1.26460 0.41787  10
  -4   2 -15 1.21458 0.69447  12
  -6  -1  15 18.3529 1.28939  16
  -6  -1  15 18.9729 1.23043  10
  -5  -1  15 38.2492 2.54917  16
  -5  -1  15 36.0061 2.45129   9
  -4  -1  15 1.81792 0.61375   9
  -4  -1  15 2.35851 0.46008  16
  -3  -1  15 38.6310 2.78249  16
  -3  -1  15 38.1838 2.59450   8
  -2  -1  15 29.4254 2.32093   8
   1   1 -15 128.287 7.86675   8
  -1  -1  15 112.825 7.84187   8
   0   1 -15 22.8573 1.74451   8
   0   1 -15 24.3803 2.02187  12
  -1   1 -15 17.6233 1.79097  12
  -1   1 -15 17.9987 2.03912   9
  -1   1 -15 17.9853 1.46573   8
  -2   1 -15 68.4872 4.72340  13
  -2   1 -15 67.5269 4.43266   8
  -2   1 -15 69.1204 4.80533   9
  -2   1 -15 68.2178 4.64664  10
  -2   1 -15 72.2406 4.92982  12
  -3   1 -15 6.76085 1.37465   9
  -3   1 -15 6.04930 1.20884  12
  -3   1 -15 6.22237 0.95983  13
  -3   1 -15 7.70706 1.15401  10
  -4   1 -15 259.211 16.8725  12
  -4   1 -15 249.186 16.6118  13
  -4   1 -15 264.021 16.5500  10
  -5   1 -15 1.34236 0.36283  10
  -5   1 -15 1.33799 0.47283  13
  -5   1 -15 1.73622 0.75402  12
  -6   0  15 17.4690 1.19173  10
  -6   0  15 18.5760 1.27263  16
  -5   0  15 9.61725 0.77400   9
  -5   0  15 9.77125 0.75936  10
  -5   0  15 10.0110 0.87798  16
  -4   0  15 111.547 7.29654  16
  -4   0  15 112.648 7.26623   9
  -3   0  15 3.98237 0.86531   9
  -3   0  15 4.11880 0.53365   8
  -3   0  15 3.52119 0.82515  16
  -2   0  15 112.499 7.58391  16
  -2   0  15 118.853 7.51495   8
  -1   0  15 0.14941 0.58485   8
   0   0 -15 19.4005 1.56829   8
  -1   0 -15 25.1600 2.56622   9
  -1   0 -15 24.7644 1.99835   8
  -2   0 -15 7.29723 1.44674   9
  -2   0 -15 7.21730 1.01523   8
  -3   0 -15 148.750 9.78636   9
  -3   0 -15 142.640 9.62524  10
  -3   0 -15 145.778 9.66699  13
  -4   0 -15 10.2819 1.29883  13
  -4   0 -15 9.07815 1.32581   9
  -4   0 -15 9.21054 1.14771  10
  -5   0 -15 23.7941 1.92743  10
  -5   0 -15 24.2362 2.01545  13
  -6   1  15 20.8656 1.40423  10
  -6   1  15 22.4353 1.50719  16
  -5   1  15 20.9252 1.60234  16
  -5   1  15 20.1091 1.39291  10
  -4   1  15 9.63396 1.02892  17
  -4   1  15 9.71442 0.98405  16
  -4   1  15 11.8511 0.87431  10
  -4   1  15 9.81692 0.90482   9
  -3   1  15 116.417 7.41514   8
  -3   1  15 114.675 7.76648  10
  -3   1  15 125.654 7.62287   9
  -3   1  15 114.367 7.81875  16
  -2   1  15 1.71339 0.74253   9
  -2   1  15 0.66159 0.64525   8
  -1   1  15 144.568 9.38432   8
   0  -1 -15 62.7137 4.30576   8
  -1  -1 -15 1.20045 0.64486   8
  -2  -1 -15 105.554 7.62556   9
  -2  -1 -15 107.238 7.06443   8
  -3  -1 -15 0.30034 0.45450   8
  -3  -1 -15 0.01295 0.70756  13
  -3  -1 -15 0.21486 0.73863  10
  -3  -1 -15 -0.7043 0.99709   9
  -4  -1 -15 53.8849 3.92301  10
  -4  -1 -15 49.2500 3.79925   9
  -5  -1 -15 17.2344 1.72187  10
  -5  -1 -15 16.3390 1.73487  13
  -6  -1 -15 12.1867 0.99001  10
  -6  -1 -15 11.4622 1.83891  13
  -5   2  15 21.1307 1.61758  16
  -5   2  15 23.9541 1.52489  10
  -5   2  15 21.9435 1.61003  17
  -4   2  15 83.3539 5.63817  17
  -4   2  15 85.3866 5.52090  10
  -4   2  15 86.8020 5.52807   9
  -4   2  15 84.2398 5.61871  16
  -3   2  15 6.83414 1.03788  16
  -3   2  15 8.50796 1.15529  17
  -3   2  15 8.11892 0.89336  10
  -3   2  15 9.08776 1.38122   9
  -2   2  15 42.5628 2.88003   8
  -2   2  15 42.0695 3.18007   9
  -1   2  15 21.4814 1.85546   8
   0   2  15 19.2653 1.81516   8
  -1  -2 -15 103.105 7.02758   8
  -2  -2 -15 7.26115 1.99530   9
  -2  -2 -15 6.40170 1.25924   8
  -3  -2 -15 128.142 9.30557   9
  -3  -2 -15 131.748 8.51054   8
  -3  -2 -15 130.051 8.85696  13
  -4  -2 -15 0.39731 1.41715   9
  -4  -2 -15 -0.2586 0.79096  10
  -4  -2 -15 0.33889 0.70890  13
  -5  -2 -15 27.7496 2.38743  10
  -5  -2 -15 28.1083 2.50859  13
  -6  -2 -15 10.2497 1.30104  13
  -6  -2 -15 11.7229 1.07921  10
  -5   3  15 26.9073 1.74121  10
  -5   3  15 26.4981 1.88547  16
  -5   3  15 26.3441 1.84169  17
  -4   3  15 18.7266 1.54727  16
  -4   3  15 21.4264 1.66392  17
  -4   3  15 20.1068 1.42324  10
  -3   3  15 29.4597 2.14465   9
  -3   3  15 30.2543 2.33855  17
  -3   3  15 25.8516 1.96319  10
  -2   3  15 1.87454 0.71720  10
  -2   3  15 2.47417 0.76612   9
  -2   3  15 1.69537 0.53720   8
  -2   3  15 1.74318 0.78689  17
  -1   3  15 19.0569 2.30454   9
  -1   3  15 19.4740 1.74183   8
   0   3  15 121.338 7.96175   8
  -1  -3 -15 1.65188 1.22190   8
   1   3  15 2.44916 1.03775   8
  -2  -3 -15 88.5086 6.10406   8
  -3  -3 -15 -0.9945 0.98719  13
  -3  -3 -15 -0.2835 1.89847   9
  -3  -3 -15 -0.3624 0.85273   8
  -4  -3 -15 71.2266 5.24474   9
  -4  -3 -15 53.8086 4.71738  10
  -4  -3 -15 57.7328 4.46654  13
  -5  -3 -15 60.3325 3.97255   9
  -5  -3 -15 46.6551 3.82065  10
  -5  -3 -15 49.3425 4.02781  13
  -6  -3 -15 50.5713 3.27241  10
  -6  -3 -15 53.7464 4.15474  13
  -5   4  15 31.8003 2.21167  17
  -4   4  15 28.8051 1.99948  10
  -4   4  15 30.4770 2.17062  17
  -3   4  15 4.53824 0.75278   9
  -3   4  15 4.24828 0.92979  17
  -3   4  15 4.37894 0.57767  10
  -2   4  15 33.7664 2.76197  17
  -2   4  15 35.7686 2.64775   9
  -2   4  15 32.2312 2.43096  10
  -1   4  15 17.8026 1.44706   8
  -1   4  15 19.1390 2.08619   9
  -1   4  15 16.8017 1.70985  17
   0   4  15 119.057 7.16575   8
   0   4  15 107.049 8.05163   9
   1   4  15 0.30637 0.78708   8
  -2  -4 -15 0.04602 1.29457   8
  -3  -4 -15 40.8969 3.44105  13
  -3  -4 -15 42.0368 4.19576   9
  -3  -4 -15 52.1610 3.58022   8
  -4  -4 -15 7.74139 1.09454   8
  -4  -4 -15 12.1898 2.24537   9
  -4  -4 -15 5.01381 1.22970  13
  -5  -4 -15 49.2592 4.07416  13
  -5  -4 -15 51.4875 3.63636  14
  -5  -4 -15 47.4526 3.62522   9
  -6  -4 -15 12.7718 1.44056  10
  -4   5  15 0.16838 0.30464  10
  -4   5  15 0.34672 0.54280  17
  -3   5  15 36.6903 2.53575  17
  -3   5  15 32.5331 2.30229  10
  -2   5  15 23.3161 2.12525  17
  -2   5  15 23.7474 1.85649   9
  -2   5  15 24.5183 2.07136  10
  -1   5  15 37.3153 2.83936  10
  -1   5  15 45.0807 3.26441  17
  -1   5  15 37.2887 2.56927   8
  -1   5  15 42.8509 3.06726   9
   0   5  15 45.8740 3.65481  17
   0   5  15 51.3505 3.38766   8
   0   5  15 48.6821 3.87100   9
   1   5  15 29.7965 2.46871   8
  -2  -5 -15 85.6980 6.62425   8
   2   5  15 102.145 6.20720   8
  -3  -5 -15 10.6709 1.99809   8
  -4  -5 -15 53.9626 3.41307   8
  -4  -5 -15 48.3699 4.67412   9
  -5  -5 -15 7.82264 1.58801   9
  -5  -5 -15 8.25077 1.43338  14
  -3   6  15 3.56484 0.43129  10
  -3   6  15 3.74817 0.77575  17
  -2   6  15 33.1372 2.46597  17
  -2   6  15 31.7596 2.26172  10
  -1   6  15 11.6114 1.22718  10
  -1   6  15 13.4665 1.37680  17
  -1   6  15 14.0814 1.49418   9
   0   6  15 37.4603 3.06067  18
   0   6  15 35.1089 3.06440   9
   0   6  15 36.1396 2.37145   8
   1   6  15 46.9632 3.72522   9
   1   6  15 47.5600 3.25537   8
  -2  -6 -15 4.32369 1.36739   8
   2   6  15 6.41556 1.14827   8
  -3  -6 -15 38.0455 3.30194   8
   3   6  15 47.9748 3.09684   8
  -4  -6 -15 0.24676 0.77723   8
  -4  -6 -15 -0.7202 1.72651   9
  -4  -6 -15 0.57954 1.14021  14
   4   6  15 0.67075 0.73603   8
   0   7  15 6.60562 1.24262   9
   0   7  15 5.63222 0.77771  10
   0   7  15 7.87997 1.61373  18
   1   7  15 5.10219 1.29943  18
   1   7  15 4.82485 1.32267   9
  -2  -7 -15 24.1506 2.44601   8
   2   7  15 34.7569 2.17327   8
   2   7  15 29.5441 2.64356   9
  -3  -7 -15 0.35845 0.62978   8
   3   7  15 0.31732 0.67815   8
   1   4 -16 35.1992 2.60683   9
   1   4 -16 39.4754 2.42941  12
   0   4 -16 6.85198 0.70413  12
   0   4 -16 7.25874 0.71554   9
   3   3 -16 3.57779 0.43556   8
  -3  -3  16 4.89324 0.47795   8
  -3  -3  16 4.50332 0.68149  16
   2   3 -16 28.3084 2.09941   8
   2   3 -16 33.7621 2.20189  12
  -2  -3  16 33.5747 2.14461   8
   1   3 -16 0.09605 0.38568   9
   1   3 -16 -0.7545 0.39865  12
   1   3 -16 -0.3736 0.26160   8
  -1  -3  16 -0.4431 0.37024   8
   0   3 -16 20.3320 1.74353   9
   0   3 -16 21.6203 1.70479  12
  -1   3 -16 3.82027 0.66816  12
  -1   3 -16 3.96032 0.77142   9
  -2   3 -16 31.7700 2.29032  12
  -2   3 -16 33.9469 2.41975  10
  -3   3 -16 10.9301 0.84130  10
  -4  -2  16 5.01813 0.59328   9
  -4  -2  16 5.82255 0.59366  16
   3   2 -16 35.4548 2.65572   8
  -3  -2  16 43.0609 2.64765   8
  -3  -2  16 41.5975 2.73525  16
  -3  -2  16 40.1861 2.82257   9
   2   2 -16 2.12631 0.37359   8
  -2  -2  16 2.02547 0.40961   8
   1   2 -16 121.964 7.31301   8
   1   2 -16 104.389 7.37884  12
   0   2 -16 1.64352 0.39640   8
   0   2 -16 1.59727 0.57992  12
   0   2 -16 1.33585 0.81551   9
  -1   2 -16 50.9467 3.41379   9
  -1   2 -16 46.8380 3.48603  12
  -2   2 -16 28.5515 2.17815  10
  -2   2 -16 27.6369 2.38530  12
  -2   2 -16 35.2955 2.40997   9
  -3   2 -16 13.7096 1.10209  10
  -3   2 -16 12.9971 1.37648  12
  -4   2 -16 19.4917 1.34532  10
  -5  -1  16 21.1896 1.45931  16
  -4  -1  16 39.1576 2.73943  16
  -4  -1  16 40.5794 2.73046   9
  -3  -1  16 38.9845 2.99391   9
  -3  -1  16 31.8374 2.07785   8
  -3  -1  16 30.9206 2.17138  16
   2   1 -16 53.5544 3.46125   8
  -2  -1  16 48.8760 3.46606  16
  -2  -1  16 51.1107 3.38894   8
   1   1 -16 -0.6444 0.45623   8
  -1  -1  16 -0.0499 0.64474   8
   0   1 -16 74.9188 5.53319  12
   0   1 -16 87.6121 5.23869   8
  -1   1 -16 4.04794 0.67546   8
  -1   1 -16 3.63398 0.77894  12
  -1   1 -16 4.02029 0.77080   9
  -2   1 -16 15.1249 1.61070  12
  -2   1 -16 14.1934 1.26694  13
  -2   1 -16 15.6874 1.69408   9
  -2   1 -16 14.7222 1.24836  10
  -3   1 -16 19.0844 1.94433  12
  -3   1 -16 18.8640 1.51664  10
  -3   1 -16 19.5334 1.64330   9
  -3   1 -16 20.2401 1.82715  13
  -4   1 -16 60.2510 3.96805  10
  -4   1 -16 58.6457 4.07122  13
  -4   1 -16 60.6352 4.30003  12
  -5   0  16 22.0933 1.48991  16
  -5   0  16 20.0837 1.40744  10
  -4   0  16 26.5137 1.82251   9
  -4   0  16 23.5290 1.77382  10
  -4   0  16 25.5281 1.78376  16
  -3   0  16 69.5644 4.50169   8
  -3   0  16 64.3510 4.60714  16
  -3   0  16 75.8734 4.71541   9
  -2   0  16 24.1635 1.82085   8
   1   0 -16 224.315 14.9017   8
  -1   0  16 235.120 14.6221   8
   0   0 -16 0.85714 0.71058   8
  -1   0 -16 21.6869 2.39284   9
  -1   0 -16 19.5269 1.59471   8
  -2   0 -16 43.5480 3.36452   9
  -2   0 -16 45.8641 3.02829   8
  -3   0 -16 0.02159 0.58572  13
  -3   0 -16 0.56198 0.52740  10
  -3   0 -16 0.06252 1.07239   9
  -4   0 -16 44.7488 3.18989  10
  -4   0 -16 46.1342 3.35495  13
  -5   0 -16 0.86662 0.51211  13
  -5   0 -16 0.93948 0.42975  10
  -5   1  16 92.8353 6.01790  16
  -4   1  16 61.2640 3.90011  16
  -4   1  16 63.4723 3.84022   9
  -4   1  16 49.9967 3.82061  17
  -3   1  16 20.8084 1.48349   8
  -3   1  16 20.5974 1.61264   9
  -3   1  16 20.3061 1.73159  16
  -2   1  16 87.4209 5.74383   8
  -2   1  16 89.3871 5.95671   9
  -1   1  16 16.8633 1.52411   8
   0  -1 -16 51.3272 3.74737   8
   0   1  16 56.0100 3.72397   8
  -1  -1 -16 46.7757 3.29921   8
  -2  -1 -16 31.1897 2.93890   9
  -2  -1 -16 30.2650 2.31929   8
  -3  -1 -16 124.239 8.39040   9
  -3  -1 -16 126.814 8.20356  13
  -3  -1 -16 115.798 8.15995  10
  -4  -1 -16 0.44035 0.61067  10
  -4  -1 -16 0.28986 0.59613  13
  -4  -1 -16 0.79472 0.78968   9
  -5  -1 -16 36.6358 2.75536  13
  -5  -1 -16 36.6478 2.72442  10
  -5   2  16 16.2672 1.16696  16
  -5   2  16 14.9225 1.04938  10
  -4   2  16 31.1230 2.09873  10
  -4   2  16 31.3010 2.19482  16
  -4   2  16 26.9360 2.12769  17
  -4   2  16 33.8739 2.09858   9
  -3   2  16 68.1086 4.77340  10
  -3   2  16 73.0042 4.89091  17
  -3   2  16 78.2539 4.87462   9
  -2   2  16 4.55741 0.65244   8
  -2   2  16 5.91449 0.93536   9
  -1   2  16 48.9380 3.29610   8
   0  -2 -16 29.3969 2.66452   8
   0   2  16 37.8461 2.57572   8
  -1  -2 -16 22.6407 2.01901   8
  -2  -2 -16 92.7355 6.25357   8
  -2  -2 -16 95.7533 6.94508   9
  -3  -2 -16 12.7765 1.63441  13
  -3  -2 -16 16.7504 2.83799   9
  -3  -2 -16 13.7571 1.25929   8
  -4  -2 -16 100.576 6.56227   9
  -4  -2 -16 94.8645 6.69628  10
  -4  -2 -16 94.0219 6.75383  13
  -5  -2 -16 0.54488 0.69708  10
  -5  -2 -16 1.28636 0.68941  13
  -5   3  16 28.0548 1.81506  10
  -4   3  16 17.8018 1.23822  10
  -3   3  16 19.8370 1.57066   9
  -3   3  16 23.1997 1.89232  10
  -3   3  16 21.0957 1.70858  17
  -2   3  16 43.5118 3.15353  10
  -2   3  16 45.6139 3.01557   8
  -2   3  16 47.8154 3.21129  17
  -2   3  16 47.4303 3.35479   9
  -1   3  16 47.4059 3.75934   9
  -1   3  16 47.3180 3.03575   8
   0   3  16 28.5765 2.17026   8
  -1  -3 -16 57.1465 4.22794   8
   1   3  16 61.6183 4.17622   8
  -2  -3 -16 62.1116 4.47571   8
  -3  -3 -16 72.4747 5.51553  13
  -3  -3 -16 79.5738 6.20305   9
  -3  -3 -16 81.5176 5.24197   8
  -4  -3 -16 4.03476 0.95201  13
  -4  -3 -16 2.66297 0.99933  10
  -4  -3 -16 3.96239 1.73508   9
  -5  -3 -16 25.9112 2.36109  10
  -5  -3 -16 25.2878 2.19815  13
  -4   4  16 25.7817 1.72228  17
  -4   4  16 23.8547 1.68852  10
  -3   4  16 21.3145 1.65785  17
  -3   4  16 19.1957 1.48542  10
  -3   4  16 22.9871 1.55552   9
  -2   4  16 1.27199 0.50984  10
  -2   4  16 1.70765 0.60190  17
  -2   4  16 1.38072 0.88143   9
  -1   4  16 88.9220 5.88789   8
  -1   4  16 97.4573 6.21722   9
  -1   4  16 87.7483 6.13205  17
   0   4  16 111.787 7.78477   9
   0   4  16 120.961 7.60603   8
  -1  -4 -16 372.276 24.1211   8
   1   4  16 375.570 23.9098   8
  -2  -4 -16 38.4037 3.04532   8
   2   4  16 36.3284 2.93950   8
  -3  -4 -16 20.0802 1.98998  13
  -3  -4 -16 23.7357 1.87362   8
  -3  -4 -16 20.3423 2.80057   9
  -4  -4 -16 55.8386 4.45188   9
  -4  -4 -16 48.9329 4.05940  13
  -5  -4 -16 0.17517 1.08858   9
  -5  -4 -16 0.22932 0.67972  10
  -4   5  16 0.45187 0.25865  17
  -3   5  16 0.68834 0.38580  17
  -3   5  16 0.28169 0.33544  10
  -2   5  16 34.5468 2.55753  17
  -2   5  16 33.5308 2.44731  10
  -2   5  16 38.2558 2.49884   9
  -1   5  16 2.70590 0.62009  10
  -1   5  16 2.43816 1.12215   9
  -1   5  16 2.76262 0.78725  17
   0   5  16 97.1232 6.79754   8
   0   5  16 108.677 6.90004   9
   0   5  16 102.584 6.78388  17
   1   5  16 58.5510 4.04040   8
  -2  -5 -16 7.70187 1.27859   8
   2   5  16 9.18290 1.31229   8
  -3  -5 -16 130.758 8.95007   8
   3   5  16 133.087 8.38777   8
  -4  -5 -16 4.46289 1.54999   9
  -4  -5 -16 4.67838 1.17988  14
  -5  -5 -16 40.1079 3.15980   9
  -2   6  16 0.04839 0.26784  10
  -2   6  16 0.14319 0.49945  17
  -1   6  16 62.0002 3.70359   9
  -1   6  16 52.5913 3.84964  10
  -1   6  16 52.4855 3.76868  17
   0   6  16 3.56083 0.85348   9
   0   6  16 4.10192 1.10660  18
   1   6  16 72.6495 5.26335   9
   1   6  16 74.4733 4.83007   8
  -2  -6 -16 14.2652 1.73912   8
   2   6  16 20.7794 1.56307   8
  -3  -6 -16 2.15438 1.07844   8
   3   6  16 4.85845 0.79559   8
  -4  -6 -16 17.8656 1.96859  14
   0   7  16 54.2095 3.62829   9
   1   7  16 2.27910 1.20985  18
   1   7  16 2.03570 1.02823   9
  -2  -7 -16 10.8676 1.46755   8
   2   7  16 15.5462 1.63637  18
   2   3 -17 15.4166 1.05385   8
  -2  -3  17 15.0980 1.07211   8
   1   3 -17 56.3586 3.68433  12
   1   3 -17 55.4491 3.71726   9
   0   3 -17 12.6370 1.15434  12
   0   3 -17 14.5275 1.31919   9
  -1   3 -17 18.7977 1.50936  12
  -1   3 -17 20.6537 1.35550   9
   3   2 -17 15.6378 1.10756   8
  -3  -2  17 14.6955 1.12146  16
  -3  -2  17 16.3650 1.05298   8
  -3  -2  17 14.2769 1.24686   9
   2   2 -17 28.4421 2.19344  12
   2   2 -17 33.4395 2.10543   8
  -2  -2  17 31.3919 2.16083  16
  -2  -2  17 32.3664 2.07810   8
   1   2 -17 10.0723 0.89696  12
   1   2 -17 9.53286 0.80449   8
  -1  -2  17 11.0255 1.01700   8
   0   2 -17 71.3992 4.34795   8
   0   2 -17 68.2424 4.70078  12
   0   2 -17 68.2160 4.72028   9
  -1   2 -17 0.18225 0.33342  12
  -1   2 -17 0.02840 0.55448   9
  -2   2 -17 33.1610 2.40882  10
  -2   2 -17 37.4247 2.41796   9
  -2   2 -17 36.5097 2.55960  12
  -3   2 -17 5.11716 0.63850  10
  -4  -1  17 27.2225 1.95321  16
  -4  -1  17 31.0183 1.98509   9
  -3  -1  17 37.6060 2.43422   8
  -3  -1  17 37.3055 2.56603  16
   2   1 -17 44.8910 3.08745   8
  -2  -1  17 46.9634 2.99722   8
   1   1 -17 92.3290 6.00505   8
  -1  -1  17 92.8860 6.01120   8
   0   1 -17 1.30928 1.02669   9
   0   1 -17 3.00243 0.49594   8
  -1   1 -17 51.7701 3.47231   8
  -1   1 -17 55.5087 3.79083   9
  -2   1 -17 0.73594 0.49228   9
  -2   1 -17 0.42032 0.57990  13
  -2   1 -17 0.40788 0.62499  10
  -3   1 -17 16.5794 1.17618   9
  -3   1 -17 16.0962 1.34148  13
  -4   1 -17 0.60880 0.34750  10
  -4   0  17 22.7114 1.51553   9
  -4   0  17 21.3293 1.53175  16
  -4   0  17 19.8167 1.43983  10
  -3   0  17 22.3684 1.62805  16
  -3   0  17 20.3391 1.56723  17
  -3   0  17 22.5326 1.63076   9
  -3   0  17 22.0279 1.44176   8
  -2   0  17 38.3744 2.57538   8
  -2   0  17 39.0427 2.85678   9
   1   0 -17 3.10698 0.50172   8
  -1   0  17 2.55375 0.65148   8
   0   0 -17 95.3671 6.29217   8
   0   0  17 97.9581 6.33906   8
  -1   0 -17 -0.3739 0.43749   8
  -1   0 -17 -0.5684 0.83349   9
  -2   0 -17 27.8854 2.04452  13
  -2   0 -17 27.2699 2.21322   9
  -3   0 -17 22.9612 1.82682  13
  -3   0 -17 23.6907 1.89413  10
  -3   0 -17 25.5205 1.99849   9
  -4   0 -17 4.71486 0.64544  10
  -4   0 -17 3.93359 0.79277  13
  -5   1  17 14.5659 0.99998  10
  -4   1  17 70.9848 4.31906   9
  -4   1  17 61.9174 4.30580  10
  -4   1  17 66.9515 4.36213  16
  -3   1  17 49.0718 3.19846   9
  -3   1  17 43.9603 3.15026  17
  -2   1  17 57.6992 4.12649   9
  -2   1  17 61.2791 3.90394   8
  -1   1  17 84.8594 5.57494   8
   0  -1 -17 1.22117 0.58145   8
   0   1  17 2.24045 0.73240   8
  -1  -1 -17 11.3524 1.21701   8
  -2  -1 -17 22.8001 1.69625   8
  -2  -1 -17 23.2092 2.40722   9
  -3  -1 -17 19.5784 1.71662  13
  -3  -1 -17 22.1315 2.13368   9
  -3  -1 -17 18.9992 1.89013  10
  -4  -1 -17 51.7312 3.26070   9
  -4  -1 -17 46.9434 3.30739  10
  -4  -1 -17 44.4373 3.39486  13
  -5  -1 -17 9.92463 1.17709  13
  -5  -1 -17 9.60591 0.88375  10
  -4   2  17 0.44431 0.34688  10
  -4   2  17 -0.0976 0.20430   9
  -4   2  17 0.64030 0.35714  17
  -3   2  17 16.2260 1.28331  10
  -3   2  17 18.0787 1.45213  17
  -3   2  17 19.7372 1.46118   9
  -2   2  17 36.1121 2.68780   9
  -2   2  17 35.6519 2.38297   8
  -1   2  17 27.6023 2.27693   9
  -1   2  17 30.0244 2.03300   8
   0  -2 -17 68.7157 4.83081   8
   0   2  17 73.6059 4.78525   8
  -1  -2 -17 21.5838 1.74704   8
  -2  -2 -17 44.3034 3.77743   9
  -2  -2 -17 52.2020 3.39304   8
  -3  -2 -17 35.5778 2.87909   9
  -3  -2 -17 33.6535 2.70356  13
  -4  -2 -17 23.2493 2.15419  13
  -4  -2 -17 22.9190 1.95571  10
  -4  -2 -17 25.2091 2.18751   9
  -5  -2 -17 26.2901 2.16824  13
  -5  -2 -17 26.6029 1.93012  10
  -4   3  17 44.7377 2.93363  10
  -4   3  17 45.7923 3.00321  17
  -3   3  17 13.4337 1.10976  10
  -3   3  17 16.2221 1.19587   9
  -3   3  17 15.9292 1.32270  17
  -2   3  17 30.3349 2.29793  17
  -2   3  17 32.8603 2.38445   9
  -1   3  17 70.8075 4.76687   8
  -1   3  17 73.7430 4.91800   9
   0   3  17 -1.0226 0.67736   8
  -1  -3 -17 111.882 6.90125   8
   1   3  17 94.5057 6.71378   8
  -2  -3 -17 29.2194 2.22967   8
  -3  -3 -17 43.0289 3.28151  13
  -3  -3 -17 41.5783 3.73888   9
  -3  -3 -17 47.1529 2.95886   8
  -4  -3 -17 29.0151 2.56227   9
  -4  -3 -17 22.7657 2.16833  10
  -4  -3 -17 25.2542 2.36250  13
  -5  -3 -17 16.5774 1.36718  10
  -5  -3 -17 13.9047 1.65921  13
  -4   4  17 0.65786 0.33891  17
  -4   4  17 0.39652 0.16825  10
  -3   4  17 31.8742 2.21126  17
  -3   4  17 31.7647 2.18417  10
  -2   4  17 14.2379 1.17415  17
  -2   4  17 12.5215 1.09349   9
  -2   4  17 12.0042 1.00746  10
  -1   4  17 1.98559 0.34919   8
  -1   4  17 2.43487 0.62022  17
  -1   4  17 1.52642 0.84680   9
   0   4  17 32.5719 2.57604  17
   0   4  17 35.1985 2.36519   8
   0   4  17 31.1846 2.55873   9
  -1  -4 -17 131.926 9.57405   8
   1   4  17 133.868 8.05239   8
  -2  -4 -17 114.382 8.22878  13
  -2  -4 -17 123.611 8.15239   8
   2   4  17 134.410 8.17955   8
  -3  -4 -17 23.7250 2.26259  13
  -3  -4 -17 30.4772 2.05008   8
  -3  -4 -17 24.1815 2.70410   9
  -4  -4 -17 24.0241 2.32238  13
  -4  -4 -17 29.7666 2.40689   9
  -3   5  17 5.18739 0.51244  10
  -3   5  17 4.15732 0.54990  17
  -2   5  17 6.80632 0.77585  17
  -2   5  17 7.99157 0.74764   9
  -2   5  17 6.72243 0.63714  10
  -1   5  17 44.3380 3.08240  17
  -1   5  17 42.6270 2.99759   9
   0   5  17 0.03837 0.83075  17
   0   5  17 1.03171 0.38004   8
   0   5  17 0.51625 1.21273   9
  -1  -5 -17 50.1004 3.80683   8
   1   5  17 56.3354 3.55808   8
  -2  -5 -17 3.17100 1.01452   8
   2   5  17 3.26328 0.71308   8
  -3  -5 -17 5.10706 0.82165   8
  -3  -5 -17 3.76636 1.38243   9
   3   5  17 5.48128 0.83921   8
  -4  -5 -17 17.0188 2.50667   9
  -1   6  17 1.30273 0.49666   9
   0   6  17 57.9861 3.98279   9
  -1  -6 -17 1.08261 0.60912   8
   1   6  17 0.66269 0.92087  18
   1   6  17 0.71284 0.28031   8
   1   6  17 0.34854 1.01002   9
   2   6  17 27.6983 2.01435   8
  -3  -6 -17 -0.0068 0.45566   8
   3   6  17 0.60466 0.78048   8
   2   2 -18 34.0026 2.28665   8
  -2  -2  18 35.9366 2.28832   8
   1   2 -18 20.0715 1.39189   8
  -1  -2  18 21.9731 1.44469   8
   0   2 -18 6.94304 0.84741   9
  -1   2 -18 13.8664 1.10383   9
  -3  -1  18 29.8614 2.01936   9
   2   1 -18 17.2736 1.46687   8
  -2  -1  18 15.8393 1.05588   8
   1   1 -18 37.5189 2.40197   8
  -1  -1  18 33.9080 2.39147   8
   0   1 -18 35.4414 2.55292   8
   0   1 -18 39.0085 2.75137   9
   0  -1  18 44.4232 2.74765   8
  -1   1 -18 9.29831 0.98730   9
  -1   1 -18 9.81200 0.87865  13
  -2   1 -18 33.7225 2.14429   9
  -2   1 -18 29.8457 2.18449  10
  -2   1 -18 29.7532 2.18031  13
  -3   1 -18 0.03720 0.22993  10
  -4   0  18 48.7655 3.15231   9
  -3   0  18 1.24921 0.34247   9
   2   0 -18 63.5938 4.18021   8
  -2   0  18 64.0785 4.25584   9
  -2   0  18 64.1728 4.12458   8
   1   0 -18 10.2536 0.97160   8
  -1   0  18 9.57962 0.87372   8
   0   0 -18 2.47638 0.37803   8
   0   0  18 1.39991 0.61454   8
  -1   0 -18 28.2197 1.80778   8
  -1   0 -18 24.3339 2.06547   9
  -2   0 -18 3.83759 0.77674   9
  -2   0 -18 3.37928 0.59180  13
  -3   0 -18 20.3480 1.47771   9
  -3   0 -18 19.3914 1.51156  10
  -3   0 -18 20.2533 1.54740  13
  -4   1  18 0.01303 0.24405   9
  -3   1  18 35.3409 2.27707   9
  -3   1  18 31.6373 2.27735  17
  -2   1  18 2.65921 0.54120   9
  -2   1  18 2.33876 0.34756   8
   1  -1 -18 81.0285 5.87295   8
  -1   1  18 99.7113 5.87545   8
   0  -1 -18 47.2378 3.23581   8
   0   1  18 47.9270 3.27225   8
  -1  -1 -18 41.4584 3.07163   9
  -1  -1 -18 38.7650 2.74979   8
  -2  -1 -18 16.0825 1.13651   8
  -2  -1 -18 16.5188 1.34676  13
  -2  -1 -18 16.3356 1.55748   9
  -3  -1 -18 3.50671 0.81876   9
  -3  -1 -18 3.26745 0.54573  13
  -4  -1 -18 22.6161 1.72752  13
  -4  -1 -18 22.8428 1.73576  10
  -4   2  18 62.7637 4.07260  10
  -3   2  18 1.99502 0.43764  17
  -3   2  18 1.69014 0.33317  10
  -3   2  18 2.35965 0.46597   9
  -2   2  18 48.6332 3.43400   9
  -2   2  18 51.7821 3.26658   8
  -2   2  18 52.4347 3.48167  17
  -1   2  18 13.6846 1.56535   9
  -1   2  18 12.3033 1.05192   8
   0  -2 -18 30.2462 2.27562   8
   0   2  18 30.8137 2.25794   8
  -1  -2 -18 37.0262 2.49287   8
   1   2  18 34.0730 2.51718   8
  -2  -2 -18 0.16746 0.40118   8
  -2  -2 -18 -0.3579 0.74045   9
  -2  -2 -18 -0.1718 0.43467  13
  -3  -2 -18 59.4831 4.06639   9
  -3  -2 -18 54.8433 4.00383  13
  -4  -2 -18 9.63307 1.28458  13
  -4  -2 -18 10.3420 1.05430   9
  -4  -2 -18 8.78841 1.01138  10
  -3   3  18 52.7950 3.38438  17
  -3   3  18 45.1120 3.32479  10
  -3   3  18 54.7677 3.31605   9
  -2   3  18 8.41317 1.01456   9
  -2   3  18 7.46249 0.98043  17
  -1   3  18 37.6179 2.63268  17
  -1   3  18 37.2805 2.46560   8
  -1   3  18 36.7390 2.66679   9
   0  -3 -18 34.0228 2.55603   8
   0   3  18 33.8786 2.41698   8
  -1  -3 -18 2.09741 0.73559   8
   1   3  18 2.90971 0.79632   8
  -2  -3 -18 39.3414 3.13490   9
  -2  -3 -18 43.1303 2.83726  13
   2   3  18 36.8177 2.80918   8
  -3  -3 -18 0.53091 1.32526   9
  -3  -3 -18 0.32884 0.53816  13
  -4  -3 -18 50.4225 3.76464  13
  -4  -3 -18 58.3434 3.77519   9
  -3   4  18 0.28923 0.25572  17
  -3   4  18 -0.1865 0.18640  10
  -2   4  18 30.5968 2.13731  10
  -2   4  18 32.4577 2.05493   9
  -2   4  18 29.1656 2.25954  17
  -1   4  18 5.29567 0.83815   9
  -1   4  18 5.85437 0.90698  17
   0   4  18 22.7605 1.69698   8
   0   4  18 25.1265 1.83283  17
   0   4  18 24.9085 2.10965   9
  -1  -4 -18 1.05914 0.55536   8
   1   4  18 1.83195 0.50612   8
   1   4  18 1.18471 0.49971  17
  -2  -4 -18 0.60577 0.72295  13
  -2  -4 -18 0.79437 0.48475   8
   2   4  18 0.80962 0.55864   8
  -3  -4 -18 31.3365 1.99175   8
  -3  -4 -18 27.7199 2.29934  13
  -3  -4 -18 29.4725 2.61163   9
  -4  -4 -18 -0.0197 0.77935   9
  -2   5  18 1.38282 0.41526  17
  -1   5  18 11.4834 1.06442  17
  -1   5  18 11.3434 1.10964   9
   0   5  18 21.7261 1.72376   9
   0   5  18 24.4266 1.88767  17
  -1  -5 -18 8.81986 1.03121   8
   1   5  18 9.70946 0.82805   8
  -2  -5 -18 93.6005 5.80522   8
   2   5  18 91.9047 6.32554   8
   3   5  18 49.7870 3.34165   8
  -2  -1  19 39.6898 2.55310   8
   1   1 -19 1.42254 0.20172   8
  -1  -1  19 1.32980 0.35936   8
   0   1 -19 19.8171 1.65104   9
   0  -1  19 20.0249 1.35078   8
  -1   1 -19 12.6858 1.01151   9
   2   0 -19 1.08416 0.25078   8
  -2   0  19 1.20131 0.20833   8
  -2   0  19 1.21735 0.34407   9
  -2   0  19 1.58235 0.33074  17
   1   0 -19 73.6332 4.93073   8
  -1   0  19 79.3133 4.93527   8
   0   0 -19 2.17461 0.35687   8
   0   0  19 1.81888 0.48276   8
  -1   0 -19 36.0033 2.46039   9
  -1   0 -19 32.5492 2.37183  13
  -2   0 -19 22.4334 1.76554  13
  -2   0 -19 21.5294 1.53133   9
  -3   1  19 1.51759 0.36447   9
  -2   1  19 41.8197 2.58175   9
  -2   1  19 34.0337 2.59128  17
   1  -1 -19 2.94735 0.52655   8
  -1   1  19 3.08066 0.47587   8
   0  -1 -19 39.5474 2.58285   8
   0   1  19 36.6243 2.56428   8
  -1  -1 -19 46.8492 3.61433   9
  -1  -1 -19 54.5647 3.33202   8
   1   1  19 47.9786 3.44386   8
  -2  -1 -19 48.6407 3.17882   9
  -2  -1 -19 44.0774 3.27078  13
  -3  -1 -19 19.5848 1.61516  13
  -3  -1 -19 20.4195 1.51836   9
  -3   2  19 79.5329 5.10105   9
  -2   2  19 3.08339 0.57636   9
  -2   2  19 3.47492 0.61987  17
   1  -2 -19 67.0876 4.56521   8
  -1   2  19 64.5188 4.62813   9
  -1   2  19 77.4713 4.51272   8
   0  -2 -19 11.8013 1.17136   8
   0   2  19 12.5312 1.14654   8
  -1  -2 -19 28.1556 2.06316   8
   1   2  19 33.4167 2.21914   8
  -2  -2 -19 9.48105 0.98946  13
  -2  -2 -19 8.47593 0.65606   8
  -2  -2 -19 9.92915 1.35446   9
  -3  -2 -19 -0.5384 0.45224  13
  -3  -2 -19 0.12512 0.54760   9
  -2   3  19 14.6516 1.30778  17
  -2   3  19 17.3467 1.22071   9
  -1   3  19 5.27111 0.67770  17
  -1   3  19 5.83475 0.54593   8
  -1   3  19 6.55558 1.04798   9
   0  -3 -19 40.9040 2.80594   8
   0   3  19 41.5803 2.73333   8
  -1  -3 -19 8.12560 0.94297   8
   1   3  19 9.05593 1.01418   8
  -2  -3 -19 4.83526 0.76712  13
  -2  -3 -19 4.41512 0.97555   9
  -2  -3 -19 4.79044 0.63462   8
   2   3  19 3.85599 0.73729   8
  -3  -3 -19 17.5849 1.45169  13
  -3  -3 -19 19.2405 1.63089   9
  -2   4  19 2.39307 0.43108   9
  -2   4  19 2.40568 0.48517  17
  -1   4  19 28.7243 2.17179  17
  -1   4  19 29.4670 2.01720   9
   0  -4 -19 1.38081 0.57135   8
   0   4  19 2.48907 0.59493  17
   0   4  19 2.06142 0.97785   9
   0   4  19 2.11930 0.39356   8
  -1  -4 -19 47.5930 3.34045  13
  -1  -4 -19 47.8826 3.03974   8
   1   4  19 48.7625 3.35407  17
  -2  -4 -19 12.9107 1.04433   8
   2   4  19 10.7230 1.11047   8
  -1  -5 -19 11.4276 1.05724   8
   1  -1 -20 27.8239 1.83792   8
  -1   1  20 26.8537 1.77687   8
   0  -1 -20 0.41157 0.39577   8
   0   1  20 0.78038 0.53994   8
  -1  -1 -20 8.25263 0.68332  13
   1  -2 -20 1.30716 0.28414   8
  -1   2  20 1.35724 0.41211  17
   0  -2 -20 45.9081 3.01681   8
   0   2  20 45.8848 2.99896   8
  -1  -2 -20 0.01320 0.34248   8
  -1  -2 -20 0.01971 0.34926  13
   1   2  20 0.45574 0.44385   8
  -1   3  20 6.61302 0.74124  17
   0  -3 -20 0.51842 0.25538   8
   0   3  20 1.00934 0.34277  17
   0   3  20 0.46331 0.21172   8
  -1  -3 -20 25.8258 1.86610  13
  -1  -3 -20 28.3234 1.78115   8
   1   3  20 26.1291 2.02546  17
   1   3  20 27.0269 1.83268   8
   0   0   0    0.00    0.00   0

 _exptl_absorpt_process_details 'SADABS 2014/4'
 _exptl_absorpt_correction_type   multiscan
 _exptl_absorpt_correction_T_max  0.8173
 _exptl_absorpt_correction_T_min  0.4626
 _exptl_special_details
)
 The following wavelength and cell were deduced by SADABS from the
 direction cosines etc. They are given here for emergency use only:
 CELL 1.54178    7.720    7.750   16.867   78.076   89.260   81.766
)
;
_shelx_hkl_checksum   47789

