 
data_x14203 
 
_audit_creation_method            SHELXL-2014 
# CIF file edited on-the-fly by script CIFFIX (S. Parkin, 2013-2014). 
# CIFFIX: http://xray.uky.edu/people/parkin/programs/ciffix 
 
_publ_section_exptl_refinement 
; 
H atoms were found in difference Fourier maps, but subsequently included 
in the refinement using riding models, with constrained distances set to 
0.95 %A (C~sp2~H), 0.98 %A (RCH~3~) and 0.99 %A (R~2~CH~2~). 
U~iso~(H) parameters were set to values of either 1.2U~eq~ or 1.5U~eq~ 
(RCH~3~ only) of the attached atom. 
 
To ensure satisfactory refinement of disordered groups in the structure, 
a combination of constraints and restraints were employed. The constraints 
(SHELXL commands EXYZ and EADP) were used to fix overlapping fragments. 
Restraints were used to maintain the integrity of ill-defined or disordered 
groups (SHELXL commands SAME and RIGU). 
; 
 
_publ_section_references 
; 
Bruker-AXS (2006). 
  <i>APEX2</i> Bruker-AXS Inc., Madison, Wisconsin, USA. 
 
Hope, H. (1994). 
  <i>Prog. Inorg. Chem.</i> <b>41</b>, 1--19. 
 
Parkin, S. & Hope, H. (1998). 
  <i>J. Appl. Cryst.</i> <b>31</b>, 945--953. 
 
Parkin, S. (2000). 
  <i>Acta Cryst.</i> A<b>56</b>, 157--162. 
 
Parkin, S. (2013). 
  <i>CIFFIX</i>, http://xray.uky.edu/people/parkin/programs/ciffix 
 
Sheldrick, G.M. (2008a). 
  <i>Acta Cryst.</i> <b>A</b>64, 112--122. 
 
Sheldrick, G.M. (2008b). 
  <i>SADABS</i> University of G\"ottingen, Germany. 
 
Spek, A.L. (2009). 
  <i>Acta Cryst.</i> <b>D</b>65, 148--155. 
; 
 
_chemical_name_systematic 
; 
 ? 
; 
_chemical_name_common             ? 
_chemical_melting_point           ? 
_chemical_formula_moiety          'C34 H36 F2 S2 Si2' 
_chemical_formula_sum             'C34 H36 F2 S2 Si2' 
_chemical_formula_weight          602.93 
 
loop_ 
 _atom_type_symbol 
 _atom_type_description 
 _atom_type_scat_dispersion_real 
 _atom_type_scat_dispersion_imag 
 _atom_type_scat_source 
 'C'  'C'   0.0181   0.0091 
 'International Tables Vol C Tables 4.2.6.8 and 6.1.1.4' 
 'H'  'H'   0.0000   0.0000 
 'International Tables Vol C Tables 4.2.6.8 and 6.1.1.4' 
 'F'  'F'   0.0727   0.0534 
 'International Tables Vol C Tables 4.2.6.8 and 6.1.1.4' 
 'Si'  'Si'   0.2541   0.3302 
 'International Tables Vol C Tables 4.2.6.8 and 6.1.1.4' 
 'S'  'S'   0.3331   0.5567 
 'International Tables Vol C Tables 4.2.6.8 and 6.1.1.4' 
 
_space_group_crystal_system       triclinic 
_space_group_IT_number            2 
_space_group_name_H-M_alt         'P -1' 
_space_group_name_Hall            '-P 1' 
 
_shelx_space_group_comment 
; 
The symmetry employed for this shelxl refinement is uniquely defined 
by the following loop, which should always be used as a source of 
symmetry information in preference to the above space-group names. 
They are only intended as comments. 
; 
 
loop_ 
 _space_group_symop_operation_xyz 
 'x, y, z' 
 '-x, -y, -z' 
 
_cell_length_a                    7.0710(2) 
_cell_length_b                    7.1814(2) 
_cell_length_c                    16.7266(6) 
_cell_angle_alpha                 97.893(2) 
_cell_angle_beta                  93.704(2) 
_cell_angle_gamma                 106.387(2) 
_cell_volume                      802.36(4) 
_cell_formula_units_Z             1 
_cell_measurement_temperature     180(2) 
_cell_measurement_reflns_used     7726 
_cell_measurement_theta_min       2.68 
_cell_measurement_theta_max       68.57 
 
_exptl_crystal_description        flake 
_exptl_crystal_colour             red 
_exptl_crystal_density_meas       ? 
_exptl_crystal_density_method     ? 
_exptl_crystal_density_diffrn     1.248 
_exptl_crystal_F_000              318 
_exptl_transmission_factor_min    ? 
_exptl_transmission_factor_max    ? 
_exptl_crystal_size_max           0.150 
_exptl_crystal_size_mid           0.090 
_exptl_crystal_size_min           0.020 
_exptl_absorpt_coefficient_mu     2.487 
_shelx_estimated_absorpt_T_min    0.707 
_shelx_estimated_absorpt_T_max    0.952 
_exptl_absorpt_correction_type    multi-scan 
_exptl_absorpt_correction_T_min   0.768 
_exptl_absorpt_correction_T_max   0.929 
_exptl_absorpt_process_details    '<i>SADABS</i> (Sheldrick, 2008b)' 
 
_exptl_special_details 
; 
The crystal was mounted with polyisobutene oil on the tip of a fine glass 
fibre, which was fastened in a copper mounting pin with electrical solder. 
It was placed directly into the cold gas stream of a liquid nitrogen based 
cryostat, according to published methods (Hope, 1994; Parkin & Hope, 1998). 
 
The crystals underwent a destructive phase transition when cooled to 90K. 
Visual inspection of crystal integrity and diffraction quality vs temperature 
established a safe temperature for data collection of -93\% C. 
; 
 
_diffrn_ambient_temperature       180(2) 
_diffrn_radiation_wavelength      1.54178 
_diffrn_radiation_type            CuK\a 
_diffrn_source                    'fine-focus rotating anode' 
_diffrn_measurement_device_type   'Bruker X8 Proteum diffractometer' 
_diffrn_measurement_method        '\f and \w scans' 
_diffrn_detector_area_resol_mean  5.6 
_diffrn_reflns_number             10660 
_diffrn_reflns_av_unetI/netI      0.0328 
_diffrn_reflns_av_R_equivalents   0.0407 
_diffrn_reflns_limit_h_min        -8 
_diffrn_reflns_limit_h_max        8 
_diffrn_reflns_limit_k_min        -8 
_diffrn_reflns_limit_k_max        4 
_diffrn_reflns_limit_l_min        -19 
_diffrn_reflns_limit_l_max        20 
_diffrn_reflns_theta_min          2.683 
_diffrn_reflns_theta_max          68.613 
_diffrn_reflns_theta_full         67.679 
_diffrn_measured_fraction_theta_max                0.972 
_diffrn_measured_fraction_theta_full               0.979 
_diffrn_reflns_Laue_measured_fraction_max          0.972 
_diffrn_reflns_Laue_measured_fraction_full         0.979 
_diffrn_reflns_point_group_measured_fraction_max   0.972 
_diffrn_reflns_point_group_measured_fraction_full  0.979 
 
_reflns_number_total              2888 
_reflns_number_gt                 2617 
_reflns_threshold_expression      'I > 2\s(I)' 
_reflns_Friedel_coverage          0.000 
_reflns_Friedel_fraction_max      . 
_reflns_Friedel_fraction_full     . 
 
_reflns_special_details 
; 
Reflections were merged by SHELXL according to the crystal 
class for the calculation of statistics and refinement. 
 
_reflns_Friedel_fraction is defined as the number of unique 
Friedel pairs measured divided by the number that would be 
possible theoretically, ignoring centric projections and 
systematic absences. 
; 
 
_computing_data_collection        '<i>APEX2</i> (Bruker-AXS, 2006)' 
_computing_cell_refinement        '<i>APEX2</i> (Bruker-AXS, 2006)' 
_computing_data_reduction         '<i>APEX2</i> (Bruker-AXS, 2006)' 
_computing_structure_solution     '<i>SHELXS-97</i> (Sheldrick, 2008a)' 
_computing_structure_refinement   '<i>SHELXL-2014</i> (Sheldrick, 2008a)' 
_computing_molecular_graphics     '<i>XP in SHELXTL</i> (Sheldrick, 2008a)' 
_computing_publication_material 
'<i>SHELX</i> (Sheldrick, 2008a) and <i>CIFFIX</i> (Parkin, 2013)' 
 
_refine_special_details 
; 
Refinement progress was checked using <i>Platon</i> (Spek, 2009) and by 
an <i>R</i>-tensor (Parkin, 2000). The final model was further checked 
with the IUCr utility <i>checkCIF</i>. 
; 
 
_refine_ls_structure_factor_coef  Fsqd 
_refine_ls_matrix_type            full 
_refine_ls_weighting_scheme       calc 
_refine_ls_weighting_details 
'w=1/[\s^2^(Fo^2^)+(0.0561P)^2^+0.4926P] where P=(Fo^2^+2Fc^2^)/3' 
_atom_sites_solution_primary      direct 
_atom_sites_solution_secondary    difmap 
_atom_sites_solution_hydrogens    difmap 
_refine_ls_hydrogen_treatment     constr 
_refine_ls_extinction_method      none 
_refine_ls_extinction_coef        . 
_refine_ls_number_reflns          2888 
_refine_ls_number_parameters      197 
_refine_ls_number_restraints      91 
_refine_ls_R_factor_all           0.0473 
_refine_ls_R_factor_gt            0.0437 
_refine_ls_wR_factor_ref          0.1234 
_refine_ls_wR_factor_gt           0.1206 
_refine_ls_goodness_of_fit_ref    1.068 
_refine_ls_restrained_S_all       1.055 
_refine_ls_shift/su_max           0.002 
_refine_ls_shift/su_mean          0.000 
 
loop_ 
 _atom_site_label 
 _atom_site_type_symbol 
 _atom_site_fract_x 
 _atom_site_fract_y 
 _atom_site_fract_z 
 _atom_site_U_iso_or_equiv 
 _atom_site_adp_type 
 _atom_site_occupancy 
 _atom_site_site_symmetry_order 
 _atom_site_calc_flag 
 _atom_site_refinement_flags_posn 
 _atom_site_refinement_flags_adp 
 _atom_site_refinement_flags_occupancy 
 _atom_site_disorder_assembly 
 _atom_site_disorder_group 
Si1 Si 0.75628(9) 0.35428(9) 0.17565(3) 0.0407(2) Uani 1 1 d . . . . . 
C1 C 0.5662(3) 0.4546(3) 0.42377(12) 0.0311(4) Uani 1 1 d . . . . . 
C2 C 0.3673(3) 0.3647(3) 0.43624(12) 0.0313(4) Uani 1 1 d . . . . . 
C3 C 0.2342(3) 0.2263(3) 0.37462(12) 0.0346(4) Uani 1 1 d . . . . . 
H3 H 0.2780 0.1901 0.3239 0.042 Uiso 1 1 calc R U . A 1 
C4 C 0.0419(3) 0.1449(3) 0.38844(12) 0.0346(4) Uani 0.891(3) 1 d D U P B 1 
S5 S -0.14320(11) -0.02899(15) 0.32059(5) 0.0391(2) Uani 0.891(3) 1 d D U P B 1 
C6 C -0.3113(4) -0.0191(4) 0.39239(17) 0.0376(6) Uani 0.891(3) 1 d D U P B 1 
F1 F -0.4987(2) -0.1315(3) 0.37087(11) 0.0502(4) Uani 0.891(3) 1 d D U P B 1 
C7 C -0.2376(9) 0.0989(12) 0.4611(4) 0.0385(9) Uani 0.891(3) 1 d D U P B 1 
H7 H -0.3138 0.1171 0.5046 0.046 Uiso 0.891(3) 1 calc R U P B 1 
C8 C -0.0301(3) 0.1976(3) 0.46358(13) 0.0339(4) Uani 0.891(3) 1 d D U P B 1 
C4' C 0.0419(3) 0.1449(3) 0.38844(12) 0.0346(4) Uani 0.109(3) 1 d D U P B 2 
C5' C -0.114(3) 0.003(6) 0.3356(16) 0.0391(2) Uani 0.109(3) 1 d D U P B 2 
H5' H -0.0985 -0.0530 0.2825 0.047 Uiso 0.109(3) 1 calc R U P B 2 
F1' F -0.465(2) -0.156(2) 0.3368(10) 0.0502(4) Uani 0.109(3) 1 d D U P B 2 
C6' C -0.282(2) -0.041(4) 0.3679(12) 0.0376(6) Uani 0.109(3) 1 d D U P B 2 
S7' S -0.275(2) 0.079(3) 0.4683(10) 0.0385(9) Uani 0.109(3) 1 d D U P B 2 
C8' C -0.0301(3) 0.1976(3) 0.46358(13) 0.0339(4) Uani 0.109(3) 1 d D U P B 2 
C9 C 0.0971(3) 0.3275(3) 0.52485(12) 0.0322(4) Uani 1 1 d . . . . . 
H9 H 0.0504 0.3607 0.5753 0.039 Uiso 1 1 calc R U . B 1 
C10 C 0.2991(3) 0.4132(3) 0.51345(12) 0.0307(4) Uani 1 1 d . . . . . 
C11 C 0.6307(3) 0.4132(3) 0.34550(12) 0.0337(4) Uani 1 1 d . . . . . 
C12 C 0.6825(3) 0.3826(3) 0.27927(13) 0.0379(5) Uani 1 1 d . . . . . 
C13 C 1.0279(4) 0.3833(4) 0.18166(16) 0.0565(7) Uani 1 1 d . . . . . 
H13A H 1.0527 0.2703 0.2037 0.068 Uiso 1 1 calc R U . . . 
H13B H 1.0680 0.3781 0.1260 0.068 Uiso 1 1 calc R U . . . 
C14 C 1.1585(5) 0.5721(6) 0.2335(2) 0.0791(9) Uani 1 1 d . . . . . 
H14A H 1.1238 0.5771 0.2894 0.119 Uiso 1 1 calc R U . . . 
H14B H 1.1379 0.6855 0.2116 0.119 Uiso 1 1 calc R U . . . 
H14C H 1.2980 0.5756 0.2330 0.119 Uiso 1 1 calc R U . . . 
C15 C 0.6935(4) 0.5521(4) 0.12734(15) 0.0530(6) Uani 1 1 d . . . . . 
H15A H 0.5476 0.5249 0.1218 0.064 Uiso 1 1 calc R U . . . 
H15B H 0.7508 0.6789 0.1643 0.064 Uiso 1 1 calc R U . . . 
C16 C 0.7658(5) 0.5750(5) 0.04392(17) 0.0726(9) Uani 1 1 d . . . . . 
H16A H 0.7181 0.6750 0.0219 0.109 Uiso 1 1 calc R U . . . 
H16B H 0.7146 0.4491 0.0071 0.109 Uiso 1 1 calc R U . . . 
H16C H 0.9111 0.6155 0.0494 0.109 Uiso 1 1 calc R U . . . 
C17 C 0.6146(5) 0.1037(4) 0.12002(15) 0.0588(7) Uani 1 1 d . . . . . 
H17A H 0.6379 0.0977 0.0621 0.071 Uiso 1 1 calc R U . . . 
H17B H 0.6685 0.0055 0.1418 0.071 Uiso 1 1 calc R U . . . 
C18 C 0.3924(5) 0.0455(5) 0.1251(2) 0.0852(11) Uani 1 1 d . . . . . 
H18A H 0.3669 0.0460 0.1820 0.128 Uiso 1 1 calc R U . . . 
H18B H 0.3308 -0.0865 0.0941 0.128 Uiso 1 1 calc R U . . . 
H18C H 0.3363 0.1396 0.1024 0.128 Uiso 1 1 calc R U . . . 
 
loop_ 
 _atom_site_aniso_label 
 _atom_site_aniso_U_11 
 _atom_site_aniso_U_22 
 _atom_site_aniso_U_33 
 _atom_site_aniso_U_23 
 _atom_site_aniso_U_13 
 _atom_site_aniso_U_12 
Si1 0.0447(4) 0.0523(4) 0.0270(3) 0.0053(2) 0.0125(2) 0.0159(3) 
C1 0.0332(10) 0.0352(10) 0.0270(10) 0.0074(8) 0.0090(8) 0.0112(8) 
C2 0.0328(10) 0.0334(10) 0.0293(10) 0.0073(8) 0.0084(8) 0.0102(8) 
C3 0.0371(11) 0.0383(11) 0.0288(10) 0.0043(8) 0.0079(8) 0.0111(9) 
C4 0.0345(10) 0.0362(10) 0.0333(10) 0.0068(8) 0.0050(8) 0.0098(8) 
S5 0.0356(4) 0.0414(5) 0.0351(4) 0.0016(3) 0.0031(3) 0.0055(3) 
C6 0.0286(11) 0.0399(13) 0.0424(16) 0.0065(11) 0.0065(9) 0.0069(9) 
F1 0.0326(8) 0.0573(9) 0.0510(11) 0.0016(8) 0.0041(7) 0.0014(6) 
C7 0.032(2) 0.041(2) 0.0440(16) 0.0141(13) 0.0123(14) 0.0085(18) 
C8 0.0330(11) 0.0333(10) 0.0372(11) 0.0105(8) 0.0075(8) 0.0098(8) 
C4' 0.0345(10) 0.0362(10) 0.0333(10) 0.0068(8) 0.0050(8) 0.0098(8) 
C5' 0.0356(4) 0.0414(5) 0.0351(4) 0.0016(3) 0.0031(3) 0.0055(3) 
F1' 0.0326(8) 0.0573(9) 0.0510(11) 0.0016(8) 0.0041(7) 0.0014(6) 
C6' 0.0286(11) 0.0399(13) 0.0424(16) 0.0065(11) 0.0065(9) 0.0069(9) 
S7' 0.032(2) 0.041(2) 0.0440(16) 0.0141(13) 0.0123(14) 0.0085(18) 
C8' 0.0330(11) 0.0333(10) 0.0372(11) 0.0105(8) 0.0075(8) 0.0098(8) 
C9 0.0322(10) 0.0361(10) 0.0307(10) 0.0080(8) 0.0102(8) 0.0109(8) 
C10 0.0322(10) 0.0316(10) 0.0296(10) 0.0077(8) 0.0078(8) 0.0092(8) 
C11 0.0332(10) 0.0375(11) 0.0297(10) 0.0049(8) 0.0064(8) 0.0086(8) 
C12 0.0376(11) 0.0430(11) 0.0323(11) 0.0051(9) 0.0089(9) 0.0099(9) 
C13 0.0545(15) 0.0856(19) 0.0410(13) 0.0180(12) 0.0211(11) 0.0319(14) 
C14 0.0476(17) 0.105(3) 0.078(2) 0.0125(19) 0.0144(15) 0.0110(17) 
C15 0.0624(16) 0.0659(16) 0.0370(13) 0.0115(11) 0.0127(11) 0.0258(13) 
C16 0.091(2) 0.099(2) 0.0470(16) 0.0318(15) 0.0251(15) 0.0446(19) 
C17 0.0779(19) 0.0606(16) 0.0353(13) -0.0018(11) 0.0092(12) 0.0202(14) 
C18 0.086(2) 0.076(2) 0.067(2) -0.0106(16) 0.0220(18) -0.0115(18) 
 
_geom_special_details 
; 
 All esds (except the esd in the dihedral angle between two l.s. planes) 
 are estimated using the full covariance matrix.  The cell esds are taken 
 into account individually in the estimation of esds in distances, angles 
 and torsion angles; correlations between esds in cell parameters are only 
 used when they are defined by crystal symmetry.  An approximate (isotropic) 
 treatment of cell esds is used for estimating esds involving l.s. planes. 
; 
 
loop_ 
 _geom_bond_atom_site_label_1 
 _geom_bond_atom_site_label_2 
 _geom_bond_distance 
 _geom_bond_site_symmetry_2 
 _geom_bond_publ_flag 
Si1 C12 1.843(2) . ? 
Si1 C13 1.867(3) . ? 
Si1 C15 1.869(3) . ? 
Si1 C17 1.874(3) . ? 
C1 C2 1.415(3) . ? 
C1 C10 1.414(3) 2_666 ? 
C1 C11 1.434(3) . ? 
C2 C3 1.415(3) . ? 
C2 C10 1.440(3) . ? 
C3 C4 1.368(3) . ? 
C3 H3 0.9500 . ? 
C4 C8 1.430(3) . ? 
C4 S5 1.749(2) . ? 
S5 C6 1.752(3) . ? 
C6 C7 1.309(7) . ? 
C6 F1 1.339(3) . ? 
C7 C8 1.433(5) . ? 
C7 H7 0.9500 . ? 
C8 C9 1.369(3) . ? 
C5' C6' 1.310(18) . ? 
C5' H5' 0.9500 . ? 
F1' C6' 1.352(15) . ? 
C6' S7' 1.772(17) . ? 
C9 C10 1.423(3) . ? 
C9 H9 0.9500 . ? 
C10 C1 1.414(3) 2_666 ? 
C11 C12 1.200(3) . ? 
C13 C14 1.520(4) . ? 
C13 H13A 0.9900 . ? 
C13 H13B 0.9900 . ? 
C14 H14A 0.9800 . ? 
C14 H14B 0.9800 . ? 
C14 H14C 0.9800 . ? 
C15 C16 1.531(3) . ? 
C15 H15A 0.9900 . ? 
C15 H15B 0.9900 . ? 
C16 H16A 0.9800 . ? 
C16 H16B 0.9800 . ? 
C16 H16C 0.9800 . ? 
C17 C18 1.519(5) . ? 
C17 H17A 0.9900 . ? 
C17 H17B 0.9900 . ? 
C18 H18A 0.9800 . ? 
C18 H18B 0.9800 . ? 
C18 H18C 0.9800 . ? 
 
loop_ 
 _geom_angle_atom_site_label_1 
 _geom_angle_atom_site_label_2 
 _geom_angle_atom_site_label_3 
 _geom_angle 
 _geom_angle_site_symmetry_1 
 _geom_angle_site_symmetry_3 
 _geom_angle_publ_flag 
C12 Si1 C13 109.15(11) . . ? 
C12 Si1 C15 105.82(11) . . ? 
C13 Si1 C15 111.43(13) . . ? 
C12 Si1 C17 109.07(11) . . ? 
C13 Si1 C17 109.80(14) . . ? 
C15 Si1 C17 111.45(13) . . ? 
C2 C1 C10 121.16(18) . 2_666 ? 
C2 C1 C11 119.22(18) . . ? 
C10 C1 C11 119.61(18) 2_666 . ? 
C1 C2 C3 121.34(18) . . ? 
C1 C2 C10 119.46(19) . . ? 
C3 C2 C10 119.20(18) . . ? 
C4 C3 C2 119.67(19) . . ? 
C4 C3 H3 120.2 . . ? 
C2 C3 H3 120.2 . . ? 
C3 C4 C8 121.77(19) . . ? 
C3 C4 S5 126.43(16) . . ? 
C8 C4 S5 111.80(15) . . ? 
C4 S5 C6 88.93(11) . . ? 
C7 C6 F1 127.7(3) . . ? 
C7 C6 S5 115.6(3) . . ? 
F1 C6 S5 116.69(18) . . ? 
C6 C7 C8 112.9(4) . . ? 
C6 C7 H7 123.5 . . ? 
C8 C7 H7 123.5 . . ? 
C9 C8 C7 129.7(3) . . ? 
C9 C8 C4 119.60(18) . . ? 
C7 C8 C4 110.7(3) . . ? 
C6' C5' H5' 123.6 . . ? 
C5' C6' F1' 131.4(16) . . ? 
C5' C6' S7' 115.7(13) . . ? 
F1' C6' S7' 112.8(13) . . ? 
C8 C9 C10 120.39(18) . . ? 
C8 C9 H9 119.8 . . ? 
C10 C9 H9 119.8 . . ? 
C1 C10 C9 121.36(18) 2_666 . ? 
C1 C10 C2 119.35(18) 2_666 . ? 
C9 C10 C2 119.28(18) . . ? 
C12 C11 C1 178.2(2) . . ? 
C11 C12 Si1 175.1(2) . . ? 
C14 C13 Si1 114.9(2) . . ? 
C14 C13 H13A 108.5 . . ? 
Si1 C13 H13A 108.5 . . ? 
C14 C13 H13B 108.5 . . ? 
Si1 C13 H13B 108.5 . . ? 
H13A C13 H13B 107.5 . . ? 
C13 C14 H14A 109.5 . . ? 
C13 C14 H14B 109.5 . . ? 
H14A C14 H14B 109.5 . . ? 
C13 C14 H14C 109.5 . . ? 
H14A C14 H14C 109.5 . . ? 
H14B C14 H14C 109.5 . . ? 
C16 C15 Si1 115.4(2) . . ? 
C16 C15 H15A 108.4 . . ? 
Si1 C15 H15A 108.4 . . ? 
C16 C15 H15B 108.4 . . ? 
Si1 C15 H15B 108.4 . . ? 
H15A C15 H15B 107.5 . . ? 
C15 C16 H16A 109.5 . . ? 
C15 C16 H16B 109.5 . . ? 
H16A C16 H16B 109.5 . . ? 
C15 C16 H16C 109.5 . . ? 
H16A C16 H16C 109.5 . . ? 
H16B C16 H16C 109.5 . . ? 
C18 C17 Si1 115.2(2) . . ? 
C18 C17 H17A 108.5 . . ? 
Si1 C17 H17A 108.5 . . ? 
C18 C17 H17B 108.5 . . ? 
Si1 C17 H17B 108.5 . . ? 
H17A C17 H17B 107.5 . . ? 
C17 C18 H18A 109.5 . . ? 
C17 C18 H18B 109.5 . . ? 
H18A C18 H18B 109.5 . . ? 
C17 C18 H18C 109.5 . . ? 
H18A C18 H18C 109.5 . . ? 
H18B C18 H18C 109.5 . . ? 
 
loop_ 
 _geom_torsion_atom_site_label_1 
 _geom_torsion_atom_site_label_2 
 _geom_torsion_atom_site_label_3 
 _geom_torsion_atom_site_label_4 
 _geom_torsion 
 _geom_torsion_site_symmetry_1 
 _geom_torsion_site_symmetry_2 
 _geom_torsion_site_symmetry_3 
 _geom_torsion_site_symmetry_4 
 _geom_torsion_publ_flag 
C10 C1 C2 C3 -177.48(18) 2_666 . . . ? 
C11 C1 C2 C3 3.7(3) . . . . ? 
C10 C1 C2 C10 1.9(3) 2_666 . . . ? 
C11 C1 C2 C10 -176.92(18) . . . . ? 
C1 C2 C3 C4 -178.91(19) . . . . ? 
C10 C2 C3 C4 1.8(3) . . . . ? 
C2 C3 C4 C8 0.8(3) . . . . ? 
C2 C3 C4 S5 -179.44(16) . . . . ? 
C3 C4 S5 C6 -177.7(2) . . . . ? 
C8 C4 S5 C6 2.05(18) . . . . ? 
C4 S5 C6 C7 -1.1(5) . . . . ? 
C4 S5 C6 F1 178.6(2) . . . . ? 
F1 C6 C7 C8 -179.9(4) . . . . ? 
S5 C6 C7 C8 -0.1(9) . . . . ? 
C6 C7 C8 C9 -178.7(4) . . . . ? 
C6 C7 C8 C4 1.7(8) . . . . ? 
C3 C4 C8 C9 -2.4(3) . . . . ? 
S5 C4 C8 C9 177.81(16) . . . . ? 
C3 C4 C8 C7 177.3(5) . . . . ? 
S5 C4 C8 C7 -2.5(5) . . . . ? 
C7 C8 C9 C10 -178.3(5) . . . . ? 
C4 C8 C9 C10 1.3(3) . . . . ? 
C8 C9 C10 C1 -179.09(18) . . . 2_666 ? 
C8 C9 C10 C2 1.2(3) . . . . ? 
C1 C2 C10 C1 -1.8(3) . . . 2_666 ? 
C3 C2 C10 C1 177.53(18) . . . 2_666 ? 
C1 C2 C10 C9 177.88(17) . . . . ? 
C3 C2 C10 C9 -2.8(3) . . . . ? 
C12 Si1 C13 C14 -54.0(2) . . . . ? 
C15 Si1 C13 C14 62.5(2) . . . . ? 
C17 Si1 C13 C14 -173.5(2) . . . . ? 
C12 Si1 C15 C16 172.5(2) . . . . ? 
C13 Si1 C15 C16 54.0(3) . . . . ? 
C17 Si1 C15 C16 -69.0(3) . . . . ? 
C12 Si1 C17 C18 48.9(3) . . . . ? 
C13 Si1 C17 C18 168.4(2) . . . . ? 
C15 Si1 C17 C18 -67.6(3) . . . . ? 
 
_refine_diff_density_max    0.270 
_refine_diff_density_min   -0.332 
_refine_diff_density_rms    0.048 
 
_shelxl_version_number 2014-3 
 
_iucr_refine_instructions_details 
; 
TITL x14203 in P-1 
CELL  1.54178   7.0710   7.1814  16.7266   97.893   93.704  106.387 
ZERR     1.00   0.0002   0.0002   0.0006    0.002    0.002    0.002 
LATT  1 
SFAC C H F SI S 
UNIT 34 36 2 2 2 
TEMP -93.000 
SIZE 0.15 0.09 0.02 
REM FORM flake 
REM COLR red 
L.S. 8 
BOND $H 
CONF 
ACTA 
LIST 4 
FMAP 2 
PLAN 10 
REM EXTI    0.000000 not needed 
WGHT    0.056100    0.492600 
FVAR       0.34712   0.89145 
SI1   4    0.756280    0.354276    0.175651    11.00000    0.04467    0.05229 = 
         0.02700    0.00528    0.01251    0.01588 
C1    1    0.566239    0.454563    0.423775    11.00000    0.03325    0.03524 = 
         0.02705    0.00740    0.00902    0.01116 
C2    1    0.367289    0.364682    0.436245    11.00000    0.03283    0.03345 = 
         0.02931    0.00730    0.00841    0.01022 
C3    1    0.234158    0.226343    0.374618    11.00000    0.03706    0.03830 = 
         0.02875    0.00433    0.00785    0.01105 
AFIX  43 
H3    2    0.278008    0.190147    0.323893    11.00000   -1.20000 
AFIX   0 
EXYZ C4 C4' 
EXYZ C8 C8' 
EADP C4 C4' 
EADP S5 C5' 
EADP C6 C6' 
EADP F1 F1' 
EADP c7 S7' 
EADP C8 C8' 
SAME C8' S7' C6' F1' C5' C4' 
RIGU C4 > C8' 
PART 1 
C4    1    0.041922    0.144933    0.388438    21.00000    0.03452    0.03623 = 
         0.03327    0.00684    0.00500    0.00975 
S5    5   -0.143195   -0.028990    0.320592    21.00000    0.03562    0.04144 = 
         0.03511    0.00163    0.00306    0.00552 
C6    1   -0.311264   -0.019118    0.392390    21.00000    0.02864    0.03992 = 
         0.04243    0.00649    0.00647    0.00691 
F1    3   -0.498665   -0.131465    0.370869    21.00000    0.03257    0.05732 = 
         0.05097    0.00158    0.00415    0.00138 
C7    1   -0.237637    0.098860    0.461050    21.00000    0.03234    0.04108 = 
         0.04395    0.01406    0.01225    0.00850 
AFIX  43 
H7    2   -0.313781    0.117082    0.504624    21.00000   -1.20000 
AFIX   0 
C8    1   -0.030142    0.197624    0.463583    21.00000    0.03299    0.03333 = 
         0.03720    0.01052    0.00752    0.00981 
PART 2 
C4'   1    0.041922    0.144933    0.388438   -21.00000    0.03452    0.03623 = 
         0.03327    0.00684    0.00500    0.00975 
C5'   1   -0.114215    0.003270    0.335552   -21.00000    0.03562    0.04144 = 
         0.03511    0.00163    0.00306    0.00552 
AFIX  43 
H5'   2   -0.098474   -0.052953    0.282502   -21.00000   -1.20000 
AFIX   0 
F1'   3   -0.465408   -0.156337    0.336850   -21.00000    0.03257    0.05732 = 
         0.05097    0.00158    0.00415    0.00138 
C6'   1   -0.281883   -0.041195    0.367910   -21.00000    0.02864    0.03992 = 
         0.04243    0.00649    0.00647    0.00691 
S7'   5   -0.275053    0.079476    0.468309   -21.00000    0.03234    0.04108 = 
         0.04395    0.01406    0.01225    0.00850 
C8'   1   -0.030142    0.197624    0.463583   -21.00000    0.03299    0.03333 = 
         0.03720    0.01052    0.00752    0.00981 
PART 0 
 
C9    1    0.097146    0.327544    0.524849    11.00000    0.03219    0.03606 = 
         0.03070    0.00798    0.01019    0.01087 
AFIX  43 
H9    2    0.050369    0.360728    0.575260    11.00000   -1.20000 
AFIX   0 
C10   1    0.299090    0.413153    0.513453    11.00000    0.03218    0.03160 = 
         0.02958    0.00771    0.00785    0.00919 
C11   1    0.630738    0.413241    0.345496    11.00000    0.03318    0.03746 = 
         0.02974    0.00491    0.00640    0.00864 
C12   1    0.682512    0.382574    0.279268    11.00000    0.03761    0.04298 = 
         0.03230    0.00514    0.00889    0.00991 
C13   1    1.027922    0.383292    0.181659    11.00000    0.05450    0.08555 = 
         0.04102    0.01798    0.02111    0.03185 
AFIX  23 
H13A  2    1.052685    0.270255    0.203732    11.00000   -1.20000 
H13B  2    1.068002    0.378055    0.125964    11.00000   -1.20000 
AFIX   0 
C14   1    1.158502    0.572137    0.233518    11.00000    0.04757    0.10510 = 
         0.07769    0.01255    0.01444    0.01097 
AFIX 137 
H14A  2    1.123798    0.577077    0.289394    11.00000   -1.50000 
H14B  2    1.137937    0.685504    0.211591    11.00000   -1.50000 
H14C  2    1.297950    0.575567    0.233001    11.00000   -1.50000 
AFIX   0 
C15   1    0.693506    0.552082    0.127341    11.00000    0.06241    0.06593 = 
         0.03702    0.01154    0.01267    0.02576 
AFIX  23 
H15A  2    0.547602    0.524895    0.121773    11.00000   -1.20000 
H15B  2    0.750821    0.678859    0.164296    11.00000   -1.20000 
AFIX   0 
C16   1    0.765840    0.574984    0.043922    11.00000    0.09069    0.09889 = 
         0.04696    0.03179    0.02510    0.04460 
AFIX 137 
H16A  2    0.718058    0.675043    0.021859    11.00000   -1.50000 
H16B  2    0.714639    0.449113    0.007147    11.00000   -1.50000 
H16C  2    0.911132    0.615459    0.049358    11.00000   -1.50000 
AFIX   0 
C17   1    0.614604    0.103696    0.120018    11.00000    0.07790    0.06061 = 
         0.03533   -0.00177    0.00915    0.02019 
AFIX  23 
H17A  2    0.637860    0.097667    0.062113    11.00000   -1.20000 
H17B  2    0.668509    0.005518    0.141849    11.00000   -1.20000 
AFIX   0 
C18   1    0.392446    0.045531    0.125100    11.00000    0.08583    0.07603 = 
         0.06702   -0.01061    0.02197   -0.01146 
AFIX 137 
H18A  2    0.366853    0.045952    0.182001    11.00000   -1.50000 
H18B  2    0.330829   -0.086538    0.094134    11.00000   -1.50000 
H18C  2    0.336290    0.139644    0.102443    11.00000   -1.50000 
 
AFIX   0 
HKLF 4 
 
REM  x14203 in P-1 
REM R1 =  0.0437 for    2617 Fo > 4sig(Fo)  and  0.0473 for all    2888 data 
REM    197 parameters refined using     91 restraints 
 
END 
 
WGHT      0.0552      0.4756 
 
REM Highest difference peak  0.270,  deepest hole -0.332,  1-sigma level  0.048 
Q1    1   0.7262  0.4601  0.1548  11.00000  0.05    0.27 
Q2    1   0.6635  0.2185  0.1493  11.00000  0.05    0.27 
Q3    1   0.7455  0.3727  0.2321  11.00000  0.05    0.25 
Q4    1   0.6879  0.1644  0.1759  11.00000  0.05    0.24 
Q5    1   0.0298  0.2662  0.4930  11.00000  0.05    0.22 
Q6    1   0.7235  0.2307  0.1210  11.00000  0.05    0.21 
Q7    1   0.5281  0.0203  0.1392  11.00000  0.05    0.20 
Q8    1   0.9264  0.3960  0.1906  11.00000  0.05    0.19 
Q9    1   0.3469  0.3821  0.4740  11.00000  0.05    0.18 
Q10   1   0.1211  0.1914  0.3847  11.00000  0.05    0.18 
; 
_shelx_res_checksum   85501 
 
_shelx_hkl_file
;
  -1   0   0    4.06    0.32
  -1   0   0    4.26    0.31
  -1   0   0    4.19    0.31
  -1   0   0    4.68    0.27
  -1   0   0    3.96    0.28
  -1   0   0    4.33    0.27
   1   0   0    3.78    0.29
   1   0   0    5.03    0.28
   1   0   0    4.50    0.28
   1   0   0    4.19    0.32
  -2   0   0  161.20    9.79
  -2   0   0  169.99    8.95
  -2   0   0  169.16    9.73
  -2   0   0  164.95    7.52
  -2   0   0  159.60    7.51
   2   0   0  153.68    9.72
   2   0   0  162.37    7.52
  -3   0   0   23.38    1.43
  -3   0   0   23.12    1.30
  -3   0   0   21.17    1.14
  -3   0   0   20.61    1.15
  -3   0   0   23.29    1.42
   3   0   0   22.91    1.19
   3   0   0   21.26    1.16
  -4   0   0    9.85    0.74
  -4   0   0   10.10    0.75
  -4   0   0   10.09    0.68
  -5   0   0    4.89    0.35
  -5   0   0    4.90    0.50
  -5   0   0    5.44    0.51
  -5   0   0    5.45    0.34
  -5   0   0    5.18    0.40
  -5   0   0    5.88    0.52
  -5   0   0    5.18    0.33
  -6   0   0    0.20    0.09
  -6   0   0    0.82    0.15
  -6   0   0    0.46    0.15
  -7   0   0    1.44    0.20
  -7   0   0    1.49    0.15
  -7   0   0    1.30    0.18
  -7   0   0    1.35    0.18
  -8   0   0    5.64    0.34
  -8   1   0    0.92    0.13
  -7   1   0    5.64    0.36
  -7   1   0    5.58    0.40
  -6   1   0    7.56    0.46
  -6   1   0    7.39    0.46
  -5   1   0    7.14    0.44
  -5   1   0    6.08    0.62
  -5   1   0    8.21    0.60
  -4   1   0    0.19    0.19
  -4   1   0    0.27    0.22
  -4   1   0    0.20    0.19
   3  -1   0    7.47    0.52
   3  -1   0    7.61    0.59
   3  -1   0    6.68    0.53
  -3   1   0    7.54    0.53
  -3   1   0    8.34    0.55
  -3   1   0    7.79    0.59
  -3   1   0    7.53    0.53
  -3   1   0    7.25    0.50
   2  -1   0  166.04   10.58
   2  -1   0  174.21    7.83
   2  -1   0  169.43   10.12
   2  -1   0  164.23    9.31
   2  -1   0  175.44    7.82
  -2   1   0  163.88    9.31
  -2   1   0  177.78    7.82
  -2   1   0  170.60   10.12
  -2   1   0  175.67    7.82
  -2   1   0  156.40   10.17
   1  -1   0    1.05    0.14
   1  -1   0    0.92    0.14
   1  -1   0    0.75    0.12
   1  -1   0    0.98    0.14
   1  -1   0    1.05    0.14
   1  -1   0    0.92    0.13
  -1   1   0    1.01    0.14
  -1   1   0    0.98    0.14
  -1   1   0    1.01    0.14
  -1   1   0    0.86    0.13
   0  -1   0   22.54    1.48
   0  -1   0   22.52    1.51
   0  -1   0   24.14    1.43
   0  -1   0   23.04    1.32
   0  -1   0   22.62    1.32
   0  -1   0   22.41    1.52
   0  -1   0   24.80    1.11
   0  -1   0   23.57    1.43
   0  -1   0   23.35    1.46
   0  -1   0   24.42    1.11
   0   1   0   25.11    1.11
   0   1   0   25.08    1.11
  -1  -1   0    1.79    0.18
  -1  -1   0    1.44    0.15
  -1  -1   0    1.65    0.17
  -1  -1   0    1.48    0.16
  -1  -1   0    1.65    0.22
  -1  -1   0    1.56    0.16
  -1  -1   0    1.48    0.16
  -1  -1   0    1.60    0.22
  -1  -1   0    1.89    0.17
   1   1   0    1.91    0.18
   1   1   0    1.76    0.17
  -2  -1   0    7.71    0.55
  -2  -1   0    8.47    0.56
  -2  -1   0    7.41    0.43
  -2  -1   0    7.31    0.44
  -2  -1   0    6.42    0.47
  -2  -1   0    8.45    0.53
  -2  -1   0    7.64    0.48
  -2  -1   0    7.27    0.51
   2   1   0    7.59    0.46
   2   1   0    7.81    0.47
  -3  -1   0  119.04    7.64
  -3  -1   0  122.64    6.88
  -3  -1   0  130.10    7.49
  -3  -1   0  127.39    7.56
  -4  -1   0   16.48    1.15
  -4  -1   0   17.18    1.13
  -4  -1   0   15.51    1.05
  -4  -1   0   15.33    0.88
  -4  -1   0   15.74    0.90
  -4  -1   0   16.26    1.09
  -4  -1   0   15.19    1.05
  -4  -1   0   18.37    1.00
  -5  -1   0    1.01    0.24
  -5  -1   0    0.69    0.17
  -5  -1   0    0.66    0.31
  -5  -1   0    0.52    0.12
  -5  -1   0    0.07    0.24
  -5  -1   0    0.19    0.23
  -6  -1   0   10.03    0.55
  -6  -1   0    9.68    0.67
  -6  -1   0    9.38    0.68
  -6  -1   0    9.98    0.58
  -7  -1   0    0.31    0.06
  -7  -1   0    0.55    0.12
  -7  -1   0    0.47    0.10
  -8   2   0    0.22    0.10
  -7   2   0   11.82    0.79
  -6   2   0    4.58    0.33
   4  -2   0  151.56    9.07
   4  -2   0  149.45    8.34
   3  -2   0   16.05    0.97
   3  -2   0   15.52    1.05
   3  -2   0   14.21    0.85
   3  -2   0   15.79    0.89
   3  -2   0   16.67    1.04
  -3   2   0   14.55    0.87
  -3   2   0   15.24    0.88
   2  -2   0   17.94    1.05
   2  -2   0   18.63    1.21
   2  -2   0   19.13    1.15
   2  -2   0   18.03    0.93
   2  -2   0   17.85    0.92
  -2   2   0   14.98    1.04
  -2   2   0   19.40    0.94
  -2   2   0   19.36    0.94
  -2   2   0   16.89    1.14
   1  -2   0   26.54    1.63
   1  -2   0   25.21    1.28
   1  -2   0   27.70    1.74
   1  -2   0   26.19    1.69
   1  -2   0   25.23    1.50
   1  -2   0   29.53    1.64
   1  -2   0   26.44    1.29
   1  -2   0   24.76    1.71
  -1   2   0   29.34    1.29
  -1   2   0   28.58    1.29
   0  -2   0  232.23   15.14
   0  -2   0  249.73   15.26
   0  -2   0  242.41   14.90
   0  -2   0  249.86   14.68
  -1  -2   0   74.78    4.79
  -1  -2   0   79.76    3.70
  -1  -2   0   83.04    5.05
  -1  -2   0   79.96    4.41
  -1  -2   0   80.05    5.05
  -1  -2   0   77.91    4.93
  -1  -2   0   85.05    4.79
  -1  -2   0   85.56    4.88
  -1  -2   0   75.40    3.69
  -1  -2   0   81.69    4.41
   1   2   0   79.84    3.70
   1   2   0   83.16    3.70
  -2  -2   0   33.98    1.72
  -2  -2   0   38.29    2.03
  -2  -2   0   35.32    2.03
  -2  -2   0   38.57    2.28
  -2  -2   0   35.59    2.20
  -2  -2   0   39.85    2.21
  -2  -2   0   37.31    2.29
  -2  -2   0   34.51    1.73
   2   2   0   34.45    1.72
  -3  -2   0    0.10    0.15
  -3  -2   0    0.06    0.19
  -3  -2   0    0.16    0.24
  -3  -2   0    0.06    0.11
  -4  -2   0    7.47    0.52
  -4  -2   0    6.88    0.40
  -4  -2   0    6.96    0.52
  -4  -2   0    6.82    0.51
  -4  -2   0    6.61    0.53
  -4  -2   0    6.80    0.63
  -4  -2   0    6.52    0.48
  -4  -2   0    7.15    0.42
  -4  -2   0    7.37    0.61
  -4  -2   0    7.63    0.50
  -5  -2   0    2.52    0.17
  -5  -2   0    1.33    0.39
  -5  -2   0    2.49    0.27
  -5  -2   0    2.11    0.25
  -5  -2   0    2.84    0.24
  -5  -2   0    2.39    0.19
  -6  -2   0    6.92    0.50
  -6  -2   0    7.10    0.52
  -7  -2   0    8.75    0.52
  -7  -2   0   10.08    0.62
  -7   3   0   18.36    1.05
   6  -3   0    5.72    0.40
   5  -3   0   13.11    0.77
   4  -3   0    1.66    0.27
   4  -3   0    1.67    0.32
   4  -3   0    2.03    0.31
   3  -3   0    9.09    0.67
   3  -3   0    9.17    0.71
   2  -3   0   48.18    2.95
   2  -3   0   46.32    2.56
   2  -3   0   43.89    2.91
   2  -3   0   42.46    2.18
   2  -3   0   50.84    2.79
   2  -3   0   42.82    2.19
   1  -3   0    5.00    0.33
   1  -3   0    5.65    0.47
   1  -3   0    4.25    0.27
   1  -3   0    4.21    0.29
   1  -3   0    5.00    0.44
   1  -3   0    4.23    0.35
  -1   3   0    4.18    0.28
  -1   3   0    4.88    0.30
   0  -3   0   68.81    4.13
   0  -3   0   66.84    4.18
   0  -3   0   64.47    4.26
   0  -3   0   71.23    4.30
  -1  -3   0   45.70    3.12
  -1  -3   0   48.09    3.06
  -1  -3   0   53.74    3.05
  -2  -3   0  122.75    7.64
  -2  -3   0  126.40    7.57
  -3  -3   0   11.69    0.79
  -3  -3   0   11.79    0.81
  -3  -3   0   11.59    0.76
  -3  -3   0   12.75    0.93
  -3  -3   0   11.95    0.79
  -3  -3   0   11.53    0.87
  -3  -3   0   10.90    0.65
  -4  -3   0   34.25    2.22
  -4  -3   0   37.81    2.30
  -4  -3   0   37.78    2.37
  -4  -3   0   37.00    2.31
  -4  -3   0   33.50    2.35
  -4  -3   0   35.23    1.96
  -5  -3   0    0.99    0.19
  -5  -3   0    0.77    0.10
  -5  -3   0    0.95    0.16
  -5  -3   0    0.66    0.13
  -6  -3   0    0.17    0.11
  -6  -3   0    0.35    0.06
   7  -4   0   20.15    1.23
   6  -4   0    0.96    0.18
   5  -4   0   28.81    1.82
   5  -4   0   29.82    1.67
   5  -4   0   30.98    1.64
   4  -4   0   49.85    2.69
   4  -4   0   48.90    2.85
   4  -4   0   49.54    2.74
   4  -4   0   51.68    3.11
   4  -4   0   51.73    3.27
   4  -4   0   47.42    2.72
   3  -4   0   28.28    1.83
   3  -4   0   24.99    1.46
   3  -4   0   27.92    1.70
   3  -4   0   29.20    1.57
   3  -4   0   24.97    1.48
   2  -4   0    9.56    0.65
   2  -4   0    9.98    0.78
   2  -4   0    9.89    0.60
   1  -4   0   10.07    0.76
   1  -4   0    9.08    0.73
   0  -4   0   77.31    4.87
   0  -4   0   80.04    5.01
  -1  -4   0   10.58    0.75
  -1  -4   0    9.97    0.67
  -1  -4   0    8.72    0.65
  -1  -4   0   10.04    0.64
  -1  -4   0   10.70    0.76
  -1  -4   0    9.76    0.68
  -1  -4   0    8.82    0.66
  -2  -4   0    3.44    0.28
  -2  -4   0    2.61    0.27
  -2  -4   0    3.93    0.45
  -2  -4   0    2.87    0.18
  -2  -4   0    3.66    0.31
  -2  -4   0    3.35    0.31
  -2  -4   0    3.70    0.30
  -2  -4   0    3.20    0.30
  -2  -4   0    2.87    0.40
  -3  -4   0   90.17    5.32
  -3  -4   0   86.65    5.17
  -3  -4   0   76.27    5.24
  -3  -4   0   82.61    4.57
  -3  -4   0   84.85    5.50
  -3  -4   0   86.80    5.36
  -4  -4   0    6.43    0.49
  -4  -4   0    6.49    0.46
  -4  -4   0    6.88    0.46
  -4  -4   0    5.56    0.34
  -5  -4   0   10.48    0.73
  -5  -4   0   10.78    0.73
  -5  -4   0   10.58    0.70
  -6  -4   0    1.54    0.14
   7  -5   0    0.13    0.12
   6  -5   0    0.59    0.20
   6  -5   0    0.31    0.15
   6  -5   0    0.55    0.14
   5  -5   0    0.17    0.14
   5  -5   0    0.27    0.14
   5  -5   0    0.37    0.31
   5  -5   0    0.06    0.12
   4  -5   0    2.93    0.29
   4  -5   0    2.38    0.43
   4  -5   0    2.75    0.37
   4  -5   0    2.80    0.22
   4  -5   0    2.56    0.20
   4  -5   0    2.29    0.26
   3  -5   0   18.90    1.12
   3  -5   0   17.61    0.98
   3  -5   0   18.09    1.14
   3  -5   0   18.14    1.07
   3  -5   0   18.39    1.33
   3  -5   0   17.91    1.20
   3  -5   0   17.80    1.00
   3  -5   0   17.10    1.16
   2  -5   0    1.67    0.23
   2  -5   0    1.86    0.24
   2  -5   0    1.33    0.35
   2  -5   0    2.16    0.26
   2  -5   0    1.88    0.25
   2  -5   0    1.68    0.15
   1  -5   0   66.46    4.14
   1  -5   0   65.72    3.99
   1  -5   0   64.80    4.20
   1  -5   0   60.43    3.53
   1  -5   0   67.39    4.23
   1  -5   0   70.39    4.26
   1  -5   0   62.25    3.88
   0  -5   0   36.16    2.17
   0  -5   0   31.56    2.26
   0  -5   0   33.00    2.08
   0  -5   0   36.76    2.22
   0  -5   0   32.66    2.20
   0  -5   0   31.97    2.19
   0  -5   0   34.88    2.08
   0  -5   0   31.91    2.03
  -1  -5   0   11.49    0.77
  -1  -5   0   12.39    0.76
  -1  -5   0   10.45    0.74
  -1  -5   0   11.29    0.72
  -1  -5   0   10.04    0.72
  -1  -5   0    9.40    0.83
  -1  -5   0    9.71    0.70
  -2  -5   0   11.82    0.79
  -2  -5   0   12.82    0.83
  -2  -5   0   12.30    0.81
  -2  -5   0    9.73    0.78
  -2  -5   0   11.70    0.76
  -3  -5   0   28.93    1.87
  -3  -5   0   28.48    1.80
  -3  -5   0   28.89    1.91
  -4  -5   0    0.37    0.12
  -4  -5   0    0.26    0.18
  -4  -5   0    0.30    0.12
  -5  -5   0    0.27    0.09
   7  -6   0    0.11    0.10
   6  -6   0    1.71    0.19
   5  -6   0   15.53    0.88
   5  -6   0   16.08    0.91
   5  -6   0   16.82    1.02
   4  -6   0   10.60    0.65
   4  -6   0    9.13    0.63
   4  -6   0    9.09    0.53
   4  -6   0    9.33    0.55
   4  -6   0    9.52    0.68
   3  -6   0    1.14    0.12
   3  -6   0    1.05    0.21
   3  -6   0    0.29    0.32
   3  -6   0    1.20    0.22
   3  -6   0    1.30    0.22
   2  -6   0    3.57    0.34
   2  -6   0    3.28    0.32
   2  -6   0    3.80    0.36
   2  -6   0    3.08    0.20
   2  -6   0    3.16    0.29
   1  -6   0   19.04    1.31
   1  -6   0   20.77    1.31
   1  -6   0   21.43    1.35
   1  -6   0   18.58    1.22
   1  -6   0   21.35    1.26
   1  -6   0   16.45    1.42
   0  -6   0    1.61    0.26
   0  -6   0    1.63    0.19
   0  -6   0    1.42    0.19
   0  -6   0    1.96    0.28
   0  -6   0    1.73    0.25
  -1  -6   0    0.19    0.16
  -1  -6   0    0.48    0.19
  -1  -6   0    0.42    0.16
  -1  -6   0    0.34    0.13
  -1  -6   0    0.45    0.21
  -2  -6   0    1.24    0.24
  -2  -6   0    0.91    0.21
  -2  -6   0    0.80    0.16
  -2  -6   0    0.99    0.22
  -3  -6   0    7.78    0.60
  -3  -6   0    8.91    0.59
  -3  -6   0    8.74    0.56
  -4  -6   0    2.01    0.18
   6  -7   0    0.58    0.12
   4  -7   0    2.34    0.22
   4  -7   0    2.62    0.24
   4  -7   0    2.17    0.27
   4  -7   0    2.46    0.17
   3  -7   0    0.05    0.13
   3  -7   0   -0.17    0.18
   3  -7   0   -0.04    0.13
   3  -7   0    0.07    0.04
   2  -7   0   12.79    0.81
   2  -7   0   12.45    0.83
   2  -7   0   11.01    0.76
   1  -7   0    4.31    0.35
   1  -7   0    4.73    0.40
   1  -7   0    5.03    0.39
   1  -7   0    4.72    0.38
   0  -7   0    0.09    0.16
   0  -7   0    0.24    0.21
   0  -7   0    0.23    0.17
  -1  -7   0    7.97    0.57
  -1  -7   0    7.81    0.56
  -1  -7   0    8.41    0.56
  -2  -7   0    0.34    0.17
  -2  -7   0    0.23    0.11
   5  -8   0    1.69    0.15
   4  -8   0    0.00    0.12
   4  -8   0    0.21    0.11
   3  -8   0    0.23    0.12
   3  -8   0    0.12    0.15
   3  -8   0    0.32    0.11
   2  -8   0    0.15    0.11
   2  -8   0    0.01    0.15
   1  -8   0    5.06    0.37
   1  -8   0    4.82    0.34
   0  -8   0    0.56    0.10
   0  -8   1    4.52    0.33
   1  -8   1    0.25    0.10
   1  -8   1    0.12    0.11
   2  -8   1    3.70    0.31
   2  -8   1    4.11    0.30
   2  -8   1    3.53    0.29
   3  -8   1    1.08    0.15
   4  -8   1    0.53    0.16
   4  -8   1    0.57    0.10
   5  -8   1    0.14    0.10
  -2  -7   1    9.57    0.58
  -2  -7   1    7.39    0.59
  -1  -7   1    0.72    0.20
  -1  -7   1    0.23    0.14
  -1  -7   1    0.45    0.14
   0  -7   1   13.11    0.96
   0  -7   1   15.17    0.97
   0  -7   1   14.40    0.92
   1  -7   1    2.88    0.25
   1  -7   1    2.55    0.27
   1  -7   1    2.49    0.25
   1  -7   1    2.50    0.30
   2  -7   1    3.28    0.28
   2  -7   1    3.16    0.28
   2  -7   1    3.37    0.33
   3  -7   1    5.84    0.43
   3  -7   1    5.00    0.31
   3  -7   1    5.69    0.45
   3  -7   1    6.17    0.41
   4  -7   1    1.35    0.16
   4  -7   1    1.00    0.23
   5  -7   1   -0.06    0.13
   6  -7   1    1.00    0.14
  -4  -6   1    8.62    0.58
  -3  -6   1    2.28    0.23
  -3  -6   1    1.86    0.22
  -3  -6   1    2.02    0.22
  -2  -6   1   30.09    2.01
  -2  -6   1   30.85    1.96
  -2  -6   1   30.13    1.89
  -1  -6   1    4.71    0.38
  -1  -6   1    4.07    0.35
  -1  -6   1    4.79    0.40
  -1  -6   1    5.16    0.40
  -1  -6   1    4.46    0.37
  -1  -6   1    4.01    0.35
   0  -6   1    0.96    0.19
   0  -6   1    1.07    0.23
   0  -6   1    1.09    0.17
   0  -6   1    1.08    0.20
   0  -6   1    1.11    0.20
   0  -6   1    1.43    0.24
   1  -6   1   23.70    1.59
   1  -6   1   20.70    1.70
   1  -6   1   25.59    1.54
   1  -6   1   24.69    1.49
   1  -6   1   25.15    1.61
   1  -6   1   25.65    1.64
   2  -6   1    1.47    0.20
   2  -6   1    1.49    0.12
   2  -6   1    1.98    0.26
   2  -6   1    1.50    0.21
   2  -6   1    1.44    0.33
   2  -6   1    2.10    0.28
   3  -6   1    6.02    0.38
   3  -6   1    5.03    0.65
   3  -6   1    6.49    0.48
   3  -6   1    6.77    0.45
   3  -6   1    6.89    0.50
   4  -6   1   40.46    2.17
   4  -6   1   39.90    2.13
   4  -6   1   44.53    2.40
   4  -6   1   36.64    2.44
   4  -6   1   36.81    2.57
   5  -6   1    2.56    0.18
   5  -6   1    2.20    0.28
   5  -6   1    2.58    0.21
   6  -6   1    1.86    0.19
   7  -6   1    0.89    0.12
  -5  -5   1    0.09    0.13
  -5  -5   1    0.02    0.09
  -4  -5   1    0.99    0.15
  -4  -5   1    1.63    0.21
  -4  -5   1    0.94    0.21
  -3  -5   1   13.03    0.81
  -3  -5   1   11.25    0.81
  -3  -5   1   12.47    0.84
  -3  -5   1   11.84    0.85
  -2  -5   1   28.11    1.66
  -2  -5   1   26.96    1.71
  -2  -5   1   27.02    1.70
  -2  -5   1   28.20    1.76
  -2  -5   1   23.02    1.72
  -2  -5   1   25.34    1.65
  -1  -5   1   47.71    2.95
  -1  -5   1   51.77    3.24
  -1  -5   1   49.53    3.05
  -1  -5   1   51.45    3.15
  -1  -5   1   47.51    3.15
  -1  -5   1   50.43    3.13
  -1  -5   1   45.93    3.03
  -1  -5   1   53.19    3.04
  -1  -5   1   48.02    3.20
   0  -5   1   58.25    3.53
   0  -5   1   56.55    3.74
   0  -5   1   56.26    3.53
   0  -5   1   53.37    3.55
   0  -5   1   55.53    3.44
   0  -5   1   62.47    3.67
   0  -5   1   58.70    3.67
   0  -5   1   56.82    3.72
   0  -5   1   62.46    3.77
   1  -5   1    1.54    0.11
   1  -5   1    1.70    0.39
   1  -5   1    1.88    0.25
   1  -5   1    1.60    0.18
   2  -5   1   13.54    0.92
   2  -5   1   14.63    1.08
   2  -5   1   14.63    0.91
   2  -5   1   14.32    0.80
   2  -5   1   15.24    0.98
   2  -5   1   14.97    1.00
   3  -5   1    1.97    0.24
   3  -5   1    1.90    0.28
   3  -5   1    1.75    0.37
   3  -5   1    2.41    0.26
   3  -5   1    1.98    0.26
   3  -5   1    2.13    0.16
   3  -5   1    1.94    0.25
   3  -5   1    2.16    0.18
   4  -5   1    7.67    0.57
   4  -5   1    8.03    0.59
   4  -5   1    7.96    0.45
   4  -5   1    7.77    0.74
   4  -5   1    8.24    0.48
   4  -5   1    5.92    0.60
   4  -5   1    7.66    0.53
   4  -5   1    8.04    0.52
   5  -5   1   -0.15    0.32
   5  -5   1    0.23    0.19
   5  -5   1    0.29    0.12
   5  -5   1    0.19    0.14
   6  -5   1    4.44    0.32
   6  -5   1    4.39    0.30
   6  -5   1    3.91    0.32
   7  -5   1    7.52    0.50
  -6  -4   1    0.29    0.12
  -5  -4   1    1.76    0.21
  -5  -4   1    1.46    0.19
  -4  -4   1    3.74    0.32
  -4  -4   1    3.55    0.30
  -4  -4   1    3.93    0.33
  -4  -4   1    3.84    0.35
  -3  -4   1    0.78    0.21
  -3  -4   1    0.90    0.35
  -3  -4   1    0.49    0.14
  -2  -4   1    3.01    0.29
  -2  -4   1    2.85    0.28
  -2  -4   1    2.83    0.29
  -2  -4   1    2.68    0.39
  -2  -4   1    2.95    0.26
  -2  -4   1    3.03    0.41
  -2  -4   1    2.81    0.25
  -1  -4   1    0.37    0.15
  -1  -4   1    0.87    0.26
  -1  -4   1    0.35    0.15
  -1  -4   1    0.49    0.14
  -1  -4   1    0.31    0.19
  -1  -4   1    0.71    0.15
   0  -4   1    2.87    0.31
   0  -4   1    2.32    0.34
   0  -4   1    2.70    0.33
   0  -4   1    3.80    0.39
   1  -4   1  122.07    7.36
   1  -4   1  110.73    7.29
   2  -4   1   15.19    0.99
   2  -4   1   16.56    0.92
   2  -4   1   16.03    1.13
   2  -4   1   14.76    1.07
   3  -4   1   14.49    1.07
   3  -4   1   16.71    0.93
   3  -4   1   13.12    0.91
   3  -4   1   15.85    1.10
   3  -4   1   14.52    0.83
   3  -4   1   13.66    0.81
   3  -4   1   16.64    1.01
   4  -4   1   10.09    0.64
   4  -4   1   10.23    0.81
   4  -4   1   11.28    0.89
   4  -4   1   11.94    0.64
   4  -4   1   11.14    0.88
   4  -4   1   11.19    0.63
   4  -4   1   11.16    0.76
   5  -4   1   24.08    1.32
   5  -4   1   23.00    1.30
   6  -4   1    3.14    0.27
   6  -4   1    3.47    0.29
   7  -4   1    0.03    0.16
  -6  -3   1    2.45    0.25
  -5  -3   1    6.11    0.36
  -5  -3   1    6.56    0.46
  -5  -3   1    5.90    0.43
  -5  -3   1    5.90    0.46
  -4  -3   1   47.30    2.61
  -4  -3   1   51.12    3.07
  -4  -3   1   51.56    3.04
  -4  -3   1   48.31    2.95
  -4  -3   1   45.52    3.14
  -4  -3   1   43.79    3.04
  -3  -3   1   83.14    5.07
  -3  -3   1   83.80    5.04
  -3  -3   1   85.74    5.19
  -3  -3   1   83.15    5.10
  -3  -3   1   76.86    5.36
  -3  -3   1   83.93    4.47
  -3  -3   1   82.49    5.12
  -3  -3   1   82.16    5.22
  -2  -3   1    1.49    0.27
  -1  -3   1  194.32   11.28
  -1  -3   1  185.56   11.70
  -1  -3   1  185.89   11.68
  -1  -3   1  182.24   11.40
   0  -3   1    7.35    0.57
   0  -3   1    7.95    0.57
   0  -3   1    8.09    0.63
   0  -3   1    8.08    0.59
  -1   3  -1   61.50    2.80
  -1   3  -1   57.03    2.79
   1  -3   1   57.83    2.79
   1  -3   1   63.04    3.60
   1  -3   1   63.01    3.32
   1  -3   1   55.63    3.31
   1  -3   1   61.34    3.80
   1  -3   1   57.74    2.79
   1  -3   1   58.41    3.60
   1  -3   1   62.79    3.83
   1  -3   1   64.12    3.73
   2  -3   1  109.44    7.19
   2  -3   1  122.24    7.24
   2  -3   1  119.26    6.33
   2  -3   1  107.70    5.33
   2  -3   1  122.43    6.88
   2  -3   1  107.79    5.33
   3  -3   1    0.03    0.20
   3  -3   1    0.14    0.21
   3  -3   1    0.18    0.20
   4  -3   1   34.89    2.31
   4  -3   1   34.47    2.24
   4  -3   1   36.09    2.06
   5  -3   1   54.00    2.98
   6  -3   1   23.33    1.33
   7  -3   1   20.64    1.18
  -7  -2   1    0.12    0.09
  -6  -2   1    0.73    0.19
  -6  -2   1    0.97    0.13
  -5  -2   1   13.30    0.85
  -5  -2   1   12.72    0.68
  -5  -2   1   11.13    0.95
  -5  -2   1   12.89    0.71
  -5  -2   1   12.39    0.86
  -5  -2   1   11.76    0.80
  -4  -2   1    5.92    0.49
  -4  -2   1    6.97    0.39
  -4  -2   1    7.25    0.62
  -4  -2   1    6.67    0.38
  -4  -2   1    5.74    0.48
  -4  -2   1    6.15    0.46
  -4  -2   1    6.92    0.47
  -4  -2   1    6.99    0.49
  -4  -2   1    6.43    0.48
  -4  -2   1    6.80    0.58
  -3  -2   1   26.60    1.73
  -3  -2   1   27.28    1.66
  -3  -2   1   27.61    1.74
  -3  -2   1   26.05    1.52
   2   2  -1    1.41    0.16
  -2  -2   1    1.62    0.15
  -2  -2   1    1.57    0.18
  -2  -2   1    2.04    0.29
  -2  -2   1    1.69    0.23
  -2  -2   1    1.61    0.15
  -2  -2   1    1.67    0.17
  -2  -2   1    1.83    0.17
  -2  -2   1    1.82    0.18
  -1  -2   1   20.01    1.30
  -1  -2   1   20.41    1.26
  -1  -2   1   19.07    1.26
  -1  -2   1   19.95    1.29
   0  -2   1   53.32    3.41
   0  -2   1   54.72    3.27
   0  -2   1   54.65    3.39
   0  -2   1   52.64    3.31
  -1   2  -1  415.21   17.73
  -1   2  -1  417.17   17.77
   1  -2   1  397.45   17.76
   1  -2   1  344.26   21.18
   1  -2   1  395.77   24.31
   1  -2   1  357.19   24.17
   1  -2   1  394.72   17.72
   1  -2   1  392.91   23.11
   1  -2   1  361.07   23.06
   1  -2   1  395.28   21.27
  -2   2  -1   36.94    1.70
  -2   2  -1   30.43    1.97
  -2   2  -1   36.47    1.70
  -2   2  -1   33.60    2.15
   2  -2   1   35.23    2.25
   2  -2   1   37.19    2.15
   2  -2   1   35.56    1.69
  -3   2  -1    0.19    0.19
  -3   2  -1    0.32    0.20
   3  -2   1    0.06    0.20
   3  -2   1    0.12    0.23
   3  -2   1   -0.06    0.15
   3  -2   1    0.12    0.21
   3  -2   1    0.16    0.20
   4  -2   1    0.10    0.26
   4  -2   1    0.55    0.27
  -6   2  -1   10.72    0.64
  -7   2  -1    9.07    0.51
  -7   2  -1    7.46    0.57
  -8   2  -1    1.12    0.13
  -8   2  -1    1.43    0.12
  -8   2  -1    1.54    0.11
  -6  -1   1    2.54    0.22
  -6  -1   1    2.52    0.29
  -6  -1   1    2.74    0.19
  -5  -1   1   87.75    4.81
  -5  -1   1   83.85    5.57
  -5  -1   1   92.23    4.67
  -5  -1   1   88.06    4.61
  -5  -1   1   82.93    5.31
  -5  -1   1   90.58    5.43
  -5  -1   1   75.48    5.23
  -4  -1   1    1.03    0.12
  -4  -1   1    1.48    0.16
  -4  -1   1    1.07    0.23
  -4  -1   1    1.17    0.18
  -4  -1   1    1.10    0.29
  -4  -1   1    1.11    0.22
  -4  -1   1    0.93    0.11
  -4  -1   1    1.18    0.28
  -3  -1   1   59.47    3.22
  -3  -1   1   54.28    3.57
  -3  -1   1   59.30    3.50
  -3  -1   1   57.50    3.54
   2   1  -1  120.12    5.31
  -2  -1   1  118.92    6.30
  -2  -1   1  110.92    6.85
  -2  -1   1  110.78    5.30
  -2  -1   1  117.47    5.31
  -2  -1   1  107.50    6.99
  -2  -1   1  104.92    6.30
  -2  -1   1  117.04    6.93
  -2  -1   1  124.75    6.86
   1   1  -1   12.04    0.56
   1   1  -1   11.97    0.56
  -1  -1   1   10.08    0.72
  -1  -1   1   11.24    0.56
  -1  -1   1   10.69    0.64
  -1  -1   1   11.16    0.55
  -1  -1   1   11.40    0.73
  -1  -1   1   11.26    0.64
  -1  -1   1   12.36    0.70
  -1  -1   1   11.24    0.76
  -1  -1   1   11.20    0.70
   0   1  -1   19.96    0.85
   0  -1   1   18.76    1.10
   0  -1   1   17.88    1.17
   0  -1   1   18.12    1.17
   0  -1   1   19.23    0.85
   0  -1   1   17.41    1.01
   0  -1   1   19.02    1.10
   0  -1   1   17.31    1.13
   0  -1   1   17.46    1.12
   0  -1   1   17.94    1.01
   0  -1   1   18.55    0.85
  -1   1  -1  267.57   11.95
  -1   1  -1  254.63   15.50
  -1   1  -1  271.88   11.98
  -1   1  -1  229.48   14.22
   1  -1   1  271.74   11.91
   1  -1   1  247.16   15.44
   1  -1   1  253.55   14.27
   1  -1   1  253.10   16.27
   1  -1   1  269.23   11.95
   1  -1   1  278.30   15.55
  -2   1  -1  186.04    8.38
  -2   1  -1  167.73   10.89
  -2   1  -1  182.26    8.38
  -2   1  -1  180.74    9.97
  -2   1  -1  184.41   10.84
   2  -1   1  181.03    9.97
   2  -1   1  179.23   11.34
   2  -1   1  185.84   10.84
   2  -1   1  187.06    8.38
   2  -1   1  183.19    8.38
  -3   1  -1  338.25   17.65
  -3   1  -1  337.42   19.19
  -3   1  -1  322.76   14.82
  -3   1  -1  321.21   19.30
  -3   1  -1  320.36   14.82
   3  -1   1  321.65   14.83
   3  -1   1  315.28   14.83
   3  -1   1  327.53   17.66
   3  -1   1  292.93   20.05
   3  -1   1  320.71   19.19
  -4   1  -1   55.64    3.03
  -4   1  -1   54.78    3.31
  -4   1  -1   49.96    3.27
  -5   1  -1    0.18    0.11
  -5   1  -1    0.29    0.27
  -5   1  -1   -0.03    0.21
  -6   1  -1   37.52    1.94
  -6   1  -1   35.55    1.91
  -6   1  -1   31.73    2.22
  -7   1  -1    0.92    0.14
  -7   1  -1    1.11    0.13
  -7   1  -1    1.01    0.16
  -8   1  -1    4.75    0.28
  -8   0   1    0.07    0.07
  -7   0   1    0.83    0.13
  -7   0   1    0.39    0.14
  -6   0   1    3.20    0.23
  -6   0   1    2.75    0.26
  -6   0   1    2.84    0.26
  -5   0   1   18.14    1.13
  -5   0   1   17.89    0.99
  -5   0   1   18.06    1.25
  -5   0   1   17.80    1.01
  -5   0   1   17.67    1.23
  -4   0   1    0.64    0.22
  -4   0   1    0.44    0.19
  -4   0   1    0.35    0.18
   3   0  -1   20.61    1.10
  -3   0   1   21.64    1.24
  -3   0   1   20.08    1.09
  -3   0   1   23.34    1.36
  -3   0   1   20.55    1.09
  -3   0   1   20.77    1.35
   2   0  -1    3.70    0.29
   2   0  -1    3.13    0.31
   2   0  -1    3.04    0.29
   2   0  -1    3.78    0.31
  -2   0   1    3.82    0.32
  -2   0   1    3.45    0.28
  -2   0   1    3.11    0.29
  -2   0   1    3.33    0.29
  -2   0   1    3.67    0.29
   1   0  -1  492.07   28.32
   1   0  -1  499.52   30.76
   1   0  -1  543.47   23.71
   1   0  -1  565.53   23.73
  -1   0   1  481.64   31.00
  -1   0   1  490.37   30.78
  -1   0   1  495.57   28.32
  -1   0   1  533.69   23.70
  -1   0   1  523.66   30.79
  -1   0   1  535.82   23.72
   0   0  -1  446.87   24.38
   0   0  -1  453.36   26.51
   0   0   1  441.10   24.38
   0   0   1  439.53   26.50
  -1   0  -1  272.32   11.92
  -1   0  -1  247.76   14.22
  -1   0  -1  249.73   15.57
   1   0   1  255.57   15.43
   1   0   1  234.01   14.17
   1   0   1  271.23   11.90
   1   0   1  276.53   11.89
  -2   0  -1   96.96    4.51
  -2   0  -1   96.47    5.35
  -2   0  -1   96.08    5.86
  -2   0  -1   98.23    4.52
  -2   0  -1  102.54    5.82
   2   0   1  101.44    4.53
   2   0   1   93.15    5.82
   2   0   1   90.15    5.35
   2   0   1   99.70    4.52
  -3   0  -1   11.77    0.71
  -3   0  -1   12.15    0.74
  -3   0  -1   13.87    0.87
  -3   0  -1   13.67    0.86
  -3   0  -1   12.91    0.80
   3   0   1   11.91    0.74
  -4   0  -1   -0.19    0.20
  -4   0  -1   -0.03    0.21
  -4   0  -1    0.03    0.24
  -5   0  -1    4.10    0.42
  -5   0  -1    3.95    0.29
  -5   0  -1    3.94    0.32
  -5   0  -1    4.45    0.48
  -5   0  -1    4.40    0.28
  -5   0  -1    4.02    0.28
  -5   0  -1    3.50    0.49
  -6   0  -1   26.16    1.48
  -6   0  -1   25.78    1.48
  -6   0  -1   27.50    1.46
  -6   0  -1   27.26    1.72
  -7   0  -1    2.55    0.24
  -7   0  -1    3.33    0.26
  -7   0  -1    2.67    0.27
  -7   0  -1    3.50    0.22
  -8   1   1    6.47    0.45
  -7   1   1    0.27    0.14
  -6   1   1   27.38    1.46
  -6   1   1   24.68    1.43
  -5   1   1   20.30    1.45
  -5   1   1   19.84    1.19
  -5   1   1   24.20    1.36
  -4   1   1   99.41    6.03
  -4   1   1  102.67    5.55
  -4   1   1   96.26    6.03
   3  -1  -1   91.05    4.26
   3  -1  -1   89.14    5.01
   3  -1  -1   89.51    5.45
   3  -1  -1   90.63    5.67
   3  -1  -1   86.00    4.25
  -3   1   1   84.61    4.24
  -3   1   1   94.32    5.02
  -3   1   1   92.87    5.45
  -3   1   1   90.70    4.26
  -3   1   1   92.77    5.46
   2  -1  -1    7.29    0.56
   2  -1  -1    8.21    0.50
   2  -1  -1    7.67    0.55
   2  -1  -1    7.98    0.48
   2  -1  -1    7.73    0.53
  -2   1   1    7.50    0.52
  -2   1   1    7.62    0.55
  -2   1   1    7.42    0.52
  -2   1   1    7.61    0.50
  -2   1   1    8.02    0.49
   1  -1  -1  351.27   15.43
   1  -1  -1  347.14   20.03
   1  -1  -1  307.43   19.93
   1  -1  -1  314.89   20.97
   1  -1  -1  335.20   18.45
   1  -1  -1  341.85   15.39
  -1   1   1  367.36   15.44
  -1   1   1  345.09   15.41
  -1   1   1  312.84   18.40
  -1   1   1  326.90   19.97
   0  -1  -1  420.70   28.69
   0  -1  -1  424.48   28.83
   0  -1  -1  424.37   25.29
   0  -1  -1  476.87   27.51
   0  -1  -1  503.52   21.17
   0  -1  -1  458.59   27.49
   0  -1  -1  478.13   25.30
   0  -1  -1  471.45   21.16
   0  -1  -1  428.62   28.11
   0  -1  -1  475.98   27.76
   0   1   1  482.83   21.17
   0   1   1  493.11   21.17
  -1  -1  -1   43.56    2.67
  -1  -1  -1   41.40    2.74
  -1  -1  -1   45.04    2.71
  -1  -1  -1   41.95    2.78
  -1  -1  -1   43.94    2.46
  -1  -1  -1   45.05    2.08
   1   1   1   47.67    2.08
   1   1   1   47.13    2.08
  -2  -1  -1  487.09   26.65
  -2  -1  -1  428.98   26.46
  -2  -1  -1  481.20   22.17
  -2  -1  -1  451.03   28.77
  -2  -1  -1  500.50   29.18
  -2  -1  -1  499.48   29.61
  -2  -1  -1  476.86   22.16
  -2  -1  -1  519.25   28.95
   2   1   1  501.48   22.18
   2   1   1  492.17   22.17
  -3  -1  -1    2.40    0.30
  -3  -1  -1    2.23    0.25
  -3  -1  -1    2.20    0.31
  -4  -1  -1  102.70    6.32
  -4  -1  -1  115.27    6.49
  -4  -1  -1  106.50    5.67
  -4  -1  -1  107.50    6.40
  -4  -1  -1  103.57    5.72
  -4  -1  -1  110.68    5.81
  -4  -1  -1  101.41    5.61
  -4  -1  -1   90.56    6.58
  -5  -1  -1   29.96    1.96
  -5  -1  -1   28.17    1.60
  -5  -1  -1   28.35    1.93
  -5  -1  -1   29.45    1.60
  -5  -1  -1   29.34    1.58
  -5  -1  -1   29.03    1.87
  -6  -1  -1    1.19    0.13
  -6  -1  -1    1.26    0.16
  -6  -1  -1    0.98    0.19
  -6  -1  -1    0.86    0.18
  -7  -1  -1    0.02    0.12
  -7  -1  -1   -0.04    0.04
  -7  -1  -1    0.14    0.07
  -7  -1  -1    0.06    0.09
  -8   2   1    0.27    0.11
  -6   2   1    2.87    0.25
   4  -2  -1   64.21    3.81
   4  -2  -1   59.32    3.93
   3  -2  -1   11.65    0.70
   3  -2  -1   12.73    0.78
   3  -2  -1   12.34    0.74
   3  -2  -1   12.62    0.86
   3  -2  -1   13.38    0.85
  -3   2   1   11.75    0.73
  -3   2   1   11.02    0.79
  -3   2   1   12.23    0.74
   2  -2  -1    2.50    0.30
   2  -2  -1    2.43    0.25
   2  -2  -1    1.99    0.24
   2  -2  -1    2.89    0.30
   2  -2  -1    2.55    0.26
  -2   2   1    2.32    0.25
  -2   2   1    2.36    0.25
  -2   2   1    1.98    0.25
  -2   2   1    2.54    0.29
   1  -2  -1   45.49    2.95
   1  -2  -1   56.41    3.30
   1  -2  -1   53.30    2.96
   1  -2  -1   48.72    3.34
   1  -2  -1   54.28    2.50
   1  -2  -1   57.13    3.22
   1  -2  -1   54.44    3.39
   1  -2  -1   50.84    3.21
   1  -2  -1   53.71    2.50
  -1   2   1   56.53    2.51
  -1   2   1   58.23    2.51
   0  -2  -1  104.33    5.77
   0  -2  -1  103.45    4.83
   0  -2  -1  105.43    6.59
   0  -2  -1   96.63    6.55
   0  -2  -1  109.08    4.83
   0  -2  -1  105.51    6.42
   0  -2  -1  104.69    6.26
   0  -2  -1  108.35    6.34
   0  -2  -1  109.74    6.27
   0  -2  -1   98.24    5.76
   0   2   1  106.47    4.83
   0   2   1  107.99    4.83
  -1  -2  -1    7.72    0.55
  -1  -2  -1    7.35    0.48
  -1  -2  -1    7.68    0.44
  -1  -2  -1    7.34    0.52
  -1  -2  -1    7.31    0.39
  -1  -2  -1    6.86    0.56
  -1  -2  -1    7.07    0.44
  -1  -2  -1    7.15    0.40
  -1  -2  -1    7.86    0.48
   1   2   1    7.28    0.40
   1   2   1    7.66    0.40
  -2  -2  -1    8.32    0.57
  -2  -2  -1    7.52    0.47
  -2  -2  -1    7.73    0.52
  -2  -2  -1    9.75    0.54
  -2  -2  -1    9.50    0.58
  -2  -2  -1    9.70    0.66
  -2  -2  -1    8.50    0.66
  -3  -2  -1   19.46    1.28
  -3  -2  -1   20.77    1.18
  -3  -2  -1   20.44    1.36
  -3  -2  -1   20.85    1.38
  -4  -2  -1    5.39    0.40
  -4  -2  -1    5.22    0.38
  -4  -2  -1    5.22    0.55
  -4  -2  -1    5.44    0.40
  -4  -2  -1    5.32    0.32
  -4  -2  -1    5.30    0.54
  -4  -2  -1    5.16    0.30
  -4  -2  -1    4.69    0.39
  -4  -2  -1    4.31    0.43
  -5  -2  -1   11.88    0.78
  -5  -2  -1   10.57    0.74
  -5  -2  -1   11.69    0.80
  -5  -2  -1   10.20    0.90
  -5  -2  -1   11.58    0.66
  -5  -2  -1   11.62    0.63
  -6  -2  -1    3.48    0.25
  -6  -2  -1    3.58    0.33
  -6  -2  -1    4.31    0.31
  -7  -2  -1    0.21    0.08
  -7  -2  -1    0.30    0.07
  -8   3   1    1.22    0.13
   6  -3  -1    8.55    0.54
   5  -3  -1    6.58    0.44
   4  -3  -1   32.45    2.03
   4  -3  -1   30.90    2.10
   3  -3  -1   31.95    1.84
   3  -3  -1   32.65    2.00
   3  -3  -1   31.04    2.10
   2  -3  -1   18.64    1.00
   2  -3  -1   19.70    1.29
   2  -3  -1   18.03    1.02
   2  -3  -1   20.45    1.34
   2  -3  -1   20.50    1.15
   2  -3  -1   20.85    1.25
   1  -3  -1   21.57    1.23
   1  -3  -1   18.20    1.12
   1  -3  -1   21.43    1.13
   1  -3  -1   19.88    0.98
   1  -3  -1   17.76    1.27
   1  -3  -1   21.37    1.32
   1  -3  -1   21.18    1.34
   1  -3  -1   18.89    0.97
   1  -3  -1   18.58    1.22
  -1   3   1   20.17    0.98
  -1   3   1   20.62    0.98
   0  -3  -1    1.27    0.18
   0  -3  -1    1.45    0.25
   0  -3  -1    1.32    0.23
  -1  -3  -1   82.03    5.48
  -1  -3  -1   91.20    5.37
  -1  -3  -1   87.94    5.31
  -2  -3  -1   70.66    4.42
  -2  -3  -1   72.68    4.46
  -3  -3  -1   47.53    2.65
  -3  -3  -1   44.46    3.18
  -3  -3  -1   47.33    2.99
  -3  -3  -1   49.68    3.09
  -3  -3  -1   48.81    3.10
  -3  -3  -1   50.88    3.08
  -3  -3  -1   53.67    3.13
  -4  -3  -1   41.60    2.38
  -4  -3  -1   32.17    2.48
  -4  -3  -1   37.79    2.53
  -4  -3  -1   34.84    2.54
  -4  -3  -1   43.03    2.47
  -4  -3  -1   39.60    2.10
  -5  -3  -1    3.29    0.32
  -5  -3  -1    3.13    0.31
  -5  -3  -1    3.42    0.29
  -5  -3  -1    3.41    0.22
  -6  -3  -1    1.18    0.09
  -6  -3  -1    0.87    0.13
  -6  -3  -1    1.02    0.15
   8  -4  -1    3.29    0.23
   6  -4  -1   14.54    0.83
   5  -4  -1    4.89    0.32
   5  -4  -1    4.54    0.30
   5  -4  -1    3.95    0.54
   5  -4  -1    5.14    0.56
   4  -4  -1   11.90    0.69
   4  -4  -1   12.89    0.85
   4  -4  -1   12.56    0.71
   4  -4  -1   12.52    0.91
   4  -4  -1   12.15    0.96
   4  -4  -1   11.92    0.70
   3  -4  -1   59.51    3.55
   3  -4  -1   69.58    3.96
   3  -4  -1   65.83    3.53
   3  -4  -1   65.27    4.19
   2  -4  -1   -0.05    0.13
   2  -4  -1   -0.08    0.21
   1  -4  -1    0.22    0.24
   1  -4  -1    0.21    0.08
   1  -4  -1    0.23    0.09
   1  -4  -1    0.24    0.08
   1  -4  -1    0.33    0.09
   1  -4  -1    0.39    0.24
   0  -4  -1    3.52    0.44
   0  -4  -1    2.55    0.36
  -1  -4  -1    0.09    0.04
  -1  -4  -1    0.15    0.15
  -1  -4  -1   -0.11    0.14
  -1  -4  -1    0.03    0.14
  -1  -4  -1   -0.10    0.26
  -1  -4  -1    0.02    0.13
  -1  -4  -1    0.04    0.15
  -2  -4  -1   55.87    3.85
  -2  -4  -1   61.17    3.91
  -2  -4  -1   62.59    3.78
  -2  -4  -1   57.79    3.24
  -2  -4  -1   60.40    3.69
  -2  -4  -1   60.15    3.67
  -2  -4  -1   59.30    3.76
  -2  -4  -1   61.38    3.80
  -2  -4  -1   60.74    3.79
  -3  -4  -1   37.77    2.67
  -3  -4  -1   45.47    2.74
  -3  -4  -1   41.36    2.64
  -3  -4  -1   43.07    2.56
  -3  -4  -1   37.55    2.69
  -3  -4  -1   41.79    2.26
  -3  -4  -1   42.97    2.66
  -4  -4  -1    3.33    0.20
  -4  -4  -1    3.69    0.34
  -4  -4  -1    3.71    0.33
  -4  -4  -1    3.46    0.32
  -5  -4  -1   12.83    0.87
  -5  -4  -1   13.36    0.84
  -5  -4  -1   13.29    0.90
   7  -5  -1    1.57    0.17
   6  -5  -1    1.15    0.16
   6  -5  -1    1.14    0.22
   6  -5  -1    1.32    0.18
   5  -5  -1   15.69    0.91
   5  -5  -1   14.89    0.81
   5  -5  -1   11.48    1.11
   5  -5  -1   14.67    0.83
   4  -5  -1    2.68    0.22
   4  -5  -1    2.50    0.19
   4  -5  -1    1.57    0.30
   4  -5  -1    2.14    0.41
   4  -5  -1    2.33    0.26
   4  -5  -1    2.77    0.25
   4  -5  -1    2.34    0.35
   3  -5  -1    1.13    0.34
   3  -5  -1    2.10    0.27
   3  -5  -1    2.18    0.24
   3  -5  -1    1.94    0.28
   3  -5  -1    1.98    0.17
   3  -5  -1    1.88    0.15
   3  -5  -1    1.84    0.25
   3  -5  -1    2.07    0.26
   2  -5  -1   46.13    2.83
   2  -5  -1   43.38    2.38
   2  -5  -1   41.47    2.34
   2  -5  -1   45.03    2.86
   2  -5  -1   39.77    2.58
   2  -5  -1   46.40    2.79
   2  -5  -1   43.64    2.65
   2  -5  -1   40.23    2.31
   2  -5  -1   42.34    2.58
   1  -5  -1   14.12    0.84
   1  -5  -1   16.64    1.04
   1  -5  -1   16.16    1.15
   1  -5  -1   16.21    1.02
   1  -5  -1   15.81    1.13
   1  -5  -1   15.49    0.98
   1  -5  -1   14.83    1.04
   1  -5  -1   13.60    0.95
   0  -5  -1    8.71    0.72
   0  -5  -1    9.22    0.63
   0  -5  -1    8.34    0.61
   0  -5  -1    9.02    0.60
   0  -5  -1    8.00    0.58
   0  -5  -1    8.46    0.58
   0  -5  -1    7.64    0.71
  -1  -5  -1   13.37    0.91
  -1  -5  -1   11.43    0.85
  -1  -5  -1   14.97    0.92
  -1  -5  -1   14.22    0.87
  -1  -5  -1   12.63    0.88
  -1  -5  -1   15.00    0.93
  -1  -5  -1   10.82    0.98
  -2  -5  -1    0.70    0.22
  -2  -5  -1    0.31    0.25
  -2  -5  -1    0.58    0.20
  -2  -5  -1    0.88    0.18
  -2  -5  -1    0.51    0.16
  -2  -5  -1    0.67    0.20
  -3  -5  -1    7.30    0.57
  -3  -5  -1    7.67    0.55
  -3  -5  -1    8.01    0.56
  -4  -5  -1    1.34    0.20
  -4  -5  -1    1.46    0.21
  -5  -5  -1    7.33    0.49
   7  -6  -1   13.31    0.82
   6  -6  -1    4.94    0.35
   6  -6  -1    4.83    0.33
   5  -6  -1    0.21    0.13
   5  -6  -1    0.20    0.09
   5  -6  -1    0.22    0.15
   4  -6  -1    1.27    0.20
   4  -6  -1    1.02    0.20
   4  -6  -1    0.82    0.10
   4  -6  -1    1.33    0.16
   3  -6  -1    3.72    0.33
   3  -6  -1    2.70    0.48
   3  -6  -1    3.38    0.29
   3  -6  -1    3.48    0.33
   3  -6  -1    3.33    0.22
   2  -6  -1   10.50    0.63
   2  -6  -1   12.41    0.80
   2  -6  -1   12.06    0.82
   2  -6  -1    9.85    0.94
   2  -6  -1   11.56    0.76
   2  -6  -1   10.85    0.73
   1  -6  -1   24.32    1.48
   1  -6  -1   24.71    1.53
   1  -6  -1   24.97    1.56
   1  -6  -1   19.15    1.64
   1  -6  -1   22.11    1.43
   1  -6  -1   24.24    1.58
   0  -6  -1    3.03    0.33
   0  -6  -1    2.67    0.28
   0  -6  -1    2.76    0.29
   0  -6  -1    2.91    0.31
  -1  -6  -1   23.49    1.53
  -1  -6  -1   22.61    1.50
  -1  -6  -1   22.62    1.43
  -1  -6  -1   21.89    1.49
  -2  -6  -1   -0.05    0.10
  -2  -6  -1    0.17    0.15
  -2  -6  -1    0.18    0.19
  -2  -6  -1    0.10    0.20
  -3  -6  -1    8.25    0.59
  -3  -6  -1    8.57    0.58
   6  -7  -1    2.99    0.24
   5  -7  -1    6.61    0.52
   5  -7  -1    8.32    0.52
   5  -7  -1    8.37    0.45
   4  -7  -1    5.48    0.41
   4  -7  -1    4.75    0.40
   4  -7  -1    5.65    0.32
   4  -7  -1    5.13    0.42
   3  -7  -1    0.86    0.08
   3  -7  -1    0.69    0.19
   3  -7  -1    0.93    0.20
   3  -7  -1    0.83    0.15
   2  -7  -1    9.08    0.65
   2  -7  -1    9.32    0.63
   2  -7  -1    8.58    0.60
   1  -7  -1    1.36    0.25
   1  -7  -1    1.05    0.21
   1  -7  -1    1.33    0.19
   0  -7  -1    3.40    0.30
   0  -7  -1    3.93    0.30
   0  -7  -1    3.02    0.29
  -1  -7  -1    2.88    0.27
  -1  -7  -1    2.84    0.25
  -1  -7  -1    2.58    0.28
  -2  -7  -1    0.05    0.11
  -2  -7  -1   -0.05    0.11
   5  -8  -1    0.16    0.08
   4  -8  -1   -0.01    0.09
   4  -8  -1    0.11    0.13
   3  -8  -1    0.38    0.16
   3  -8  -1    0.44    0.15
   2  -8  -1    2.56    0.26
   2  -8  -1    3.06    0.25
   1  -8  -1   -0.10    0.12
   1  -8  -1   -0.05    0.10
   0  -8  -1    5.59    0.39
   0  -8   2    0.09    0.11
   0  -8   2    0.14    0.13
   1  -8   2    0.02    0.11
   1  -8   2    0.10    0.10
   2  -8   2    5.08    0.36
   2  -8   2    4.16    0.32
   3  -8   2    2.01    0.20
   4  -8   2    0.68    0.13
   5  -8   2    2.08    0.18
  -2  -7   2    8.98    0.58
  -2  -7   2    7.88    0.57
  -1  -7   2   10.57    0.74
  -1  -7   2   12.33    0.76
  -1  -7   2   10.23    0.75
   0  -7   2    3.86    0.34
   0  -7   2    3.67    0.31
   0  -7   2    3.57    0.31
   0  -7   2    4.06    0.30
   1  -7   2   11.98    0.73
   1  -7   2   10.71    0.76
   1  -7   2    9.64    0.77
   1  -7   2   10.93    0.71
   2  -7   2    7.02    0.51
   2  -7   2    7.49    0.51
   2  -7   2    6.74    0.52
   3  -7   2    0.31    0.15
   3  -7   2    0.17    0.05
   3  -7   2    0.17    0.19
   3  -7   2    0.30    0.18
   4  -7   2    4.20    0.37
   4  -7   2    5.40    0.36
   5  -7   2    0.49    0.14
   6  -7   2    0.09    0.10
  -4  -6   2    3.51    0.26
  -4  -6   2    3.52    0.29
  -3  -6   2    2.96    0.30
  -3  -6   2    3.03    0.25
  -3  -6   2    3.12    0.26
  -2  -6   2   23.77    1.41
  -2  -6   2   19.43    1.43
  -2  -6   2   21.15    1.46
  -2  -6   2   23.09    1.37
  -1  -6   2    1.30    0.19
  -1  -6   2    1.38    0.22
  -1  -6   2    1.64    0.21
  -1  -6   2    1.58    0.23
  -1  -6   2    1.43    0.20
  -1  -6   2    1.50    0.21
  -1  -6   2    1.24    0.17
  -1  -6   2    1.47    0.18
   0  -6   2    2.54    0.28
   0  -6   2    2.55    0.28
   0  -6   2    2.54    0.29
   0  -6   2    1.97    0.25
   0  -6   2    2.59    0.26
   0  -6   2    2.36    0.29
   0  -6   2    2.64    0.24
   1  -6   2   21.94    1.28
   1  -6   2   20.05    1.39
   1  -6   2   17.97    1.48
   1  -6   2   22.04    1.31
   1  -6   2   22.11    1.38
   1  -6   2   19.23    1.35
   2  -6   2   12.07    0.70
   2  -6   2   13.49    0.82
   2  -6   2   13.13    0.89
   2  -6   2   13.26    0.84
   2  -6   2   11.30    1.01
   2  -6   2   12.36    0.87
   3  -6   2    7.14    0.47
   3  -6   2    6.83    0.49
   3  -6   2    6.94    0.53
   3  -6   2    5.58    0.68
   3  -6   2    6.33    0.39
   4  -6   2    4.33    0.36
   4  -6   2    4.27    0.37
   4  -6   2    4.55    0.28
   4  -6   2    4.09    0.25
   5  -6   2    7.35    0.45
   5  -6   2    7.54    0.52
   5  -6   2    7.14    0.42
   6  -6   2    4.18    0.31
   7  -6   2    0.05    0.08
  -5  -5   2    0.95    0.13
  -5  -5   2    1.08    0.13
  -4  -5   2    4.34    0.35
  -4  -5   2    4.32    0.35
  -3  -5   2   24.08    1.65
  -3  -5   2   25.40    1.60
  -3  -5   2   26.15    1.63
  -3  -5   2   24.09    1.56
  -2  -5   2   12.60    0.77
  -2  -5   2   11.25    0.77
  -2  -5   2    9.79    0.89
  -2  -5   2   11.29    0.80
  -2  -5   2   11.47    0.76
  -2  -5   2   12.00    0.80
  -1  -5   2   49.24    3.03
  -1  -5   2   46.54    3.07
  -1  -5   2   49.17    2.93
  -1  -5   2   44.76    2.91
  -1  -5   2   50.07    2.92
  -1  -5   2   49.30    3.11
  -1  -5   2   49.48    3.00
  -1  -5   2   41.48    2.83
   0  -5   2   25.50    1.51
   0  -5   2   23.73    1.51
   0  -5   2   25.12    1.61
   0  -5   2   22.96    1.54
   0  -5   2   23.90    1.67
   0  -5   2   25.36    1.59
   0  -5   2   23.47    1.50
   0  -5   2   24.44    1.47
   0  -5   2   23.00    1.57
   1  -5   2    8.22    0.53
   1  -5   2    7.54    0.55
   1  -5   2    8.57    0.71
   1  -5   2    7.10    0.53
   1  -5   2    8.25    0.58
   1  -5   2    7.81    0.56
   1  -5   2    8.43    0.55
   1  -5   2    7.37    0.43
   2  -5   2    6.83    0.50
   2  -5   2    6.39    0.37
   2  -5   2    7.41    0.65
   2  -5   2    5.70    0.44
   2  -5   2    6.51    0.45
   2  -5   2    6.32    0.49
   2  -5   2    6.58    0.47
   3  -5   2    0.71    0.32
   3  -5   2    0.62    0.18
   3  -5   2    0.42    0.10
   3  -5   2    0.45    0.18
   3  -5   2    0.49    0.16
   3  -5   2    0.37    0.17
   3  -5   2    0.44    0.07
   3  -5   2    0.35    0.18
   3  -5   2    0.16    0.16
   4  -5   2   21.27    1.37
   4  -5   2   19.05    1.34
   4  -5   2   22.02    1.20
   4  -5   2   21.97    1.57
   4  -5   2   19.20    1.41
   4  -5   2   23.79    1.32
   4  -5   2   22.96    1.33
   4  -5   2   22.74    1.18
   5  -5   2    6.31    0.46
   5  -5   2    6.11    0.41
   5  -5   2    6.27    0.37
   5  -5   2    6.49    0.39
   6  -5   2   15.35    0.89
   6  -5   2   16.15    0.92
   6  -5   2   16.70    1.00
   6  -5   2   15.72    0.89
   7  -5   2    0.90    0.15
   7  -5   2    0.91    0.09
   7  -5   2    0.80    0.11
   8  -5   2    2.49    0.17
  -6  -4   2    1.93    0.20
  -5  -4   2    2.25    0.26
  -5  -4   2    2.00    0.23
  -4  -4   2    0.26    0.14
  -4  -4   2    0.29    0.14
  -4  -4   2    0.12    0.14
  -4  -4   2    0.27    0.16
  -3  -4   2    1.08    0.19
  -3  -4   2    0.84    0.35
  -3  -4   2    1.70    0.24
  -3  -4   2    1.62    0.24
  -3  -4   2    1.63    0.24
  -3  -4   2    1.20    0.23
  -2  -4   2    0.62    0.17
  -2  -4   2    0.65    0.29
  -2  -4   2    0.62    0.16
  -2  -4   2    0.27    0.16
  -2  -4   2    0.41    0.12
  -2  -4   2    0.71    0.17
  -2  -4   2    0.25    0.14
  -1  -4   2   34.24    2.20
  -1  -4   2   35.33    2.21
  -1  -4   2   35.58    2.28
  -1  -4   2   34.78    2.28
  -1  -4   2   35.01    2.20
  -1  -4   2   34.00    2.22
  -1  -4   2   34.53    2.14
   0  -4   2   94.98    6.03
   0  -4   2   95.94    6.26
   0  -4   2  105.13    6.31
   0  -4   2  101.78    6.12
   1  -4   2   83.35    5.17
   1  -4   2   79.04    5.12
   2  -4   2   16.04    1.01
   2  -4   2   15.13    1.12
   2  -4   2   17.46    0.94
   2  -4   2   14.77    1.15
   3  -4   2   16.92    1.15
   3  -4   2   14.64    0.85
   3  -4   2   15.80    1.13
   3  -4   2   16.39    0.95
   3  -4   2   17.19    1.04
   3  -4   2   14.71    0.96
   3  -4   2   14.28    0.86
   4  -4   2   14.47    0.83
   4  -4   2   14.56    0.84
   4  -4   2   14.57    0.92
   4  -4   2   15.54    1.11
   4  -4   2   14.18    0.84
   4  -4   2   16.04    1.14
   4  -4   2   15.27    0.96
   4  -4   2   14.61    1.05
   5  -4   2   20.78    1.28
   5  -4   2   20.73    1.18
   5  -4   2   17.89    1.43
   5  -4   2   23.05    1.17
   5  -4   2   22.19    1.37
   6  -4   2    0.55    0.17
   6  -4   2    0.25    0.16
   6  -4   2    0.21    0.13
   7  -4   2    0.38    0.13
  -8   4  -2    2.82    0.21
   8  -4   2    2.98    0.19
  -6  -3   2    2.96    0.28
  -6  -3   2    2.48    0.21
  -5  -3   2   15.26    0.98
  -5  -3   2   14.69    0.84
  -5  -3   2   15.75    1.02
  -4  -3   2    2.04    0.30
  -4  -3   2    1.48    0.42
  -4  -3   2    2.74    0.19
  -4  -3   2    3.40    0.28
  -3  -3   2    8.07    0.54
  -3  -3   2    8.94    0.56
  -3  -3   2    8.34    0.54
  -3  -3   2    7.64    0.56
  -3  -3   2    7.54    0.44
  -3  -3   2    6.36    0.55
  -3  -3   2    7.87    0.66
  -2  -3   2   57.40    3.40
  -2  -3   2   52.27    3.40
  -1  -3   2    4.45    0.42
  -1  -3   2    4.73    0.43
  -1  -3   2    5.80    0.44
  -1  -3   2    5.13    0.48
   0  -3   2    8.22    0.59
   0  -3   2    8.98    0.67
   0  -3   2    8.33    0.63
   0  -3   2    8.28    0.62
  -1   3  -2    0.22    0.10
  -1   3  -2   -0.02    0.09
   1  -3   2    0.13    0.21
   1  -3   2    0.04    0.09
   1  -3   2    0.22    0.11
   1  -3   2    0.18    0.20
   1  -3   2   -0.13    0.08
   1  -3   2   -0.07    0.09
   1  -3   2    0.00    0.07
   1  -3   2   -0.01    0.10
   2  -3   2    6.73    0.46
   2  -3   2    5.98    0.41
   2  -3   2    7.42    0.57
   2  -3   2    6.88    0.50
   2  -3   2    6.15    0.44
   2  -3   2    7.43    0.56
   3  -3   2   96.28    5.75
   3  -3   2   96.42    6.03
   3  -3   2   92.98    5.29
   4  -3   2    0.68    0.25
   4  -3   2    1.03    0.25
   4  -3   2    0.95    0.26
   5  -3   2    2.30    0.23
   6  -3   2    9.11    0.59
  -7   3  -2    6.59    0.41
   7  -3   2    5.85    0.42
  -8   3  -2    1.11    0.13
   8  -3   2    1.04    0.12
  -7  -2   2    6.02    0.42
  -6  -2   2    0.17    0.12
  -5  -2   2    6.53    0.36
  -5  -2   2    6.63    0.49
  -5  -2   2    5.84    0.47
  -5  -2   2    5.89    0.62
  -5  -2   2    6.23    0.45
  -5  -2   2    6.20    0.38
  -4  -2   2    5.80    0.32
  -4  -2   2    5.59    0.43
  -4  -2   2    5.31    0.45
  -4  -2   2    5.78    0.56
  -4  -2   2    4.75    0.41
  -4  -2   2    5.79    0.41
  -4  -2   2    5.71    0.43
  -4  -2   2    6.03    0.41
  -3  -2   2    6.19    0.40
  -3  -2   2    5.81    0.51
  -3  -2   2    5.37    0.46
  -3  -2   2    5.72    0.43
   2   2  -2    1.57    0.17
  -2  -2   2    1.85    0.19
  -2  -2   2    2.03    0.21
  -2  -2   2    1.82    0.16
  -2  -2   2    2.17    0.18
  -2  -2   2    1.81    0.18
  -2  -2   2    1.68    0.16
  -2  -2   2    1.97    0.17
  -2  -2   2    2.20    0.29
  -1  -2   2   32.47    1.96
  -1  -2   2   31.56    2.03
  -1  -2   2   29.72    1.96
  -1  -2   2   33.14    2.04
   0  -2   2   11.74    0.78
   0  -2   2   12.57    0.83
   0  -2   2   12.64    0.85
   0  -2   2   12.37    0.80
  -2   2  -2    3.98    0.37
  -2   2  -2    5.07    0.38
  -2   2  -2    4.76    0.40
  -2   2  -2    5.02    0.39
   2  -2   2    4.94    0.39
   2  -2   2    5.37    0.42
   2  -2   2    4.41    0.33
   2  -2   2    5.15    0.40
   2  -2   2    5.28    0.45
  -3   2  -2   17.32    1.00
   3  -2   2   16.91    0.98
   3  -2   2   19.27    1.21
   3  -2   2   18.29    1.22
   3  -2   2   19.36    1.11
   3  -2   2   17.17    1.00
   4  -2   2    7.42    0.60
   4  -2   2    6.36    0.58
  -6   2  -2   15.73    0.91
  -7   2  -2    1.30    0.17
  -8   2  -2    1.14    0.13
  -8   2  -2    1.23    0.10
  -8   2  -2    1.26    0.11
  -7  -1   2    1.38    0.17
  -6  -1   2    9.00    0.54
  -6  -1   2    9.17    0.65
  -6  -1   2    9.11    0.52
  -5  -1   2    4.12    0.25
  -5  -1   2    3.62    0.34
  -5  -1   2    2.73    0.40
  -5  -1   2    4.80    0.42
  -5  -1   2    4.05    0.48
  -5  -1   2    3.83    0.31
  -4  -1   2   19.78    1.14
  -4  -1   2   21.62    1.38
  -4  -1   2   19.55    1.33
  -4  -1   2   19.99    1.12
  -4  -1   2   20.97    1.36
  -4  -1   2   22.33    1.35
  -4  -1   2   19.64    1.14
  -4  -1   2   21.74    1.23
  -3  -1   2   25.57    1.50
  -3  -1   2   23.55    1.53
  -3  -1   2   22.03    1.52
  -3  -1   2   24.28    1.37
   2   1  -2   22.27    1.03
   2   1  -2   20.90    1.02
  -2  -1   2   22.91    1.28
  -2  -1   2   20.68    1.17
  -2  -1   2   17.53    1.16
  -2  -1   2   20.52    1.30
  -2  -1   2   20.38    1.01
  -2  -1   2   20.24    1.01
  -2  -1   2   19.95    1.27
  -2  -1   2   18.91    1.29
   1   1  -2    4.44    0.27
   1   1  -2    4.68    0.27
  -1  -1   2    4.19    0.31
  -1  -1   2    3.41    0.30
  -1  -1   2    4.16    0.26
  -1  -1   2    4.30    0.38
  -1  -1   2    4.27    0.26
  -1  -1   2    4.19    0.29
  -1  -1   2    4.26    0.34
  -1  -1   2    4.31    0.31
  -1  -1   2    3.92    0.28
   0   1  -2    1.05    0.11
   0   1  -2    1.01    0.11
   0  -1   2    0.97    0.11
   0  -1   2    0.85    0.12
   0  -1   2    1.04    0.11
   0  -1   2    0.90    0.11
   0  -1   2    0.82    0.13
   0  -1   2    0.95    0.15
   0  -1   2    1.24    0.17
   0  -1   2    0.92    0.10
   0  -1   2    1.12    0.13
  -1   1  -2   31.48    1.86
  -1   1  -2   35.58    1.59
   1  -1   2   35.81    1.59
   1  -1   2   34.13    1.59
   1  -1   2   32.55    1.86
   1  -1   2   31.46    2.12
   1  -1   2   34.05    2.03
  -2   1  -2    9.79    0.64
  -2   1  -2    9.32    0.64
  -2   1  -2   10.98    0.59
  -2   1  -2   10.34    0.69
  -2   1  -2   10.50    0.60
   2  -1   2    9.94    0.69
   2  -1   2   10.96    0.58
   2  -1   2    9.75    0.65
   2  -1   2   10.78    0.70
   2  -1   2    9.94    0.61
  -3   1  -2   15.25    0.85
  -3   1  -2   15.66    0.94
  -3   1  -2   15.05    0.86
  -3   1  -2   14.76    0.98
  -3   1  -2   16.74    1.05
   3  -1   2   16.03    0.88
   3  -1   2   15.57    0.95
   3  -1   2   14.02    1.01
   3  -1   2   16.08    1.05
   3  -1   2   15.23    0.87
  -4   1  -2   70.11    3.84
  -4   1  -2   66.40    4.19
  -5   1  -2    0.09    0.22
  -5   1  -2    0.17    0.24
  -5   1  -2    0.18    0.14
  -6   1  -2    2.67    0.23
  -6   1  -2    2.64    0.25
  -6   1  -2    2.64    0.25
  -7   1  -2    2.58    0.19
  -7   1  -2    2.69    0.22
  -8   1  -2    0.14    0.05
  -8   1  -2    0.16    0.07
  -8   0   2    0.33    0.08
  -7   0   2    1.34    0.17
  -6   0   2   36.68    2.30
  -6   0   2   35.86    1.95
  -6   0   2   35.22    1.98
  -5   0   2   37.73    2.07
  -5   0   2   36.26    2.39
  -5   0   2   37.10    2.06
  -5   0   2   36.27    2.03
  -5   0   2   37.96    2.20
  -5   0   2   39.92    2.41
  -4   0   2    3.30    0.37
  -4   0   2    3.57    0.40
  -4   0   2    3.79    0.36
   3   0  -2  303.93   21.63
   3   0  -2  351.83   15.98
  -3   0   2  337.17   15.98
  -3   0   2  390.25   20.93
  -3   0   2  356.41   19.07
  -3   0   2  335.37   15.97
  -3   0   2  358.45   20.93
   2   0  -2   30.01    1.79
   2   0  -2   34.28    1.55
   2   0  -2   29.51    1.94
   2   0  -2   33.13    1.54
  -2   0   2   30.94    1.96
  -2   0   2   31.04    1.53
  -2   0   2   33.08    1.95
  -2   0   2   32.57    1.54
  -2   0   2   32.04    1.79
   1   0  -2   24.35    1.46
   1   0  -2   25.72    1.15
   1   0  -2   22.62    1.34
   1   0  -2   25.43    1.15
  -1   0   2   21.43    1.52
  -1   0   2   23.69    1.15
  -1   0   2   24.25    1.15
  -1   0   2   22.88    1.34
  -1   0   2   24.97    1.46
   0   0  -2    1.11    0.16
   0   0  -2    1.19    0.14
   0   0  -2    0.90    0.13
   0   0  -2    1.04    0.16
   0   0  -2    0.84    0.12
   0   0   2    1.19    0.14
   0   0   2    1.02    0.13
   0   0   2    1.03    0.13
   0   0   2    1.14    0.16
   0   0   2    0.98    0.16
  -1   0  -2   11.63    0.58
  -1   0  -2   10.54    0.63
  -1   0  -2   11.02    0.70
  -1   0  -2   11.55    0.57
  -1   0  -2   10.53    0.69
   1   0   2    9.95    0.70
   1   0   2   11.43    0.57
   1   0   2    9.97    0.64
   1   0   2   11.08    0.58
  -2   0  -2    0.24    0.17
  -2   0  -2    0.09    0.15
  -2   0  -2    0.19    0.17
  -2   0  -2    0.03    0.15
  -2   0  -2    0.07    0.18
   2   0   2    0.15    0.19
   2   0   2    0.07    0.20
   2   0   2   -0.04    0.18
   2   0   2   -0.05    0.18
  -3   0  -2   15.67    0.90
  -3   0  -2   14.77    0.96
  -3   0  -2   13.27    0.81
  -3   0  -2   15.04    0.98
   3   0   2   13.47    0.84
  -4   0  -2    9.60    0.70
  -4   0  -2    9.82    0.67
  -4   0  -2    9.36    0.74
  -5   0  -2   23.43    1.56
  -5   0  -2   24.79    1.35
  -5   0  -2   25.49    1.66
  -5   0  -2   24.02    1.47
  -5   0  -2   23.40    1.35
  -5   0  -2   23.92    1.63
  -5   0  -2   24.64    1.33
  -6   0  -2    2.10    0.23
  -6   0  -2    2.01    0.19
  -6   0  -2    2.01    0.18
  -6   0  -2    1.90    0.18
  -7   0  -2    8.21    0.60
  -7   0  -2    9.36    0.62
  -7   0  -2    9.05    0.53
  -8   1   2    3.01    0.24
  -7   1   2   15.61    0.89
  -7   1   2   16.49    1.06
  -6   1   2   20.23    1.11
  -6   1   2   18.93    1.09
  -5   1   2    1.32    0.15
  -5   1   2    1.30    0.32
  -5   1   2    1.17    0.27
  -4   1   2   15.00    1.04
  -4   1   2   15.89    0.98
  -4   1   2   14.64    1.01
   3  -1  -2    0.08    0.17
   3  -1  -2    0.22    0.15
   3  -1  -2   -0.25    0.20
   3  -1  -2    0.04    0.18
   3  -1  -2    0.19    0.14
  -3   1   2    0.10    0.13
  -3   1   2    0.23    0.18
  -3   1   2    0.13    0.20
  -3   1   2    0.13    0.16
  -3   1   2    0.25    0.18
   2  -1  -2   18.77    0.91
   2  -1  -2   17.32    1.02
   2  -1  -2   16.89    1.10
   2  -1  -2   17.72    0.90
  -2   1   2   17.29    0.91
  -2   1   2   17.53    0.90
  -2   1   2   16.80    1.02
  -2   1   2   16.47    1.10
   1  -1  -2  773.52   34.90
   1  -1  -2  786.52   34.90
   1  -1  -2  741.25   46.25
   1  -1  -2  785.62   45.36
   1  -1  -2  742.20   41.72
  -1   1   2  684.48   41.67
  -1   1   2  806.82   34.90
  -1   1   2  781.79   34.90
  -1   1   2  740.46   45.32
   0  -1  -2    1.32    0.17
   0  -1  -2    1.46    0.18
   0  -1  -2    1.32    0.14
   0  -1  -2    1.33    0.15
   0  -1  -2    1.15    0.17
   0  -1  -2    1.32    0.14
   0  -1  -2    1.20    0.16
   0   1   2    1.26    0.14
   0   1   2    1.24    0.14
   0   1   2    1.10    0.16
  -1  -1  -2  262.01   11.65
  -1  -1  -2  233.52   15.86
  -1  -1  -2  235.46   15.11
  -1  -1  -2  225.36   13.90
  -1  -1  -2  270.69   15.37
  -1  -1  -2  282.76   15.30
  -1  -1  -2  262.18   13.97
  -1  -1  -2  257.05   11.65
  -1  -1  -2  231.11   15.56
   1   1   2  271.14   11.66
   1   1   2  263.36   11.66
  -2  -1  -2   48.32    2.34
  -2  -1  -2   49.52    2.34
  -2  -1  -2   52.98    2.99
  -2  -1  -2   42.11    2.74
  -2  -1  -2   51.68    2.75
  -2  -1  -2   44.32    2.99
  -2  -1  -2   50.79    3.06
  -2  -1  -2   52.84    3.03
   2   1   2   50.13    2.35
   2   1   2   50.85    2.35
  -3  -1  -2  213.62   11.88
  -3  -1  -2  209.11   12.93
  -3  -1  -2  218.31   13.04
  -3  -1  -2  224.42   13.21
  -4  -1  -2    3.94    0.43
  -4  -1  -2    3.71    0.25
  -4  -1  -2    3.37    0.24
  -4  -1  -2    3.63    0.30
  -4  -1  -2    3.35    0.25
  -4  -1  -2    3.74    0.42
  -4  -1  -2    3.78    0.46
  -4  -1  -2    3.84    0.38
  -5  -1  -2   25.59    1.38
  -5  -1  -2   22.10    1.62
  -5  -1  -2   24.49    1.71
  -5  -1  -2   24.26    1.67
  -5  -1  -2   24.09    1.49
  -5  -1  -2   25.76    1.60
  -5  -1  -2   24.45    1.36
  -5  -1  -2   25.26    1.35
  -5  -1  -2   25.95    1.65
  -6  -1  -2    4.50    0.28
  -6  -1  -2    4.45    0.38
  -6  -1  -2    4.40    0.31
  -6  -1  -2    4.66    0.36
  -7  -1  -2    0.10    0.12
  -7  -1  -2    0.08    0.04
  -7  -1  -2    0.11    0.07
  -7  -1  -2    0.15    0.08
  -8   2   2    0.03    0.08
  -6   2   2   54.82    3.03
   4  -2  -2   67.23    4.46
   4  -2  -2   72.52    4.30
   4  -2  -2   70.69    3.96
   3  -2  -2   99.71    4.77
   3  -2  -2   97.19    4.78
   3  -2  -2  106.05    5.64
   3  -2  -2  101.25    6.40
   3  -2  -2  107.42    6.13
  -3   2   2   98.62    6.13
  -3   2   2  100.12    4.78
   2  -2  -2   42.36    1.97
   2  -2  -2   43.75    2.49
   2  -2  -2   40.39    1.95
   2  -2  -2   41.07    2.28
   2  -2  -2   39.53    2.60
  -2   2   2   42.93    1.97
  -2   2   2   34.41    2.28
  -2   2   2   41.99    1.97
  -2   2   2   39.80    2.49
   1  -2  -2    1.80    0.21
   1  -2  -2    1.78    0.19
   1  -2  -2    1.69    0.16
   1  -2  -2    2.04    0.23
   1  -2  -2    2.18    0.26
   1  -2  -2    2.11    0.28
   1  -2  -2    1.99    0.22
   1  -2  -2    1.80    0.20
   1  -2  -2    2.25    0.22
  -1   2   2    2.40    0.23
  -1   2   2    2.06    0.23
   0  -2  -2  100.69    4.62
   0  -2  -2  105.54    6.13
   0  -2  -2  103.89    5.98
   0  -2  -2  100.28    5.98
   0  -2  -2   96.22    4.62
   0  -2  -2   91.21    5.50
   0  -2  -2   98.67    6.28
   0  -2  -2  101.43    5.50
   0   2   2   99.56    4.63
   0   2   2  104.82    4.63
  -1  -2  -2  204.68   11.75
  -1  -2  -2  226.21   11.81
  -1  -2  -2  214.77   13.39
  -1  -2  -2  208.11   12.77
  -1  -2  -2  236.58   12.92
  -1  -2  -2  207.54    9.85
  -1  -2  -2  204.42    9.85
  -1  -2  -2  207.13   13.06
  -1  -2  -2  226.29   12.81
   1   2   2  205.49    9.85
   1   2   2  219.30    9.85
  -2  -2  -2   49.78    3.02
  -2  -2  -2   49.23    2.95
  -2  -2  -2   48.10    2.71
  -2  -2  -2   47.70    3.05
  -3  -2  -2    0.94    0.11
  -3  -2  -2    1.01    0.28
  -3  -2  -2    1.06    0.17
  -3  -2  -2    1.18    0.20
  -3  -2  -2    1.24    0.13
  -3  -2  -2    0.92    0.18
  -3  -2  -2    0.83    0.16
  -3  -2  -2    1.41    0.32
  -3  -2  -2    0.67    0.20
  -4  -2  -2  139.97    7.70
  -4  -2  -2  119.86    9.02
  -4  -2  -2  146.55    8.78
  -4  -2  -2  148.17    8.62
  -4  -2  -2  131.30    8.47
  -4  -2  -2  142.36    7.46
  -4  -2  -2  146.87    7.54
  -4  -2  -2  140.67    8.51
  -5  -2  -2    5.94    0.46
  -5  -2  -2    6.01    0.35
  -5  -2  -2    5.87    0.37
  -5  -2  -2    5.95    0.47
  -6  -2  -2   16.99    1.20
  -6  -2  -2   18.66    1.16
  -7  -2  -2    0.67    0.07
   8  -3  -2    0.55    0.13
  -8   3   2    0.44    0.09
   6  -3  -2    2.28    0.25
   5  -3  -2   30.32    1.69
   4  -3  -2    0.48    0.27
   4  -3  -2    0.25    0.21
   4  -3  -2    0.10    0.12
   4  -3  -2    0.08    0.28
   3  -3  -2   47.83    2.93
   3  -3  -2   46.97    3.08
   3  -3  -2   48.32    2.70
   2  -3  -2    8.07    0.57
   2  -3  -2    7.70    0.63
   2  -3  -2    8.16    0.53
   1  -3  -2   10.23    0.59
   1  -3  -2   10.54    0.65
   1  -3  -2    9.27    0.52
   1  -3  -2   10.95    0.72
   1  -3  -2    9.22    0.53
   1  -3  -2    8.93    0.63
   1  -3  -2    8.57    0.58
   1  -3  -2   10.70    0.73
  -1   3   2    9.35    0.54
   0  -3  -2  131.90    7.66
   0  -3  -2  122.09    7.44
   0  -3  -2  117.39    5.75
   0  -3  -2  129.59    7.45
   0  -3  -2  121.64    6.85
   0  -3  -2  134.02    6.85
   0  -3  -2  135.96    7.86
   0  -3  -2  115.67    5.74
   0   3   2  116.43    5.75
  -1  -3  -2   81.97    4.89
  -1  -3  -2   76.86    4.50
  -1  -3  -2   86.33    5.02
  -1  -3  -2   79.00    5.17
  -1  -3  -2   84.53    4.50
  -1  -3  -2   86.54    5.07
  -1  -3  -2   79.41    4.89
  -2  -3  -2    0.82    0.10
  -2  -3  -2    1.03    0.27
  -2  -3  -2    1.00    0.17
  -2  -3  -2    0.62    0.10
  -2  -3  -2    0.76    0.11
  -2  -3  -2    0.91    0.18
  -2  -3  -2    0.77    0.10
  -2  -3  -2    0.94    0.13
  -2  -3  -2    0.92    0.30
  -2  -3  -2    0.86    0.11
  -2  -3  -2    1.09    0.17
  -3  -3  -2    3.62    0.31
  -3  -3  -2    3.12    0.18
  -3  -3  -2    3.10    0.47
  -3  -3  -2    2.70    0.43
  -3  -3  -2    3.47    0.32
  -3  -3  -2    3.50    0.22
  -3  -3  -2    3.23    0.22
  -3  -3  -2    2.61    0.23
  -3  -3  -2    3.58    0.32
  -3  -3  -2    3.08    0.30
  -4  -3  -2   32.76    1.75
  -4  -3  -2   27.96    2.12
  -4  -3  -2   29.84    2.12
  -4  -3  -2   34.22    2.06
  -4  -3  -2   32.53    1.99
  -4  -3  -2   33.13    2.12
  -5  -3  -2    6.87    0.50
  -5  -3  -2    6.57    0.39
  -5  -3  -2    6.79    0.49
  -5  -3  -2    6.43    0.47
  -6  -3  -2    0.02    0.05
  -6  -3  -2   -0.09    0.12
  -6  -3  -2   -0.01    0.09
   8  -4  -2    0.70    0.13
   6  -4  -2    1.80    0.18
   5  -4  -2    5.60    0.59
   5  -4  -2    5.09    0.60
   5  -4  -2    6.22    0.39
   5  -4  -2    6.38    0.39
   4  -4  -2   17.45    1.01
   4  -4  -2   17.29    1.12
   4  -4  -2   19.44    1.32
   4  -4  -2   17.42    1.00
   4  -4  -2   18.76    1.24
   3  -4  -2   19.70    1.21
   3  -4  -2   17.80    1.15
   3  -4  -2   18.31    1.02
   3  -4  -2   18.68    1.11
   3  -4  -2   19.51    1.32
   3  -4  -2   17.30    1.00
   3  -4  -2   17.68    1.02
   2  -4  -2    9.76    0.60
   2  -4  -2    9.33    0.64
   2  -4  -2    8.43    0.74
   1  -4  -2    0.16    0.23
   1  -4  -2    0.55    0.11
   1  -4  -2    0.38    0.09
   1  -4  -2    0.38    0.23
   1  -4  -2    0.33    0.11
   1  -4  -2    0.50    0.13
   0  -4  -2  119.34    7.86
   0  -4  -2  116.17    7.78
   0  -4  -2  119.90    7.66
   0  -4  -2  134.18    7.50
   0  -4  -2  118.23    7.65
  -1  -4  -2   11.17    0.72
  -1  -4  -2   12.00    0.85
  -1  -4  -2    9.94    0.73
  -1  -4  -2   10.96    0.77
  -1  -4  -2   11.48    0.75
  -1  -4  -2   11.00    0.75
  -1  -4  -2   10.72    0.60
  -2  -4  -2    1.00    0.10
  -2  -4  -2    1.22    0.21
  -2  -4  -2    1.14    0.21
  -2  -4  -2    0.88    0.31
  -2  -4  -2    0.84    0.17
  -2  -4  -2    1.11    0.20
  -2  -4  -2    1.08    0.21
  -3  -4  -2    1.27    0.21
  -3  -4  -2    1.13    0.23
  -3  -4  -2    1.23    0.18
  -3  -4  -2    1.08    0.11
  -3  -4  -2    0.95    0.33
  -4  -4  -2   11.17    0.74
  -4  -4  -2   10.39    0.71
  -4  -4  -2   11.10    0.60
  -4  -4  -2   10.85    0.78
  -5  -4  -2    1.71    0.21
  -5  -4  -2    1.53    0.18
   7  -5  -2    2.11    0.20
   6  -5  -2    4.34    0.31
   6  -5  -2    4.71    0.34
   5  -5  -2    5.46    0.34
   5  -5  -2    4.87    0.32
   5  -5  -2    5.79    0.43
   5  -5  -2    5.23    0.36
   4  -5  -2   70.34    4.33
   4  -5  -2   60.87    3.99
   4  -5  -2   68.38    4.61
   4  -5  -2   78.94    4.24
   4  -5  -2   75.86    3.87
   4  -5  -2   70.93    3.82
   3  -5  -2   11.10    0.61
   3  -5  -2   10.62    0.59
   3  -5  -2   10.48    0.74
   3  -5  -2   10.93    0.68
   3  -5  -2   10.98    0.70
   3  -5  -2   10.25    0.89
   3  -5  -2    9.66    0.74
   3  -5  -2   10.37    0.70
   2  -5  -2    2.96    0.18
   2  -5  -2    2.81    0.27
   2  -5  -2    3.66    0.33
   2  -5  -2    3.26    0.21
   2  -5  -2    2.57    0.26
   2  -5  -2    3.18    0.24
   2  -5  -2    2.96    0.26
   2  -5  -2    3.70    0.47
   2  -5  -2    2.82    0.28
   1  -5  -2   31.37    2.08
   1  -5  -2   34.98    2.14
   1  -5  -2   37.08    2.29
   1  -5  -2   35.38    2.33
   1  -5  -2   32.73    1.88
   1  -5  -2   32.91    2.28
   1  -5  -2   33.54    2.25
   1  -5  -2   39.58    2.24
   0  -5  -2    0.20    0.26
   0  -5  -2    0.39    0.19
   0  -5  -2    0.46    0.17
   0  -5  -2    0.22    0.14
   0  -5  -2    0.32    0.16
   0  -5  -2    0.27    0.05
   0  -5  -2    0.40    0.15
  -1  -5  -2    1.94    0.26
  -1  -5  -2    1.95    0.22
  -1  -5  -2    1.95    0.25
  -1  -5  -2    1.64    0.25
  -1  -5  -2    1.38    0.35
  -2  -5  -2    1.86    0.24
  -2  -5  -2    1.38    0.21
  -2  -5  -2    1.61    0.23
  -2  -5  -2    1.43    0.26
  -3  -5  -2    0.62    0.16
  -3  -5  -2    0.59    0.20
  -3  -5  -2    0.63    0.22
  -4  -5  -2    9.32    0.68
  -4  -5  -2    9.96    0.66
   7  -6  -2    5.64    0.34
   6  -6  -2   -0.08    0.12
   6  -6  -2   -0.06    0.18
   5  -6  -2    0.00    0.09
   5  -6  -2    0.07    0.21
   5  -6  -2    0.22    0.15
   5  -6  -2    0.08    0.12
   4  -6  -2    5.80    0.36
   4  -6  -2    5.42    0.43
   4  -6  -2    5.64    0.44
   4  -6  -2    5.62    0.32
   3  -6  -2   -0.02    0.29
   3  -6  -2    0.24    0.19
   3  -6  -2    0.17    0.09
   3  -6  -2    0.08    0.18
   3  -6  -2    0.04    0.18
   2  -6  -2    7.51    0.44
   2  -6  -2    8.07    0.60
   2  -6  -2    8.32    0.58
   2  -6  -2    7.39    0.53
   2  -6  -2    6.49    0.73
   2  -6  -2    8.17    0.54
   1  -6  -2    0.65    0.32
   1  -6  -2    0.62    0.25
   1  -6  -2    0.71    0.16
   1  -6  -2    0.21    0.21
   0  -6  -2   19.27    1.35
   0  -6  -2   19.64    1.26
   0  -6  -2   19.75    1.33
   0  -6  -2   20.78    1.31
  -1  -6  -2    3.44    0.30
  -1  -6  -2    3.57    0.35
  -1  -6  -2    3.14    0.35
  -2  -6  -2   22.35    1.41
  -2  -6  -2   20.93    1.41
  -2  -6  -2   21.02    1.44
  -3  -6  -2    1.86    0.19
   6  -7  -2    0.21    0.11
   5  -7  -2    1.72    0.19
   5  -7  -2    1.72    0.15
   5  -7  -2    1.55    0.17
   4  -7  -2    4.08    0.34
   4  -7  -2    4.01    0.25
   4  -7  -2    4.00    0.34
   4  -7  -2    3.63    0.31
   3  -7  -2    0.43    0.13
   3  -7  -2    0.13    0.19
   3  -7  -2    0.50    0.06
   3  -7  -2    0.44    0.13
   2  -7  -2   -0.01    0.18
   2  -7  -2   -0.09    0.19
   1  -7  -2   -0.15    0.17
   1  -7  -2    0.19    0.15
   1  -7  -2    0.23    0.13
   0  -7  -2    2.21    0.21
   0  -7  -2    2.81    0.24
   0  -7  -2    1.98    0.27
  -1  -7  -2    5.10    0.37
  -1  -7  -2    4.22    0.38
  -2  -7  -2    1.03    0.14
   4  -8  -2    0.58    0.11
   3  -8  -2    0.03    0.10
   3  -8  -2   -0.03    0.10
   2  -8  -2    0.70    0.12
   2  -8  -2    0.66    0.12
   1  -8  -2    1.95    0.19
   1  -8  -2    1.97    0.17
   0  -8   3    0.20    0.12
   1  -8   3    0.24    0.14
   1  -8   3    0.26    0.11
   1  -8   3    0.37    0.12
   2  -8   3   11.26    0.83
   2  -8   3   15.61    0.86
   3  -8   3    2.12    0.19
   3  -8   3    1.86    0.19
   4  -8   3    1.29    0.17
   4  -8   3    1.86    0.16
   5  -8   3   13.09    0.80
  -2  -7   3    2.94    0.22
  -2  -7   3    2.39    0.22
  -1  -7   3    3.52    0.33
  -1  -7   3    3.94    0.32
  -1  -7   3    4.51    0.31
  -1  -7   3    3.67    0.31
   0  -7   3   13.06    0.95
   0  -7   3   14.30    0.88
   0  -7   3   14.01    0.89
   0  -7   3   14.42    0.94
   1  -7   3   15.86    1.02
   1  -7   3   15.44    1.08
   1  -7   3   17.10    1.02
   2  -7   3    0.57    0.19
   2  -7   3    0.25    0.19
   2  -7   3    0.21    0.20
   3  -7   3    1.52    0.19
   3  -7   3    1.59    0.24
   3  -7   3    1.16    0.24
   4  -7   3    0.85    0.16
   4  -7   3    0.46    0.08
   4  -7   3    0.72    0.17
   5  -7   3    1.24    0.17
   6  -7   3    1.35    0.14
  -4  -6   3    0.21    0.10
  -4  -6   3    0.24    0.09
  -3  -6   3    0.09    0.11
  -3  -6   3   -0.01    0.12
  -2  -6   3    4.96    0.39
  -2  -6   3    5.64    0.41
  -2  -6   3    4.74    0.42
  -2  -6   3    4.87    0.39
  -2  -6   3    6.09    0.41
  -1  -6   3    1.99    0.20
  -1  -6   3    1.88    0.20
  -1  -6   3    1.98    0.23
  -1  -6   3    1.92    0.24
  -1  -6   3    2.13    0.23
  -1  -6   3    1.75    0.24
  -1  -6   3    1.99    0.22
  -1  -6   3    1.72    0.20
   0  -6   3    0.30    0.14
   0  -6   3    0.16    0.18
   0  -6   3    0.69    0.20
   0  -6   3    0.28    0.15
   0  -6   3    0.34    0.13
   0  -6   3    0.23    0.13
   1  -6   3    4.22    0.39
   1  -6   3    4.38    0.37
   1  -6   3    5.32    0.40
   1  -6   3    3.94    0.34
   1  -6   3    4.16    0.34
   1  -6   3    4.33    0.55
   2  -6   3   18.55    1.26
   2  -6   3   19.55    1.09
   2  -6   3   21.60    1.24
   2  -6   3   21.56    1.27
   2  -6   3   18.74    1.47
   2  -6   3   19.66    1.33
   3  -6   3    6.72    0.46
   3  -6   3    6.70    0.48
   3  -6   3    7.11    0.52
   3  -6   3    5.96    0.46
   3  -6   3    5.38    0.67
   3  -6   3    6.58    0.39
   4  -6   3    2.73    0.17
   4  -6   3    2.60    0.20
   4  -6   3    2.37    0.27
   4  -6   3    2.84    0.29
   4  -6   3    2.36    0.25
   5  -6   3    2.82    0.29
   5  -6   3    3.59    0.28
   5  -6   3    3.82    0.26
   5  -6   3    3.73    0.23
   6  -6   3    0.52    0.17
   6  -6   3    0.39    0.12
   6  -6   3    0.62    0.09
   7  -6   3    0.23    0.08
   7  -6   3    0.41    0.06
   7  -6   3    0.20    0.10
  -5  -5   3    3.41    0.25
  -5  -5   3    2.81    0.23
  -4  -5   3    5.84    0.40
  -4  -5   3    5.18    0.41
  -3  -5   3   39.37    2.49
  -3  -5   3   40.37    2.57
  -3  -5   3   41.63    2.60
  -2  -5   3   24.70    1.93
  -2  -5   3   30.68    1.91
  -2  -5   3   28.55    1.79
  -2  -5   3   29.26    1.95
  -2  -5   3   31.99    1.85
  -2  -5   3   31.23    1.85
  -2  -5   3   29.67    1.89
  -1  -5   3    2.15    0.27
  -1  -5   3    2.08    0.25
  -1  -5   3    2.39    0.25
  -1  -5   3    2.45    0.25
  -1  -5   3    2.13    0.27
  -1  -5   3    2.39    0.26
  -1  -5   3    2.65    0.26
   0  -5   3   24.14    1.44
   0  -5   3   23.43    1.56
   0  -5   3   24.48    1.49
   0  -5   3   24.65    1.58
   0  -5   3   24.39    1.65
   0  -5   3   22.29    1.47
   0  -5   3   24.87    1.48
   0  -5   3   22.05    1.53
   0  -5   3   23.23    1.52
   1  -5   3    8.19    0.53
   1  -5   3    8.57    0.57
   1  -5   3    7.18    0.64
   1  -5   3    7.82    0.56
   1  -5   3    7.24    0.55
   1  -5   3    9.20    0.72
   1  -5   3    7.85    0.54
   1  -5   3    7.49    0.43
   1  -5   3    7.86    0.53
   2  -5   3    1.91    0.26
   2  -5   3    1.72    0.21
   2  -5   3    1.88    0.20
   2  -5   3    2.20    0.40
   2  -5   3    2.03    0.15
   2  -5   3    1.81    0.24
   2  -5   3    1.43    0.31
   3  -5   3    4.73    0.43
   3  -5   3    6.06    0.43
   3  -5   3    5.10    0.32
   3  -5   3    5.24    0.60
   3  -5   3    6.14    0.41
   3  -5   3    5.67    0.45
   3  -5   3    5.34    0.41
   3  -5   3    4.95    0.40
   3  -5   3    5.56    0.34
   4  -5   3    8.75    0.63
   4  -5   3    8.75    0.50
   4  -5   3    8.86    0.78
   4  -5   3    8.16    0.58
   4  -5   3    6.48    0.64
   4  -5   3    8.62    0.49
   4  -5   3    8.68    0.57
   5  -5   3   12.08    0.72
   5  -5   3   12.51    0.79
   5  -5   3   13.01    0.70
   5  -5   3   11.68    0.69
   6  -5   3    7.96    0.50
   6  -5   3    8.58    0.55
   6  -5   3    8.32    0.48
   6  -5   3    8.17    0.49
   7  -5   3    5.48    0.37
   7  -5   3    5.23    0.30
  -6  -4   3    0.01    0.07
  -6  -4   3    0.06    0.08
  -5  -4   3    0.99    0.18
  -5  -4   3    1.58    0.23
  -4  -4   3    5.15    0.43
  -4  -4   3    5.12    0.40
  -4  -4   3    5.15    0.42
  -3  -4   3    0.92    0.18
  -3  -4   3    0.77    0.19
  -3  -4   3    0.65    0.16
  -3  -4   3    0.71    0.20
  -3  -4   3    0.14    0.30
  -3  -4   3    0.97    0.20
  -2  -4   3   24.31    1.76
  -2  -4   3   29.32    1.68
  -2  -4   3   27.13    1.72
  -2  -4   3   24.89    1.61
  -2  -4   3   27.91    1.66
  -2  -4   3   28.77    1.71
  -2  -4   3   24.32    1.74
  -1  -4   3   10.60    0.76
  -1  -4   3    9.10    0.65
  -1  -4   3   10.25    0.73
  -1  -4   3   10.37    0.67
  -1  -4   3   10.90    0.78
  -1  -4   3   10.06    0.77
  -1  -4   3   10.32    0.68
  -1  -4   3    9.75    0.66
   0  -4   3   39.96    2.58
   0  -4   3   41.27    2.65
   0  -4   3   38.46    2.53
   0  -4   3   44.34    2.68
   1  -4   3   85.92    5.41
   1  -4   3   84.05    5.37
   2  -4   3  236.75   15.21
   2  -4   3  249.29   15.27
   2  -4   3  241.53   13.35
   2  -4   3  246.41   14.51
   3  -4   3    9.76    0.57
   3  -4   3   11.20    0.69
   3  -4   3   11.35    0.74
   3  -4   3    9.65    0.65
   3  -4   3    9.58    0.58
   3  -4   3   10.77    0.83
   3  -4   3    9.79    0.57
   3  -4   3   11.08    0.85
   4  -4   3    7.58    0.50
   4  -4   3    8.48    0.50
   4  -4   3    8.94    0.64
   4  -4   3    8.61    0.50
   4  -4   3    8.31    0.56
   4  -4   3    9.53    0.77
   4  -4   3    7.91    0.69
   4  -4   3    9.25    0.74
   5  -4   3    3.99    0.49
   5  -4   3    4.93    0.32
   5  -4   3    4.18    0.35
   5  -4   3    4.42    0.31
   6  -4   3   10.16    0.72
   6  -4   3   12.15    0.66
   6  -4   3   11.87    0.67
   7  -4   3    5.19    0.30
   7  -4   3    3.59    0.31
  -8   4  -3   10.09    0.59
   8  -4   3   10.35    0.58
  -6  -3   3    9.63    0.62
  -5  -3   3    0.60    0.16
  -5  -3   3    0.60    0.19
  -5  -3   3    0.51    0.16
  -5  -3   3    0.46    0.10
  -4  -3   3   59.34    3.60
  -4  -3   3   52.66    3.56
  -4  -3   3   57.21    3.07
  -4  -3   3   55.19    3.47
  -4  -3   3   58.37    3.58
  -3  -3   3    1.09    0.19
  -3  -3   3    0.97    0.18
  -3  -3   3    0.91    0.13
  -3  -3   3    0.96    0.15
  -3  -3   3    0.97    0.31
  -2  -3   3   44.27    2.91
  -2  -3   3   45.30    2.80
  -1  -3   3   13.59    0.92
  -1  -3   3   13.08    0.91
  -1  -3   3   13.32    0.88
  -1  -3   3   12.02    0.85
   0  -3   3   10.30    0.73
   0  -3   3   10.77    0.78
   0  -3   3   10.03    0.70
   0  -3   3   11.45    0.78
  -1   3  -3    1.13    0.14
  -1   3  -3    1.09    0.14
   1  -3   3    1.16    0.15
   1  -3   3    1.27    0.25
   1  -3   3    1.17    0.15
   1  -3   3    1.06    0.15
   1  -3   3    1.29    0.17
   1  -3   3    0.98    0.12
   1  -3   3    1.21    0.26
   1  -3   3    1.03    0.14
   2  -3   3  166.59    9.89
   2  -3   3  165.15    9.10
   2  -3   3  165.37   10.36
   2  -3   3  165.08   10.39
   3  -3   3   19.89    1.32
   3  -3   3   20.13    1.40
   3  -3   3   20.65    1.22
   4  -3   3  174.53   10.17
   4  -3   3  170.19   10.62
   4  -3   3  172.19    9.34
   4  -3   3  158.76    9.22
   5  -3   3   14.00    0.82
   6  -3   3    3.32    0.29
  -7   3  -3    6.57    0.44
   7  -3   3    7.19    0.45
  -8   3  -3    0.49    0.07
   8  -3   3    0.42    0.09
  -7  -2   3    0.12    0.10
  -6  -2   3    0.60    0.19
  -6  -2   3    0.50    0.13
  -5  -2   3    2.05    0.15
  -5  -2   3    2.50    0.27
  -5  -2   3    1.77    0.24
  -5  -2   3    1.29    0.40
  -5  -2   3    2.14    0.29
  -5  -2   3    2.71    0.21
  -4  -2   3   28.48    1.81
  -4  -2   3   30.38    1.67
  -4  -2   3   28.83    1.57
  -4  -2   3   30.10    1.87
  -4  -2   3   28.41    1.86
  -4  -2   3   29.74    1.60
  -4  -2   3   29.13    1.92
  -4  -2   3   27.92    1.80
  -3  -2   3    4.68    0.35
  -3  -2   3    4.83    0.45
  -3  -2   3    4.99    0.37
  -2  -2   3    2.22    0.19
  -2  -2   3    1.92    0.22
  -2  -2   3    1.89    0.17
  -2  -2   3    2.06    0.20
  -2  -2   3    2.68    0.33
  -2  -2   3    2.17    0.20
  -2  -2   3    1.91    0.16
  -2  -2   3    2.20    0.34
   1   2  -3    1.61    0.15
   1   2  -3    1.90    0.15
  -1  -2   3    2.08    0.29
  -1  -2   3    1.93    0.15
  -1  -2   3    1.79    0.14
  -1  -2   3    1.87    0.16
  -1  -2   3    1.74    0.18
  -1  -2   3    1.59    0.14
  -1  -2   3    1.80    0.24
  -1  -2   3    1.71    0.14
  -1  -2   3    1.89    0.15
   0   2  -3  199.19    8.93
   0   2  -3  200.17    8.93
   0  -2   3  196.60   11.62
   0  -2   3  192.71    8.93
   0  -2   3  199.63   10.72
   0  -2   3  200.11   12.18
   0  -2   3  193.39    8.93
   0  -2   3  186.64   10.69
   0  -2   3  197.88   11.64
   0  -2   3  192.09   12.15
   0  -2   3  185.95   11.70
  -1   2  -3  998.19   44.00
  -1   2  -3  987.01   43.99
   1  -2   3  932.33   43.98
   1  -2   3  840.65   52.52
   1  -2   3  917.86   57.13
   1  -2   3  985.36   60.03
   1  -2   3  977.98   52.59
   1  -2   3  986.45   57.19
   1  -2   3  966.17   43.97
   1  -2   3 1000.00   59.85
  -2   2  -3  114.90    5.31
  -2   2  -3  104.61    6.85
  -2   2  -3  114.94    5.31
   2  -2   3  118.28    7.16
   2  -2   3  107.09    5.30
   2  -2   3  116.09    6.29
   2  -2   3  123.27    6.84
   2  -2   3  112.74    5.31
  -3   2  -3   29.78    1.66
   3  -2   3   33.17    1.91
   3  -2   3   35.35    2.15
   3  -2   3   29.27    1.67
   3  -2   3   36.68    2.09
   4  -2   3   11.16    0.86
   4  -2   3   11.02    0.77
  -6   2  -3    1.91    0.22
  -7   2  -3   18.16    1.03
  -8   2  -3    2.47    0.14
  -8   2  -3    2.41    0.17
   8  -2   3    1.95    0.21
  -7  -1   3   14.34    0.96
  -6  -1   3    0.38    0.18
  -6  -1   3    0.26    0.11
  -6  -1   3    0.40    0.14
  -5  -1   3   19.46    1.32
  -5  -1   3   19.20    1.05
  -5  -1   3   16.93    1.18
  -5  -1   3   19.72    1.17
  -5  -1   3   20.15    1.04
  -5  -1   3   16.62    1.25
  -5  -1   3   19.58    1.24
  -4  -1   3    0.22    0.09
  -4  -1   3    0.29    0.18
  -4  -1   3    0.23    0.19
  -4  -1   3    0.29    0.11
  -4  -1   3    0.24    0.25
  -4  -1   3    0.36    0.08
  -4  -1   3    0.21    0.08
  -3  -1   3   44.22    2.57
  -3  -1   3   38.48    2.59
  -3  -1   3   41.64    2.61
  -3  -1   3   43.22    2.36
   2   1  -3    1.60    0.19
   2   1  -3    1.39    0.17
  -2  -1   3    1.68    0.19
  -2  -1   3    1.72    0.27
  -2  -1   3    1.49    0.16
  -2  -1   3    1.15    0.16
  -2  -1   3    1.13    0.16
  -2  -1   3    1.68    0.19
  -2  -1   3    1.14    0.18
  -2  -1   3    1.79    0.24
  -2  -1   3    1.51    0.20
   1   1  -3   52.45    2.27
   1   1  -3   52.40    2.27
  -1  -1   3   42.31    2.95
  -1  -1   3   50.20    2.27
  -1  -1   3   44.53    2.68
  -1  -1   3   50.00    2.91
  -1  -1   3   48.21    2.95
  -1  -1   3   48.42    2.68
  -1  -1   3   50.90    3.07
  -1  -1   3   47.06    2.91
  -1  -1   3   47.93    2.26
   0   1  -3  475.42   20.76
   0   1  -3  470.82   20.78
   0  -1   3  444.06   26.98
   0  -1   3  440.54   28.21
   0  -1   3  441.19   24.82
   0  -1   3  449.91   20.77
   0  -1   3  410.80   24.77
   0  -1   3  467.97   20.75
   0  -1   3  468.06   27.00
  -1   1  -3  225.74   10.05
  -1   1  -3  227.24   10.06
  -1   1  -3  211.55   13.03
  -1   1  -3  189.97   11.98
   1  -1   3  231.34   13.03
   1  -1   3  216.14   12.00
   1  -1   3  217.64   13.68
   1  -1   3  227.23   10.06
   1  -1   3  222.86   10.05
  -2   1  -3    5.05    0.40
  -2   1  -3    5.26    0.42
  -2   1  -3    5.02    0.41
  -2   1  -3    4.68    0.38
   2  -1   3    4.98    0.40
   2  -1   3    4.78    0.37
   2  -1   3    5.30    0.43
   2  -1   3    4.95    0.41
   2  -1   3    5.00    0.43
  -3   1  -3  225.76   12.24
  -3   1  -3  243.96   13.32
  -3   1  -3  212.98   13.37
  -3   1  -3  220.19   10.31
  -3   1  -3  211.31   10.29
   3  -1   3  232.63   13.32
   3  -1   3  223.67   10.32
   3  -1   3  210.02   12.24
  -4   1  -3    0.85    0.27
  -4   1  -3    0.28    0.20
  -5   1  -3   14.86    0.85
  -6   1  -3    6.86    0.42
  -6   1  -3    6.53    0.42
  -7   1  -3    0.57    0.11
  -7   1  -3    0.65    0.10
  -8   1  -3    0.24    0.05
  -8   1  -3    0.21    0.08
  -8   0   3    0.12    0.08
  -7   0   3    0.14    0.11
  -6   0   3   59.32    3.71
  -6   0   3   57.57    3.15
  -5   0   3   15.39    0.82
  -5   0   3   14.52    1.05
  -5   0   3   15.05    0.96
  -5   0   3   13.82    0.83
  -5   0   3   14.49    0.83
  -4   0   3   38.33    2.35
  -4   0   3   36.72    2.35
  -4   0   3   36.93    2.15
   3   0  -3  131.20    6.12
  -3   0   3  134.98    7.25
  -3   0   3  123.05    6.11
  -3   0   3  133.72    7.93
  -3   0   3  124.21    6.11
  -3   0   3  139.96    7.88
   2   0  -3   14.64    0.97
   2   0  -3   15.86    0.80
   2   0  -3   14.06    0.90
   2   0  -3   15.92    0.80
  -2   0   3   15.03    0.90
  -2   0   3   15.25    0.97
  -2   0   3   15.30    0.80
  -2   0   3   15.38    0.98
  -2   0   3   15.63    0.79
   1   0  -3   95.84    5.67
   1   0  -3  109.07    4.78
   1   0  -3   99.67    6.17
   1   0  -3  109.11    4.78
  -1   0   3  106.43    4.77
  -1   0   3  100.89    5.67
  -1   0   3  104.85    6.17
  -1   0   3  100.80    6.44
  -1   0   3  103.48    4.77
   0   0  -3   88.89    3.90
   0   0  -3   87.30    3.90
   0   0  -3   75.87    5.12
   0   0  -3   83.42    4.64
   0   0  -3   84.25    5.04
   0   0   3   83.03    5.04
   0   0   3   87.70    3.90
   0   0   3   88.83    3.90
   0   0   3   83.99    4.64
   0   0   3   77.94    5.25
  -1   0  -3   19.65    1.00
  -1   0  -3   19.97    1.24
  -1   0  -3   19.29    1.13
  -1   0  -3   20.33    0.98
   1   0   3   19.65    1.00
   1   0   3   19.33    1.24
   1   0   3   20.88    0.99
   1   0   3   18.02    1.13
  -2   0  -3   16.41    0.87
  -2   0  -3   17.14    1.04
  -2   0  -3   16.78    0.97
   2   0   3   16.62    0.88
   2   0   3   14.84    0.98
   2   0   3   16.54    0.88
   2   0   3   15.43    1.06
  -3   0  -3   90.86    5.20
  -3   0  -3   78.67    4.05
  -3   0  -3   84.33    5.21
  -3   0  -3   88.95    4.77
  -4   0  -3   35.67    2.14
  -4   0  -3   31.27    1.87
  -4   0  -3   32.84    2.15
  -4   0  -3   36.02    1.97
  -5   0  -3    0.44    0.28
  -5   0  -3    0.46    0.14
  -5   0  -3    0.38    0.13
  -5   0  -3    0.35    0.12
  -5   0  -3    0.17    0.28
  -5   0  -3    0.62    0.13
  -5   0  -3    0.04    0.22
  -6   0  -3    9.66    0.58
  -6   0  -3   11.06    0.59
  -6   0  -3   10.20    0.61
  -6   0  -3   10.05    0.69
  -7   0  -3    1.56    0.15
  -7   0  -3    1.66    0.15
  -7   0  -3    1.55    0.21
  -8   1   3    2.87    0.23
  -7   1   3    2.24    0.22
  -7   1   3    2.34    0.21
  -6   1   3    6.43    0.41
  -6   1   3    6.65    0.40
  -5   1   3    7.62    0.62
  -5   1   3    6.99    0.65
  -5   1   3    8.13    0.48
  -5   1   3    8.59    0.64
  -4   1   3    9.89    0.71
  -4   1   3    9.69    0.75
  -4   1   3    9.62    0.69
   3  -1  -3  135.44    6.39
   3  -1  -3  136.50    7.56
   3  -1  -3  131.33    6.37
   3  -1  -3  137.11    8.21
   3  -1  -3  140.91    8.58
  -3   1   3  143.06    7.56
  -3   1   3  136.22    8.25
  -3   1   3  141.93    8.22
  -3   1   3  132.98    6.39
  -3   1   3  132.42    6.38
   2  -1  -3   73.04    3.40
   2  -1  -3   72.71    4.00
   2  -1  -3   71.78    3.38
   2  -1  -3   73.92    4.35
  -2   1   3   73.11    3.40
  -2   1   3   67.39    4.00
  -2   1   3   71.10    3.39
  -2   1   3   73.77    4.35
   1  -1  -3  293.51   18.53
   1  -1  -3  303.03   16.76
   1  -1  -3  311.42   13.94
   1  -1  -3  309.38   13.94
   1  -1  -3  316.88   18.27
  -1   1   3  270.88   16.63
  -1   1   3  315.67   13.94
  -1   1   3  313.53   13.94
  -1   1   3  301.31   18.10
   0  -1  -3   82.08    5.36
   0  -1  -3   91.36    5.27
   0  -1  -3   91.16    4.84
   0  -1  -3   87.19    4.08
   0   1   3   94.05    4.08
   0   1   3   97.23    4.08
   0   1   3   78.48    4.84
   0   1   3   81.88    5.26
  -1  -1  -3   12.71    0.65
  -1  -1  -3   10.13    0.71
  -1  -1  -3   13.15    0.82
  -1  -1  -3   12.97    0.79
  -1  -1  -3   12.27    0.83
  -1  -1  -3   12.50    0.65
  -1  -1  -3   11.31    0.78
  -1  -1  -3   13.04    0.73
   1   1   3   13.09    0.66
   1   1   3   10.08    0.79
   1   1   3   13.30    0.66
  -2  -1  -3   99.11    5.63
  -2  -1  -3   98.90    5.13
  -2  -1  -3   93.84    5.70
  -2  -1  -3   87.50    4.34
  -2  -1  -3   88.89    4.33
   2   1   3   89.48    4.34
   2   1   3   91.38    4.34
  -3  -1  -3   32.57    1.85
  -3  -1  -3   33.98    2.08
  -3  -1  -3   31.22    2.02
  -3  -1  -3   31.21    2.04
  -4  -1  -3   44.91    2.53
  -4  -1  -3   44.39    2.56
  -4  -1  -3   50.98    2.97
  -4  -1  -3   43.79    2.98
  -4  -1  -3   45.54    2.58
  -4  -1  -3   45.31    2.92
  -4  -1  -3   52.69    3.02
  -4  -1  -3   49.72    2.68
  -5  -1  -3   86.86    5.74
  -5  -1  -3   92.93    6.05
  -5  -1  -3   95.78    5.06
  -5  -1  -3   92.06    5.09
  -5  -1  -3   88.63    5.21
  -5  -1  -3   99.69    5.85
  -5  -1  -3   93.48    5.88
  -5  -1  -3   95.62    5.00
  -6  -1  -3    3.89    0.25
  -6  -1  -3    3.74    0.33
  -6  -1  -3    4.03    0.33
  -6  -1  -3    4.30    0.28
  -7  -1  -3    4.17    0.32
  -7  -1  -3    4.74    0.26
  -7  -1  -3    3.44    0.22
  -8   2   3    9.65    0.64
  -6   2   3   11.21    0.67
   4  -2  -3    0.57    0.24
   4  -2  -3    1.00    0.25
   4  -2  -3    0.55    0.26
  -4   2   3    0.54    0.18
   3  -2  -3    2.54    0.33
   3  -2  -3    2.51    0.34
   3  -2  -3    2.17    0.28
   3  -2  -3    1.73    0.28
  -3   2   3    1.66    0.27
   2  -2  -3   54.33    3.57
   2  -2  -3   59.10    3.14
   2  -2  -3   57.77    3.41
   2  -2  -3   53.55    2.66
   2  -2  -3   54.13    2.67
  -2   2   3   57.46    2.68
  -2   2   3   56.07    2.68
   1  -2  -3    1.50    0.18
   1  -2  -3    1.44    0.19
   1  -2  -3    1.80    0.24
   1  -2  -3    1.77    0.24
   1  -2  -3    1.87    0.20
   1  -2  -3    1.90    0.27
   1  -2  -3    1.56    0.21
   1  -2  -3    1.82    0.23
  -1   2   3    1.73    0.20
  -1   2   3    1.78    0.21
   0  -2  -3    3.82    0.28
   0  -2  -3    3.79    0.37
   0  -2  -3    3.76    0.28
   0  -2  -3    2.98    0.28
   0  -2  -3    3.62    0.29
   0  -2  -3    4.22    0.33
   0  -2  -3    3.61    0.29
   0  -2  -3    3.75    0.34
   0   2   3    3.64    0.30
   0   2   3    3.92    0.31
  -1  -2  -3    2.32    0.23
  -1  -2  -3    2.64    0.23
  -1  -2  -3    2.46    0.24
  -1  -2  -3    2.10    0.22
  -1  -2  -3    2.77    0.27
  -1  -2  -3    2.36    0.24
  -1  -2  -3    2.51    0.25
  -1  -2  -3    2.46    0.33
  -1  -2  -3    2.68    0.31
   1   2   3    2.66    0.27
  -2  -2  -3    1.94    0.32
  -2  -2  -3    1.63    0.23
  -2  -2  -3    1.80    0.23
  -2  -2  -3    1.77    0.29
  -3  -2  -3  178.33   11.62
  -3  -2  -3  191.48   11.46
  -3  -2  -3  185.59   12.04
  -3  -2  -3  193.46   10.26
  -3  -2  -3  207.26   11.61
  -3  -2  -3  166.35   12.37
  -3  -2  -3  211.25   11.75
  -3  -2  -3  203.14   10.54
  -3  -2  -3  189.48   10.36
  -4  -2  -3   57.64    3.60
  -4  -2  -3   58.98    3.09
  -4  -2  -3   58.37    3.59
  -4  -2  -3   54.24    3.47
  -4  -2  -3   57.95    3.71
  -4  -2  -3   56.71    3.19
  -4  -2  -3   57.88    3.05
  -4  -2  -3   57.54    3.62
  -4  -2  -3   51.39    3.47
  -5  -2  -3    6.12    0.35
  -5  -2  -3    6.06    0.38
  -5  -2  -3    5.76    0.46
  -5  -2  -3    6.50    0.49
  -6  -2  -3    8.02    0.46
  -6  -2  -3    7.99    0.55
  -6  -2  -3    7.38    0.57
  -7  -2  -3    0.02    0.04
  -8   3   3    1.91    0.17
   7  -3  -3    0.35    0.17
   6  -3  -3   15.11    0.88
   5  -3  -3   11.78    0.70
   4  -3  -3   83.01    4.37
   4  -3  -3   75.34    4.73
   4  -3  -3   78.31    4.95
   4  -3  -3   72.89    4.24
   3  -3  -3    0.05    0.21
   3  -3  -3   -0.05    0.18
   3  -3  -3    0.05    0.21
   2  -3  -3    0.59    0.18
   2  -3  -3    0.77    0.23
   2  -3  -3    0.51    0.16
   1  -3  -3   55.96    3.38
   1  -3  -3   55.42    3.11
   1  -3  -3   55.56    3.57
   1  -3  -3   56.64    3.49
   0  -3  -3   24.85    1.33
   0  -3  -3   25.47    1.56
   0  -3  -3   21.54    1.33
   0  -3  -3   24.33    1.57
   0  -3  -3   24.11    1.45
   0  -3  -3   21.62    1.44
  -1  -3  -3   -0.01    0.26
  -1  -3  -3    0.30    0.10
  -1  -3  -3    0.14    0.08
  -2  -3  -3   13.26    0.86
  -2  -3  -3   12.73    0.82
  -2  -3  -3   13.48    0.83
  -2  -3  -3   14.58    0.97
  -2  -3  -3   13.69    0.76
  -2  -3  -3   11.96    0.70
  -2  -3  -3   12.62    0.88
  -2  -3  -3   11.90    0.86
  -2  -3  -3   12.95    0.72
  -2  -3  -3   12.70    0.85
  -3  -3  -3    0.25    0.16
  -3  -3  -3   -0.02    0.17
  -3  -3  -3    0.20    0.11
  -3  -3  -3    0.04    0.28
  -3  -3  -3    0.04    0.16
  -3  -3  -3    0.16    0.09
  -3  -3  -3    0.23    0.05
  -3  -3  -3    0.28    0.11
  -4  -3  -3    5.03    0.41
  -4  -3  -3    4.61    0.36
  -4  -3  -3    4.62    0.30
  -4  -3  -3    4.58    0.35
  -4  -3  -3    4.43    0.57
  -5  -3  -3    1.67    0.19
  -5  -3  -3    1.64    0.18
  -5  -3  -3    2.00    0.26
  -5  -3  -3    1.87    0.16
  -6  -3  -3   12.36    0.96
  -6  -3  -3   15.99    0.78
   8  -4  -3    3.75    0.28
   6  -4  -3   24.98    1.39
   5  -4  -3    0.75    0.32
   5  -4  -3    0.20    0.26
   5  -4  -3    0.05    0.12
   5  -4  -3    0.28    0.15
   5  -4  -3    0.13    0.29
   4  -4  -3    1.60    0.17
   4  -4  -3    0.91    0.27
   4  -4  -3    1.37    0.16
   4  -4  -3    1.45    0.20
   4  -4  -3    0.67    0.30
   4  -4  -3    1.49    0.16
   4  -4  -3    1.34    0.32
   3  -4  -3   31.32    1.85
   3  -4  -3   30.39    1.98
   3  -4  -3   27.58    1.57
   3  -4  -3   28.18    1.60
   3  -4  -3   28.31    1.79
   3  -4  -3   28.16    1.60
   3  -4  -3   30.37    1.71
   2  -4  -3   10.24    0.69
   2  -4  -3   10.05    0.76
   2  -4  -3    9.17    0.54
   2  -4  -3    9.19    0.55
   2  -4  -3    9.16    0.62
   2  -4  -3   10.90    0.63
   1  -4  -3  127.68    7.48
   1  -4  -3  116.85    7.09
   1  -4  -3  117.75    7.50
   1  -4  -3  120.56    6.52
   1  -4  -3  120.39    7.32
   1  -4  -3  108.38    6.41
   0  -4  -3   57.41    3.56
   0  -4  -3   59.53    3.70
   0  -4  -3   56.85    3.57
   0  -4  -3   62.11    3.69
   0  -4  -3   58.10    3.80
   0  -4  -3   59.01    3.75
   0  -4  -3   59.73    3.76
   0  -4  -3   54.97    3.16
  -1  -4  -3    1.43    0.21
  -1  -4  -3    1.50    0.32
  -1  -4  -3    1.42    0.12
  -1  -4  -3    1.55    0.24
  -1  -4  -3    1.38    0.22
  -1  -4  -3    1.60    0.23
  -2  -4  -3   36.25    2.21
  -2  -4  -3   34.61    1.94
  -2  -4  -3   35.26    2.33
  -2  -4  -3   36.29    2.36
  -2  -4  -3   36.70    2.30
  -2  -4  -3   35.53    2.36
  -3  -4  -3    0.64    0.21
  -3  -4  -3    0.82    0.11
  -3  -4  -3    0.99    0.17
  -3  -4  -3    0.97    0.21
  -3  -4  -3    0.31    0.31
  -4  -4  -3    4.77    0.40
  -4  -4  -3    4.75    0.42
  -4  -4  -3    4.81    0.38
  -4  -4  -3    4.92    0.28
  -5  -4  -3    2.54    0.23
  -5  -4  -3    3.12    0.25
   7  -5  -3    1.09    0.20
   7  -5  -3    1.09    0.10
   6  -5  -3    2.70    0.30
   6  -5  -3    2.88    0.23
   5  -5  -3   17.19    0.98
   5  -5  -3   18.23    1.10
   5  -5  -3   18.09    0.98
   5  -5  -3   16.78    1.00
   4  -5  -3   30.20    1.87
   4  -5  -3   32.47    1.75
   4  -5  -3   27.80    2.18
   4  -5  -3   32.59    1.73
   4  -5  -3   32.41    1.97
   4  -5  -3   34.06    1.93
   3  -5  -3   23.26    1.27
   3  -5  -3   23.00    1.52
   3  -5  -3   23.66    1.41
   3  -5  -3   20.20    1.47
   3  -5  -3   24.29    1.45
   3  -5  -3   23.69    1.66
   2  -5  -3    0.05    0.17
   2  -5  -3    0.12    0.07
   2  -5  -3    0.06    0.13
   2  -5  -3    0.20    0.21
   2  -5  -3    0.34    0.27
   2  -5  -3    0.16    0.16
   2  -5  -3    0.18    0.15
   2  -5  -3    0.25    0.10
   1  -5  -3    4.59    0.40
   1  -5  -3    4.19    0.36
   1  -5  -3    4.59    0.56
   1  -5  -3    4.37    0.36
   1  -5  -3    4.30    0.38
   1  -5  -3    4.61    0.51
   1  -5  -3    4.26    0.26
   0  -5  -3    0.54    0.20
   0  -5  -3    0.58    0.16
   0  -5  -3    0.83    0.31
   0  -5  -3    0.40    0.07
   0  -5  -3    0.61    0.14
   0  -5  -3    0.45    0.21
  -1  -5  -3   -0.22    0.26
  -1  -5  -3    0.05    0.17
  -1  -5  -3   -0.03    0.15
  -1  -5  -3    0.05    0.15
  -1  -5  -3    0.02    0.14
  -1  -5  -3    0.12    0.03
  -2  -5  -3   19.86    1.37
  -2  -5  -3   19.70    1.41
  -2  -5  -3   21.66    1.37
  -2  -5  -3   21.91    1.32
  -3  -5  -3    0.76    0.23
  -3  -5  -3    0.90    0.16
  -3  -5  -3    0.85    0.21
  -4  -5  -3    1.07    0.20
  -4  -5  -3    1.28    0.16
   7  -6  -3    2.65    0.21
   7  -6  -3    2.51    0.16
   6  -6  -3    0.25    0.09
   6  -6  -3    0.22    0.13
   6  -6  -3    0.29    0.09
   5  -6  -3    0.78    0.14
   5  -6  -3    0.90    0.14
   5  -6  -3    1.19    0.19
   5  -6  -3    1.07    0.13
   4  -6  -3    3.87    0.28
   4  -6  -3    3.77    0.31
   4  -6  -3    3.62    0.34
   4  -6  -3    3.78    0.23
   3  -6  -3    1.43    0.19
   3  -6  -3    1.08    0.14
   3  -6  -3    1.44    0.22
   3  -6  -3    1.23    0.22
   2  -6  -3    9.35    0.90
   2  -6  -3    9.71    0.67
   2  -6  -3   10.65    0.71
   2  -6  -3   10.28    0.73
   2  -6  -3   10.21    0.58
   2  -6  -3   11.04    0.74
   1  -6  -3   16.89    0.96
   1  -6  -3   19.06    1.14
   1  -6  -3   17.27    1.18
   1  -6  -3   17.45    1.21
   0  -6  -3   -0.09    0.19
   0  -6  -3   -0.09    0.16
   0  -6  -3   -0.28    0.21
   0  -6  -3    0.10    0.16
  -1  -6  -3   12.89    0.90
  -1  -6  -3   12.78    0.86
  -1  -6  -3   12.29    0.85
  -2  -6  -3    5.57    0.46
  -2  -6  -3    6.79    0.46
  -2  -6  -3    6.32    0.46
  -3  -6  -3    0.69    0.13
  -3  -6  -3    0.53    0.12
   6  -7  -3    3.33    0.21
   6  -7  -3    3.00    0.23
   5  -7  -3    0.01    0.06
   5  -7  -3    0.03    0.09
   5  -7  -3    0.08    0.12
   4  -7  -3    2.01    0.15
   4  -7  -3    2.01    0.20
   4  -7  -3    1.78    0.21
   3  -7  -3    3.11    0.27
   3  -7  -3    3.18    0.19
   3  -7  -3    2.78    0.27
   3  -7  -3    3.25    0.31
   2  -7  -3    1.35    0.18
   2  -7  -3    1.11    0.22
   1  -7  -3    0.21    0.15
   1  -7  -3    0.20    0.18
   1  -7  -3    0.17    0.12
   0  -7  -3    6.19    0.48
   0  -7  -3    6.84    0.45
  -1  -7  -3    0.06    0.12
  -1  -7  -3    0.08    0.10
  -2  -7  -3    4.99    0.36
   4  -8  -3    0.03    0.08
   3  -8  -3    7.17    0.50
   2  -8  -3    3.61    0.24
   2  -8  -3    2.26    0.23
   1  -8  -3    0.25    0.09
   1  -8  -3    0.16    0.07
   0  -8   4    0.09    0.08
   1  -8   4    3.02    0.25
   1  -8   4    3.61    0.27
   2  -8   4    6.42    0.41
   2  -8   4    5.83    0.42
   3  -8   4    4.59    0.35
   3  -8   4    4.82    0.34
   4  -8   4    3.44    0.26
   4  -8   4    3.87    0.27
   5  -8   4    0.52    0.10
  -2  -7   4   10.28    0.78
  -2  -7   4   13.68    0.76
  -1  -7   4    2.08    0.21
  -1  -7   4    2.13    0.21
  -1  -7   4    2.07    0.19
  -1  -7   4    2.36    0.22
  -1  -7   4    1.90    0.18
   0  -7   4    9.86    0.67
   0  -7   4   10.81    0.69
   0  -7   4   10.34    0.71
   0  -7   4   10.05    0.67
   1  -7   4    2.33    0.23
   1  -7   4    2.35    0.26
   1  -7   4    2.06    0.22
   1  -7   4    1.66    0.18
   2  -7   4    0.99    0.20
   2  -7   4    0.99    0.22
   2  -7   4    0.87    0.22
   2  -7   4    0.77    0.16
   3  -7   4    2.95    0.30
   3  -7   4    2.67    0.24
   4  -7   4    0.77    0.20
   4  -7   4    0.62    0.12
   4  -7   4    0.53    0.08
   5  -7   4   12.31    0.69
   6  -7   4    1.45    0.18
   6  -7   4    1.87    0.14
  -4  -6   4   -0.12    0.08
  -4  -6   4    0.01    0.09
  -3  -6   4    0.71    0.13
  -3  -6   4    0.77    0.14
  -3  -6   4    0.71    0.14
  -2  -6   4    1.58    0.23
  -2  -6   4    1.63    0.22
  -2  -6   4    1.08    0.21
  -2  -6   4    1.38    0.17
  -1  -6   4    1.23    0.17
  -1  -6   4    1.21    0.20
  -1  -6   4    1.13    0.17
  -1  -6   4    1.34    0.21
  -1  -6   4    1.29    0.18
  -1  -6   4    1.12    0.20
  -1  -6   4    1.22    0.17
  -1  -6   4    1.27    0.21
   0  -6   4   24.14    1.50
   0  -6   4   24.08    1.49
   0  -6   4   21.89    1.52
   0  -6   4   24.86    1.57
   0  -6   4   24.84    1.46
   0  -6   4   22.83    1.58
   1  -6   4   23.49    1.43
   1  -6   4   21.89    1.51
   1  -6   4   22.56    1.50
   1  -6   4   24.57    1.40
   1  -6   4   22.66    1.44
   1  -6   4   20.82    1.62
   2  -6   4   14.30    1.15
   2  -6   4   14.38    0.96
   2  -6   4   16.70    0.96
   2  -6   4   15.18    0.83
   2  -6   4   14.61    1.02
   2  -6   4   15.01    0.98
   3  -6   4    2.94    0.29
   3  -6   4    2.48    0.27
   3  -6   4    1.92    0.25
   3  -6   4    1.94    0.18
   3  -6   4    1.84    0.30
   4  -6   4    2.45    0.27
   4  -6   4    2.70    0.29
   4  -6   4    2.66    0.17
   4  -6   4    2.60    0.26
   4  -6   4    2.70    0.20
   5  -6   4    0.55    0.09
   5  -6   4    0.50    0.12
   5  -6   4    0.49    0.13
   5  -6   4    0.51    0.18
   6  -6   4    4.89    0.28
   6  -6   4    4.99    0.31
   6  -6   4    4.08    0.34
   6  -6   4    4.50    0.33
   7  -6   4    0.16    0.10
   7  -6   4    0.21    0.05
  -5  -5   4    2.01    0.18
  -5  -5   4    2.30    0.19
  -4  -5   4   11.37    0.76
  -4  -5   4   11.67    0.78
  -3  -5   4    2.75    0.27
  -3  -5   4    1.87    0.21
  -3  -5   4    1.82    0.23
  -2  -5   4    0.59    0.13
  -2  -5   4    0.48    0.18
  -2  -5   4    0.94    0.20
  -2  -5   4    0.88    0.15
  -2  -5   4    0.71    0.22
  -1  -5   4    5.79    0.45
  -1  -5   4    6.81    0.45
  -1  -5   4    5.62    0.58
  -1  -5   4    5.64    0.46
  -1  -5   4    6.71    0.46
  -1  -5   4    5.74    0.44
  -1  -5   4    6.29    0.45
  -1  -5   4    6.41    0.45
  -1  -5   4    5.40    0.45
   0  -5   4    0.97    0.17
   0  -5   4    0.38    0.28
   0  -5   4    0.34    0.25
   0  -5   4    0.47    0.13
   0  -5   4    0.36    0.18
   0  -5   4    0.28    0.16
   0  -5   4    0.37    0.14
   0  -5   4    0.47    0.16
   0  -5   4    0.64    0.18
   1  -5   4    3.14    0.28
   1  -5   4    3.20    0.42
   1  -5   4    3.14    0.30
   1  -5   4    3.03    0.18
   1  -5   4    3.39    0.29
   1  -5   4    3.05    0.46
   1  -5   4    2.77    0.26
   1  -5   4    2.91    0.25
   2  -5   4    0.38    0.09
   2  -5   4    0.48    0.17
   2  -5   4    0.38    0.18
   2  -5   4    0.44    0.16
   2  -5   4    0.27    0.17
   2  -5   4    0.46    0.30
   2  -5   4    0.16    0.28
   3  -5   4   47.99    2.50
   3  -5   4   44.39    2.37
   3  -5   4   44.84    2.64
   3  -5   4   43.80    2.86
   3  -5   4   43.75    2.41
   3  -5   4   41.41    2.73
   3  -5   4   46.02    2.71
   3  -5   4   45.62    2.95
   3  -5   4   40.90    2.90
   3  -5   4   42.86    2.71
   4  -5   4   14.65    1.14
   4  -5   4   12.24    1.01
   4  -5   4   14.45    0.91
   4  -5   4   14.78    0.82
   4  -5   4   14.54    0.94
   4  -5   4   13.71    1.12
   4  -5   4   14.46    0.93
   4  -5   4   15.62    0.81
   5  -5   4    0.02    0.12
   5  -5   4    0.08    0.17
   5  -5   4   -0.03    0.08
   5  -5   4   -0.15    0.15
   6  -5   4    0.39    0.09
   6  -5   4    0.38    0.10
   6  -5   4    0.13    0.14
   6  -5   4    0.28    0.16
   7  -5   4    1.58    0.16
   7  -5   4    1.84    0.14
  -6  -4   4    0.14    0.09
  -6  -4   4    0.34    0.08
  -5  -4   4    0.08    0.13
  -5  -4   4    0.01    0.10
  -4  -4   4   12.05    0.82
  -4  -4   4   13.00    0.82
  -4  -4   4   11.06    0.78
  -3  -4   4    9.17    0.63
  -3  -4   4    9.55    0.66
  -3  -4   4    8.06    0.76
  -3  -4   4    9.66    0.64
  -3  -4   4    9.22    0.66
  -2  -4   4    3.66    0.34
  -2  -4   4    4.06    0.45
  -2  -4   4    4.60    0.35
  -2  -4   4    3.83    0.34
  -2  -4   4    4.13    0.34
  -2  -4   4    4.20    0.33
  -1  -4   4   16.81    1.15
  -1  -4   4   19.17    1.23
  -1  -4   4   17.45    1.12
  -1  -4   4   18.02    1.09
  -1  -4   4   15.94    1.08
  -1  -4   4   17.25    1.06
  -1  -4   4   16.15    1.08
   0  -4   4   13.89    0.99
   0  -4   4   13.63    1.01
   1  -4   4   11.02    0.84
   1  -4   4   10.44    0.84
   2  -4   4  498.07   30.40
   2  -4   4  472.92   28.95
   2  -4   4  479.85   30.31
   2  -4   4  496.40   26.67
   3  -4   4    9.38    0.73
   3  -4   4    7.48    0.55
   3  -4   4    8.13    0.48
   3  -4   4    9.31    0.73
   3  -4   4    8.92    0.61
   3  -4   4    9.17    0.65
   3  -4   4    8.31    0.48
   3  -4   4    8.30    0.50
   4  -4   4    0.71    0.30
   4  -4   4    0.52    0.24
   4  -4   4    0.61    0.17
   4  -4   4    0.63    0.30
   4  -4   4    0.99    0.14
   4  -4   4    0.55    0.26
   4  -4   4    0.94    0.13
   4  -4   4    0.78    0.15
   5  -4   4   18.62    1.02
   5  -4   4   16.75    1.33
   5  -4   4   17.51    1.17
   5  -4   4   18.48    1.00
   5  -4   4   17.35    1.10
   6  -4   4    2.99    0.25
   6  -4   4    2.45    0.24
   7  -4   4   17.34    0.94
   7  -4   4   15.98    0.94
  -8   4  -4    0.37    0.07
   8  -4   4    0.48    0.07
  -6  -3   4    2.00    0.20
  -6  -3   4    1.66    0.17
  -5  -3   4    1.08    0.15
  -5  -3   4    1.11    0.17
  -5  -3   4    1.04    0.11
  -5  -3   4    0.72    0.21
  -4  -3   4    3.02    0.31
  -4  -3   4    3.02    0.29
  -4  -3   4    2.06    0.43
  -4  -3   4    2.77    0.32
  -3  -3   4    6.29    0.36
  -3  -3   4    5.85    0.47
  -3  -3   4    5.97    0.43
  -3  -3   4    6.95    0.58
  -3  -3   4    6.29    0.47
  -3  -3   4    6.77    0.46
  -2  -3   4   39.40    2.51
  -2  -3   4   40.47    2.61
  -1  -3   4   12.44    0.87
  -1  -3   4   13.95    0.90
  -1  -3   4   13.81    0.97
   0  -3   4   25.60    1.64
   0  -3   4   25.39    1.64
   0  -3   4   23.24    1.53
  -1   3  -4   11.22    0.63
   1  -3   4   11.63    0.63
   1  -3   4   13.21    0.89
   1  -3   4   12.23    0.70
   1  -3   4   10.54    0.69
   1  -3   4   12.52    0.87
   1  -3   4   10.79    0.61
   1  -3   4   11.49    0.76
   1  -3   4   12.60    0.76
   2  -3   4   29.57    1.67
   2  -3   4   28.37    1.93
   2  -3   4   28.91    1.93
   2  -3   4   29.72    1.81
   3  -3   4   86.05    5.36
   3  -3   4   82.29    4.70
   3  -3   4   84.69    5.12
   4  -3   4   11.43    0.63
   4  -3   4   10.30    0.84
   4  -3   4    9.72    0.62
   4  -3   4   12.44    0.79
   4  -3   4    9.71    0.67
   4  -3   4   12.09    0.86
   5  -3   4   43.12    2.39
   6  -3   4    5.56    0.39
  -7   3  -4    1.54    0.20
   7  -3   4    1.46    0.19
  -8   3  -4    0.03    0.07
   8  -3   4   -0.12    0.10
  -7  -2   4    3.37    0.26
  -6  -2   4    3.02    0.32
  -6  -2   4    3.31    0.23
  -6  -2   4    3.18    0.27
  -5  -2   4   68.68    4.27
  -5  -2   4   65.53    4.39
  -5  -2   4   73.51    4.43
  -5  -2   4   71.65    3.74
  -4  -2   4   68.73    4.34
  -4  -2   4   75.08    4.00
  -4  -2   4   70.53    3.90
  -4  -2   4   74.55    4.55
  -4  -2   4   68.48    4.38
  -4  -2   4   73.16    3.85
  -4  -2   4   75.89    4.47
  -4  -2   4   68.48    4.51
  -3  -2   4   10.16    0.77
  -3  -2   4   10.39    0.69
  -3  -2   4   10.31    0.64
  -2  -2   4  132.28    6.53
  -2  -2   4  145.89    7.78
  -2  -2   4  145.29    8.46
  -2  -2   4  148.49    8.57
  -2  -2   4  128.10    7.77
  -2  -2   4  147.04    8.89
  -2  -2   4  145.11    8.45
   1   2  -4    1.80    0.18
   1   2  -4    1.66    0.17
  -1  -2   4    1.57    0.16
  -1  -2   4    1.91    0.17
  -1  -2   4    1.71    0.16
  -1  -2   4    1.80    0.18
  -1  -2   4    1.64    0.16
  -1  -2   4    2.02    0.27
  -1  -2   4    2.11    0.30
  -1  -2   4    1.81    0.17
  -1  -2   4    1.75    0.17
   0   2  -4   11.11    0.57
   0   2  -4   10.99    0.57
   0  -2   4   11.22    0.79
   0  -2   4   11.10    0.65
   0  -2   4   11.78    0.79
   0  -2   4   10.73    0.72
   0  -2   4   10.43    0.64
   0  -2   4   12.05    0.70
   0  -2   4   10.75    0.57
   0  -2   4   10.80    0.56
   0  -2   4   10.74    0.70
  -1   2  -4    0.75    0.16
  -1   2  -4    0.52    0.16
   1  -2   4    0.69    0.15
   1  -2   4    0.44    0.25
   1  -2   4    0.60    0.14
   1  -2   4    0.33    0.16
   1  -2   4    0.59    0.23
   1  -2   4    0.73    0.18
   1  -2   4    0.74    0.14
   1  -2   4    0.52    0.08
   1  -2   4    0.81    0.18
  -2   2  -4    0.24    0.19
  -2   2  -4    0.28    0.18
   2  -2   4    0.04    0.21
   2  -2   4    0.03    0.19
   2  -2   4    0.12    0.21
   2  -2   4    0.06    0.18
   2  -2   4    0.01    0.14
  -3   2  -4   -0.26    0.19
   3  -2   4    0.17    0.23
   3  -2   4    0.02    0.22
   3  -2   4    0.20    0.25
   3  -2   4   -0.12    0.22
  -6   2  -4   26.73    1.50
  -7   2  -4    2.27    0.21
  -8   2  -4    4.45    0.30
  -8   2  -4    3.65    0.26
  -7  -1   4    3.90    0.34
  -6  -1   4   10.52    0.61
  -6  -1   4   10.24    0.72
  -6  -1   4    9.93    0.58
  -5  -1   4    2.79    0.38
  -5  -1   4    2.99    0.19
  -5  -1   4    2.97    0.23
  -5  -1   4    2.92    0.27
  -5  -1   4    2.38    0.36
  -5  -1   4    3.39    0.48
  -5  -1   4    3.24    0.31
  -5  -1   4    3.14    0.22
  -4  -1   4    1.35    0.15
  -4  -1   4    1.59    0.15
  -4  -1   4    1.23    0.24
  -4  -1   4    2.09    0.27
  -4  -1   4    1.39    0.13
  -4  -1   4    1.22    0.14
  -4  -1   4    1.71    0.33
  -3  -1   4    6.94    0.48
  -3  -1   4    6.28    0.53
  -3  -1   4    6.89    0.51
   2   1  -4   23.95    1.15
   2   1  -4   24.01    1.15
  -2  -1   4   25.23    1.53
  -2  -1   4   21.78    1.43
  -2  -1   4   25.60    1.44
  -2  -1   4   19.37    1.42
  -2  -1   4   23.85    1.46
  -2  -1   4   22.97    1.14
  -2  -1   4   24.59    1.32
  -2  -1   4   23.18    1.15
  -2  -1   4   20.13    1.31
   1   1  -4    0.22    0.15
   1   1  -4    0.33    0.13
  -1  -1   4    0.48    0.15
  -1  -1   4    0.37    0.10
  -1  -1   4    0.49    0.15
  -1  -1   4    0.44    0.12
  -1  -1   4    0.43    0.22
  -1  -1   4    0.54    0.15
  -1  -1   4    0.42    0.13
  -1  -1   4    0.45    0.19
   0   1  -4  803.48   35.16
   0   1  -4  691.50   45.60
   0   1  -4  790.90   35.13
   0  -1   4  767.22   35.11
   0  -1   4  753.24   47.70
   0  -1   4  776.82   41.99
   0  -1   4  772.65   45.66
  -1   1  -4    6.84    0.54
  -1   1  -4    6.99    0.50
  -1   1  -4    7.97    0.48
  -1   1  -4    8.00    0.49
   1  -1   4    7.98    0.53
   1  -1   4    7.85    0.49
   1  -1   4    7.61    0.47
   1  -1   4    7.37    0.55
  -2   1  -4   32.26    1.91
  -2   1  -4   35.17    1.66
   2  -1   4   33.65    1.67
   2  -1   4   31.38    1.65
   2  -1   4   35.07    2.09
   2  -1   4   34.39    1.92
  -3   1  -4   22.21    1.41
  -3   1  -4   22.85    1.29
  -3   1  -4   20.89    1.15
  -3   1  -4   20.44    1.15
   3  -1   4   19.95    1.15
   3  -1   4   22.34    1.30
   3  -1   4   22.48    1.43
  -4   1  -4   64.59    4.11
  -4   1  -4   68.88    3.78
  -5   1  -4    2.10    0.21
  -6   1  -4   24.99    1.36
  -6   1  -4   23.13    1.33
  -7   1  -4    6.46    0.39
  -7   1  -4    6.59    0.38
  -8   1  -4    0.25    0.06
  -8   0   4    9.28    0.61
  -7   0   4    0.38    0.17
  -6   0   4    0.48    0.12
  -6   0   4    0.02    0.12
  -6   0   4    0.21    0.13
  -5   0   4   70.65    4.44
  -5   0   4   73.00    3.96
  -5   0   4   72.28    4.09
  -5   0   4   70.34    3.88
  -5   0   4   70.86    3.93
  -5   0   4   75.95    4.48
  -4   0   4    1.50    0.29
  -4   0   4    1.17    0.25
  -4   0   4    0.89    0.21
  -3   0   4   94.03    5.08
  -3   0   4   91.97    5.56
  -3   0   4   95.75    5.52
  -3   0   4   83.43    4.30
   2   0  -4   75.90    4.76
   2   0  -4   74.09    4.38
   2   0  -4   82.92    3.72
   2   0  -4   79.33    3.70
  -2   0   4   79.88    4.38
  -2   0   4   84.84    4.76
  -2   0   4   78.95    3.71
  -2   0   4   76.39    3.70
   1   0  -4  130.88    8.03
   1   0  -4  126.34    7.38
   1   0  -4  139.48    6.21
   1   0  -4  138.70    6.21
  -1   0   4  134.92    6.20
  -1   0   4  134.60    7.38
  -1   0   4  132.72    8.37
  -1   0   4  137.15    6.21
  -1   0   4  134.21    8.02
   0   0  -4  238.35   13.37
   0   0  -4  259.88   11.17
   0   0  -4  247.59   14.48
   0   0  -4  251.24   11.17
   0   0  -4  212.39   14.77
   0   0   4  239.59   13.36
   0   0   4  225.40   15.16
   0   0   4  256.23   11.17
   0   0   4  244.77   14.48
   0   0   4  256.14   11.17
  -1   0  -4  211.55   12.41
  -1   0  -4  201.77   11.41
  -1   0  -4  214.39    9.59
  -1   0  -4  210.40    9.59
   1   0   4  215.73    9.59
   1   0   4  209.90    9.59
   1   0   4  196.51   11.41
   1   0   4  205.40   12.41
  -2   0  -4    2.02    0.23
  -2   0  -4    2.46    0.30
  -2   0  -4    2.35    0.27
  -2   0  -4    2.22    0.27
   2   0   4    2.21    0.29
   2   0   4    2.12    0.28
   2   0   4    2.24    0.26
   2   0   4    2.20    0.29
  -3   0  -4   70.20    4.37
  -3   0  -4   70.29    4.00
  -3   0  -4   74.33    4.36
  -4   0  -4    6.44    0.50
  -4   0  -4    5.61    0.54
  -4   0  -4    5.52    0.36
  -4   0  -4    6.01    0.37
  -4   0  -4    6.36    0.52
  -5   0  -4   77.17    4.56
  -5   0  -4   87.09    4.43
  -5   0  -4   80.83    4.40
  -5   0  -4   79.56    5.07
  -5   0  -4   83.81    4.35
  -5   0  -4   75.21    4.98
  -6   0  -4    0.43    0.12
  -6   0  -4    0.55    0.11
  -6   0  -4    0.60    0.11
  -7   0  -4    6.50    0.42
  -7   0  -4    7.20    0.40
  -8   1   4    0.38    0.10
  -7   1   4    1.01    0.19
  -7   1   4    1.46    0.17
  -6   1   4    2.09    0.22
  -6   1   4    2.27    0.23
  -5   1   4   19.74    1.11
  -5   1   4   18.52    1.35
  -5   1   4   20.33    1.35
  -5   1   4   20.01    1.26
  -4   1   4  130.60    7.26
  -4   1   4  129.50    7.92
  -4   1   4  131.74    7.89
   3  -1  -4    0.15    0.14
   3  -1  -4    0.03    0.17
   3  -1  -4    0.13    0.21
   3  -1  -4    0.20    0.22
  -3   1   4    0.22    0.21
  -3   1   4   -0.02    0.20
  -3   1   4    0.04    0.16
  -3   1   4    0.18    0.13
  -3   1   4    0.17    0.17
   2  -1  -4  131.89    7.93
   2  -1  -4  132.50    6.16
   2  -1  -4  133.41    7.30
   2  -1  -4  135.29    6.15
  -2   1   4  132.08    7.93
  -2   1   4  126.51    7.29
  -2   1   4  133.04    6.16
  -2   1   4  134.32    6.15
   1  -1  -4    0.40    0.15
   1  -1  -4    0.45    0.16
   1  -1  -4    0.31    0.16
   1  -1  -4    0.24    0.14
   1  -1  -4    0.28    0.14
  -1   1   4    0.23    0.15
  -1   1   4    0.34    0.15
  -1   1   4    0.38    0.15
  -1   1   4    0.29    0.14
   0  -1  -4    5.25    0.37
   0  -1  -4    5.64    0.38
   0  -1  -4    5.76    0.37
   0  -1  -4    5.85    0.42
   0  -1  -4    5.99    0.44
   0   1   4    5.06    0.38
   0   1   4    5.76    0.37
   0   1   4    5.09    0.42
   0   1   4    4.53    0.36
   0   1   4    5.49    0.39
  -1  -1  -4  104.63    5.56
  -1  -1  -4  109.98    6.05
  -1  -1  -4  102.64    4.69
  -1  -1  -4   84.12    6.04
  -1  -1  -4  107.34    6.17
   1   1   4  105.63    4.70
   1   1   4  111.13    4.71
   1   1   4   92.59    6.05
   1   1   4   90.16    5.56
  -2  -1  -4   44.16    2.74
  -2  -1  -4   45.87    2.46
  -2  -1  -4   44.60    2.71
  -2  -1  -4   39.51    2.10
  -3  -1  -4    5.22    0.43
  -3  -1  -4    4.82    0.51
  -3  -1  -4    5.12    0.47
  -3  -1  -4    4.87    0.48
  -4  -1  -4    4.18    0.26
  -4  -1  -4    3.80    0.29
  -4  -1  -4    3.95    0.45
  -4  -1  -4    4.53    0.43
  -4  -1  -4    3.78    0.26
  -4  -1  -4    3.53    0.32
  -4  -1  -4    4.48    0.48
  -4  -1  -4    5.06    0.52
  -5  -1  -4   20.34    1.10
  -5  -1  -4   19.69    1.43
  -5  -1  -4   19.81    1.12
  -5  -1  -4   19.61    1.11
  -5  -1  -4   21.87    1.36
  -5  -1  -4   18.93    1.30
  -6  -1  -4   28.41    1.79
  -6  -1  -4   25.34    1.46
  -7  -1  -4    0.07    0.06
  -7  -1  -4    0.01    0.09
  -8   2   4    1.53    0.21
  -8   2   4    2.33    0.14
  -7   2   4    5.51    0.36
  -6   2   4    3.90    0.30
   4  -2  -4    0.91    0.24
  -4   2   4    1.02    0.22
   3  -2  -4   22.95    1.49
   3  -2  -4   23.11    1.33
   3  -2  -4   21.14    1.19
   3  -2  -4   22.23    1.43
  -3   2   4   20.41    1.17
   2  -2  -4  113.43    5.61
   2  -2  -4  115.03    5.62
   2  -2  -4  128.53    6.66
   2  -2  -4  125.94    7.23
  -2   2   4  116.92    5.62
  -2   2   4  122.28    5.63
   1  -2  -4   46.12    2.73
   1  -2  -4   44.10    2.15
   1  -2  -4   43.95    2.79
   1  -2  -4   46.81    2.51
  -1   2   4   43.94    2.14
  -1   2   4   43.69    2.15
   0  -2  -4   24.67    1.22
   0  -2  -4   24.79    1.58
   0  -2  -4   23.80    1.21
   0  -2  -4   26.98    1.53
   0  -2  -4   21.11    1.39
   0  -2  -4   25.48    1.60
   0  -2  -4   25.95    1.40
   0  -2  -4   22.01    1.51
   0   2   4   25.10    1.22
   0   2   4   25.18    1.22
  -1  -2  -4  189.36   12.51
  -1  -2  -4  209.95   11.96
  -1  -2  -4  200.39   12.22
  -1  -2  -4  201.57   10.99
  -2  -2  -4   50.96    2.90
  -2  -2  -4   52.00    3.16
  -2  -2  -4   52.41    3.25
  -3  -2  -4    5.00    0.44
  -3  -2  -4    3.58    0.34
  -3  -2  -4    4.46    0.37
  -3  -2  -4    4.23    0.35
  -3  -2  -4    5.66    0.43
  -3  -2  -4    5.94    0.52
  -3  -2  -4    4.42    0.27
  -3  -2  -4    4.58    0.28
  -3  -2  -4    4.19    0.34
  -4  -2  -4    0.13    0.12
  -4  -2  -4    0.17    0.15
  -4  -2  -4    0.13    0.07
  -4  -2  -4    0.09    0.21
  -4  -2  -4    0.12    0.27
  -4  -2  -4    0.23    0.18
  -4  -2  -4    0.07    0.15
  -4  -2  -4   -0.13    0.18
  -5  -2  -4    1.95    0.18
  -5  -2  -4    2.03    0.16
  -5  -2  -4    2.03    0.20
  -5  -2  -4    2.30    0.23
  -6  -2  -4    0.88    0.12
  -6  -2  -4    1.18    0.15
  -6  -2  -4    0.61    0.11
  -8   3   4    1.25    0.11
  -8   3   4    1.25    0.17
   7  -3  -4   15.08    0.91
  -7   3   4   16.34    0.91
   6  -3  -4    0.43    0.16
   5  -3  -4   30.44    1.71
   4  -3  -4    4.38    0.35
   4  -3  -4    4.30    0.32
   4  -3  -4    4.98    0.53
   4  -3  -4    5.15    0.48
   4  -3  -4    5.67    0.52
   4  -3  -4    5.01    0.34
   3  -3  -4  161.16    9.63
   3  -3  -4  158.78   10.10
   3  -3  -4  161.22    8.87
   2  -3  -4    1.89    0.30
   2  -3  -4    1.47    0.32
   2  -3  -4    1.53    0.25
   2  -3  -4    1.45    0.24
   1  -3  -4    0.47    0.23
   1  -3  -4    0.34    0.18
   1  -3  -4    0.47    0.22
   1  -3  -4    0.31    0.16
   0  -3  -4   72.43    4.60
   0  -3  -4   71.15    4.46
   0  -3  -4   77.94    4.11
   0  -3  -4   74.93    4.71
  -1  -3  -4    0.45    0.28
  -1  -3  -4    0.42    0.13
  -2  -3  -4   15.41    0.89
  -2  -3  -4   18.33    1.19
  -2  -3  -4   15.96    0.96
  -2  -3  -4   16.39    1.08
  -2  -3  -4   16.59    1.11
  -2  -3  -4   16.06    1.09
  -2  -3  -4   15.78    1.04
  -2  -3  -4   16.63    0.91
  -2  -3  -4   16.97    1.04
  -3  -3  -4    1.05    0.10
  -3  -3  -4    0.94    0.19
  -3  -3  -4    0.58    0.15
  -3  -3  -4    1.10    0.16
  -3  -3  -4    1.15    0.20
  -3  -3  -4    0.70    0.15
  -3  -3  -4    1.28    0.13
  -3  -3  -4    1.18    0.22
  -3  -3  -4    1.22    0.35
  -4  -3  -4    0.95    0.22
  -4  -3  -4    0.77    0.19
  -4  -3  -4    0.55    0.10
  -4  -3  -4    0.85    0.19
  -5  -3  -4   18.92    1.38
  -5  -3  -4   22.28    1.17
  -5  -3  -4   22.83    1.44
  -6  -3  -4    4.73    0.26
   8  -4  -4    8.12    0.45
  -8   4   4    7.48    0.46
   7  -4  -4    3.33    0.26
   6  -4  -4   12.96    0.78
   6  -4  -4   14.16    0.79
   5  -4  -4    0.96    0.14
   5  -4  -4    0.57    0.28
   4  -4  -4   12.99    0.89
   4  -4  -4   12.15    0.80
   4  -4  -4   10.90    0.89
   4  -4  -4   11.98    0.71
   4  -4  -4   13.45    0.71
   4  -4  -4   12.31    0.70
   4  -4  -4   11.74    0.98
   3  -4  -4    3.85    0.48
   3  -4  -4    3.54    0.42
   3  -4  -4    3.64    0.26
   3  -4  -4    3.77    0.32
   3  -4  -4    3.82    0.25
   3  -4  -4    3.86    0.25
   3  -4  -4    4.00    0.42
   2  -4  -4    6.66    0.40
   2  -4  -4    6.85    0.53
   2  -4  -4    7.53    0.64
   2  -4  -4    6.88    0.40
   2  -4  -4    6.29    0.51
   2  -4  -4    6.81    0.50
   2  -4  -4    7.16    0.48
   2  -4  -4    7.42    0.49
   1  -4  -4   14.53    1.06
   1  -4  -4   15.75    0.87
   1  -4  -4   17.06    1.16
   1  -4  -4   14.65    0.86
   1  -4  -4   16.16    1.06
   1  -4  -4   16.72    1.05
   1  -4  -4   15.10    0.99
   1  -4  -4   15.62    0.93
   1  -4  -4   16.56    1.02
   1  -4  -4   16.95    1.15
   0  -4  -4    4.76    0.37
   0  -4  -4    4.79    0.39
   0  -4  -4    4.89    0.30
   0  -4  -4    4.44    0.33
   0  -4  -4    5.47    0.57
   0  -4  -4    5.40    0.48
   0  -4  -4    4.41    0.35
   0  -4  -4    4.38    0.26
   0  -4  -4    4.63    0.38
   0  -4  -4    4.37    0.37
   0  -4  -4    4.59    0.28
  -1  -4  -4    7.66    0.50
  -1  -4  -4    7.21    0.53
  -1  -4  -4    7.49    0.54
  -1  -4  -4    7.11    0.54
  -1  -4  -4    6.57    0.65
  -1  -4  -4    7.24    0.42
  -2  -4  -4    5.88    0.34
  -2  -4  -4    6.06    0.46
  -2  -4  -4    5.78    0.45
  -2  -4  -4    5.09    0.61
  -2  -4  -4    5.53    0.45
  -2  -4  -4    5.80    0.47
  -3  -4  -4   25.28    1.53
  -3  -4  -4   22.97    1.43
  -3  -4  -4   19.81    1.48
  -3  -4  -4   22.97    1.24
  -3  -4  -4   22.28    1.48
  -4  -4  -4    3.91    0.23
  -4  -4  -4    3.84    0.34
  -4  -4  -4    4.30    0.37
  -5  -4  -4    0.09    0.10
  -5  -4  -4    0.04    0.12
   7  -5  -4   27.17    1.54
   7  -5  -4   23.89    1.39
   6  -5  -4   16.02    0.95
   6  -5  -4   17.61    0.95
   6  -5  -4   17.73    1.06
   5  -5  -4    0.21    0.15
   5  -5  -4    0.22    0.15
   5  -5  -4    0.29    0.14
   5  -5  -4    0.10    0.09
   4  -5  -4    3.45    0.34
   4  -5  -4    3.60    0.46
   4  -5  -4    3.49    0.29
   4  -5  -4    3.39    0.29
   3  -5  -4    2.39    0.35
   3  -5  -4    2.93    0.30
   3  -5  -4    3.23    0.23
   3  -5  -4    2.90    0.30
   3  -5  -4    3.63    0.31
   3  -5  -4    2.43    0.45
   2  -5  -4    3.94    0.36
   2  -5  -4    3.45    0.31
   2  -5  -4    3.54    0.34
   2  -5  -4    4.21    0.27
   2  -5  -4    4.08    0.35
   2  -5  -4    4.43    0.53
   2  -5  -4    4.13    0.37
   1  -5  -4   26.46    1.90
   1  -5  -4   27.02    1.93
   1  -5  -4   26.81    1.85
   1  -5  -4   26.56    1.52
   1  -5  -4   30.00    1.82
   1  -5  -4   30.07    1.84
   1  -5  -4   27.88    1.73
   0  -5  -4    0.29    0.21
   0  -5  -4    0.19    0.07
   0  -5  -4    0.19    0.20
   0  -5  -4    0.09    0.28
   0  -5  -4    0.30    0.14
   0  -5  -4    0.15    0.15
  -1  -5  -4   27.41    1.74
  -1  -5  -4   25.43    1.42
  -1  -5  -4   26.03    1.70
  -1  -5  -4   22.64    1.78
  -1  -5  -4   28.17    1.73
  -2  -5  -4   19.21    1.26
  -2  -5  -4   18.90    1.30
  -2  -5  -4   19.25    1.27
  -3  -5  -4    3.64    0.31
  -3  -5  -4    3.22    0.29
  -4  -5  -4    9.33    0.62
  -4  -5  -4    8.45    0.59
   7  -6  -4    1.74    0.16
   7  -6  -4    1.67    0.12
   6  -6  -4    1.26    0.17
   6  -6  -4    1.17    0.12
   6  -6  -4    1.25    0.16
   5  -6  -4   17.00    0.90
   5  -6  -4   15.67    0.87
   5  -6  -4   15.49    0.99
   5  -6  -4   15.46    1.01
   4  -6  -4    2.44    0.21
   4  -6  -4    2.91    0.26
   4  -6  -4    2.70    0.18
   4  -6  -4    2.36    0.29
   3  -6  -4   10.91    0.69
   3  -6  -4   10.11    0.67
   3  -6  -4   10.53    0.59
   3  -6  -4    9.72    0.73
   2  -6  -4    0.02    0.20
   2  -6  -4   -0.20    0.19
   2  -6  -4    0.04    0.08
   2  -6  -4   -0.09    0.16
   1  -6  -4    4.60    0.27
   1  -6  -4    5.15    0.42
   1  -6  -4    4.21    0.42
   1  -6  -4    4.72    0.37
   0  -6  -4    4.89    0.42
   0  -6  -4    4.54    0.36
   0  -6  -4    5.74    0.43
   0  -6  -4    4.46    0.42
  -1  -6  -4    7.43    0.52
  -1  -6  -4    6.21    0.53
  -1  -6  -4    6.48    0.49
  -2  -6  -4   -0.16    0.17
  -2  -6  -4    0.06    0.14
  -2  -6  -4    0.03    0.10
  -3  -6  -4   -0.03    0.11
  -3  -6  -4   -0.04    0.13
   6  -7  -4    0.31    0.08
   6  -7  -4    0.29    0.12
   5  -7  -4   -0.09    0.08
   5  -7  -4   -0.02    0.09
   5  -7  -4   -0.04    0.09
   4  -7  -4    1.34    0.19
   4  -7  -4    1.19    0.11
   4  -7  -4    0.92    0.20
   3  -7  -4    0.35    0.16
   3  -7  -4    0.58    0.15
   3  -7  -4    0.70    0.08
   2  -7  -4    7.37    0.49
   2  -7  -4    6.78    0.53
   1  -7  -4    4.67    0.36
   1  -7  -4    4.27    0.38
   1  -7  -4    4.05    0.37
   0  -7  -4    1.24    0.17
   0  -7  -4    0.77    0.19
  -1  -7  -4    3.65    0.28
   4  -8  -4    7.17    0.47
   3  -8  -4   10.40    0.66
   2  -8  -4    0.08    0.09
   2  -8  -4    0.01    0.12
   1  -8  -4    0.18    0.08
   0  -8   5    2.11    0.19
   1  -8   5    0.17    0.11
   1  -8   5    0.16    0.10
   2  -8   5    2.18    0.22
   2  -8   5    2.82    0.25
   3  -8   5    3.53    0.27
   3  -8   5    3.31    0.28
   4  -8   5    2.02    0.19
   5  -8   5    0.01    0.08
  -2  -7   5   11.73    0.75
  -2  -7   5   12.02    0.77
  -1  -7   5    4.85    0.35
  -1  -7   5    5.45    0.38
  -1  -7   5    5.25    0.38
   0  -7   5    0.57    0.12
   0  -7   5    0.83    0.19
   0  -7   5    0.70    0.19
   0  -7   5    0.58    0.15
   1  -7   5    3.21    0.30
   1  -7   5    2.84    0.27
   1  -7   5    2.97    0.28
   1  -7   5    3.32    0.31
   2  -7   5    2.03    0.26
   2  -7   5    1.80    0.22
   2  -7   5    1.86    0.20
   3  -7   5    3.50    0.32
   3  -7   5    3.55    0.30
   3  -7   5    3.51    0.33
   4  -7   5    0.43    0.19
   4  -7   5    0.52    0.16
   4  -7   5    0.29    0.15
   5  -7   5    3.81    0.24
   5  -7   5    3.70    0.28
   6  -7   5    4.98    0.28
   6  -7   5    4.23    0.32
  -3  -6   5    0.08    0.15
  -3  -6   5    0.21    0.12
  -3  -6   5    0.24    0.11
  -2  -6   5    2.18    0.26
  -2  -6   5    2.42    0.23
  -2  -6   5    2.38    0.26
  -2  -6   5    2.87    0.24
  -1  -6   5   15.23    0.96
  -1  -6   5   15.67    0.95
  -1  -6   5   13.62    0.97
  -1  -6   5   13.04    0.92
  -1  -6   5   14.42    0.93
  -1  -6   5   14.82    0.92
   0  -6   5    3.88    0.34
   0  -6   5    3.28    0.30
   0  -6   5    4.04    0.33
   0  -6   5    3.22    0.32
   0  -6   5    3.58    0.33
   0  -6   5    3.03    0.31
   1  -6   5   11.76    0.76
   1  -6   5   11.40    0.74
   1  -6   5   11.49    0.75
   1  -6   5   11.28    0.79
   1  -6   5    9.19    0.92
   2  -6   5   19.76    1.14
   2  -6   5   21.41    1.33
   2  -6   5   18.79    1.52
   2  -6   5   22.75    1.33
   2  -6   5   20.83    1.29
   2  -6   5   21.25    1.40
   3  -6   5   51.04    2.85
   3  -6   5   50.85    3.21
   3  -6   5   54.49    3.13
   3  -6   5   53.13    3.24
   4  -6   5    1.32    0.18
   4  -6   5    0.85    0.20
   4  -6   5    1.17    0.10
   4  -6   5    1.25    0.15
   4  -6   5    1.10    0.15
   5  -6   5    1.83    0.20
   5  -6   5    1.68    0.18
   5  -6   5    1.64    0.23
   5  -6   5    1.83    0.15
   6  -6   5    3.81    0.30
   6  -6   5    3.93    0.31
   6  -6   5    4.72    0.27
   6  -6   5    4.01    0.25
   7  -6   5    4.60    0.26
   7  -6   5    4.54    0.28
  -5  -5   5    5.97    0.39
  -5  -5   5    5.81    0.41
  -4  -5   5    0.07    0.12
  -4  -5   5    0.28    0.12
  -4  -5   5    0.40    0.18
  -3  -5   5   13.80    0.96
  -3  -5   5   14.66    0.93
  -3  -5   5   14.95    0.94
  -3  -5   5   14.52    0.96
  -2  -5   5    1.50    0.25
  -2  -5   5    1.57    0.22
  -2  -5   5    1.69    0.25
  -2  -5   5    1.47    0.22
  -2  -5   5    1.36    0.21
  -2  -5   5    1.43    0.22
  -1  -5   5   18.76    1.43
  -1  -5   5   18.03    1.29
  -1  -5   5   19.51    1.24
  -1  -5   5   19.39    1.25
  -1  -5   5   21.75    1.27
  -1  -5   5   20.57    1.23
  -1  -5   5   19.27    1.31
  -1  -5   5   20.62    1.29
   0  -5   5    1.42    0.21
   0  -5   5    1.97    0.38
   0  -5   5    1.57    0.23
   0  -5   5    1.86    0.24
   0  -5   5    1.41    0.34
   0  -5   5    1.65    0.21
   0  -5   5    1.64    0.25
   0  -5   5    2.01    0.24
   1  -5   5    0.47    0.29
   1  -5   5    0.32    0.17
   1  -5   5    0.58    0.18
   1  -5   5    0.58    0.19
   1  -5   5    0.51    0.18
   1  -5   5    0.16    0.31
   1  -5   5    0.38    0.17
   1  -5   5    0.57    0.08
   2  -5   5    7.50    0.71
   2  -5   5    8.01    0.56
   2  -5   5    7.10    0.52
   2  -5   5    7.19    0.42
   2  -5   5    7.01    0.51
   2  -5   5    6.92    0.67
   2  -5   5    7.31    0.51
   3  -5   5   22.26    1.45
   3  -5   5   22.92    1.24
   3  -5   5   23.64    1.34
   3  -5   5   23.26    1.43
   3  -5   5   23.89    1.27
   3  -5   5   21.73    1.45
   3  -5   5   22.89    1.64
   3  -5   5   22.95    1.40
   3  -5   5   21.49    1.61
   4  -5   5    6.06    0.65
   4  -5   5    5.56    0.34
   4  -5   5    5.73    0.43
   4  -5   5    5.44    0.41
   4  -5   5    5.38    0.62
   4  -5   5    5.47    0.49
   4  -5   5    5.28    0.36
   5  -5   5   26.99    1.43
   5  -5   5   23.81    1.41
   5  -5   5   24.18    1.55
   5  -5   5   27.05    1.62
   5  -5   5   26.14    1.40
   6  -5   5    2.29    0.23
   6  -5   5    2.48    0.16
   6  -5   5    2.68    0.21
   7  -5   5   -0.05    0.10
   7  -5   5    0.08    0.13
  -6  -4   5    0.23    0.08
  -6  -4   5    0.23    0.09
  -5  -4   5    4.27    0.33
  -5  -4   5    4.38    0.34
  -5  -4   5    3.66    0.34
  -4  -4   5    1.60    0.25
  -4  -4   5    2.02    0.28
  -4  -4   5    2.20    0.26
  -3  -4   5   12.04    0.82
  -3  -4   5   12.02    0.78
  -3  -4   5   12.65    0.82
  -3  -4   5   11.01    0.65
  -3  -4   5   12.24    0.80
  -2  -4   5    6.12    0.49
  -2  -4   5    7.24    0.50
  -2  -4   5    7.48    0.62
  -2  -4   5    7.21    0.48
  -2  -4   5    8.03    0.51
  -2  -4   5    6.49    0.51
  -2  -4   5    7.41    0.67
  -2  -4   5    7.44    0.52
  -1  -4   5    3.38    0.31
  -1  -4   5    3.57    0.31
  -1  -4   5    3.97    0.31
  -1  -4   5    3.44    0.29
  -1  -4   5    3.29    0.30
  -1  -4   5    3.24    0.36
  -1  -4   5    3.88    0.44
   0  -4   5    5.98    0.56
   0  -4   5    6.31    0.44
   0  -4   5    6.23    0.43
   0  -4   5    5.78    0.57
   1  -4   5   10.61    0.81
   1  -4   5   10.70    0.60
   1  -4   5   11.01    0.65
   1  -4   5   11.52    0.84
   1  -4   5    9.42    0.59
   1  -4   5    9.90    0.65
   2  -4   5  261.91   16.71
   2  -4   5  247.72   14.13
   2  -4   5  281.88   16.42
   2  -4   5  261.22   15.60
   2  -4   5  235.91   14.00
   2  -4   5  275.38   14.35
   2  -4   5  268.58   16.36
   3  -4   5    0.18    0.26
   3  -4   5    0.07    0.21
   3  -4   5    0.09    0.27
   3  -4   5    0.04    0.09
   3  -4   5   -0.01    0.09
   3  -4   5    0.00    0.19
   3  -4   5   -0.09    0.14
   3  -4   5    0.01    0.14
   3  -4   5   -0.05    0.11
   4  -4   5   13.45    0.77
   4  -4   5   13.87    0.77
   4  -4   5   14.75    1.07
   4  -4   5   13.38    0.90
   4  -4   5   13.15    0.76
   4  -4   5   12.88    0.84
   4  -4   5   13.10    0.99
   4  -4   5   13.62    1.04
   5  -4   5    0.26    0.33
   5  -4   5    0.27    0.15
   5  -4   5    0.14    0.12
   5  -4   5    0.28    0.14
   5  -4   5    0.12    0.31
   6  -4   5    3.29    0.25
   6  -4   5    3.01    0.26
   7  -4   5    0.13    0.11
   7  -4   5    0.13    0.09
   8  -4   5    1.56    0.14
  -6  -3   5    2.97    0.27
  -6  -3   5    3.47    0.19
  -6  -3   5    3.11    0.27
  -5  -3   5    0.06    0.13
  -5  -3   5    0.07    0.09
  -5  -3   5   -0.02    0.17
  -5  -3   5   -0.02    0.15
  -4  -3   5    1.57    0.23
  -4  -3   5    1.53    0.20
  -4  -3   5    0.54    0.33
  -4  -3   5    1.86    0.23
  -3  -3   5    1.10    0.20
  -3  -3   5    0.83    0.18
  -3  -3   5    0.90    0.17
  -3  -3   5    1.05    0.18
  -3  -3   5    0.87    0.11
  -3  -3   5    0.64    0.29
  -2  -3   5    2.41    0.26
  -2  -3   5    3.29    0.43
  -2  -3   5    2.20    0.24
  -2  -3   5    2.33    0.24
  -2  -3   5    2.19    0.22
  -2  -3   5    2.30    0.15
  -2  -3   5    2.52    0.33
  -1  -3   5   16.78    1.13
  -1  -3   5   17.86    1.21
   0   3  -5    2.18    0.18
   0  -3   5    2.63    0.19
   0  -3   5    2.31    0.35
   0  -3   5    2.28    0.18
   0  -3   5    2.38    0.24
   0  -3   5    2.55    0.20
   0  -3   5    2.40    0.35
   0  -3   5    2.38    0.19
   0  -3   5    2.04    0.17
   1  -3   5  236.84   12.31
   1  -3   5  229.87   13.38
   1  -3   5  235.47   14.02
   1  -3   5  227.05   14.06
   1  -3   5  193.08   13.38
   2  -3   5  103.75    5.82
   2  -3   5  107.89    6.65
   2  -3   5  103.24    6.63
   2  -3   5  106.06    6.33
   3  -3   5   37.92    2.41
   3  -3   5   39.42    2.54
   3  -3   5   39.29    2.23
   3  -3   5   37.77    2.52
   4  -3   5   59.77    3.39
   4  -3   5   62.10    3.90
   4  -3   5   65.41    3.58
   4  -3   5   64.33    3.46
   5  -3   5    4.22    0.31
   6  -3   5    0.21    0.16
  -7   3  -5    0.68    0.12
   7  -3   5    0.60    0.16
  -8   3  -5    0.96    0.11
   8  -3   5    1.04    0.12
  -7  -2   5    0.29    0.11
  -6  -2   5    3.18    0.23
  -6  -2   5    3.18    0.28
  -6  -2   5    3.38    0.29
  -5  -2   5   57.29    3.50
  -5  -2   5   58.35    3.06
  -5  -2   5   59.29    3.64
  -5  -2   5   54.47    3.62
  -5  -2   5   53.48    3.60
  -5  -2   5   59.27    3.11
  -4  -2   5   36.67    1.99
  -4  -2   5   33.64    1.90
  -4  -2   5   33.36    2.14
  -4  -2   5   36.04    1.87
  -4  -2   5   35.73    2.22
  -4  -2   5   33.33    2.21
  -4  -2   5   32.80    2.14
  -4  -2   5   36.45    2.26
  -3  -2   5    9.28    0.59
  -3  -2   5    8.13    0.47
  -3  -2   5    8.30    0.48
  -3  -2   5    9.25    0.68
  -3  -2   5    7.19    0.54
  -3  -2   5    9.19    0.55
  -3  -2   5    8.50    0.57
  -2  -2   5   44.97    2.72
  -2  -2   5   45.62    2.79
  -2  -2   5   42.91    2.50
  -2  -2   5   46.17    2.90
   1   2  -5    0.42    0.13
   1   2  -5    0.30    0.12
  -1  -2   5    0.28    0.11
  -1  -2   5    0.26    0.11
  -1  -2   5    0.65    0.25
  -1  -2   5    0.55    0.13
  -1  -2   5    0.38    0.14
  -1  -2   5    0.36    0.10
  -1  -2   5    0.33    0.10
  -1  -2   5    0.58    0.18
   0   2  -5   34.48    1.63
   0   2  -5   35.24    1.64
   0  -2   5   32.87    2.09
   0  -2   5   34.15    1.63
   0  -2   5   36.79    2.08
   0  -2   5   31.18    1.90
   0  -2   5   34.49    2.21
   0  -2   5   32.42    2.08
   0  -2   5   33.34    1.63
   0  -2   5   37.01    1.91
  -1   2  -5   45.62    2.10
  -1   2  -5   45.22    2.10
   1  -2   5   46.98    2.66
   1  -2   5   37.11    2.66
   1  -2   5   45.12    2.09
   1  -2   5   44.76    2.79
   1  -2   5   48.04    2.81
   1  -2   5   38.29    2.44
   1  -2   5   39.28    2.64
   1  -2   5   44.42    2.09
   1  -2   5   46.75    2.45
  -2   2  -5    9.83    0.63
   2  -2   5    9.47    0.62
   2  -2   5    8.61    0.59
   2  -2   5   11.06    0.73
   2  -2   5    9.79    0.73
   2  -2   5   10.16    0.68
   3  -2   5   60.47    3.63
   3  -2   5   57.32    3.32
  -6   2  -5    0.35    0.16
  -7   2  -5    6.98    0.43
  -8   2  -5    0.23    0.07
  -7  -1   5    1.78    0.19
  -7  -1   5    1.49    0.10
  -6  -1   5    1.08    0.21
  -6  -1   5    0.68    0.10
  -5  -1   5   48.76    2.59
  -5  -1   5   45.90    2.58
  -5  -1   5   43.95    2.70
  -5  -1   5   51.20    3.02
  -5  -1   5   44.32    3.01
  -5  -1   5   45.27    2.90
  -5  -1   5   50.93    2.55
  -4  -1   5    0.12    0.08
  -4  -1   5    0.07    0.20
  -4  -1   5    0.16    0.07
  -4  -1   5    0.20    0.11
  -4  -1   5    0.03    0.26
  -4  -1   5    0.16    0.09
  -4  -1   5    0.11    0.17
  -3  -1   5   45.49    2.82
  -3  -1   5   45.12    2.55
  -3  -1   5   45.14    2.77
   2   1  -5  192.06    9.20
   2   1  -5  197.55    9.20
  -2  -1   5  188.30    9.19
  -2  -1   5  206.32   10.98
  -2  -1   5  190.88    9.19
  -2  -1   5  197.41   12.00
  -2  -1   5  212.65   11.94
  -2  -1   5  208.93   12.45
   1   1  -5   91.94    4.16
   1   1  -5   93.46    4.16
  -1  -1   5   77.76    4.92
  -1  -1   5   90.13    4.15
  -1  -1   5   84.23    5.35
  -1  -1   5   88.89    4.15
  -1  -1   5   92.88    5.61
  -1  -1   5   92.85    4.92
  -1  -1   5   91.32    5.35
   0   1  -5  152.76    6.76
   0   1  -5  131.16    8.03
   0   1  -5  153.48    6.76
   0   1  -5  129.16    8.73
   0  -1   5  151.67    6.76
   0  -1   5  133.44    8.73
   0  -1   5  153.50    8.73
   0  -1   5  152.35    6.76
   0  -1   5  151.37    9.13
   0  -1   5  153.82    8.03
  -1   1  -5   47.87    2.29
  -1   1  -5   44.87    2.91
  -1   1  -5   50.64    2.30
  -1   1  -5   42.37    2.67
   1  -1   5   47.65    2.29
   1  -1   5   49.44    2.29
   1  -1   5   51.94    2.92
   1  -1   5   48.05    2.68
   1  -1   5   48.55    3.04
  -2   1  -5    0.00    0.17
  -2   1  -5    0.00    0.19
  -2   1  -5    0.16    0.23
  -2   1  -5   -0.13    0.18
   2  -1   5    0.08    0.20
   2  -1   5   -0.06    0.22
   2  -1   5    0.11    0.23
   2  -1   5    0.00    0.16
  -3   1  -5   16.72    1.12
  -3   1  -5   16.80    1.04
   3  -1   5   16.24    1.15
  -4   1  -5   23.93    1.35
  -5   1  -5   10.47    0.63
  -6   1  -5   80.76    4.35
  -7   1  -5    0.94    0.11
  -7   1  -5    0.61    0.13
  -8   0   5    0.02    0.07
  -7   0   5   15.86    0.92
  -7   0   5   16.21    0.90
  -7   0   5   16.54    1.06
  -6   0   5   11.72    0.69
  -6   0   5   11.79    0.67
  -6   0   5   11.92    0.68
  -5   0   5    9.62    0.76
  -5   0   5    9.75    0.55
  -5   0   5    9.61    0.71
  -5   0   5    8.12    0.61
  -5   0   5    9.85    0.77
  -5   0   5   10.26    0.55
  -5   0   5    8.52    0.55
  -4   0   5   52.68    3.06
  -4   0   5   44.17    2.71
  -4   0   5   49.20    2.82
  -4   0   5   51.90    3.09
  -3   0   5    0.64    0.19
  -3   0   5    0.41    0.18
  -3   0   5    0.62    0.19
  -3   0   5    0.61    0.23
   2   0  -5    1.13    0.23
   2   0  -5    1.42    0.22
   2   0  -5    1.07    0.23
   2   0  -5    1.41    0.24
  -2   0   5    1.40    0.23
  -2   0   5    1.33    0.22
  -2   0   5    1.47    0.23
  -2   0   5    1.76    0.25
  -2   0   5    1.11    0.18
   1   0  -5   15.61    0.84
   1   0  -5   15.45    1.02
   1   0  -5   14.90    0.94
   1   0  -5   15.99    0.84
  -1   0   5   16.69    0.84
  -1   0   5   15.83    0.82
  -1   0   5   15.51    0.94
  -1   0   5   16.65    1.02
  -1   0   5   15.04    1.03
   0   0  -5    0.06    0.18
   0   0  -5   -0.06    0.12
   0   0  -5    0.06    0.14
   0   0  -5    0.05    0.14
   0   0  -5   -0.06    0.19
   0   0   5   -0.06    0.15
   0   0   5   -0.11    0.17
   0   0   5   -0.18    0.14
   0   0   5   -0.08    0.19
   0   0   5    0.06    0.14
  -1   0  -5   15.55    0.82
  -1   0  -5   14.91    0.99
  -1   0  -5   15.66    0.99
  -1   0  -5   14.82    0.90
  -1   0  -5   14.85    0.81
   1   0   5   14.54    0.91
   1   0   5   15.62    1.00
   1   0   5   15.57    0.83
   1   0   5   15.00    0.81
  -2   0  -5   13.52    0.80
  -2   0  -5   14.72    0.96
  -2   0  -5   13.80    0.80
  -2   0  -5   14.83    0.88
   2   0   5   13.56    0.98
   2   0   5   14.53    0.83
   2   0   5   13.05    0.81
  -3   0  -5    0.43    0.25
  -3   0  -5    0.41    0.23
  -4   0  -5  107.59    6.25
  -4   0  -5  117.68    6.95
  -4   0  -5  105.34    6.13
  -4   0  -5  115.74    6.37
  -4   0  -5  126.36    7.08
  -5   0  -5   47.03    2.70
  -5   0  -5   50.41    3.17
  -5   0  -5   49.84    2.65
  -6   0  -5    0.82    0.15
  -6   0  -5    1.23    0.13
  -6   0  -5    1.22    0.12
  -7   0  -5    1.78    0.14
  -7   0  -5    1.50    0.20
  -7   0  -5    1.60    0.14
  -8   1   5    0.32    0.09
  -8   1   5    0.51    0.07
  -7   1   5    1.58    0.16
  -7   1   5    1.66    0.19
  -7   1   5    1.58    0.18
  -6   1   5    6.53    0.42
  -6   1   5    6.43    0.41
  -5   1   5   23.64    1.30
  -5   1   5   22.62    1.44
  -5   1   5   22.73    1.54
  -5   1   5   22.76    1.57
   4  -1  -5   22.95    1.53
  -4   1   5   22.90    1.49
  -4   1   5   24.01    1.41
  -4   1   5   21.40    1.50
   3  -1  -5  132.10    6.42
   3  -1  -5  137.61    7.60
   3  -1  -5  133.90    8.26
  -3   1   5  133.12    6.43
  -3   1   5  142.75    8.26
  -3   1   5  143.72    7.60
   2  -1  -5    5.34    0.43
   2  -1  -5    6.09    0.47
   2  -1  -5    5.55    0.40
   2  -1  -5    5.73    0.46
  -2   1   5    5.78    0.40
  -2   1   5    5.12    0.43
  -2   1   5    5.45    0.45
  -2   1   5    5.57    0.46
   1  -1  -5    6.82    0.47
   1  -1  -5    6.39    0.42
   1  -1  -5    6.53    0.47
   1  -1  -5    5.92    0.46
   1  -1  -5    6.61    0.51
  -1   1   5    6.37    0.48
  -1   1   5    7.02    0.47
  -1   1   5    5.91    0.47
  -1   1   5    6.63    0.43
   0  -1  -5   19.00    1.13
   0  -1  -5   18.34    0.93
   0  -1  -5   17.69    0.91
   0  -1  -5   17.86    1.13
   0  -1  -5   18.61    1.03
   0   1   5   15.43    1.03
   0   1   5   18.11    0.93
   0   1   5   18.48    0.92
   0   1   5   15.35    1.10
   0   1   5   16.46    1.12
  -1  -1  -5   19.65    1.13
  -1  -1  -5   19.01    1.25
  -1  -1  -5   18.18    1.00
  -1  -1  -5   21.19    1.24
  -1  -1  -5   18.47    1.00
   1   1   5   18.68    1.01
   1   1   5   18.97    1.02
  -2  -1  -5   43.15    2.60
  -2  -1  -5   40.72    2.64
  -2  -1  -5   42.12    2.38
  -3  -1  -5    0.10    0.16
  -3  -1  -5    0.20    0.08
  -3  -1  -5    0.32    0.24
  -3  -1  -5    0.15    0.18
  -4  -1  -5    3.73    0.27
  -4  -1  -5    3.62    0.26
  -4  -1  -5    4.00    0.49
  -4  -1  -5    4.05    0.46
  -4  -1  -5    4.17    0.43
  -4  -1  -5    3.63    0.25
  -5  -1  -5    0.59    0.08
  -5  -1  -5    0.71    0.12
  -5  -1  -5    0.56    0.18
  -5  -1  -5    0.73    0.13
  -6  -1  -5    0.27    0.08
  -6  -1  -5    0.22    0.12
  -6  -1  -5    0.19    0.12
  -7  -1  -5   13.22    0.76
  -7  -1  -5   14.25    0.92
  -8   2   5   12.39    0.71
  -8   2   5    9.81    0.60
  -8   2   5    9.92    0.59
  -7   2   5    1.42    0.17
  -6   2   5    0.05    0.14
   4  -2  -5    7.39    0.63
  -4   2   5    7.52    0.58
   3  -2  -5   41.55    2.50
   3  -2  -5   46.14    2.83
   3  -2  -5   42.96    2.71
   2  -2  -5  142.77    7.58
   2  -2  -5  148.45    8.24
   2  -2  -5  124.49    6.39
  -2   2   5  131.99    6.39
   1  -2  -5   19.86    1.31
   1  -2  -5   21.83    1.19
   1  -2  -5   20.70    1.29
   1  -2  -5   18.00    1.03
   1  -2  -5   20.57    1.06
  -1   2   5   19.26    1.05
  -1   2   5   20.15    1.06
   0  -2  -5  279.23   13.81
   0  -2  -5  313.37   18.27
   0  -2  -5  301.70   16.53
   0  -2  -5  320.80   18.03
   0  -2  -5  286.47   13.81
  -1  -2  -5  198.67   12.99
  -1  -2  -5  213.21   11.42
  -1  -2  -5  216.60   12.43
  -1  -2  -5  203.39   12.69
  -2  -2  -5    0.31    0.16
  -2  -2  -5    0.60    0.23
  -3  -2  -5   46.72    2.96
  -3  -2  -5   44.40    2.87
  -3  -2  -5   47.40    2.47
  -3  -2  -5   47.02    2.44
  -3  -2  -5   42.64    2.47
  -3  -2  -5   41.72    2.80
  -3  -2  -5   42.04    2.77
  -3  -2  -5   49.43    2.91
  -3  -2  -5   43.66    2.92
  -3  -2  -5   48.16    2.58
  -4  -2  -5   11.50    0.82
  -4  -2  -5   11.09    0.79
  -4  -2  -5   13.06    0.98
  -4  -2  -5   12.78    0.68
  -4  -2  -5   13.27    0.87
  -4  -2  -5   13.23    0.71
  -4  -2  -5   11.17    0.79
  -5  -2  -5    0.05    0.06
  -5  -2  -5    0.13    0.10
  -5  -2  -5   -0.04    0.18
  -5  -2  -5    0.11    0.14
  -6  -2  -5    0.07    0.15
  -6  -2  -5   -0.01    0.08
   8  -3  -5    0.53    0.10
  -8   3   5    0.59    0.10
  -8   3   5    0.53    0.09
   7  -3  -5    5.26    0.37
  -7   3   5    5.03    0.35
   6  -3  -5    0.82    0.18
   5  -3  -5   31.78    1.78
   4  -3  -5   19.79    1.12
   4  -3  -5   20.27    1.37
   4  -3  -5   21.84    1.43
   4  -3  -5   17.73    1.10
   4  -3  -5   20.31    1.26
   3  -3  -5   57.04    3.30
   3  -3  -5   58.12    3.77
   3  -3  -5   59.69    3.59
   2  -3  -5   21.24    1.45
   2  -3  -5   21.43    1.41
   2  -3  -5   21.98    1.30
   2  -3  -5   22.80    1.51
   1  -3  -5    7.32    0.50
   1  -3  -5    7.10    0.61
   1  -3  -5    6.48    0.59
   1  -3  -5    7.22    0.54
   0  -3  -5    4.35    0.38
   0  -3  -5    4.14    0.45
   0  -3  -5    4.41    0.36
   0  -3  -5    4.35    0.46
  -1  -3  -5    4.60    0.35
  -1  -3  -5    4.00    0.34
  -1  -3  -5    4.59    0.27
  -1  -3  -5    4.56    0.38
  -1  -3  -5    3.88    0.25
  -1  -3  -5    4.06    0.32
  -1  -3  -5    5.13    0.48
  -1  -3  -5    4.71    0.35
  -2  -3  -5    7.31    0.52
  -2  -3  -5    7.32    0.42
  -2  -3  -5    6.92    0.53
  -2  -3  -5    7.29    0.51
  -2  -3  -5    7.48    0.54
  -2  -3  -5    7.83    0.51
  -2  -3  -5    7.96    0.68
  -2  -3  -5    7.23    0.54
  -2  -3  -5    7.44    0.43
  -3  -3  -5   36.76    2.43
  -3  -3  -5   38.40    2.02
  -3  -3  -5   32.56    2.11
  -3  -3  -5   37.71    2.48
  -3  -3  -5   40.29    2.47
  -3  -3  -5   37.99    2.32
  -3  -3  -5   37.30    2.05
  -3  -3  -5   38.50    2.40
  -4  -3  -5    2.53    0.27
  -4  -3  -5    2.74    0.21
  -4  -3  -5    2.47    0.30
  -5  -3  -5    3.66    0.29
  -5  -3  -5    3.08    0.26
  -5  -3  -5    3.09    0.21
  -6  -3  -5    5.97    0.42
   8  -4  -5    2.27    0.22
   8  -4  -5    2.63    0.17
  -8   4   5    2.90    0.19
   7  -4  -5   10.82    0.63
   6  -4  -5   26.77    1.62
   6  -4  -5   32.29    1.66
   5  -4  -5   10.11    0.60
   5  -4  -5    9.15    0.84
   5  -4  -5   11.27    0.61
   4  -4  -5    6.84    0.46
   4  -4  -5    6.58    0.61
   4  -4  -5    7.20    0.44
   4  -4  -5    7.15    0.43
   4  -4  -5    7.12    0.50
   4  -4  -5    6.86    0.69
   3  -4  -5   21.14    1.25
   3  -4  -5   21.42    1.47
   3  -4  -5   20.25    1.13
   3  -4  -5   20.50    1.28
   3  -4  -5   19.95    1.35
   3  -4  -5   20.00    1.11
   3  -4  -5   19.32    1.13
   2  -4  -5    0.16    0.11
   2  -4  -5    0.05    0.20
   2  -4  -5    0.08    0.30
   2  -4  -5    0.13    0.06
   2  -4  -5    0.11    0.16
   2  -4  -5    0.06    0.14
   2  -4  -5    0.23    0.17
   2  -4  -5    0.06    0.07
   2  -4  -5   -0.13    0.24
   2  -4  -5    0.09    0.15
   1  -4  -5   33.34    1.89
   1  -4  -5   35.54    2.22
   1  -4  -5   34.77    2.14
   1  -4  -5   35.24    2.27
   1  -4  -5   37.39    1.97
   1  -4  -5   33.11    2.25
   1  -4  -5   33.58    2.27
   1  -4  -5   35.80    2.32
   1  -4  -5   34.41    2.15
   1  -4  -5   33.73    1.87
   0  -4  -5   13.03    0.98
   0  -4  -5   13.47    0.77
   0  -4  -5   12.84    0.89
   0  -4  -5   13.09    0.71
   0  -4  -5   13.85    0.99
   0  -4  -5   12.14    0.84
   0  -4  -5   13.39    0.87
   0  -4  -5   12.00    0.83
   0  -4  -5   13.56    0.88
   0  -4  -5   12.48    0.72
  -1  -4  -5    2.66    0.19
  -1  -4  -5    2.42    0.41
  -1  -4  -5    2.74    0.29
  -1  -4  -5    2.69    0.25
  -1  -4  -5    2.71    0.30
  -2  -4  -5    3.39    0.34
  -2  -4  -5    3.30    0.35
  -2  -4  -5    3.72    0.30
  -2  -4  -5    4.13    0.53
  -2  -4  -5    3.59    0.34
  -2  -4  -5    3.68    0.24
  -3  -4  -5   16.05    1.06
  -3  -4  -5   14.65    1.05
  -3  -4  -5   16.09    1.08
  -3  -4  -5   16.34    0.88
  -4  -4  -5    0.18    0.12
  -4  -4  -5    0.05    0.18
  -4  -4  -5    0.23    0.06
  -5  -4  -5    0.06    0.10
  -5  -4  -5    0.13    0.13
   7  -5  -5   50.29    3.05
   7  -5  -5   52.17    2.76
   6  -5  -5    0.01    0.09
   6  -5  -5    0.01    0.07
   6  -5  -5   -0.13    0.14
   5  -5  -5    8.71    0.49
   5  -5  -5    8.20    0.47
   5  -5  -5    7.68    0.56
   5  -5  -5    8.11    0.51
   4  -5  -5    1.34    0.23
   4  -5  -5    1.31    0.31
   4  -5  -5    1.40    0.18
   4  -5  -5    1.24    0.19
   3  -5  -5    3.11    0.21
   3  -5  -5    3.23    0.32
   3  -5  -5    3.24    0.23
   3  -5  -5    2.77    0.30
   3  -5  -5    2.52    0.25
   3  -5  -5    3.02    0.36
   2  -5  -5    2.96    0.32
   2  -5  -5    2.82    0.31
   2  -5  -5    3.31    0.24
   2  -5  -5    3.25    0.30
   2  -5  -5    3.02    0.20
   2  -5  -5    3.30    0.32
   2  -5  -5    2.87    0.33
   2  -5  -5    3.49    0.51
   1  -5  -5    3.75    0.36
   1  -5  -5    3.66    0.30
   1  -5  -5    3.95    0.36
   1  -5  -5    2.59    0.48
   1  -5  -5    3.79    0.49
   1  -5  -5    3.69    0.25
   0  -5  -5    6.56    0.37
   0  -5  -5    6.75    0.48
   0  -5  -5    6.16    0.46
   0  -5  -5    4.77    0.63
   0  -5  -5    6.55    0.48
   0  -5  -5    6.52    0.48
  -1  -5  -5   17.84    1.19
  -1  -5  -5   16.96    0.96
  -1  -5  -5   16.60    1.16
  -1  -5  -5   18.33    1.18
  -2  -5  -5    0.37    0.21
  -2  -5  -5    0.11    0.17
  -2  -5  -5    0.41    0.15
  -3  -5  -5   16.55    1.04
  -3  -5  -5   14.92    1.08
  -4  -5  -5    0.24    0.10
  -4  -5  -5    0.49    0.10
   7  -6  -5    0.07    0.04
   7  -6  -5    0.01    0.09
   6  -6  -5    7.12    0.53
   6  -6  -5    8.82    0.47
   6  -6  -5    7.82    0.45
   5  -6  -5    2.67    0.18
   5  -6  -5    2.86    0.23
   5  -6  -5    2.27    0.26
   5  -6  -5    2.63    0.27
   4  -6  -5   34.41    1.89
   4  -6  -5   36.01    1.93
   4  -6  -5   34.62    2.12
   4  -6  -5   35.54    2.17
   3  -6  -5    1.28    0.23
   3  -6  -5    0.82    0.20
   3  -6  -5    1.42    0.15
   2  -6  -5   22.82    1.50
   2  -6  -5   24.08    1.43
   2  -6  -5   22.10    1.24
   2  -6  -5   21.40    1.52
   1  -6  -5    6.94    0.50
   1  -6  -5    6.70    0.51
   1  -6  -5    7.21    0.53
   1  -6  -5    6.35    0.38
   0  -6  -5    2.58    0.26
   0  -6  -5    2.49    0.31
   0  -6  -5    2.46    0.26
  -1  -6  -5   13.36    0.96
  -1  -6  -5   13.54    0.93
  -1  -6  -5   14.96    0.96
  -2  -6  -5   -0.03    0.12
  -2  -6  -5   -0.10    0.13
  -2  -6  -5   -0.27    0.17
  -3  -6  -5    8.60    0.54
  -3  -6  -5    6.86    0.51
   6  -7  -5   -0.03    0.06
   5  -7  -5    1.30    0.16
   5  -7  -5    1.41    0.12
   5  -7  -5    0.94    0.14
   4  -7  -5    2.94    0.18
   4  -7  -5    2.66    0.24
   3  -7  -5    0.04    0.06
   3  -7  -5   -0.11    0.13
   3  -7  -5   -0.04    0.11
   2  -7  -5    3.14    0.27
   2  -7  -5    3.23    0.32
   1  -7  -5    6.26    0.45
   1  -7  -5    6.74    0.45
   1  -7  -5    5.22    0.42
   0  -7  -5    1.99    0.20
  -1  -7  -5    1.22    0.14
  -1  -7  -5    1.18    0.14
   3  -8  -5    2.40    0.19
   0  -8   6    0.49    0.10
   1  -8   6    5.02    0.40
   1  -8   6    7.26    0.42
   2  -8   6    2.87    0.25
   2  -8   6    3.55    0.25
   3  -8   6    2.50    0.22
   3  -8   6    2.80    0.24
   4  -8   6    0.12    0.10
   4  -8   6    0.02    0.07
  -2  -7   6    0.92    0.13
  -2  -7   6    1.46    0.17
  -1  -7   6    3.02    0.26
  -1  -7   6    2.96    0.27
  -1  -7   6    2.97    0.24
   0  -7   6    0.65    0.20
   0  -7   6    0.49    0.13
   0  -7   6    0.60    0.15
   1  -7   6    0.14    0.19
   1  -7   6    0.28    0.12
   1  -7   6    0.36    0.19
   2  -7   6    2.11    0.25
   2  -7   6    2.35    0.27
   2  -7   6    2.51    0.28
   3  -7   6    0.67    0.15
   3  -7   6    0.41    0.18
   3  -7   6    0.45    0.18
   4  -7   6   27.02    1.73
   4  -7   6   28.60    1.51
   4  -7   6   29.93    1.67
   4  -7   6   25.17    1.70
   5  -7   6    4.36    0.34
   5  -7   6    4.51    0.28
   5  -7   6    4.97    0.32
   6  -7   6    0.67    0.09
  -4  -6   6    0.08    0.09
  -3  -6   6   15.16    0.93
  -3  -6   6   13.36    0.90
  -2  -6   6    4.03    0.34
  -2  -6   6    3.95    0.31
  -2  -6   6    3.86    0.31
  -1  -6   6    0.42    0.17
  -1  -6   6    0.14    0.18
  -1  -6   6    0.04    0.14
  -1  -6   6    0.18    0.15
  -1  -6   6    0.34    0.16
  -1  -6   6    0.07    0.13
   0  -6   6    3.59    0.35
   0  -6   6    3.93    0.35
   0  -6   6    4.03    0.35
   0  -6   6    3.87    0.33
   0  -6   6    4.12    0.36
   1  -6   6    4.94    0.42
   1  -6   6    4.76    0.39
   1  -6   6    4.66    0.40
   1  -6   6    4.80    0.40
   2  -6   6    1.30    0.23
   2  -6   6    1.16    0.21
   2  -6   6    0.59    0.38
   2  -6   6    1.42    0.12
   2  -6   6    1.46    0.22
   3  -6   6   86.31    5.00
   3  -6   6   86.28    5.13
   3  -6   6   79.97    4.56
   4  -6   6    3.47    0.32
   4  -6   6    3.69    0.21
   4  -6   6    3.78    0.25
   4  -6   6    3.68    0.33
   5  -6   6    0.74    0.15
   5  -6   6    0.57    0.17
   5  -6   6    0.43    0.12
   5  -6   6    0.56    0.09
   6  -6   6   10.14    0.56
   6  -6   6    9.28    0.58
   6  -6   6   10.71    0.66
   7  -6   6    0.71    0.06
  -5  -5   6    0.55    0.10
  -4  -5   6    0.12    0.11
  -4  -5   6    0.21    0.12
  -4  -5   6    0.23    0.12
  -3  -5   6    0.39    0.17
  -3  -5   6    0.46    0.14
  -3  -5   6    0.52    0.19
  -3  -5   6    0.60    0.19
  -2  -5   6    0.10    0.19
  -2  -5   6    0.09    0.15
  -2  -5   6   -0.01    0.11
  -2  -5   6    0.01    0.22
  -2  -5   6    0.10    0.19
  -1  -5   6   37.71    2.38
  -1  -5   6   38.80    2.39
  -1  -5   6   37.36    2.58
  -1  -5   6   35.51    2.50
  -1  -5   6   40.12    2.46
  -1  -5   6   42.21    2.41
  -1  -5   6   38.86    2.32
   0  -5   6   11.23    0.79
   0  -5   6   10.78    0.77
   0  -5   6   12.03    0.75
   0  -5   6   11.54    0.94
   0  -5   6   11.62    0.76
   0  -5   6   11.52    0.76
   1  -5   6   21.34    1.28
   1  -5   6   19.38    1.47
   1  -5   6   22.47    1.39
   1  -5   6   20.43    1.14
   1  -5   6   19.07    1.34
   1  -5   6   22.40    1.52
   1  -5   6   21.21    1.32
   1  -5   6   21.26    1.33
   2  -5   6    0.24    0.33
   2  -5   6    0.10    0.07
   2  -5   6   -0.04    0.26
   2  -5   6    0.03    0.08
   2  -5   6   -0.01    0.15
   2  -5   6    0.01    0.17
   2  -5   6    0.02    0.17
   2  -5   6   -0.07    0.17
   2  -5   6    0.06    0.08
   2  -5   6    0.11    0.04
   3  -5   6    3.78    0.32
   3  -5   6    3.70    0.23
   3  -5   6    3.54    0.52
   3  -5   6    3.68    0.32
   3  -5   6    2.23    0.44
   3  -5   6    3.77    0.25
   3  -5   6    2.98    0.34
   3  -5   6    3.88    0.33
   3  -5   6    3.77    0.35
   4  -5   6   19.52    1.19
   4  -5   6   19.61    1.09
   4  -5   6   22.35    1.25
   4  -5   6   16.84    1.41
   4  -5   6   19.11    1.06
   4  -5   6   17.52    1.43
   5  -5   6    0.41    0.15
   5  -5   6    0.32    0.07
   5  -5   6    0.50    0.12
   5  -5   6    0.25    0.19
   5  -5   6    0.46    0.12
   6  -5   6    6.98    0.37
   6  -5   6    6.68    0.39
   6  -5   6    5.51    0.43
   6  -5   6    4.98    0.33
   7  -5   6    1.56    0.12
   7  -5   6    1.44    0.18
  -6  -4   6    3.10    0.23
  -5  -4   6    2.37    0.23
  -5  -4   6    1.68    0.23
  -5  -4   6    2.09    0.21
  -4  -4   6   43.91    2.68
  -4  -4   6   44.18    2.76
  -4  -4   6   42.57    2.78
  -3  -4   6   50.65    3.33
  -3  -4   6   54.50    3.24
  -3  -4   6   55.01    3.32
  -3  -4   6   45.63    3.31
  -3  -4   6   55.06    3.22
  -2  -4   6    6.13    0.44
  -2  -4   6    6.40    0.45
  -2  -4   6    6.35    0.46
  -2  -4   6    5.82    0.33
  -2  -4   6    5.58    0.44
  -2  -4   6    6.17    0.64
  -2  -4   6    5.35    0.54
  -2  -4   6    5.78    0.43
  -2  -4   6    6.22    0.45
  -1  -4   6   47.81    2.81
  -1  -4   6   39.09    2.93
  -1  -4   6   43.75    2.78
  -1  -4   6   43.25    2.46
  -1  -4   6   42.93    2.83
  -1  -4   6   50.16    2.99
  -1  -4   6   49.13    2.72
  -1  -4   6   48.05    2.87
  -1  -4   6   45.55    2.79
   0  -4   6    3.50    0.27
   0  -4   6    3.32    0.30
   0  -4   6    3.32    0.21
   0  -4   6    3.34    0.29
   0  -4   6    3.86    0.49
   0  -4   6    3.65    0.30
   0  -4   6    3.59    0.31
   1  -4   6   14.12    0.80
   1  -4   6   15.68    1.09
   1  -4   6   15.95    1.11
   1  -4   6   14.69    0.92
   1  -4   6   14.64    0.82
   1  -4   6   14.04    0.95
   1  -4   6   15.41    0.86
   1  -4   6   14.60    0.99
   1  -4   6   14.72    0.94
   1  -4   6   15.60    0.93
   2  -4   6   39.07    2.13
   2  -4   6   38.18    2.33
   2  -4   6   40.38    2.59
   2  -4   6   39.79    2.41
   2  -4   6   35.92    2.10
   2  -4   6   42.65    2.59
   2  -4   6   41.35    2.21
   2  -4   6   39.15    2.42
   2  -4   6   36.11    2.39
   3  -4   6    0.99    0.24
   3  -4   6    0.78    0.31
   3  -4   6    1.41    0.14
   3  -4   6    1.05    0.26
   3  -4   6    1.37    0.15
   3  -4   6    1.30    0.35
   3  -4   6    1.37    0.18
   3  -4   6    1.27    0.14
   4  -4   6    5.71    0.35
   4  -4   6    5.56    0.37
   4  -4   6    5.98    0.65
   4  -4   6    5.72    0.35
   4  -4   6    5.06    0.39
   4  -4   6    6.18    0.52
   4  -4   6    5.29    0.62
   5  -4   6    5.72    0.65
   5  -4   6    5.92    0.37
   5  -4   6    5.99    0.38
   6  -4   6    6.94    0.44
   6  -4   6    7.36    0.45
   7  -4   6    4.72    0.29
   7  -4   6    4.17    0.30
  -6  -3   6    0.21    0.09
  -6  -3   6    0.14    0.11
  -6  -3   6    0.18    0.05
  -5  -3   6    0.73    0.16
  -5  -3   6    0.47    0.18
  -5  -3   6    0.71    0.11
  -5  -3   6    0.67    0.14
  -4  -3   6    1.45    0.14
  -4  -3   6    1.53    0.21
  -4  -3   6    1.54    0.23
  -4  -3   6    0.92    0.36
  -4  -3   6    1.55    0.23
  -3  -3   6    7.03    0.61
  -3  -3   6    6.15    0.47
  -3  -3   6    6.60    0.48
  -3  -3   6    6.88    0.39
  -3  -3   6    6.65    0.49
  -3  -3   6    7.18    0.49
  -2  -3   6    2.20    0.21
  -2  -3   6    2.57    0.34
  -2  -3   6    2.32    0.26
  -2  -3   6    2.60    0.43
  -2  -3   6    2.29    0.23
  -2  -3   6    2.30    0.16
  -2  -3   6    2.34    0.25
  -1  -3   6   26.65    1.70
  -1  -3   6   28.40    1.81
  -1  -3   6   26.77    1.61
  -1  -3   6   25.08    1.48
  -1  -3   6   25.69    1.48
  -1  -3   6   27.68    1.61
   0  -3   6   14.56    1.01
   0  -3   6   14.82    0.89
   0  -3   6   14.87    0.82
   0  -3   6   13.31    0.81
   0  -3   6   13.28    0.91
   0  -3   6   13.25    0.88
   1  -3   6  203.27   13.04
   1  -3   6  209.56   11.41
   1  -3   6  203.94   12.41
   1  -3   6  215.10   13.01
   2  -3   6    2.14    0.34
   2  -3   6    1.83    0.25
   2  -3   6    1.78    0.36
   2  -3   6    1.68    0.28
   3  -3   6    1.22    0.30
   3  -3   6    1.11    0.26
   3  -3   6    1.48    0.17
   3  -3   6    1.20    0.25
   3  -3   6    1.96    0.33
   4  -3   6    0.26    0.13
   4  -3   6    0.23    0.13
   4  -3   6    0.18    0.29
   4  -3   6    0.01    0.24
   5  -3   6    2.81    0.25
   6  -3   6    0.32    0.16
  -7   3  -6   20.82    1.28
   7  -3   6   24.61    1.28
  -7  -2   6   14.94    1.05
  -7  -2   6   17.48    0.89
  -6  -2   6    0.23    0.13
  -6  -2   6    0.19    0.10
  -6  -2   6    0.26    0.11
  -5  -2   6    1.31    0.18
  -5  -2   6    1.47    0.16
  -5  -2   6    1.57    0.12
  -5  -2   6    1.47    0.21
  -5  -2   6    1.43    0.23
  -4  -2   6   30.78    1.60
  -4  -2   6   29.93    1.84
  -4  -2   6   29.78    1.96
  -4  -2   6   29.34    1.85
  -4  -2   6   28.92    1.90
  -4  -2   6   30.71    1.62
  -4  -2   6   27.25    1.89
  -4  -2   6   29.87    1.71
  -3  -2   6    0.72    0.28
  -3  -2   6    0.89    0.14
  -3  -2   6    0.94    0.10
  -3  -2   6    0.89    0.17
  -3  -2   6    0.85    0.16
  -3  -2   6    0.87    0.19
  -3  -2   6    0.53    0.16
  -3  -2   6    0.76    0.09
  -3  -2   6    0.79    0.15
  -2  -2   6    0.32    0.14
  -2  -2   6    0.31    0.23
  -2  -2   6    0.23    0.21
  -2  -2   6    0.27    0.14
  -1  -2   6   11.19    0.77
  -1  -2   6   12.76    0.75
  -1  -2   6   11.28    0.82
  -1  -2   6   11.10    0.73
  -1  -2   6    9.76    0.66
  -1  -2   6   10.81    0.60
  -1  -2   6   11.87    0.68
   0   2  -6   36.40    1.75
   0   2  -6   36.06    1.74
   0  -2   6   39.88    2.03
   0  -2   6   37.16    2.22
   0  -2   6   33.64    2.20
   0  -2   6   37.23    2.33
   0  -2   6   34.86    1.74
   0  -2   6   38.53    2.21
   0  -2   6   31.62    2.02
   0  -2   6   35.40    1.73
  -1   2  -6  105.39    5.36
  -1   2  -6  111.02    5.37
   1  -2   6  120.31    6.36
   1  -2   6  119.48    7.24
   1  -2   6  107.98    5.36
   1  -2   6  126.78    6.92
   2  -2   6   13.37    0.86
   2  -2   6   15.83    0.96
   2  -2   6   15.74    1.03
   2  -2   6   15.25    1.07
   3  -2   6   17.21    1.09
   3  -2   6   16.80    1.17
   4  -2   6   59.01    3.25
  -6   2  -6   38.84    2.16
  -7   2  -6    0.84    0.11
   7  -2   6    1.13    0.14
  -7  -1   6    0.77    0.12
  -7  -1   6    1.09    0.15
  -7  -1   6    0.70    0.05
  -6  -1   6   18.01    1.20
  -6  -1   6   19.35    1.06
  -6  -1   6   20.54    1.26
  -6  -1   6   19.10    1.08
  -5  -1   6    8.81    0.52
  -5  -1   6   10.01    0.55
  -5  -1   6    9.72    0.80
  -5  -1   6    8.99    0.62
  -5  -1   6    9.75    0.67
  -5  -1   6    9.94    0.56
  -5  -1   6    9.38    0.68
  -4  -1   6   76.29    4.15
  -4  -1   6   77.46    4.50
  -4  -1   6   78.59    4.59
  -4  -1   6   70.66    4.04
  -4  -1   6   72.99    3.97
  -4  -1   6   68.73    4.50
  -4  -1   6   73.04    4.01
  -3  -1   6  148.16    8.74
  -3  -1   6  147.11    8.64
  -3  -1   6  136.88    7.95
  -2  -1   6   12.37    0.83
  -2  -1   6   12.38    0.89
  -2  -1   6   11.88    0.80
  -2  -1   6   10.30    0.67
  -2  -1   6   12.65    0.75
   1   1  -6  114.90    5.69
   1   1  -6  123.67    5.70
  -1  -1   6  123.84    7.68
  -1  -1   6  123.75    6.75
  -1  -1   6  132.39    7.35
  -1  -1   6  116.57    5.69
   0   1  -6    1.94    0.24
   0   1  -6    2.10    0.25
   0   1  -6    2.08    0.26
   0   1  -6    1.85    0.18
   0   1  -6    2.11    0.31
   0  -1   6    2.26    0.34
   0  -1   6    2.38    0.26
   0  -1   6    2.18    0.30
   0  -1   6    2.29    0.24
   0  -1   6    2.06    0.25
  -1   1  -6    8.47    0.63
  -1   1  -6    9.28    0.61
  -1   1  -6    9.35    0.62
  -1   1  -6    8.82    0.69
   1  -1   6    9.01    0.58
   1  -1   6   10.59    0.72
   1  -1   6    9.92    0.70
   1  -1   6    9.84    0.65
   1  -1   6   10.26    0.61
  -2   1  -6    6.80    0.57
  -2   1  -6    6.64    0.51
  -2   1  -6    6.38    0.49
  -2   1  -6    7.01    0.50
   2  -1   6    7.00    0.52
   2  -1   6    6.64    0.51
   2  -1   6    6.89    0.58
   2  -1   6    6.41    0.50
  -3   1  -6   14.98    1.03
  -3   1  -6   13.52    0.90
  -4   1  -6    5.58    0.37
  -5   1  -6    6.64    0.43
  -6   1  -6   15.29    0.86
  -6   1  -6   14.60    0.85
  -7   1  -6   27.75    1.49
  -7   1  -6   26.90    1.50
  -8   0   6   12.84    0.84
  -7   0   6    5.23    0.41
  -7   0   6    4.48    0.35
  -7   0   6    6.07    0.33
  -6   0   6    5.89    0.37
  -6   0   6    6.72    0.39
  -6   0   6    5.97    0.40
  -5   0   6    0.52    0.27
  -5   0   6    0.23    0.28
  -5   0   6    0.27    0.12
  -5   0   6    0.31    0.22
  -5   0   6    0.39    0.13
  -5   0   6    0.04    0.12
  -5   0   6    0.22    0.12
  -4   0   6   29.01    1.73
  -4   0   6   27.91    1.57
  -4   0   6   24.36    1.62
  -4   0   6   24.48    1.43
  -4   0   6   24.44    1.45
  -4   0   6   28.23    1.71
  -3   0   6    0.21    0.18
  -3   0   6    0.27    0.21
  -3   0   6    0.29    0.22
   2   0  -6    0.02    0.19
   2   0  -6    0.06    0.19
  -2   0   6   -0.04    0.20
  -2   0   6    0.11    0.14
  -2   0   6    0.17    0.20
  -2   0   6    0.18    0.20
  -2   0   6    0.11    0.19
   1   0  -6  202.49   12.02
   1   0  -6  219.17   10.11
   1   0  -6  226.49   10.11
   1   0  -6  214.84   13.07
  -1   0   6  227.06   13.07
  -1   0   6  219.97   10.10
  -1   0   6  218.60   13.63
  -1   0   6  222.71   10.10
  -1   0   6  219.47   12.02
   0   0  -6  179.27    8.40
   0   0  -6  186.69    8.40
   0   0  -6  161.56   11.03
   0   0  -6  184.39   10.85
   0   0  -6  183.25    9.98
   0   0   6  177.29   11.31
   0   0   6  186.25    9.98
   0   0   6  184.22    8.40
   0   0   6  187.86   10.85
   0   0   6  185.90    8.40
  -1   0  -6    2.48    0.29
  -1   0  -6    2.57    0.36
  -1   0  -6    2.57    0.30
  -1   0  -6    2.76    0.31
  -1   0  -6    2.60    0.31
   1   0   6    2.56    0.36
   1   0   6    2.12    0.28
   1   0   6    2.50    0.27
   1   0   6    2.54    0.32
  -2   0  -6  133.02    6.55
  -2   0  -6  147.76    7.76
  -2   0  -6  142.67    8.59
  -2   0  -6  147.03    8.45
   2   0   6  131.30    6.57
  -3   0  -6   26.16    1.68
  -3   0  -6   25.18    1.52
  -3   0  -6   25.34    1.66
  -4   0  -6    0.40    0.23
  -4   0  -6    0.44    0.27
  -4   0  -6    0.28    0.14
  -4   0  -6    0.20    0.11
  -4   0  -6    0.17    0.28
  -5   0  -6    3.97    0.28
  -5   0  -6    3.83    0.28
  -5   0  -6    3.86    0.50
  -6   0  -6    0.13    0.15
  -6   0  -6    0.13    0.07
  -6   0  -6    0.12    0.11
  -7   0  -6   -0.01    0.06
  -7   0  -6   -0.06    0.09
  -7   0  -6   -0.08    0.10
  -8   1   6    0.41    0.06
  -8   1   6    0.75    0.11
  -7   1   6    4.35    0.34
  -7   1   6    4.22    0.27
  -7   1   6    4.45    0.30
  -6   1   6   23.93    1.32
  -6   1   6   22.85    1.30
  -5   1   6    2.73    0.41
  -5   1   6    2.59    0.24
  -4   1   6   84.34    4.55
  -4   1   6   73.64    4.92
  -4   1   6   84.10    4.96
   3  -1  -6   21.69    1.31
  -3   1   6   26.73    1.62
  -3   1   6   25.66    1.49
   2  -1  -6  174.06    8.53
   2  -1  -6  182.82    8.53
   2  -1  -6  200.65   11.01
   2  -1  -6  178.34   10.12
  -2   1   6  191.39   11.00
  -2   1   6  180.71   10.12
  -2   1   6  183.36    8.53
  -2   1   6  178.22    8.53
   1  -1  -6   32.73    1.97
   1  -1  -6   30.85    1.56
   1  -1  -6   30.85    1.97
   1  -1  -6   31.38    1.57
   1  -1  -6   32.53    1.81
  -1   1   6   31.17    1.96
  -1   1   6   32.52    1.57
  -1   1   6   32.22    1.57
  -1   1   6   29.65    1.80
   0  -1  -6   15.02    0.95
   0  -1  -6   14.03    0.95
   0  -1  -6   13.66    0.77
   0  -1  -6   15.82    0.89
   0  -1  -6   15.09    0.81
   0   1   6   13.88    0.79
   0   1   6   13.99    0.81
   0   1   6   13.40    0.94
   0   1   6   12.69    0.87
  -1  -1  -6   21.14    1.17
  -1  -1  -6   23.74    1.48
  -1  -1  -6   22.71    1.45
  -1  -1  -6   24.03    1.33
   1   1   6   21.53    1.18
  -2  -1  -6    0.13    0.19
  -2  -1  -6    0.22    0.25
  -2  -1  -6   -0.01    0.20
  -3  -1  -6   79.99    4.54
  -3  -1  -6   80.87    4.63
  -3  -1  -6   66.87    4.02
  -3  -1  -6   76.38    4.16
  -3  -1  -6   70.78    3.98
  -3  -1  -6   70.61    4.05
  -4  -1  -6    4.03    0.44
  -4  -1  -6    5.32    0.39
  -4  -1  -6    4.48    0.32
  -4  -1  -6    4.77    0.31
  -4  -1  -6    4.77    0.30
  -4  -1  -6    4.07    0.50
  -4  -1  -6    5.39    0.56
  -5  -1  -6    0.96    0.09
  -5  -1  -6    0.81    0.14
  -5  -1  -6    0.90    0.20
  -5  -1  -6    0.81    0.12
  -6  -1  -6   13.81    0.83
  -6  -1  -6   15.72    0.86
  -6  -1  -6   16.26    1.03
  -7  -1  -6    4.36    0.28
  -7  -1  -6    3.26    0.23
  -8   2   6    5.10    0.36
  -8   2   6    5.09    0.30
  -7   2   6    9.25    0.55
  -6   2   6    0.08    0.14
  -5   2   6   20.96    1.20
   4  -2  -6   21.14    1.47
  -4   2   6   20.92    1.40
   3  -2  -6   28.13    1.77
   3  -2  -6   26.65    1.63
   2  -2  -6    0.17    0.19
   2  -2  -6    0.50    0.23
   2  -2  -6    0.09    0.17
   1  -2  -6    9.76    0.71
   1  -2  -6   10.02    0.71
   1  -2  -6   10.30    0.68
   1  -2  -6    9.12    0.62
   0  -2  -6   66.34    3.92
   0  -2  -6   62.74    3.60
   0  -2  -6   64.15    4.00
  -1  -2  -6   19.04    1.26
  -1  -2  -6   19.81    1.12
  -1  -2  -6   17.44    1.22
  -1  -2  -6   18.70    1.25
  -2  -2  -6    0.26    0.23
  -2  -2  -6    0.36    0.08
  -2  -2  -6    0.17    0.13
  -2  -2  -6    0.34    0.10
  -2  -2  -6    0.31    0.10
  -2  -2  -6    0.52    0.18
  -2  -2  -6    0.41    0.16
  -3  -2  -6    0.05    0.25
  -3  -2  -6    0.06    0.08
  -3  -2  -6    0.00    0.21
  -3  -2  -6    0.14    0.10
  -3  -2  -6    0.12    0.06
  -3  -2  -6    0.21    0.19
  -3  -2  -6   -0.09    0.16
  -3  -2  -6   -0.04    0.13
  -3  -2  -6    0.15    0.13
  -3  -2  -6    0.15    0.16
  -4  -2  -6    8.47    0.49
  -4  -2  -6    9.29    0.63
  -4  -2  -6    8.69    0.77
  -4  -2  -6    7.59    0.60
  -4  -2  -6    8.97    0.51
  -5  -2  -6    0.44    0.08
  -5  -2  -6    0.24    0.17
  -5  -2  -6    0.20    0.11
  -6  -2  -6    1.81    0.13
  -6  -2  -6    1.34    0.20
   8  -3  -6   12.40    0.74
  -8   3   6   13.04    0.85
  -8   3   6   13.53    0.73
   7  -3  -6    3.87    0.31
  -7   3   6    4.19    0.30
   6  -3  -6   89.75    4.93
   5  -3  -6   10.99    0.60
   5  -3  -6    7.70    0.81
   4  -3  -6    0.33    0.28
   4  -3  -6    0.28    0.28
   4  -3  -6    0.27    0.14
   4  -3  -6    0.22    0.25
   3  -3  -6    6.58    0.43
   3  -3  -6    7.49    0.65
   3  -3  -6    6.88    0.56
   3  -3  -6    7.66    0.63
   2  -3  -6    1.53    0.29
   2  -3  -6    1.71    0.32
   2  -3  -6    1.53    0.27
   2  -3  -6    1.64    0.34
   1  -3  -6    5.18    0.43
   1  -3  -6    5.00    0.49
   1  -3  -6    4.83    0.47
   1  -3  -6    5.36    0.51
   0  -3  -6  138.20    8.37
   0  -3  -6  134.18    7.97
   0  -3  -6  115.59    7.10
   0  -3  -6  133.54    7.32
   0  -3  -6  142.21    8.17
  -1  -3  -6    1.97    0.38
  -1  -3  -6    1.51    0.21
  -1  -3  -6    1.38    0.20
  -1  -3  -6    1.44    0.14
  -1  -3  -6    1.40    0.21
  -1  -3  -6    1.60    0.24
  -1  -3  -6    1.41    0.14
  -1  -3  -6    1.48    0.22
  -2  -3  -6   67.42    3.87
  -2  -3  -6   62.70    3.40
  -2  -3  -6   61.39    3.30
  -2  -3  -6   66.92    3.92
  -2  -3  -6   56.44    3.95
  -2  -3  -6   58.73    3.85
  -2  -3  -6   61.50    3.26
  -2  -3  -6   51.23    3.69
  -3  -3  -6   43.14    2.26
  -3  -3  -6   45.17    2.72
  -3  -3  -6   41.29    2.69
  -3  -3  -6   40.01    2.64
  -3  -3  -6   37.39    2.70
  -3  -3  -6   40.42    2.22
  -4  -3  -6    4.28    0.28
  -4  -3  -6    4.20    0.36
  -4  -3  -6    4.92    0.40
  -5  -3  -6    9.93    0.59
  -5  -3  -6   11.17    0.73
   8  -4  -6    0.76    0.08
   7  -4  -6    1.20    0.16
   6  -4  -6   11.15    0.63
   6  -4  -6    9.98    0.63
   5  -4  -6   15.64    0.90
   5  -4  -6   14.95    1.02
   5  -4  -6   17.22    0.92
   4  -4  -6   51.54    3.63
   4  -4  -6   59.13    3.57
   4  -4  -6   60.69    3.15
   4  -4  -6   59.69    3.36
   4  -4  -6   62.95    3.21
   4  -4  -6   56.47    3.84
   4  -4  -6   56.86    3.18
   3  -4  -6   15.84    0.93
   3  -4  -6   16.55    0.91
   3  -4  -6   17.40    1.26
   3  -4  -6   15.80    0.92
   3  -4  -6   18.18    1.08
   3  -4  -6   16.29    1.05
   3  -4  -6   15.31    1.13
   2  -4  -6   24.05    1.59
   2  -4  -6   22.81    1.33
   2  -4  -6   23.11    1.22
   2  -4  -6   21.58    1.21
   2  -4  -6   19.46    1.44
   2  -4  -6   23.35    1.39
   2  -4  -6   19.11    1.46
   2  -4  -6   23.77    1.55
   2  -4  -6   21.03    1.43
   2  -4  -6   22.94    1.20
   1  -4  -6    3.61    0.52
   1  -4  -6    2.97    0.29
   1  -4  -6    2.86    0.21
   1  -4  -6    2.61    0.29
   1  -4  -6    3.31    0.36
   1  -4  -6    3.24    0.32
   1  -4  -6    2.95    0.20
   1  -4  -6    3.04    0.44
   1  -4  -6    2.73    0.29
   0  -4  -6    0.83    0.10
   0  -4  -6    0.68    0.29
   0  -4  -6    1.09    0.13
   0  -4  -6    1.05    0.21
   0  -4  -6    1.01    0.20
   0  -4  -6    0.73    0.17
   0  -4  -6    0.90    0.18
   0  -4  -6    0.93    0.17
   0  -4  -6    0.74    0.17
  -1  -4  -6    0.83    0.12
  -1  -4  -6    0.71    0.18
  -1  -4  -6    0.73    0.20
  -1  -4  -6    0.57    0.12
  -1  -4  -6    0.40    0.12
  -1  -4  -6    0.66    0.07
  -1  -4  -6    0.91    0.19
  -1  -4  -6    0.66    0.30
  -2  -4  -6   13.04    0.71
  -2  -4  -6   12.59    1.01
  -2  -4  -6   12.49    0.87
  -2  -4  -6   12.79    0.87
  -2  -4  -6   12.25    0.86
  -3  -4  -6    0.64    0.20
  -3  -4  -6    0.64    0.17
  -3  -4  -6    0.94    0.16
  -3  -4  -6    0.76    0.10
  -4  -4  -6    0.53    0.16
  -4  -4  -6    1.00    0.09
  -4  -4  -6    1.16    0.17
  -5  -4  -6    4.70    0.35
   7  -5  -6    2.25    0.17
   7  -5  -6    2.32    0.20
   6  -5  -6    8.33    0.44
   6  -5  -6    6.94    0.42
   6  -5  -6    7.24    0.50
   5  -5  -6    6.19    0.40
   5  -5  -6    6.64    0.38
   5  -5  -6    6.22    0.43
   5  -5  -6    5.45    0.35
   5  -5  -6    5.93    0.44
   4  -5  -6    0.84    0.20
   4  -5  -6    0.82    0.15
   4  -5  -6    1.52    0.18
   4  -5  -6    1.06    0.14
   3  -5  -6    0.34    0.10
   3  -5  -6    0.37    0.15
   3  -5  -6    0.21    0.31
   3  -5  -6    0.24    0.17
   3  -5  -6    0.27    0.16
   3  -5  -6    0.35    0.12
   2  -5  -6   10.74    0.61
   2  -5  -6    9.63    0.67
   2  -5  -6   10.14    0.74
   2  -5  -6   10.22    0.73
   2  -5  -6   10.51    0.58
   2  -5  -6   11.26    0.72
   2  -5  -6    9.41    0.91
   1  -5  -6   38.11    2.89
   1  -5  -6   42.41    2.36
   1  -5  -6   46.48    2.82
   1  -5  -6   43.41    2.84
   1  -5  -6   45.15    2.67
   0  -5  -6    3.11    0.34
   0  -5  -6    3.54    0.23
   0  -5  -6    2.84    0.30
   0  -5  -6    3.92    0.35
   0  -5  -6    3.48    0.51
   0  -5  -6    3.41    0.35
  -1  -5  -6    2.53    0.18
  -1  -5  -6    2.84    0.31
  -1  -5  -6    2.30    0.25
  -1  -5  -6    2.78    0.26
  -2  -5  -6    8.55    0.59
  -2  -5  -6    7.58    0.44
  -2  -5  -6    7.88    0.56
  -2  -5  -6    7.78    0.57
  -3  -5  -6    0.40    0.13
  -3  -5  -6    0.50    0.10
  -3  -5  -6    0.28    0.15
  -4  -5  -6    0.28    0.09
   6  -6  -6    0.66    0.09
   6  -6  -6    0.89    0.13
   5  -6  -6   11.68    0.67
   5  -6  -6   11.43    0.74
   5  -6  -6   11.40    0.73
   5  -6  -6   11.63    0.64
   4  -6  -6   -0.02    0.11
   4  -6  -6    0.02    0.07
   4  -6  -6   -0.01    0.18
   4  -6  -6   -0.06    0.11
   3  -6  -6   22.69    1.25
   3  -6  -6   24.32    1.44
   3  -6  -6   20.77    1.49
   2  -6  -6   21.15    1.28
   2  -6  -6   19.10    1.34
   2  -6  -6   20.05    1.10
   2  -6  -6   19.41    1.33
   1  -6  -6    0.16    0.13
   1  -6  -6    0.19    0.20
   1  -6  -6    0.18    0.07
   1  -6  -6    0.36    0.15
   0  -6  -6    0.27    0.20
   0  -6  -6    0.31    0.20
   0  -6  -6    0.25    0.15
  -1  -6  -6    6.49    0.52
  -1  -6  -6    8.13    0.55
  -2  -6  -6    7.27    0.56
  -2  -6  -6    8.16    0.54
   5  -7  -6    1.17    0.13
   5  -7  -6    1.38    0.11
   4  -7  -6    8.24    0.47
   3  -7  -6    9.97    0.79
   3  -7  -6   13.56    0.77
   3  -7  -6   12.10    0.65
   2  -7  -6    5.19    0.42
   2  -7  -6    6.72    0.43
   1  -7  -6    0.12    0.11
   1  -7  -6    0.17    0.12
   1  -7  -6    0.10    0.12
   0  -7  -6    1.69    0.17
  -1  -7  -6    2.11    0.20
  -1  -7  -6    2.83    0.20
   0  -8   7    3.57    0.26
   1  -8   7    1.22    0.14
   1  -8   7    1.00    0.14
   2  -8   7    0.76    0.13
   2  -8   7    0.98    0.13
   2  -8   7    0.66    0.13
   3  -8   7    1.32    0.14
   3  -8   7    1.20    0.13
   4  -8   7    8.43    0.54
  -2  -7   7    0.01    0.12
  -1  -7   7    0.04    0.12
  -1  -7   7    0.07    0.13
  -1  -7   7    0.16    0.10
   0  -7   7    9.20    0.67
   0  -7   7   10.72    0.66
   0  -7   7   10.30    0.66
   1  -7   7    1.58    0.24
   1  -7   7    2.13    0.26
   1  -7   7    2.14    0.26
   2  -7   7   -0.05    0.13
   2  -7   7    0.03    0.12
   2  -7   7    0.23    0.19
   3  -7   7    7.57    0.49
   3  -7   7    7.17    0.50
   3  -7   7    6.48    0.51
   4  -7   7    9.60    0.60
   4  -7   7    9.41    0.53
   4  -7   7    9.09    0.62
   5  -7   7    3.47    0.26
   5  -7   7    3.23    0.25
   5  -7   7    3.54    0.21
   6  -7   7    0.92    0.09
  -4  -6   7    4.89    0.33
  -3  -6   7    0.06    0.11
  -3  -6   7    0.00    0.11
  -2  -6   7    4.10    0.34
  -2  -6   7    4.04    0.31
  -2  -6   7    3.99    0.32
  -1  -6   7    0.29    0.18
  -1  -6   7    0.23    0.17
  -1  -6   7    0.13    0.19
  -1  -6   7    0.14    0.10
  -1  -6   7    0.06    0.21
   0  -6   7    2.70    0.25
   0  -6   7    2.86    0.31
   0  -6   7    3.07    0.30
   0  -6   7    2.88    0.26
   1  -6   7   -0.01    0.18
   1  -6   7    0.07    0.19
   1  -6   7   -0.20    0.25
   1  -6   7    0.05    0.19
   2  -6   7    1.17    0.12
   2  -6   7    1.30    0.18
   2  -6   7    0.87    0.21
   2  -6   7    1.49    0.19
   3  -6   7   78.18    4.39
   3  -6   7   67.24    4.50
   3  -6   7   73.50    4.00
   3  -6   7   76.34    4.55
   4  -6   7    2.31    0.15
   4  -6   7    2.67    0.20
   4  -6   7    2.62    0.24
   4  -6   7    2.42    0.22
   5  -6   7    4.63    0.41
   5  -6   7    5.28    0.31
   5  -6   7    6.12    0.35
   5  -6   7    5.43    0.37
   6  -6   7    0.38    0.06
   6  -6   7    0.39    0.09
   6  -6   7    0.38    0.14
  -5  -5   7   -0.01    0.08
  -4  -5   7    0.12    0.12
  -4  -5   7    0.08    0.09
  -4  -5   7    0.04    0.11
  -3  -5   7    2.19    0.22
  -3  -5   7    2.08    0.27
  -3  -5   7    2.30    0.27
  -2  -5   7    2.91    0.30
  -2  -5   7    3.15    0.31
  -2  -5   7    2.70    0.26
  -2  -5   7    2.83    0.25
  -1  -5   7    1.78    0.22
  -1  -5   7    2.19    0.23
  -1  -5   7    1.96    0.22
  -1  -5   7    2.25    0.47
  -1  -5   7    1.90    0.27
  -1  -5   7    1.74    0.23
   0  -5   7   22.83    1.52
   0  -5   7   25.44    1.42
   0  -5   7   20.60    1.62
   0  -5   7   23.93    1.47
   0  -5   7   23.28    1.49
   0  -5   7   21.21    1.25
   0  -5   7   23.90    1.45
   1  -5   7    2.74    0.29
   1  -5   7    2.75    0.27
   1  -5   7    2.71    0.30
   1  -5   7    3.09    0.30
   1  -5   7    1.98    0.39
   1  -5   7    3.36    0.32
   1  -5   7    2.78    0.19
   2  -5   7   43.69    2.41
   2  -5   7   44.44    2.98
   2  -5   7   47.23    2.77
   2  -5   7   40.18    2.71
   2  -5   7   45.74    3.01
   2  -5   7   48.09    2.45
   2  -5   7   46.73    2.70
   2  -5   7   41.25    2.49
   2  -5   7   48.12    2.80
   3  -5   7   15.01    0.93
   3  -5   7   14.05    1.15
   3  -5   7   14.47    0.93
   3  -5   7   15.12    0.82
   3  -5   7   15.96    0.84
   3  -5   7   12.62    1.00
   3  -5   7   16.66    0.98
   3  -5   7   15.00    0.96
   4  -5   7    4.19    0.35
   4  -5   7    3.41    0.52
   4  -5   7    3.90    0.28
   4  -5   7    3.61    0.32
   4  -5   7    3.93    0.26
   5  -5   7   15.61    0.88
   5  -5   7   16.29    0.90
   5  -5   7   15.29    1.02
   6  -5   7    1.27    0.15
   6  -5   7    1.04    0.19
   6  -5   7    1.04    0.17
   7  -5   7    0.04    0.08
   7  -5   7    0.07    0.12
  -5  -4   7    2.29    0.24
  -5  -4   7    2.57    0.25
  -5  -4   7    2.28    0.21
  -4  -4   7   47.66    3.01
  -4  -4   7   47.23    2.99
  -4  -4   7   46.90    2.91
  -3  -4   7   17.22    1.04
  -3  -4   7   14.71    1.17
  -3  -4   7   16.33    1.07
  -3  -4   7   15.06    1.05
  -3  -4   7   16.15    1.04
  -2  -4   7    3.57    0.52
  -2  -4   7    3.29    0.30
  -2  -4   7    3.43    0.32
  -2  -4   7    3.33    0.20
  -2  -4   7    3.17    0.42
  -2  -4   7    3.41    0.33
  -2  -4   7    3.52    0.32
  -1  -4   7    3.14    0.29
  -1  -4   7    2.83    0.25
  -1  -4   7    2.96    0.18
  -1  -4   7    2.59    0.41
  -1  -4   7    3.09    0.30
  -1  -4   7    2.61    0.23
  -1  -4   7    3.12    0.29
   0  -4   7    0.52    0.17
   0  -4   7    0.74    0.18
   0  -4   7    0.67    0.13
   0  -4   7    0.55    0.08
   0  -4   7    0.56    0.16
   0  -4   7    0.73    0.15
   0  -4   7    0.24    0.25
   1  -4   7   32.66    1.95
   1  -4   7   32.45    1.99
   1  -4   7   32.86    1.77
   1  -4   7   30.55    2.06
   1  -4   7   31.99    2.02
   1  -4   7   33.26    2.00
   1  -4   7   34.82    2.18
   1  -4   7   34.00    1.83
   1  -4   7   30.15    1.74
   2  -4   7    0.64    0.11
   2  -4   7    0.61    0.20
   2  -4   7    0.86    0.17
   2  -4   7    0.98    0.35
   2  -4   7    0.83    0.17
   2  -4   7    0.79    0.19
   2  -4   7    1.12    0.18
   2  -4   7    0.45    0.32
   2  -4   7    0.81    0.10
   3  -4   7   13.41    0.76
   3  -4   7   13.34    0.77
   3  -4   7   14.21    0.89
   3  -4   7   13.47    0.97
   3  -4   7   13.11    0.85
   3  -4   7   13.79    0.76
   3  -4   7   14.45    0.88
   3  -4   7   12.90    1.05
   4  -4   7   13.22    0.87
   4  -4   7   12.90    0.71
   4  -4   7   11.95    1.01
   4  -4   7   11.28    0.95
   4  -4   7   12.41    0.72
   4  -4   7   12.57    0.72
   5  -4   7   12.63    0.74
   5  -4   7   12.99    0.74
   6  -4   7    8.96    0.51
   6  -4   7    7.80    0.50
   7  -4   7    0.46    0.09
   7  -4   7    0.26    0.08
  -6  -3   7    0.12    0.04
  -6  -3   7    0.10    0.10
  -6  -3   7    0.09    0.09
  -5  -3   7    4.75    0.40
  -5  -3   7    5.63    0.42
  -5  -3   7    5.28    0.32
  -5  -3   7    5.17    0.38
  -4  -3   7   56.73    3.60
  -4  -3   7   57.28    3.49
  -4  -3   7   57.53    3.09
  -4  -3   7   54.35    3.60
  -4  -3   7   58.60    3.62
  -3  -3   7    0.55    0.09
  -3  -3   7    0.34    0.19
  -3  -3   7    0.26    0.15
  -3  -3   7    0.33    0.28
  -3  -3   7    0.63    0.18
  -3  -3   7    0.51    0.16
  -2  -3   7   46.52    2.74
  -2  -3   7   41.85    2.81
  -2  -3   7   42.29    2.45
  -2  -3   7   45.53    2.90
  -2  -3   7   46.72    2.49
  -2  -3   7   45.74    2.75
  -2  -3   7   48.78    3.01
  -2  -3   7   46.88    2.53
  -2  -3   7   45.21    2.83
  -2  -3   7   49.89    2.90
  -1  -3   7   94.13    5.47
  -1  -3   7   87.55    5.80
  -1  -3   7   89.71    5.57
  -1  -3   7   93.89    5.03
   0  -3   7   18.82    1.29
   0  -3   7   20.55    1.17
   0  -3   7   20.98    1.28
   0  -3   7   21.14    1.41
   1  -3   7    6.83    0.47
   1  -3   7    6.30    0.51
   1  -3   7    7.38    0.63
   2  -3   7    0.52    0.25
   2  -3   7    0.53    0.24
   2  -3   7    0.84    0.24
   3  -3   7    0.21    0.25
   3  -3   7   -0.26    0.26
   3  -3   7    0.01    0.10
   3  -3   7    0.02    0.11
   3  -3   7   -0.19    0.25
   4  -3   7    1.38    0.17
   4  -3   7    0.88    0.32
   4  -3   7    1.43    0.18
   4  -3   7    0.60    0.29
   4  -3   7    0.70    0.29
   5  -3   7    8.41    0.52
   5  -3   7    8.18    0.79
   6  -3   7    1.05    0.17
  -7   3  -7   39.36    2.17
   7  -3   7   39.25    2.17
  -7  -2   7    0.03    0.12
  -7  -2   7    0.10    0.05
  -6  -2   7   11.66    0.74
  -6  -2   7   10.60    0.62
  -6  -2   7   10.60    0.71
  -5  -2   7    0.02    0.15
  -5  -2   7    0.16    0.16
  -5  -2   7    0.00    0.06
  -5  -2   7    0.10    0.10
  -5  -2   7    0.13    0.17
  -4  -2   7    9.45    0.64
  -4  -2   7    9.41    0.56
  -4  -2   7    9.39    0.80
  -4  -2   7    9.74    0.53
  -4  -2   7    8.64    0.67
  -4  -2   7    9.69    0.66
  -4  -2   7    9.94    0.64
  -4  -2   7    9.20    0.65
  -3  -2   7    1.95    0.23
  -3  -2   7    2.00    0.27
  -3  -2   7    2.08    0.15
  -3  -2   7    1.96    0.18
  -3  -2   7    1.96    0.23
  -3  -2   7    2.09    0.36
  -3  -2   7    2.24    0.30
  -3  -2   7    2.13    0.22
  -3  -2   7    1.85    0.21
  -2  -2   7    3.13    0.31
  -2  -2   7    3.01    0.30
  -2  -2   7    3.09    0.36
  -2  -2   7    3.04    0.47
  -1  -2   7   29.97    1.91
  -1  -2   7   30.81    1.88
  -1  -2   7   31.40    1.73
  -1  -2   7   29.19    2.00
   0  -2   7    4.23    0.48
   0  -2   7    4.46    0.38
   0  -2   7    4.22    0.41
   0  -2   7    4.65    0.36
   1  -2   7    5.14    0.49
   1  -2   7    5.25    0.46
   1  -2   7    5.40    0.41
   1  -2   7    4.84    0.43
   2  -2   7   64.95    3.80
   2  -2   7   58.51    3.94
   2  -2   7   62.08    3.48
   3  -2   7    3.66    0.50
   3  -2   7    3.66    0.42
   4  -2   7    1.35    0.18
   5  -2   7   29.04    1.64
  -6   2  -7   17.38    1.00
  -7   2  -7   -0.04    0.09
   7  -2   7    0.02    0.14
  -7  -1   7    1.70    0.17
  -7  -1   7    2.03    0.19
  -6  -1   7    0.33    0.09
  -6  -1   7    0.37    0.14
  -6  -1   7    0.42    0.12
  -6  -1   7    0.56    0.14
  -5  -1   7   50.64    2.79
  -5  -1   7   49.42    3.13
  -5  -1   7   52.44    3.25
  -5  -1   7   51.49    2.75
  -4  -1   7   17.39    0.97
  -4  -1   7   19.07    1.25
  -4  -1   7   18.37    1.11
  -4  -1   7   17.61    1.18
  -4  -1   7   17.76    0.98
  -4  -1   7   16.60    0.98
  -4  -1   7   16.63    1.11
  -3  -1   7   36.26    2.26
  -3  -1   7   34.31    2.04
  -3  -1   7   35.65    2.21
  -2  -1   7   48.26    3.17
  -2  -1   7   52.54    3.08
  -2  -1   7   48.48    2.78
  -2  -1   7   48.44    3.02
   1   1  -7   39.01    2.01
  -1  -1   7   43.00    2.35
  -1  -1   7   40.28    2.02
  -1  -1   7   44.65    2.55
  -1  -1   7   43.20    2.67
  -1  -1   7   38.52    2.00
   0   1  -7    0.08    0.20
   0   1  -7    0.19    0.18
   0  -1   7   -0.06    0.19
   0  -1   7    0.18    0.17
   0  -1   7    0.11    0.18
   0  -1   7    0.17    0.21
   0  -1   7    0.40    0.16
  -1   1  -7    0.09    0.20
  -1   1  -7   -0.10    0.21
  -1   1  -7    0.04    0.22
  -1   1  -7    0.19    0.21
   1  -1   7    0.30    0.17
   1  -1   7    0.10    0.18
   1  -1   7   -0.05    0.21
   1  -1   7    0.00    0.24
   1  -1   7   -0.11    0.19
  -2   1  -7    0.26    0.21
   2  -1   7    0.44    0.27
   2  -1   7    0.16    0.20
  -4   1  -7    1.20    0.19
  -5   1  -7    4.33    0.31
  -6   1  -7    0.42    0.12
  -6   1  -7    0.21    0.10
  -7   1  -7    0.40    0.06
  -7   1  -7    0.33    0.10
  -7   1  -7    0.30    0.10
  -7   0   7   18.06    0.98
  -7   0   7   17.80    1.17
  -6   0   7    0.70    0.13
  -6   0   7    0.65    0.15
  -6   0   7    0.70    0.09
  -5   0   7    1.33    0.17
  -5   0   7    0.95    0.33
  -5   0   7    1.61    0.35
  -5   0   7    1.12    0.16
  -5   0   7    1.18    0.31
  -5   0   7    1.49    0.19
  -5   0   7    1.16    0.16
  -4   0   7    0.15    0.11
  -4   0   7    0.23    0.22
  -4   0   7    0.22    0.23
  -4   0   7    0.17    0.26
  -4   0   7    0.20    0.11
  -3   0   7   71.70    4.29
  -3   0   7   69.69    3.91
  -3   0   7   67.53    4.24
   2   0  -7  163.14    8.15
  -2   0   7  190.62   10.52
  -2   0   7  169.30   10.95
  -2   0   7  167.53    8.15
  -2   0   7  186.00    9.67
   1   0  -7  452.66   26.87
   1   0  -7  421.48   24.72
   1   0  -7  435.50   20.73
   1   0  -7  447.40   20.73
  -1   0   7  458.57   20.73
  -1   0   7  450.64   24.77
  -1   0   7  442.17   20.73
  -1   0   7  500.34   27.07
  -1   0   7  452.81   28.18
   0   0  -7   -0.12    0.23
   0   0  -7    0.03    0.17
   0   0  -7    0.02    0.13
   0   0  -7    0.13    0.16
   0   0  -7    0.23    0.17
   0   0   7   -0.05    0.17
   0   0   7    0.11    0.17
   0   0   7   -0.21    0.15
   0   0   7    0.02    0.22
   0   0   7   -0.16    0.16
  -1   0  -7  150.16    9.06
  -1   0  -7  145.31    7.03
  -1   0  -7  154.80    8.33
  -1   0  -7  150.31    7.05
  -1   0  -7  150.47    9.21
   1   0   7  154.81    8.33
   1   0   7  148.93    9.07
   1   0   7  153.10    9.43
   1   0   7  150.51    7.04
  -2   0  -7  102.76    5.97
  -2   0  -7   97.67    5.40
  -2   0  -7  101.03    5.89
  -2   0  -7   85.84    4.59
  -3   0  -7    1.00    0.14
  -3   0  -7    0.75    0.23
  -3   0  -7    0.84    0.30
  -3   0  -7    0.88    0.25
  -4   0  -7   17.46    1.03
  -4   0  -7   18.16    1.32
  -4   0  -7   19.73    1.32
  -4   0  -7   17.96    1.18
  -4   0  -7   19.13    1.04
  -5   0  -7   11.30    0.64
  -5   0  -7   10.78    0.64
  -6   0  -7    0.92    0.13
  -6   0  -7    0.91    0.10
  -6   0  -7    0.71    0.17
  -7   0  -7    1.39    0.14
  -7   0  -7    1.04    0.10
  -8   1   7    7.20    0.42
  -8   1   7    8.06    0.51
  -7   1   7    1.29    0.17
  -7   1   7    1.36    0.18
  -7   1   7    1.42    0.13
  -6   1   7    4.79    0.33
  -6   1   7    4.71    0.32
  -5   1   7    0.12    0.12
  -5   1   7    0.23    0.14
  -5   1   7    0.01    0.17
  -5   1   7    0.20    0.26
  -4   1   7   63.38    3.74
  -4   1   7   64.18    3.44
  -4   1   7   57.12    3.30
  -4   1   7   55.46    3.70
  -3   1   7   24.75    1.48
  -3   1   7   24.51    1.60
   2  -1  -7   48.55    2.78
   2  -1  -7   44.86    2.55
   2  -1  -7   40.68    2.19
  -2   1   7   44.51    2.54
  -2   1   7   42.26    2.19
  -2   1   7   46.26    2.77
   1  -1  -7    7.37    0.56
   1  -1  -7    7.92    0.60
   1  -1  -7    7.45    0.54
   1  -1  -7    7.07    0.55
   1  -1  -7    7.34    0.52
  -1   1   7    7.59    0.60
  -1   1   7    7.13    0.56
  -1   1   7    7.57    0.56
  -1   1   7    7.50    0.53
   0  -1  -7   39.44    2.28
   0  -1  -7   39.20    2.09
   0  -1  -7   33.70    1.80
   0  -1  -7   34.61    1.82
   0  -1  -7   37.55    2.29
   0   1   7   33.13    1.81
  -1  -1  -7   31.32    1.98
  -1  -1  -7   31.35    1.97
  -1  -1  -7   30.70    1.79
  -2  -1  -7   31.00    1.97
  -2  -1  -7   29.22    1.77
  -2  -1  -7   31.40    1.96
  -3  -1  -7    7.28    0.58
  -3  -1  -7    6.63    0.40
  -3  -1  -7    7.15    0.49
  -3  -1  -7    6.47    0.40
  -3  -1  -7    6.90    0.61
  -3  -1  -7    6.18    0.61
  -3  -1  -7    6.26    0.41
  -4  -1  -7   42.46    2.58
  -4  -1  -7   37.48    2.57
  -4  -1  -7   37.50    2.16
  -4  -1  -7   39.36    2.16
  -4  -1  -7   39.69    2.31
  -4  -1  -7   37.83    2.52
  -4  -1  -7   41.21    2.13
  -5  -1  -7    0.15    0.10
  -5  -1  -7   -0.20    0.16
  -5  -1  -7    0.10    0.12
  -6  -1  -7    2.23    0.24
  -6  -1  -7    2.31    0.15
  -6  -1  -7    1.84    0.19
  -8   2   7    0.01    0.06
  -8   2   7    0.09    0.08
  -7   2   7    2.47    0.23
  -7   2   7    2.34    0.20
  -6   2   7    6.99    0.46
   4  -2  -7   20.85    1.45
  -4   2   7   20.03    1.38
   3  -2  -7   10.83    0.77
   3  -2  -7   11.29    0.83
   2  -2  -7   16.62    1.06
   2  -2  -7   17.06    1.15
   1  -2  -7    0.31    0.23
   1  -2  -7    0.16    0.18
   1  -2  -7    0.26    0.18
   0  -2  -7   79.54    4.96
   0  -2  -7   80.29    4.48
   0  -2  -7   80.73    4.87
  -1  -2  -7    1.58    0.29
  -1  -2  -7    1.86    0.26
  -1  -2  -7    1.41    0.28
  -1  -2  -7    1.83    0.26
  -2  -2  -7    2.14    0.35
  -2  -2  -7    2.09    0.17
  -2  -2  -7    1.99    0.18
  -2  -2  -7    2.15    0.22
  -2  -2  -7    2.15    0.28
  -2  -2  -7    1.99    0.18
  -3  -2  -7    5.92    0.46
  -3  -2  -7    6.25    0.36
  -3  -2  -7    6.41    0.61
  -3  -2  -7    5.72    0.47
  -3  -2  -7    5.65    0.34
  -3  -2  -7    5.99    0.38
  -3  -2  -7    5.88    0.46
  -3  -2  -7    5.90    0.55
  -4  -2  -7   13.92    0.92
  -4  -2  -7   13.09    0.74
  -4  -2  -7   12.88    0.76
  -5  -2  -7    3.73    0.22
  -5  -2  -7    3.34    0.25
  -5  -2  -7    3.81    0.33
  -6  -2  -7    1.17    0.10
  -6  -2  -7    1.22    0.14
   8  -3  -7    0.03    0.07
  -8   3   7   -0.08    0.07
  -8   3   7   -0.02    0.05
   7  -3  -7    9.62    0.58
  -7   3   7    9.46    0.56
   6  -3  -7   54.73    3.03
   5  -3  -7    0.60    0.17
   5  -3  -7    0.07    0.25
   4  -3  -7    0.18    0.29
   4  -3  -7   -0.15    0.27
   4  -3  -7    0.15    0.14
   3  -3  -7    3.22    0.25
   3  -3  -7    3.43    0.45
   3  -3  -7    3.72    0.42
   3  -3  -7    3.16    0.25
   3  -3  -7    3.27    0.41
   2  -3  -7    0.56    0.11
   2  -3  -7    0.51    0.10
   2  -3  -7    0.62    0.25
   2  -3  -7    0.40    0.24
   2  -3  -7    0.71    0.28
   2  -3  -7    0.46    0.23
   1  -3  -7   31.45    2.01
   1  -3  -7   30.72    1.80
   1  -3  -7   28.07    1.67
   1  -3  -7   31.17    1.95
   1  -3  -7   34.18    2.09
   1  -3  -7   30.28    1.70
   0  -3  -7    1.79    0.24
   0  -3  -7    2.01    0.18
   0  -3  -7    2.29    0.16
   0  -3  -7    2.58    0.33
   0  -3  -7    2.44    0.36
   0  -3  -7    1.81    0.27
   0  -3  -7    2.08    0.17
   0  -3  -7    1.99    0.23
   0  -3  -7    2.03    0.25
   0  -3  -7    1.74    0.33
  -1  -3  -7   16.88    1.16
  -1  -3  -7   17.25    1.06
  -1  -3  -7   16.78    0.95
  -1  -3  -7   16.54    1.15
  -1  -3  -7   16.68    1.14
  -1  -3  -7   18.53    1.24
  -1  -3  -7   17.54    0.97
  -1  -3  -7   18.79    1.17
  -2  -3  -7   22.47    1.35
  -2  -3  -7   22.86    1.48
  -2  -3  -7   19.82    1.46
  -2  -3  -7   22.46    1.58
  -2  -3  -7   21.78    1.51
  -2  -3  -7   23.76    1.50
  -2  -3  -7   24.00    1.26
  -2  -3  -7   24.10    1.24
  -3  -3  -7    2.43    0.27
  -3  -3  -7    1.99    0.14
  -3  -3  -7    2.04    0.22
  -3  -3  -7    2.16    0.19
  -3  -3  -7    2.04    0.25
  -4  -3  -7   16.39    1.12
  -4  -3  -7   16.55    0.92
  -5  -3  -7    0.42    0.08
  -5  -3  -7    0.45    0.12
   7  -4  -7    0.70    0.10
  -7   4   7    0.45    0.13
   6  -4  -7   11.69    0.66
   6  -4  -7   10.60    0.65
   5  -4  -7   21.13    1.16
   5  -4  -7   19.27    1.30
   5  -4  -7   21.59    1.17
   4  -4  -7   13.86    1.18
   4  -4  -7   15.51    0.87
   4  -4  -7   16.57    0.86
   4  -4  -7   14.02    0.87
   4  -4  -7   15.93    1.07
   4  -4  -7   14.86    0.97
   3  -4  -7   63.91    3.30
   3  -4  -7   56.15    3.33
   3  -4  -7   61.53    3.36
   3  -4  -7   59.07    3.49
   3  -4  -7   64.94    3.75
   3  -4  -7   61.09    4.02
   2  -4  -7   12.78    0.75
   2  -4  -7   14.02    0.89
   2  -4  -7   13.83    0.87
   2  -4  -7   13.65    0.74
   2  -4  -7   14.27    1.08
   2  -4  -7   13.18    0.74
   2  -4  -7   12.28    0.95
   2  -4  -7   12.27    0.90
   1  -4  -7   15.04    1.01
   1  -4  -7   14.75    0.84
   1  -4  -7   15.24    0.83
   1  -4  -7   14.75    1.14
   1  -4  -7   16.05    0.95
   1  -4  -7   15.09    0.97
   1  -4  -7   13.69    1.01
   1  -4  -7   14.68    1.02
   1  -4  -7   14.98    1.12
   0  -4  -7    2.90    0.34
   0  -4  -7    3.38    0.24
   0  -4  -7    3.23    0.29
   0  -4  -7    3.40    0.33
   0  -4  -7    3.76    0.34
   0  -4  -7    3.44    0.48
   0  -4  -7    3.13    0.30
   0  -4  -7    3.48    0.22
   0  -4  -7    3.72    0.34
  -1  -4  -7    0.58    0.14
  -1  -4  -7    0.80    0.09
  -1  -4  -7    0.74    0.31
  -1  -4  -7    0.94    0.11
  -1  -4  -7    0.79    0.20
  -1  -4  -7    1.06    0.21
  -1  -4  -7    0.74    0.20
  -2  -4  -7   43.32    2.88
  -2  -4  -7   44.49    2.39
  -2  -4  -7   45.12    2.85
  -2  -4  -7   42.28    2.79
  -3  -4  -7    0.11    0.09
  -3  -4  -7    0.13    0.16
  -3  -4  -7    0.08    0.18
  -3  -4  -7    0.18    0.11
  -4  -4  -7   13.39    0.88
  -4  -4  -7   12.39    0.70
   7  -5  -7    0.24    0.10
   7  -5  -7    0.31    0.08
   6  -5  -7    0.47    0.13
   6  -5  -7    0.69    0.14
   5  -5  -7    0.70    0.08
   5  -5  -7    0.36    0.18
   5  -5  -7    0.65    0.16
   5  -5  -7    0.74    0.14
   4  -5  -7   18.51    1.23
   4  -5  -7   19.79    1.13
   4  -5  -7   21.36    1.28
   4  -5  -7   20.74    1.11
   3  -5  -7   24.15    1.40
   3  -5  -7   27.20    1.62
   3  -5  -7   25.72    1.42
   2  -5  -7    5.33    0.68
   2  -5  -7    6.29    0.35
   2  -5  -7    6.16    0.48
   2  -5  -7    5.96    0.47
   2  -5  -7    5.34    0.44
   2  -5  -7    6.18    0.37
   1  -5  -7    1.50    0.40
   1  -5  -7    1.79    0.26
   1  -5  -7    1.65    0.22
   1  -5  -7    1.97    0.19
   1  -5  -7    2.26    0.28
   1  -5  -7    1.83    0.12
   0  -5  -7   12.38    0.85
   0  -5  -7   12.15    0.69
   0  -5  -7   11.25    0.79
   0  -5  -7   12.63    0.84
  -1  -5  -7    2.02    0.16
  -1  -5  -7    2.13    0.23
  -1  -5  -7    2.19    0.28
  -1  -5  -7    2.27    0.29
  -2  -5  -7    0.24    0.05
  -2  -5  -7    0.25    0.17
  -2  -5  -7    0.12    0.17
  -2  -5  -7    0.46    0.14
  -3  -5  -7    2.55    0.21
  -3  -5  -7    2.49    0.22
  -3  -5  -7    2.98    0.27
   6  -6  -7    4.89    0.29
   6  -6  -7    4.53    0.32
   6  -6  -7    4.82    0.27
   5  -6  -7    2.20    0.21
   5  -6  -7    3.25    0.22
   5  -6  -7    2.75    0.17
   5  -6  -7    2.30    0.22
   4  -6  -7   13.26    0.80
   4  -6  -7   12.43    0.70
   4  -6  -7   11.38    0.67
   3  -6  -7    1.89    0.20
   3  -6  -7    1.93    0.29
   3  -6  -7    2.27    0.20
   2  -6  -7   22.81    1.43
   2  -6  -7   21.49    1.50
   2  -6  -7   24.47    1.25
   2  -6  -7   21.55    1.49
   1  -6  -7    2.85    0.19
   1  -6  -7    2.99    0.31
   1  -6  -7    2.81    0.29
   1  -6  -7    2.80    0.29
   0  -6  -7    0.57    0.16
   0  -6  -7    0.44    0.19
  -1  -6  -7    0.60    0.13
  -1  -6  -7    0.53    0.14
  -2  -6  -7    0.57    0.14
  -2  -6  -7    0.59    0.12
   5  -7  -7    2.27    0.19
   5  -7  -7    2.81    0.16
   4  -7  -7    0.09    0.11
   4  -7  -7    0.24    0.07
   3  -7  -7   37.72    2.13
   3  -7  -7   41.08    2.42
   2  -7  -7    0.05    0.10
   2  -7  -7    0.05    0.11
   1  -7  -7    8.76    0.64
   1  -7  -7   11.06    0.69
   1  -7  -7   10.45    0.69
   0  -7  -7    0.09    0.10
   0  -7  -7    0.13    0.09
   0  -8   8   -0.05    0.09
   1  -8   8    0.07    0.07
   1  -8   8    0.05    0.10
   2  -8   8    0.67    0.10
   2  -8   8    0.62    0.11
   3  -8   8   -0.01    0.07
   3  -8   8    0.12    0.13
  -2  -7   8    1.16    0.16
  -1  -7   8    0.74    0.15
  -1  -7   8    0.40    0.15
  -1  -7   8    0.68    0.14
   0  -7   8   11.81    0.82
   0  -7   8   13.43    0.79
   0  -7   8   11.62    0.79
   1  -7   8    2.16    0.25
   1  -7   8    2.03    0.20
   1  -7   8    1.53    0.20
   2  -7   8    7.45    0.53
   2  -7   8    8.13    0.54
   2  -7   8    7.93    0.54
   3  -7   8    0.54    0.19
   3  -7   8    0.71    0.15
   3  -7   8    0.25    0.18
   4  -7   8    1.12    0.16
   4  -7   8    1.39    0.10
   4  -7   8    1.20    0.16
   5  -7   8    1.60    0.11
   5  -7   8    1.31    0.13
   5  -7   8    1.30    0.15
  -3  -6   8   15.75    0.92
  -3  -6   8   12.26    0.89
  -2  -6   8    7.82    0.52
  -2  -6   8    6.57    0.51
  -2  -6   8    7.60    0.51
  -1  -6   8    1.07    0.23
  -1  -6   8    1.11    0.17
  -1  -6   8    0.96    0.17
   0  -6   8    4.33    0.36
   0  -6   8    4.12    0.36
   0  -6   8    4.03    0.33
   0  -6   8    4.36    0.37
   1  -6   8    1.95    0.23
   1  -6   8    1.88    0.27
   1  -6   8    2.01    0.27
   1  -6   8    1.77    0.26
   2  -6   8   14.31    0.95
   2  -6   8   15.73    0.99
   2  -6   8   14.51    0.83
   2  -6   8   15.41    0.97
   3  -6   8   39.47    2.24
   3  -6   8   40.88    2.47
   3  -6   8   43.36    2.56
   3  -6   8   40.48    2.53
   4  -6   8    0.00    0.18
   4  -6   8    0.24    0.16
   4  -6   8    0.11    0.04
   4  -6   8    0.26    0.11
   5  -6   8    3.56    0.23
   5  -6   8    2.98    0.19
   5  -6   8    3.05    0.26
   6  -6   8    1.10    0.08
   6  -6   8    0.73    0.15
   6  -6   8    1.15    0.14
  -5  -5   8    0.01    0.07
  -4  -5   8    0.99    0.19
  -4  -5   8    1.53    0.21
  -3  -5   8    0.54    0.14
  -3  -5   8    0.24    0.19
  -3  -5   8    0.28    0.19
  -2  -5   8   16.49    1.07
  -2  -5   8   17.03    1.06
  -2  -5   8   16.45    1.09
  -2  -5   8   17.63    1.12
  -1  -5   8    1.17    0.24
  -1  -5   8    1.15    0.18
  -1  -5   8    0.90    0.17
  -1  -5   8    1.25    0.25
  -1  -5   8    1.24    0.22
   0  -5   8   27.45    1.64
   0  -5   8   26.70    1.65
   0  -5   8   25.57    1.42
   0  -5   8   21.94    1.81
   0  -5   8   26.65    1.59
   0  -5   8   27.12    1.68
   1  -5   8    3.96    0.34
   1  -5   8    4.24    0.36
   1  -5   8    4.23    0.36
   1  -5   8    4.10    0.25
   1  -5   8    3.94    0.52
   1  -5   8    3.91    0.32
   2  -5   8   36.30    2.35
   2  -5   8   38.66    2.29
   2  -5   8   38.34    2.58
   2  -5   8   39.69    2.09
   2  -5   8   36.27    2.13
   2  -5   8   36.75    2.05
   2  -5   8   41.46    2.38
   3  -5   8    0.91    0.20
   3  -5   8    1.46    0.22
   3  -5   8    1.36    0.40
   3  -5   8    1.67    0.24
   3  -5   8    1.27    0.12
   3  -5   8    0.98    0.22
   3  -5   8    1.46    0.18
   4  -5   8    0.51    0.16
   4  -5   8    0.51    0.19
   4  -5   8    0.46    0.10
   4  -5   8    0.58    0.14
   5  -5   8   -0.03    0.13
   5  -5   8    0.13    0.10
   5  -5   8    0.08    0.17
   6  -5   8    0.04    0.07
   6  -5   8    0.09    0.15
   7  -5   8    1.10    0.10
   7  -5   8    1.32    0.12
  -5  -4   8    0.20    0.09
  -5  -4   8    0.21    0.11
  -5  -4   8    0.03    0.14
  -4  -4   8    1.10    0.17
  -4  -4   8    0.75    0.15
  -4  -4   8    0.79    0.14
  -3  -4   8   10.14    0.85
  -3  -4   8   10.55    0.72
  -3  -4   8   10.07    0.57
  -3  -4   8   10.45    0.70
  -3  -4   8    9.91    0.68
  -2  -4   8    3.77    0.55
  -2  -4   8    3.82    0.31
  -2  -4   8    3.88    0.45
  -2  -4   8    4.22    0.36
  -2  -4   8    3.94    0.24
  -2  -4   8    3.87    0.35
  -2  -4   8    3.79    0.35
  -1  -4   8   12.92    1.07
  -1  -4   8   13.08    0.89
  -1  -4   8   14.32    0.77
  -1  -4   8   13.89    0.91
  -1  -4   8   14.58    0.91
  -1  -4   8   13.87    0.89
  -1  -4   8   14.45    0.93
   0  -4   8    4.68    0.38
   0  -4   8    4.64    0.29
   0  -4   8    4.91    0.55
   0  -4   8    5.06    0.39
   0  -4   8    4.68    0.38
   0  -4   8    4.89    0.37
   1  -4   8    0.34    0.14
   1  -4   8    0.30    0.27
   1  -4   8    0.31    0.17
   1  -4   8    0.44    0.19
   1  -4   8    0.16    0.15
   1  -4   8    0.45    0.16
   1  -4   8    0.38    0.11
   1  -4   8    0.39    0.07
   1  -4   8    0.43    0.16
   2  -4   8   32.92    2.22
   2  -4   8   36.54    2.27
   2  -4   8   34.15    2.17
   2  -4   8   35.34    1.96
   2  -4   8   37.13    2.25
   2  -4   8   37.39    1.98
   2  -4   8   36.39    2.30
   2  -4   8   37.83    2.08
   2  -4   8   39.33    2.43
   3  -4   8    4.44    0.27
   3  -4   8    3.73    0.46
   3  -4   8    4.53    0.35
   3  -4   8    3.88    0.32
   3  -4   8    4.79    0.43
   3  -4   8    4.41    0.28
   3  -4   8    4.47    0.55
   3  -4   8    4.17    0.30
   4  -4   8    9.54    0.58
   4  -4   8    9.77    0.56
   4  -4   8    9.36    0.56
   4  -4   8   10.22    0.88
   4  -4   8    9.49    0.76
   5  -4   8   18.07    1.00
   5  -4   8   17.76    1.01
   6  -4   8    0.32    0.14
   6  -4   8    0.85    0.14
  -7   4  -8    8.37    0.45
   7  -4   8    7.98    0.50
   7  -4   8    6.51    0.44
   7  -4   8    7.45    0.43
  -6  -3   8   -0.08    0.12
  -6  -3   8   -0.01    0.08
  -5  -3   8   23.55    1.60
  -5  -3   8   26.27    1.57
  -5  -3   8   25.52    1.63
  -4  -3   8   13.08    0.71
  -4  -3   8   11.97    0.85
  -4  -3   8   12.60    0.85
  -4  -3   8   12.35    0.82
  -3  -3   8   48.61    2.68
  -3  -3   8   46.41    3.05
  -3  -3   8   49.80    3.15
  -3  -3   8   50.89    3.13
  -3  -3   8   51.14    3.04
  -2  -3   8   70.84    4.43
  -2  -3   8   67.17    4.23
  -2  -3   8   65.66    4.30
  -2  -3   8   67.00    3.77
  -2  -3   8   75.07    4.19
  -2  -3   8   75.32    4.38
  -2  -3   8   71.04    3.82
  -2  -3   8   68.36    4.33
  -2  -3   8   72.15    4.55
  -2  -3   8   73.08    3.89
  -1  -3   8    2.66    0.27
  -1  -3   8    2.98    0.26
  -1  -3   8    2.71    0.27
  -1  -3   8    2.75    0.26
  -1  -3   8    2.00    0.36
  -1  -3   8    2.54    0.19
  -1  -3   8    2.54    0.25
  -1  -3   8    2.53    0.17
  -1  -3   8    2.58    0.36
   0  -3   8   58.58    3.63
   0  -3   8   56.97    3.13
   0  -3   8   52.98    3.40
   1  -3   8    0.44    0.22
   1  -3   8    0.46    0.29
   1  -3   8    0.89    0.19
   2  -3   8    2.67    0.25
   2  -3   8    3.46    0.48
   2  -3   8    3.21    0.39
   2  -3   8    3.00    0.35
   2  -3   8    2.69    0.21
   2  -3   8    2.56    0.20
   3  -3   8    7.23    0.67
   3  -3   8    7.19    0.45
   3  -3   8    8.28    0.73
   3  -3   8    6.90    0.44
   3  -3   8    7.86    0.63
   3  -3   8    6.99    0.43
   4  -3   8    7.42    0.44
   4  -3   8    6.70    0.62
   4  -3   8    5.47    0.64
   4  -3   8    6.54    0.68
   4  -3   8    7.12    0.43
   5  -3   8   14.36    0.85
   6  -3   8    0.88    0.16
  -7   3  -8    6.21    0.38
   7  -3   8    5.86    0.37
  -7  -2   8   15.44    0.75
  -7  -2   8   11.89    0.88
  -6  -2   8    1.62    0.17
  -5  -2   8    0.30    0.11
  -5  -2   8    0.23    0.07
  -5  -2   8    0.16    0.16
  -5  -2   8    0.15    0.16
  -4  -2   8    9.06    0.60
  -4  -2   8    9.07    0.52
  -4  -2   8    8.11    0.61
  -4  -2   8    7.45    0.64
  -4  -2   8    9.34    0.50
  -4  -2   8    8.70    0.77
  -4  -2   8    8.96    0.61
  -4  -2   8    8.85    0.61
  -3  -2   8    0.29    0.09
  -3  -2   8    0.48    0.14
  -3  -2   8    0.13    0.15
  -3  -2   8    0.34    0.12
  -3  -2   8   -0.08    0.27
  -3  -2   8    0.28    0.09
  -3  -2   8    0.04    0.17
  -3  -2   8    0.23    0.18
  -3  -2   8    0.19    0.16
  -2  -2   8   14.72    0.90
  -2  -2   8   15.07    1.03
  -2  -2   8   14.50    0.93
  -2  -2   8   15.27    0.97
  -2  -2   8   13.69    0.80
  -2  -2   8   14.43    1.07
  -1  -2   8    0.83    0.19
  -1  -2   8    0.62    0.20
  -1  -2   8    0.96    0.24
  -1  -2   8    0.82    0.25
   0  -2   8   65.97    4.23
   0  -2   8   64.19    4.03
   0  -2   8   68.97    3.71
   1  -2   8   93.31    5.70
   1  -2   8   92.96    5.23
   1  -2   8   96.19    5.95
   2  -2   8    7.46    0.60
   2  -2   8    7.16    0.63
   2  -2   8    7.16    0.62
   3  -2   8   65.04    4.01
   3  -2   8   78.32    4.69
   3  -2   8   75.51    4.13
   3  -2   8   74.29    4.52
   4  -2   8    2.61    0.25
  -5   2  -8    1.49    0.19
   5  -2   8    1.44    0.21
  -6   2  -8   15.61    0.94
   6  -2   8   17.05    0.94
  -7   2  -8    0.53    0.09
   7  -2   8    0.44    0.14
  -7  -1   8    2.66    0.19
  -7  -1   8    2.46    0.24
  -6  -1   8   12.83    0.77
  -6  -1   8   15.19    0.80
  -6  -1   8   14.42    0.93
  -6  -1   8   13.41    0.89
  -5  -1   8    1.69    0.43
  -5  -1   8    3.28    0.23
  -5  -1   8    2.86    0.29
  -5  -1   8    3.19    0.30
  -5  -1   8    2.91    0.24
  -4  -1   8    5.23    0.50
  -4  -1   8    5.78    0.34
  -4  -1   8    5.44    0.37
  -4  -1   8    5.71    0.48
  -4  -1   8    5.14    0.34
  -4  -1   8    5.67    0.58
  -4  -1   8    5.21    0.41
  -3  -1   8   20.05    1.10
  -3  -1   8   18.01    1.12
  -3  -1   8   20.18    1.32
  -3  -1   8   19.14    1.12
  -3  -1   8   22.75    1.39
  -3  -1   8   21.96    1.24
  -2  -1   8   25.33    1.68
  -2  -1   8   26.38    1.78
  -2  -1   8   27.43    1.73
  -2  -1   8   27.31    1.57
  -1  -1   8   18.45    1.30
  -1  -1   8   19.29    1.25
  -1  -1   8   19.33    1.15
   0   1  -8   56.94    2.93
   0  -1   8   61.89    3.87
   0  -1   8   57.13    2.92
   0  -1   8   64.07    3.42
   0  -1   8   63.67    3.72
  -1   1  -8   52.09    3.35
  -1   1  -8   50.38    2.65
   1  -1   8   49.43    2.63
   1  -1   8   58.75    3.47
   1  -1   8   55.90    3.06
   1  -1   8   57.75    3.35
   2  -1   8    0.22    0.22
   2  -1   8    0.03    0.22
   2  -1   8   -0.01    0.20
  -4   1  -8   49.47    2.78
  -4   1  -8   51.21    3.21
  -5   1  -8    6.55    0.42
  -6   1  -8    3.45    0.27
  -6   1  -8    3.71    0.25
  -7   1  -8    4.33    0.37
  -7   1  -8    6.08    0.32
  -7   0   8    3.89    0.29
  -7   0   8    3.59    0.23
  -6   0   8    8.19    0.50
  -6   0   8    7.46    0.45
  -6   0   8    8.37    0.48
  -6   0   8    7.95    0.54
  -5   0   8   19.35    1.14
  -5   0   8   18.85    1.42
  -5   0   8   22.05    1.13
  -5   0   8   20.04    1.27
  -5   0   8   20.41    1.33
  -5   0   8   20.65    1.14
  -4   0   8    6.07    0.58
  -4   0   8    5.74    0.56
  -4   0   8    5.59    0.53
  -4   0   8    5.69    0.38
  -4   0   8    5.52    0.36
  -3   0   8  104.96    6.31
  -3   0   8  104.17    5.75
  -3   0   8   99.93    6.24
  -2   0   8   46.74    2.75
  -2   0   8   42.04    2.84
  -2   0   8   44.31    2.54
   1   0  -8   80.49    4.03
  -1   0   8   83.84    4.04
  -1   0   8   87.11    4.74
  -1   0   8   93.50    5.16
  -1   0   8   87.47    5.34
  -1   0   8   76.58    4.04
   0   0  -8    1.12    0.18
   0   0  -8    0.98    0.24
   0   0  -8    1.53    0.24
   0   0  -8    0.96    0.23
   0   0  -8    1.43    0.30
   0   0   8    0.96    0.22
   0   0   8    1.12    0.20
   0   0   8    1.35    0.29
   0   0   8    1.23    0.22
   0   0   8    1.08    0.25
  -1   0  -8   29.52    1.91
  -1   0  -8   30.84    1.92
  -1   0  -8   30.78    1.76
   1   0   8   27.99    1.55
   1   0   8   31.95    1.96
   1   0   8   29.51    1.94
  -2   0  -8    0.44    0.25
  -2   0  -8    0.37    0.20
  -2   0  -8    0.34    0.24
  -3   0  -8    2.51    0.22
  -3   0  -8    3.10    0.39
  -3   0  -8    2.73    0.43
  -3   0  -8    2.90    0.40
  -4   0  -8   -0.01    0.26
  -4   0  -8    0.18    0.12
  -4   0  -8    0.27    0.09
  -4   0  -8    0.29    0.26
  -4   0  -8    0.47    0.32
  -5   0  -8    2.62    0.22
  -5   0  -8    2.48    0.20
  -6   0  -8    0.14    0.06
  -6   0  -8    0.12    0.10
  -6   0  -8    0.20    0.11
  -7   0  -8    1.59    0.14
  -7   0  -8    1.33    0.10
  -7   1   8   23.44    1.29
  -7   1   8   23.77    1.52
  -7   1   8   23.32    1.29
  -6   1   8    8.87    0.52
  -6   1   8    8.09    0.51
  -5   1   8  140.96    8.77
  -5   1   8  137.23    8.81
  -5   1   8  150.79    7.90
  -5   1   8  147.89    7.75
  -4   1   8    7.31    0.63
  -4   1   8    6.71    0.44
  -3   1   8    4.45    0.46
   2  -1  -8   91.51    5.29
   2  -1  -8   96.56    5.76
  -2   1   8   95.66    5.75
   1  -1  -8   11.96    0.77
   1  -1  -8   11.24    0.73
   1  -1  -8   11.47    0.79
   1  -1  -8   12.66    0.85
  -1   1   8   10.79    0.71
   0  -1  -8    0.38    0.21
   0  -1  -8   -0.06    0.20
   0  -1  -8    0.18    0.21
   0  -1  -8    0.14    0.18
  -1  -1  -8  209.51   12.39
  -1  -1  -8  204.65   12.61
  -1  -1  -8  205.78   11.39
  -2  -1  -8    0.13    0.21
  -2  -1  -8    0.11    0.10
  -2  -1  -8   -0.14    0.21
  -2  -1  -8   -0.26    0.25
  -2  -1  -8    0.07    0.12
  -3  -1  -8   74.92    4.36
  -3  -1  -8   72.25    3.79
  -3  -1  -8   64.93    4.49
  -3  -1  -8   66.44    3.77
  -3  -1  -8   67.55    3.72
  -3  -1  -8   69.42    4.28
  -4  -1  -8   27.01    1.47
  -4  -1  -8   28.62    1.78
  -4  -1  -8   26.41    1.82
  -4  -1  -8   25.50    1.49
  -4  -1  -8   26.34    1.49
  -5  -1  -8    1.83    0.20
  -5  -1  -8    1.89    0.17
  -5  -1  -8    1.66    0.19
  -6  -1  -8    1.62    0.16
  -6  -1  -8    1.36    0.11
  -8   2   8    0.27    0.07
  -7   2   8    0.25    0.10
  -7   2   8    0.14    0.12
  -6   2   8    0.82    0.16
   4  -2  -8   24.62    1.68
  -4   2   8   23.05    1.60
   3  -2  -8   79.24    4.35
   2  -2  -8   22.67    1.41
   2  -2  -8   23.00    1.52
   1  -2  -8   34.78    2.17
   1  -2  -8   34.26    2.00
   1  -2  -8   33.77    2.18
   0  -2  -8   15.39    1.04
   0  -2  -8   14.41    1.03
   0  -2  -8   14.61    0.94
  -1  -2  -8    0.09    0.22
  -1  -2  -8    0.16    0.10
  -1  -2  -8   -0.02    0.10
  -1  -2  -8    0.12    0.09
  -1  -2  -8    0.18    0.24
  -1  -2  -8    0.12    0.21
  -2  -2  -8   18.42    1.11
  -2  -2  -8   17.70    0.97
  -2  -2  -8   17.43    0.98
  -2  -2  -8   19.57    1.26
  -2  -2  -8   17.25    1.21
  -2  -2  -8   17.08    0.99
  -2  -2  -8   16.35    1.17
  -3  -2  -8   15.25    1.12
  -3  -2  -8   14.30    0.82
  -3  -2  -8   14.45    1.01
  -3  -2  -8   13.79    0.96
  -3  -2  -8   15.36    1.01
  -3  -2  -8   15.49    0.83
  -3  -2  -8   15.01    0.85
  -4  -2  -8   11.32    0.64
  -4  -2  -8   11.39    0.62
  -4  -2  -8    9.19    0.75
  -4  -2  -8   11.81    0.77
  -5  -2  -8    0.31    0.06
  -5  -2  -8    0.42    0.12
  -5  -2  -8    0.37    0.10
  -6  -2  -8    6.75    0.38
   7  -3  -8    3.18    0.26
  -7   3   8    3.00    0.24
   6  -3  -8   22.25    1.36
  -6   3   8   25.71    1.37
   5  -3  -8    0.27    0.12
   5  -3  -8    0.22    0.29
   5  -3  -8    0.37    0.17
   4  -3  -8    6.18    0.67
   4  -3  -8    6.55    0.43
   3  -3  -8   17.64    0.99
   3  -3  -8   15.85    0.97
   3  -3  -8   17.92    1.17
   3  -3  -8   18.66    1.31
   2  -3  -8    0.00    0.26
   2  -3  -8    0.24    0.11
   2  -3  -8    0.21    0.10
   2  -3  -8    0.21    0.21
   2  -3  -8    0.27    0.22
   2  -3  -8    0.29    0.23
   2  -3  -8    0.13    0.12
   1  -3  -8   24.34    1.43
   1  -3  -8   26.64    1.70
   1  -3  -8   24.97    1.45
   1  -3  -8   30.15    1.77
   1  -3  -8   27.10    1.58
   1  -3  -8   24.74    1.72
   1  -3  -8   26.18    1.46
   1  -3  -8   28.07    1.84
   0  -3  -8  114.78    5.77
   0  -3  -8  103.49    6.41
   0  -3  -8  103.26    6.63
   0  -3  -8  106.07    6.59
   0  -3  -8  105.15    5.60
   0  -3  -8   98.60    5.65
   0  -3  -8   97.21    6.51
   0  -3  -8  104.62    5.54
   0  -3  -8  107.62    6.27
   0  -3  -8   94.01    6.69
  -1  -3  -8    0.71    0.19
  -1  -3  -8    0.50    0.29
  -1  -3  -8    0.62    0.10
  -1  -3  -8    0.58    0.16
  -1  -3  -8    0.78    0.17
  -1  -3  -8    0.71    0.14
  -1  -3  -8    0.42    0.22
  -1  -3  -8    0.28    0.20
  -2  -3  -8    3.24    0.31
  -2  -3  -8    3.61    0.49
  -2  -3  -8    3.18    0.35
  -2  -3  -8    3.16    0.25
  -2  -3  -8    2.73    0.31
  -2  -3  -8    3.18    0.30
  -2  -3  -8    3.43    0.21
  -3  -3  -8    4.37    0.28
  -3  -3  -8    4.18    0.26
  -3  -3  -8    4.07    0.34
  -3  -3  -8    4.36    0.37
  -4  -3  -8    0.27    0.12
  -4  -3  -8    0.34    0.10
  -5  -3  -8    0.33    0.07
  -5  -3  -8    0.21    0.09
   7  -4  -8    5.38    0.35
   7  -4  -8    6.28    0.36
  -7   4   8    5.58    0.36
   6  -4  -8    2.53    0.24
   5  -4  -8    9.25    0.55
   5  -4  -8    9.50    0.62
   5  -4  -8    8.41    0.54
   4  -4  -8   12.88    0.86
   4  -4  -8   12.01    1.03
   4  -4  -8   13.33    0.75
   4  -4  -8   13.30    0.76
   3  -4  -8    0.08    0.32
   3  -4  -8    0.32    0.14
   3  -4  -8    0.35    0.12
   3  -4  -8    0.08    0.27
   3  -4  -8    0.34    0.26
   3  -4  -8    0.37    0.14
   3  -4  -8    0.41    0.13
   2  -4  -8   12.00    1.02
   2  -4  -8   13.19    0.86
   2  -4  -8   12.65    0.70
   2  -4  -8   13.07    0.82
   2  -4  -8   11.82    0.71
   2  -4  -8   11.06    0.89
   2  -4  -8   11.72    0.69
   2  -4  -8   12.03    0.84
   1  -4  -8    6.28    0.37
   1  -4  -8    6.67    0.69
   1  -4  -8    6.43    0.66
   1  -4  -8    6.60    0.49
   1  -4  -8    6.12    0.45
   1  -4  -8    5.69    0.54
   1  -4  -8    6.41    0.39
   1  -4  -8    5.81    0.51
   0  -4  -8    2.83    0.20
   0  -4  -8    3.03    0.29
   0  -4  -8    3.25    0.24
   0  -4  -8    2.46    0.35
   0  -4  -8    2.54    0.31
   0  -4  -8    2.92    0.31
   0  -4  -8    2.79    0.27
   0  -4  -8    2.52    0.28
  -1  -4  -8    3.61    0.49
  -1  -4  -8    3.47    0.31
  -1  -4  -8    3.33    0.23
  -1  -4  -8    3.29    0.32
  -1  -4  -8    3.45    0.32
  -1  -4  -8    3.12    0.21
  -2  -4  -8   11.97    0.86
  -2  -4  -8   13.13    0.88
  -2  -4  -8   13.13    0.89
  -2  -4  -8   12.80    0.72
  -3  -4  -8   21.99    1.43
  -3  -4  -8   21.57    1.20
  -3  -4  -8   21.04    1.44
  -3  -4  -8   23.06    1.46
  -4  -4  -8    8.38    0.46
   7  -5  -8    0.08    0.08
   7  -5  -8    0.08    0.06
   6  -5  -8    0.95    0.11
   6  -5  -8    0.54    0.16
   5  -5  -8    5.62    0.38
   5  -5  -8    5.69    0.43
   5  -5  -8    5.79    0.41
   4  -5  -8   17.87    1.16
   4  -5  -8   17.86    1.03
   4  -5  -8   18.70    1.01
   3  -5  -8   34.59    1.89
   3  -5  -8   34.31    1.92
   3  -5  -8   35.66    2.17
   2  -5  -8   60.52    3.24
   2  -5  -8   59.77    3.20
   2  -5  -8   58.78    3.65
   2  -5  -8   58.65    3.84
   1  -5  -8    8.64    0.62
   1  -5  -8    8.86    0.48
   1  -5  -8    8.13    0.63
   1  -5  -8    8.36    0.62
   1  -5  -8    9.44    0.52
   0  -5  -8    0.08    0.18
   0  -5  -8    0.03    0.11
   0  -5  -8   -0.08    0.14
   0  -5  -8    0.17    0.15
  -1  -5  -8    1.38    0.18
  -1  -5  -8    1.45    0.12
  -1  -5  -8    1.12    0.23
  -2  -5  -8    1.94    0.13
  -2  -5  -8    1.62    0.24
  -2  -5  -8    1.87    0.19
  -2  -5  -8    1.95    0.20
  -3  -5  -8    0.21    0.08
   6  -6  -8    1.21    0.09
   6  -6  -8    1.22    0.11
   5  -6  -8    2.80    0.17
   5  -6  -8    2.37    0.21
   5  -6  -8    2.69    0.22
   4  -6  -8   -0.06    0.10
   4  -6  -8   -0.14    0.17
   4  -6  -8    0.04    0.05
   3  -6  -8    0.01    0.13
   3  -6  -8   -0.02    0.10
   2  -6  -8   31.36    1.94
   2  -6  -8   30.95    1.70
   2  -6  -8   31.10    2.03
   1  -6  -8    1.39    0.17
   1  -6  -8    1.21    0.18
   1  -6  -8    1.39    0.18
   1  -6  -8    1.37    0.12
   0  -6  -8    9.08    0.61
   0  -6  -8    8.32    0.62
  -1  -6  -8    0.76    0.13
  -1  -6  -8    0.71    0.17
  -2  -6  -8    4.58    0.34
   4  -7  -8   10.04    0.55
   3  -7  -8    7.97    0.53
   2  -7  -8    6.36    0.43
   2  -7  -8    6.51    0.46
   1  -7  -8   -0.02    0.09
   1  -8   9    1.46    0.13
   1  -8   9    1.34    0.13
   2  -8   9    0.87    0.11
   3  -8   9    0.01    0.07
   3  -8   9   -0.07    0.11
  -2  -7   9    1.79    0.16
  -1  -7   9    0.43    0.14
  -1  -7   9    0.30    0.14
   0  -7   9   -0.03    0.13
   0  -7   9    0.12    0.12
   0  -7   9    0.21    0.18
   1  -7   9   10.51    0.70
   1  -7   9   10.94    0.72
   2  -7   9    0.47    0.19
   2  -7   9    0.75    0.14
   3  -7   9   11.75    0.82
   3  -7   9   14.20    0.84
   4  -7   9    0.40    0.14
   4  -7   9    0.47    0.11
   4  -7   9    0.36    0.06
   5  -7   9    0.09    0.08
   5  -7   9    0.01    0.05
  -3  -6   9   11.25    0.72
  -3  -6   9   11.22    0.75
  -2  -6   9    0.09    0.17
  -2  -6   9    0.13    0.10
  -2  -6   9    0.28    0.13
  -1  -6   9    0.20    0.13
  -1  -6   9    0.03    0.15
  -1  -6   9    0.11    0.13
   0  -6   9    1.95    0.26
   0  -6   9    2.10    0.22
   0  -6   9    1.98    0.26
   0  -6   9    2.10    0.28
   1  -6   9    1.96    0.21
   1  -6   9    2.23    0.28
   1  -6   9    2.34    0.27
   1  -6   9    2.40    0.23
   2  -6   9   11.70    0.67
   2  -6   9   12.02    0.80
   2  -6   9   12.88    0.81
   2  -6   9   11.61    0.78
   3  -6   9    0.04    0.11
   3  -6   9   -0.10    0.18
   3  -6   9    0.03    0.18
   3  -6   9   -0.01    0.19
   4  -6   9    6.53    0.48
   4  -6   9    7.73    0.53
   4  -6   9    7.82    0.44
   5  -6   9    3.28    0.24
   5  -6   9    2.58    0.21
   5  -6   9    2.70    0.17
   6  -6   9    3.24    0.21
   6  -6   9    3.00    0.25
  -4  -5   9    9.33    0.60
  -4  -5   9    9.03    0.62
  -3  -5   9   44.81    2.81
  -3  -5   9   43.79    2.73
  -2  -5   9    0.31    0.17
  -2  -5   9    0.27    0.20
  -2  -5   9   -0.03    0.24
  -2  -5   9    0.41    0.20
  -1  -5   9   43.51    2.56
  -1  -5   9   41.96    2.64
  -1  -5   9   45.56    2.71
  -1  -5   9   39.16    2.61
   0  -5   9    8.94    0.62
   0  -5   9    6.76    0.76
   0  -5   9    8.81    0.60
   0  -5   9    7.86    0.48
   0  -5   9    9.27    0.60
   0  -5   9    9.09    0.61
   1  -5   9    5.05    0.60
   1  -5   9    5.36    0.43
   1  -5   9    5.52    0.42
   1  -5   9    5.74    0.43
   1  -5   9    5.29    0.42
   1  -5   9    5.10    0.32
   2  -5   9    7.09    0.71
   2  -5   9    6.15    0.46
   2  -5   9    6.27    0.49
   2  -5   9    7.19    0.49
   2  -5   9    6.51    0.37
   2  -5   9    6.43    0.45
   2  -5   9    7.03    0.41
   2  -5   9    6.67    0.48
   3  -5   9    1.09    0.20
   3  -5   9    0.54    0.16
   3  -5   9    0.88    0.20
   3  -5   9    0.67    0.11
   3  -5   9    0.71    0.18
   3  -5   9    0.50    0.37
   4  -5   9    0.48    0.10
   4  -5   9    0.28    0.14
   4  -5   9    0.38    0.18
   5  -5   9    1.52    0.19
   5  -5   9    1.72    0.16
   6  -5   9    1.63    0.16
   6  -5   9    1.39    0.12
  -5  -4   9    4.45    0.36
  -5  -4   9    6.07    0.37
  -4  -4   9    2.82    0.29
  -4  -4   9    2.97    0.30
  -3  -4   9    2.45    0.16
  -3  -4   9    2.41    0.24
  -3  -4   9    2.36    0.25
  -3  -4   9    2.46    0.24
  -2  -4   9    9.28    0.62
  -2  -4   9    9.15    0.62
  -2  -4   9    9.42    0.65
  -2  -4   9    9.18    0.63
  -2  -4   9    8.09    0.83
  -2  -4   9    8.79    0.51
  -1  -4   9    0.44    0.18
  -1  -4   9    0.04    0.27
  -1  -4   9    0.09    0.10
  -1  -4   9    0.28    0.08
  -1  -4   9    0.33    0.20
  -1  -4   9    0.24    0.18
   0  -4   9   54.28    3.25
   0  -4   9   53.55    3.16
   0  -4   9   55.60    3.35
   0  -4   9   48.74    3.18
   0  -4   9   51.49    2.93
   0  -4   9   50.91    2.84
   0  -4   9   56.53    3.49
   0  -4   9   54.21    3.27
   0  -4   9   52.36    2.88
   1  -4   9    5.50    0.42
   1  -4   9    5.54    0.34
   1  -4   9    5.42    0.43
   1  -4   9    5.67    0.42
   1  -4   9    6.53    0.66
   1  -4   9    5.14    0.46
   1  -4   9    5.46    0.32
   1  -4   9    5.54    0.41
   1  -4   9    5.88    0.44
   2  -4   9    0.05    0.15
   2  -4   9    0.17    0.12
   2  -4   9    0.13    0.15
   2  -4   9    0.28    0.16
   2  -4   9    0.17    0.19
   2  -4   9    0.13    0.21
   2  -4   9    0.23    0.08
   2  -4   9    0.16    0.33
   2  -4   9    0.23    0.19
   3  -4   9   21.36    1.21
   3  -4   9   20.72    1.35
   3  -4   9   25.02    1.61
   3  -4   9   22.79    1.20
   3  -4   9   18.00    1.45
   3  -4   9   22.49    1.22
   3  -4   9   22.34    1.38
   4  -4   9    1.47    0.16
   4  -4   9    1.38    0.19
   4  -4   9    1.53    0.18
   4  -4   9    0.62    0.33
   5  -4   9   -0.02    0.13
   5  -4   9   -0.19    0.13
   6  -4   9    4.05    0.26
   6  -4   9    4.09    0.27
  -7   4  -9    5.38    0.32
   7  -4   9    5.61    0.36
   7  -4   9    4.94    0.31
   7  -4   9    5.20    0.30
  -6  -3   9    2.44    0.21
  -5  -3   9    0.28    0.14
  -5  -3   9    0.69    0.13
  -5  -3   9    0.27    0.15
  -4  -3   9   49.84    2.83
  -4  -3   9   45.80    2.91
  -4  -3   9   48.13    2.50
  -4  -3   9   39.70    2.92
  -3  -3   9   16.40    1.03
  -3  -3   9   16.24    1.05
  -3  -3   9   16.52    0.88
  -3  -3   9   15.20    0.89
  -3  -3   9   15.45    1.17
  -3  -3   9   15.58    1.03
  -3  -3   9   15.25    0.85
  -2  -3   9   11.89    0.98
  -2  -3   9   11.59    0.80
  -2  -3   9   12.45    0.83
  -2  -3   9   12.31    0.69
  -2  -3   9   12.09    0.81
  -2  -3   9   12.76    0.93
  -2  -3   9   11.94    0.67
  -2  -3   9   12.14    0.74
  -2  -3   9   12.53    0.79
  -2  -3   9   12.75    0.80
  -1  -3   9   18.22    1.06
  -1  -3   9   21.12    1.31
  -1  -3   9   20.67    1.14
  -1  -3   9   19.54    1.05
  -1  -3   9   19.67    1.25
  -1  -3   9   19.13    1.18
  -1  -3   9   20.31    1.39
  -1  -3   9   18.78    1.23
  -1  -3   9   18.52    1.22
  -1  -3   9   17.82    1.21
   0  -3   9   24.08    1.41
   0  -3   9   22.29    1.28
   0  -3   9   24.74    1.36
   0  -3   9   23.48    1.48
   0  -3   9   22.14    1.45
   0  -3   9   24.90    1.61
   0  -3   9   22.91    1.49
   0  -3   9   21.91    1.26
   1  -3   9    0.08    0.20
   1  -3   9    0.11    0.10
   1  -3   9    0.09    0.13
   1  -3   9    0.25    0.19
   1  -3   9    0.08    0.08
   1  -3   9    0.08    0.10
   1  -3   9    0.16    0.29
   2  -3   9   12.66    0.71
   2  -3   9   12.69    0.96
   2  -3   9   13.48    0.91
   2  -3   9   11.61    0.71
   2  -3   9   12.03    0.70
   2  -3   9   12.09    0.80
   2  -3   9   12.85    0.83
   3  -3   9    4.98    0.35
   3  -3   9    5.02    0.34
   3  -3   9    5.69    0.58
   3  -3   9    4.94    0.51
   3  -3   9    4.67    0.57
   3  -3   9    5.03    0.33
   4  -3   9   49.19    2.62
   4  -3   9   49.99    2.57
   4  -3   9   42.25    3.13
   5  -3   9   -0.05    0.15
  -6   3  -9    1.75    0.21
   6  -3   9    1.95    0.20
  -7   3  -9    0.21    0.10
   7  -3   9    0.24    0.10
  -6  -2   9    3.22    0.28
  -6  -2   9    3.87    0.27
  -5  -2   9    8.16    0.47
  -5  -2   9    7.72    0.44
  -5  -2   9    8.10    0.56
  -5  -2   9    7.65    0.56
  -4  -2   9    0.69    0.18
  -4  -2   9    0.63    0.13
  -4  -2   9    0.62    0.11
  -4  -2   9    0.57    0.34
  -4  -2   9    0.77    0.16
  -4  -2   9    0.77    0.17
  -3  -2   9   -0.03    0.21
  -3  -2   9   -0.05    0.28
  -3  -2   9   -0.04    0.15
  -3  -2   9    0.20    0.17
  -3  -2   9    0.16    0.10
  -3  -2   9    0.12    0.08
  -3  -2   9    0.17    0.15
  -3  -2   9    0.12    0.10
  -2  -2   9   25.36    1.57
  -2  -2   9   27.68    1.69
  -2  -2   9   27.50    1.49
  -2  -2   9   23.89    1.61
  -2  -2   9   26.59    1.74
  -2  -2   9   24.46    1.58
  -2  -2   9   23.06    1.38
  -2  -2   9   24.24    1.37
  -2  -2   9   25.35    1.60
  -1  -2   9   73.44    4.49
  -1  -2   9   70.19    4.08
  -1  -2   9   73.80    4.44
  -1  -2   9   74.85    4.67
   0  -2   9  284.88   15.60
   0  -2   9  285.69   17.73
   0  -2   9  281.56   16.96
   1  -2   9    1.20    0.27
   1  -2   9    1.36    0.26
   1  -2   9    1.47    0.30
   2  -2   9   53.19    3.33
   2  -2   9   51.65    3.05
   2  -2   9   55.50    3.46
   3  -2   9   15.45    0.93
   3  -2   9   18.04    1.21
   3  -2   9   15.53    1.22
   4  -2   9    0.54    0.31
   4  -2   9    1.96    0.25
  -5   2  -9    0.17    0.15
   5  -2   9    0.12    0.16
  -6   2  -9    6.12    0.39
   6  -2   9    6.09    0.41
  -7   2  -9    2.85    0.22
  -7   2  -9    2.88    0.20
  -7   2  -9    3.00    0.18
   7  -2   9    2.56    0.22
  -7  -1   9    5.34    0.37
  -6  -1   9    0.58    0.13
  -6  -1   9    0.87    0.13
  -6  -1   9    0.44    0.14
  -6  -1   9    0.56    0.09
  -5  -1   9    1.30    0.19
  -5  -1   9    1.00    0.15
  -5  -1   9    1.18    0.17
  -5  -1   9    1.30    0.15
  -4  -1   9    4.22    0.30
  -4  -1   9    4.96    0.31
  -4  -1   9    5.23    0.50
  -4  -1   9    4.76    0.35
  -4  -1   9    4.28    0.47
  -4  -1   9    4.42    0.32
  -4  -1   9    4.82    0.51
  -3  -1   9   11.93    0.69
  -3  -1   9   12.26    0.86
  -3  -1   9   12.07    0.67
  -3  -1   9   12.93    0.91
  -3  -1   9    9.94    0.78
  -3  -1   9   12.62    0.80
  -3  -1   9   11.76    0.67
  -2  -1   9    3.13    0.35
  -2  -1   9    2.99    0.39
  -2  -1   9    3.18    0.35
  -2  -1   9    2.72    0.39
  -1  -1   9   54.21    3.11
  -1  -1   9   53.62    3.52
  -1  -1   9   57.23    3.38
   0  -1   9    3.03    0.34
   0  -1   9    3.20    0.39
   0  -1   9    3.15    0.36
   1  -1   9   15.17    0.98
   1  -1   9   15.08    1.06
   1  -1   9   15.05    1.05
  -2   1  -9   59.15    3.68
   2  -1   9   58.95    3.79
  -3   1  -9   30.83    2.01
   3  -1   9   30.82    2.07
  -4   1  -9    6.18    0.64
  -4   1  -9    5.91    0.40
  -5   1  -9   21.21    1.20
  -6   1  -9    0.34    0.10
  -6   1  -9    0.45    0.12
  -7   1  -9    0.04    0.05
  -7   1  -9    0.15    0.10
  -7   0   9    0.61    0.09
  -7   0   9    0.44    0.10
  -6   0   9    0.44    0.07
  -6   0   9    0.37    0.12
  -6   0   9    0.45    0.12
  -6   0   9    0.30    0.14
  -6   0   9    0.25    0.13
  -5   0   9    1.83    0.22
  -5   0   9    1.93    0.20
  -5   0   9    2.10    0.24
  -5   0   9    2.07    0.21
  -5   0   9    1.10    0.37
  -4   0   9  259.11   13.99
  -4   0   9  247.04   15.67
  -4   0   9  266.50   14.32
  -4   0   9  272.83   15.83
  -3   0   9   10.82    0.80
  -3   0   9    9.98    0.61
  -3   0   9    9.20    0.59
  -3   0   9   10.73    0.74
  -3   0   9   11.00    0.81
  -2   0   9   58.44    3.84
  -2   0   9   60.55    3.72
  -2   0   9   62.51    3.43
  -1   0   9    4.60    0.42
  -1   0   9    5.67    0.46
  -1   0   9    5.18    0.51
   0   0   9    2.30    0.33
   0   0   9    2.12    0.29
   0   0   9    2.40    0.29
  -1   0  -9    0.75    0.22
  -1   0  -9    0.60    0.21
  -1   0  -9    0.71    0.28
   1   0   9    0.92    0.21
  -2   0  -9    0.38    0.21
  -2   0  -9    0.39    0.30
  -2   0  -9    0.18    0.19
   2   0   9    0.20    0.22
  -3   0  -9    3.72    0.49
  -3   0  -9    3.34    0.50
  -3   0  -9    3.81    0.49
  -3   0  -9    3.80    0.29
  -4   0  -9   12.45    0.76
  -4   0  -9   13.99    1.03
  -4   0  -9   13.59    0.77
  -5   0  -9    7.28    0.44
  -5   0  -9    7.15    0.51
  -5   0  -9    6.83    0.42
  -6   0  -9    6.51    0.42
  -6   0  -9    8.02    0.51
  -7   1   9    0.21    0.10
  -7   1   9    0.25    0.08
  -7   1   9    0.20    0.06
  -6   1   9   14.89    0.87
  -6   1   9   15.45    0.87
  -5   1   9   40.83    2.54
  -5   1   9   38.46    2.66
  -5   1   9   42.37    2.25
  -5   1   9   42.56    2.29
  -4   1   9   12.95    0.95
  -4   1   9   11.80    0.72
  -3   1   9   14.77    0.86
   1  -1  -9   38.95    2.26
   1  -1  -9   38.88    2.46
   0  -1  -9   62.48    3.96
   0  -1  -9   66.93    3.94
   0  -1  -9   62.44    3.61
  -1  -1  -9    4.01    0.49
  -1  -1  -9    4.57    0.43
  -1  -1  -9    4.69    0.42
  -2  -1  -9   13.41    0.98
  -2  -1  -9   14.72    0.83
  -2  -1  -9   15.32    1.05
  -2  -1  -9   14.96    0.84
  -2  -1  -9   15.46    1.09
  -2  -1  -9   15.10    0.96
  -3  -1  -9    8.86    0.55
  -3  -1  -9    9.29    0.53
  -3  -1  -9    9.44    0.72
  -3  -1  -9    8.23    0.75
  -3  -1  -9    9.28    0.65
  -3  -1  -9    9.93    0.55
  -4  -1  -9    0.18    0.13
  -4  -1  -9    0.16    0.10
  -4  -1  -9    0.10    0.11
  -4  -1  -9    0.10    0.15
  -5  -1  -9    3.93    0.27
  -5  -1  -9    4.10    0.33
  -5  -1  -9    3.83    0.26
  -6  -1  -9    0.76    0.11
  -6  -1  -9    0.75    0.07
  -7   2   9    2.19    0.20
  -7   2   9    2.38    0.18
  -6   2   9    1.72    0.21
  -5   2   9   20.39    1.44
   4  -2  -9   36.89    2.53
   4  -2  -9   38.59    2.10
  -4   2   9   36.43    2.42
   3  -2  -9    9.62    0.60
   2  -2  -9   74.30    4.29
   2  -2  -9   70.22    3.94
   2  -2  -9   64.00    3.81
   1  -2  -9   32.45    1.94
   1  -2  -9   36.42    2.24
   1  -2  -9   37.84    2.08
   1  -2  -9   34.10    2.24
   0  -2  -9    8.42    0.68
   0  -2  -9    7.57    0.47
   0  -2  -9    8.21    0.60
   0  -2  -9    8.61    0.69
   0  -2  -9    8.00    0.49
  -1  -2  -9    2.51    0.19
  -1  -2  -9    2.41    0.31
  -1  -2  -9    2.22    0.21
  -1  -2  -9    2.83    0.39
  -1  -2  -9    2.42    0.20
  -2  -2  -9    2.41    0.27
  -2  -2  -9    2.85    0.22
  -2  -2  -9    3.06    0.26
  -2  -2  -9    3.01    0.21
  -2  -2  -9    3.08    0.39
  -2  -2  -9    3.18    0.46
  -3  -2  -9   92.30    5.84
  -3  -2  -9   95.30    5.07
  -3  -2  -9   88.45    5.09
  -3  -2  -9   97.51    6.00
  -3  -2  -9   95.15    5.01
  -3  -2  -9   90.86    6.05
  -4  -2  -9    0.24    0.16
  -4  -2  -9    0.26    0.12
  -4  -2  -9    0.21    0.15
  -4  -2  -9    0.18    0.08
  -5  -2  -9   10.86    0.78
  -5  -2  -9   12.59    0.65
  -5  -2  -9   11.12    0.62
   7  -3  -9    0.09    0.09
  -7   3   9    0.08    0.10
   6  -3  -9    1.56    0.17
  -6   3   9    1.10    0.18
   5  -3  -9    0.97    0.18
   4  -3  -9    1.43    0.39
   4  -3  -9    2.57    0.24
   3  -3  -9   28.17    1.90
   3  -3  -9   22.58    1.77
   3  -3  -9   25.45    1.47
   3  -3  -9   29.92    1.50
   2  -3  -9   40.52    2.50
   2  -3  -9   47.14    2.53
   2  -3  -9   47.63    3.06
   2  -3  -9   48.47    2.67
   2  -3  -9   48.72    2.90
   2  -3  -9   43.26    2.48
   1  -3  -9   19.06    1.28
   1  -3  -9   21.47    1.37
   1  -3  -9   18.85    1.32
   1  -3  -9   18.95    1.08
   1  -3  -9   18.88    1.08
   1  -3  -9   19.35    1.06
   1  -3  -9   18.76    1.41
   1  -3  -9   18.81    1.21
   0  -3  -9    1.24    0.15
   0  -3  -9    1.01    0.28
   0  -3  -9    1.07    0.35
   0  -3  -9    1.54    0.22
   0  -3  -9    0.55    0.28
   0  -3  -9    1.47    0.16
   0  -3  -9    1.18    0.14
   0  -3  -9    0.63    0.26
  -1  -3  -9    8.23    0.46
  -1  -3  -9    7.48    0.57
  -1  -3  -9    7.48    0.60
  -1  -3  -9    8.41    0.76
  -1  -3  -9    7.01    0.65
  -1  -3  -9    8.62    0.60
  -1  -3  -9    8.11    0.48
  -2  -3  -9    0.67    0.11
  -2  -3  -9    0.53    0.15
  -2  -3  -9    0.32    0.16
  -2  -3  -9    0.30    0.28
  -2  -3  -9    0.53    0.16
  -3  -3  -9    0.09    0.12
  -3  -3  -9    0.02    0.15
  -3  -3  -9    0.07    0.06
  -3  -3  -9    0.15    0.11
  -4  -3  -9    0.04    0.14
  -4  -3  -9    0.08    0.09
  -5  -3  -9    0.38    0.08
  -5  -3  -9    0.52    0.06
   7  -4  -9    1.59    0.14
   7  -4  -9    1.66    0.13
  -7   4   9    1.88    0.15
   6  -4  -9    0.37    0.14
   5  -4  -9    2.33    0.27
   5  -4  -9    2.26    0.21
   5  -4  -9    2.39    0.23
   4  -4  -9    3.30    0.31
   4  -4  -9    2.54    0.24
   4  -4  -9    2.93    0.22
   3  -4  -9    3.09    0.26
   3  -4  -9    3.13    0.24
   3  -4  -9    3.22    0.24
   3  -4  -9    2.95    0.28
   3  -4  -9    2.61    0.49
   2  -4  -9    3.29    0.31
   2  -4  -9    2.92    0.21
   2  -4  -9    3.13    0.29
   2  -4  -9    3.14    0.26
   2  -4  -9    3.27    0.24
   1  -4  -9   91.07    5.71
   1  -4  -9   93.84    5.59
   1  -4  -9   90.51    4.77
   1  -4  -9   97.19    4.83
   1  -4  -9   81.29    5.73
   1  -4  -9   80.24    4.97
   1  -4  -9   86.69    5.41
   0  -4  -9    5.76    0.45
   0  -4  -9    5.30    0.45
   0  -4  -9    5.73    0.44
   0  -4  -9    6.38    0.39
   0  -4  -9    6.55    0.36
  -1  -4  -9    2.77    0.28
  -1  -4  -9    2.65    0.25
  -1  -4  -9    2.58    0.18
  -1  -4  -9    2.54    0.27
  -1  -4  -9    2.86    0.23
  -2  -4  -9    2.38    0.18
  -2  -4  -9    2.79    0.30
  -2  -4  -9    2.27    0.27
  -3  -4  -9    3.88    0.23
  -3  -4  -9    3.98    0.33
  -3  -4  -9    3.08    0.31
  -4  -4  -9    4.08    0.31
   6  -5  -9    0.30    0.10
   6  -5  -9    0.40    0.09
   5  -5  -9    3.17    0.27
   5  -5  -9    3.23    0.30
   5  -5  -9    3.48    0.26
   4  -5  -9   10.16    0.69
   4  -5  -9    9.93    0.59
   4  -5  -9   10.03    0.58
   3  -5  -9    7.73    0.46
   3  -5  -9    7.85    0.55
   3  -5  -9    7.82    0.48
   2  -5  -9   58.31    3.68
   2  -5  -9   60.19    3.11
   2  -5  -9   56.21    3.50
   2  -5  -9   53.24    3.06
   1  -5  -9    0.34    0.11
   1  -5  -9    0.55    0.06
   1  -5  -9    0.45    0.18
   1  -5  -9    0.57    0.15
   0  -5  -9   11.76    0.84
   0  -5  -9   12.08    0.69
   0  -5  -9   12.69    0.84
  -1  -5  -9    0.40    0.17
  -1  -5  -9    0.54    0.08
  -1  -5  -9    0.33    0.20
  -2  -5  -9    1.24    0.16
  -2  -5  -9    1.54    0.10
  -2  -5  -9    1.53    0.18
  -3  -5  -9    3.21    0.24
   5  -6  -9    0.24    0.05
   5  -6  -9    0.31    0.10
   5  -6  -9    0.15    0.10
   4  -6  -9    1.03    0.13
   4  -6  -9    0.65    0.13
   3  -6  -9    0.05    0.09
   3  -6  -9    0.07    0.13
   2  -6  -9    1.06    0.12
   2  -6  -9    0.61    0.17
   2  -6  -9    0.93    0.20
   1  -6  -9   22.85    1.44
   1  -6  -9   20.79    1.19
   0  -6  -9    6.15    0.47
   0  -6  -9    6.84    0.46
  -1  -6  -9    6.91    0.49
   3  -7  -9    0.48    0.10
   2  -7  -9    0.06    0.07
   2  -7  -9    0.15    0.11
   2  -8  10    0.58    0.10
   2  -8  10    0.56    0.12
  -1  -7  10    3.64    0.28
  -1  -7  10    4.24    0.29
   0  -7  10    0.06    0.13
   0  -7  10    0.06    0.11
   0  -7  10   -0.06    0.09
   1  -7  10    4.92    0.39
   1  -7  10    4.97    0.35
   2  -7  10    0.76    0.17
   2  -7  10    0.84    0.19
   3  -7  10    3.79    0.28
   3  -7  10    3.06    0.29
   4  -7  10    1.74    0.18
   4  -7  10    1.46    0.20
   4  -7  10    2.16    0.12
   5  -7  10    0.03    0.07
   5  -7  10    0.04    0.04
  -3  -6  10    1.51    0.16
  -3  -6  10    1.94    0.17
  -2  -6  10    1.56    0.16
  -2  -6  10    1.62    0.19
  -2  -6  10    1.57    0.18
  -1  -6  10    0.05    0.15
  -1  -6  10   -0.09    0.17
  -1  -6  10    0.10    0.18
   0  -6  10    9.52    0.64
   0  -6  10    9.57    0.64
   0  -6  10    9.53    0.66
   1  -6  10    2.60    0.24
   1  -6  10    2.46    0.27
   1  -6  10    2.49    0.24
   2  -6  10    0.10    0.18
   2  -6  10    0.28    0.13
   2  -6  10    0.13    0.08
   3  -6  10    7.96    0.46
   3  -6  10    8.01    0.54
   4  -6  10    0.73    0.12
   4  -6  10    0.55    0.18
   5  -6  10    1.81    0.18
   5  -6  10    1.84    0.16
   6  -6  10    2.05    0.16
   6  -6  10    1.90    0.15
  -4  -5  10   15.40    1.00
  -3  -5  10    2.80    0.25
  -3  -5  10    2.74    0.24
  -3  -5  10    2.45    0.25
  -2  -5  10   18.67    1.17
  -2  -5  10   17.01    1.13
  -2  -5  10   16.96    1.11
  -1  -5  10    8.43    0.58
  -1  -5  10    8.39    0.58
  -1  -5  10    8.28    0.55
  -1  -5  10    7.60    0.44
   0  -5  10    0.08    0.07
   0  -5  10    0.08    0.20
   0  -5  10    0.25    0.30
   0  -5  10   -0.05    0.17
   0  -5  10    0.02    0.13
   1  -5  10    0.34    0.28
   1  -5  10    0.76    0.20
   1  -5  10    0.61    0.19
   1  -5  10    0.61    0.19
   1  -5  10    0.85    0.11
   2  -5  10    0.31    0.11
   2  -5  10    0.17    0.16
   2  -5  10    0.15    0.06
   2  -5  10    0.30    0.13
   2  -5  10    0.21    0.18
   2  -5  10    0.25    0.30
   3  -5  10    5.20    0.30
   3  -5  10    5.44    0.40
   3  -5  10    4.97    0.33
   3  -5  10    4.19    0.37
   4  -5  10    7.11    0.47
   4  -5  10    6.22    0.42
   4  -5  10    6.78    0.39
   5  -5  10    2.72    0.20
   5  -5  10    2.99    0.24
   5  -5  10    2.56    0.23
   6  -5  10    6.90    0.35
   6  -5  10    5.17    0.42
  -5  -4  10   -0.03    0.09
  -5  -4  10   -0.01    0.12
  -4  -4  10    0.37    0.13
  -4  -4  10    0.29    0.13
  -3  -4  10   32.37    2.09
  -3  -4  10   31.31    2.04
  -3  -4  10   35.09    2.04
  -3  -4  10   32.01    1.78
  -2  -4  10    1.74    0.25
  -2  -4  10    1.93    0.25
  -2  -4  10    1.22    0.38
  -2  -4  10    1.94    0.15
  -2  -4  10    2.02    0.28
  -2  -4  10    1.83    0.28
  -1  -4  10   54.61    3.03
  -1  -4  10   60.49    3.53
  -1  -4  10   56.66    3.45
  -1  -4  10   56.40    3.33
  -1  -4  10   52.25    3.42
  -1  -4  10   54.29    3.66
   0  -4  10    0.05    0.28
   0  -4  10    0.37    0.19
   0  -4  10    0.44    0.15
   0  -4  10    0.71    0.19
   0  -4  10    0.62    0.07
   0  -4  10    0.35    0.16
   0  -4  10    0.47    0.20
   0  -4  10    0.45    0.10
   1  -4  10   48.00    2.59
   1  -4  10   47.27    2.56
   1  -4  10   43.86    2.92
   1  -4  10   50.44    3.16
   1  -4  10   49.72    2.94
   1  -4  10   44.68    2.84
   1  -4  10   46.76    2.68
   1  -4  10   49.57    3.01
   2  -4  10   10.14    0.58
   2  -4  10    8.82    0.75
   2  -4  10   10.32    0.85
   2  -4  10   10.16    0.69
   2  -4  10   10.40    0.67
   2  -4  10   10.06    0.56
   2  -4  10    9.22    0.68
   3  -4  10    5.99    0.70
   3  -4  10    7.16    0.52
   3  -4  10    7.73    0.45
   3  -4  10    7.04    0.60
   3  -4  10    7.01    0.45
   3  -4  10    7.43    0.42
   4  -4  10   12.51    0.76
   4  -4  10   13.43    0.76
   4  -4  10   14.56    0.88
   4  -4  10   12.82    0.75
   5  -4  10    0.08    0.16
   5  -4  10   -0.04    0.12
   5  -4  10    0.05    0.09
   6  -4  10    3.19    0.23
   6  -4  10    3.18    0.21
   6  -4  10    3.12    0.25
   7  -4  10   10.61    0.67
  -6  -3  10    2.12    0.18
  -5  -3  10   10.99    0.79
  -5  -3  10   13.40    0.80
  -4  -3  10    1.16    0.21
  -4  -3  10    1.21    0.21
  -4  -3  10    1.26    0.14
  -3  -3  10    3.67    0.34
  -3  -3  10    3.74    0.50
  -3  -3  10    3.72    0.21
  -3  -3  10    3.68    0.33
  -3  -3  10    3.62    0.27
  -3  -3  10    3.73    0.35
  -3  -3  10    3.48    0.25
  -2  -3  10    2.70    0.17
  -2  -3  10    2.79    0.27
  -2  -3  10    2.91    0.50
  -2  -3  10    2.47    0.27
  -2  -3  10    2.43    0.27
  -2  -3  10    2.47    0.29
  -2  -3  10    2.58    0.20
  -2  -3  10    2.54    0.29
  -2  -3  10    2.39    0.42
  -1  -3  10    0.77    0.15
  -1  -3  10    0.89    0.19
  -1  -3  10    1.05    0.18
  -1  -3  10    0.70    0.22
  -1  -3  10    0.92    0.20
  -1  -3  10    1.12    0.11
  -1  -3  10    0.92    0.31
  -1  -3  10    0.46    0.28
  -1  -3  10    0.93    0.14
  -1  -3  10    1.13    0.20
   0  -3  10    0.19    0.19
   0  -3  10    0.08    0.11
   0  -3  10    0.14    0.05
   0  -3  10    0.08    0.17
   0  -3  10    0.14    0.19
   0  -3  10    0.09    0.10
   0  -3  10   -0.11    0.23
   0  -3  10    0.06    0.15
   0  -3  10    0.03    0.13
   1  -3  10   57.71    3.71
   1  -3  10   54.62    3.52
   1  -3  10   62.48    3.24
   1  -3  10   54.14    3.52
   1  -3  10   57.41    3.11
   1  -3  10   58.14    3.13
   1  -3  10   56.23    3.08
   2  -3  10   47.61    2.88
   2  -3  10   44.35    2.82
   2  -3  10   44.61    2.47
   2  -3  10   45.20    2.51
   2  -3  10   47.23    3.00
   2  -3  10   47.91    2.64
   2  -3  10   43.21    2.49
   3  -3  10    6.56    0.62
   3  -3  10    8.03    0.48
   3  -3  10    6.73    0.72
   3  -3  10    8.02    0.47
   3  -3  10    8.20    0.74
   4  -3  10    0.24    0.10
   4  -3  10    0.12    0.30
   4  -3  10    0.39    0.15
   5  -3  10   15.62    0.90
  -6   3 -10    0.62    0.15
   6  -3  10    0.94    0.15
  -7   3 -10    1.06    0.11
  -7   3 -10    0.97    0.09
   7  -3  10    1.10    0.10
   7  -3  10    1.04    0.11
  -6  -2  10    2.79    0.24
  -6  -2  10    3.12    0.26
  -5  -2  10    0.82    0.14
  -5  -2  10    0.63    0.12
  -5  -2  10    0.61    0.15
  -5  -2  10    0.80    0.08
  -4  -2  10   18.93    1.40
  -4  -2  10   22.16    1.37
  -4  -2  10   22.01    1.54
  -4  -2  10   22.72    1.21
  -4  -2  10   22.86    1.19
  -3  -2  10    3.84    0.51
  -3  -2  10    4.12    0.33
  -3  -2  10    4.35    0.27
  -3  -2  10    4.08    0.41
  -3  -2  10    3.43    0.40
  -3  -2  10    4.25    0.29
  -3  -2  10    4.51    0.36
  -3  -2  10    4.11    0.35
  -2  -2  10   46.37    2.77
  -2  -2  10   46.95    2.56
  -2  -2  10   43.28    2.44
  -2  -2  10   45.20    2.42
  -2  -2  10   42.57    2.45
  -2  -2  10   49.63    2.97
  -2  -2  10   41.50    2.76
  -2  -2  10   44.15    2.83
  -2  -2  10   44.41    2.85
  -1  -2  10   54.69    3.16
  -1  -2  10   62.11    3.67
  -1  -2  10   53.56    3.70
  -1  -2  10   63.91    3.81
  -1  -2  10   55.26    3.22
  -1  -2  10   65.33    3.62
  -1  -2  10   62.46    3.32
  -1  -2  10   54.92    3.20
   0  -2  10   16.52    0.99
   0  -2  10   18.82    1.26
   0  -2  10   18.09    1.21
   0  -2  10   18.11    1.09
   1  -2  10    4.34    0.28
   1  -2  10    4.01    0.40
   1  -2  10    4.40    0.48
   1  -2  10    4.02    0.46
   2  -2  10    4.92    0.50
   2  -2  10    4.52    0.53
   2  -2  10    4.44    0.45
   2  -2  10    4.12    0.30
   2  -2  10    3.87    0.29
   3  -2  10    6.88    0.44
   3  -2  10    6.89    0.66
  -4   2 -10    8.50    0.73
   4  -2  10    7.83    0.51
   4  -2  10    7.64    0.80
  -5   2 -10    1.17    0.18
   5  -2  10    1.68    0.22
  -6   2 -10    0.03    0.12
   6  -2  10    0.13    0.15
  -7   2 -10    0.00    0.04
  -7  -1  10    0.45    0.09
  -7  -1  10    0.53    0.10
  -6  -1  10    9.00    0.59
  -6  -1  10    8.46    0.52
  -6  -1  10    8.03    0.49
  -6  -1  10    9.27    0.57
  -5  -1  10    0.66    0.14
  -5  -1  10    0.83    0.12
  -5  -1  10    0.73    0.17
  -5  -1  10    0.61    0.15
  -4  -1  10   73.62    4.19
  -4  -1  10   76.38    4.51
  -4  -1  10   70.19    4.03
  -4  -1  10   75.13    4.01
  -4  -1  10   73.29    3.97
  -3  -1  10    0.77    0.12
  -3  -1  10    0.50    0.25
  -3  -1  10    0.47    0.12
  -3  -1  10    0.52    0.26
  -3  -1  10    0.62    0.32
  -3  -1  10    0.60    0.13
  -2  -1  10    3.14    0.25
  -2  -1  10    3.64    0.25
  -2  -1  10    4.38    0.45
  -2  -1  10    3.29    0.26
  -2  -1  10    4.20    0.44
  -2  -1  10    3.38    0.30
  -2  -1  10    4.29    0.41
  -2  -1  10    4.04    0.48
  -1  -1  10  146.53    8.06
  -1  -1  10  142.27    9.13
  -1  -1  10  147.49    8.76
   0  -1  10    4.77    0.47
   0  -1  10    5.28    0.48
   0  -1  10    4.63    0.45
   1  -1  10    1.33    0.28
   1  -1  10    0.92    0.32
   1  -1  10    1.10    0.28
  -2   1 -10  108.67    6.77
   2  -1  10  111.23    6.95
  -3   1 -10   -0.06    0.21
   3  -1  10   -0.16    0.23
  -4   1 -10   27.66    1.86
  -5   1 -10    8.55    0.52
  -6   1 -10    1.25    0.14
  -6   1 -10    1.18    0.12
  -6   1 -10    1.15    0.12
  -7   0  10    0.00    0.06
  -7   0  10    0.04    0.08
  -6   0  10    2.94    0.24
  -6   0  10    2.90    0.20
  -6   0  10    2.86    0.23
  -6   0  10    2.61    0.22
  -5   0  10    1.48    0.19
  -5   0  10    1.63    0.19
  -5   0  10    1.17    0.19
  -5   0  10    1.63    0.16
  -4   0  10    6.33    0.65
  -4   0  10    6.01    0.59
  -4   0  10    6.84    0.43
  -4   0  10    6.99    0.44
  -4   0  10    6.66    0.67
  -3   0  10   25.78    1.52
  -3   0  10   22.63    1.62
  -3   0  10   25.17    1.66
  -3   0  10   24.12    1.38
  -3   0  10   25.29    1.36
  -2   0  10    4.79    0.46
  -2   0  10    4.46    0.51
  -1   0  10   31.38    1.96
  -1   0  10   29.25    1.79
  -1   0 -10    1.10    0.24
  -2   0 -10    7.57    0.49
  -2   0 -10    8.68    0.65
  -3   0 -10   29.83    1.63
  -3   0 -10   28.53    1.93
  -4   0 -10    9.45    0.68
  -4   0 -10   10.27    0.58
  -4   0 -10    9.34    0.58
  -5   0 -10   14.96    0.81
  -5   0 -10   15.01    0.97
  -5   0 -10   13.16    0.81
  -6   0 -10    0.07    0.08
  -6   0 -10    0.20    0.09
  -7   1  10    5.06    0.35
  -7   1  10    4.70    0.29
  -6   1  10    1.41    0.15
  -6   1  10    1.39    0.18
  -5   1  10   40.17    2.64
  -5   1  10   45.49    2.39
  -5   1  10   43.29    2.35
  -4   1  10   20.62    1.18
  -4   1  10   20.74    1.45
  -3   1  10    5.43    0.37
   0  -1 -10   50.32    3.23
   0  -1 -10   53.29    2.98
  -1  -1 -10   71.20    4.02
  -1  -1 -10   74.00    4.56
  -1  -1 -10   80.11    4.53
  -1  -1 -10   76.64    4.15
  -1  -1 -10   65.38    3.94
  -2  -1 -10    1.61    0.33
  -2  -1 -10    1.51    0.30
  -2  -1 -10    1.96    0.19
  -2  -1 -10    2.03    0.19
  -2  -1 -10    1.38    0.28
  -3  -1 -10    0.07    0.26
  -3  -1 -10    0.15    0.12
  -3  -1 -10    0.08    0.11
  -3  -1 -10    0.00    0.21
  -3  -1 -10    0.10    0.14
  -4  -1 -10    0.21    0.09
  -4  -1 -10    0.44    0.14
  -4  -1 -10    0.35    0.15
  -4  -1 -10    0.33    0.12
  -5  -1 -10    1.36    0.14
  -5  -1 -10    1.28    0.16
  -5  -1 -10    1.43    0.19
  -6  -1 -10    1.41    0.12
  -6  -1 -10    1.33    0.08
   7  -2 -10    2.82    0.24
  -7   2  10    3.25    0.22
  -7   2  10    3.24    0.21
  -6   2  10   13.88    0.81
   4  -2 -10   19.63    1.10
   4  -2 -10   18.75    1.41
  -4   2  10   17.74    1.34
   3  -2 -10   10.99    0.66
   2  -2 -10    1.69    0.39
   2  -2 -10    2.13    0.40
   2  -2 -10    1.82    0.21
   1  -2 -10    3.79    0.48
   1  -2 -10    3.64    0.27
   1  -2 -10    3.43    0.27
   1  -2 -10    4.19    0.46
   0  -2 -10    3.06    0.25
   0  -2 -10    3.44    0.40
   0  -2 -10    3.79    0.44
   0  -2 -10    3.11    0.40
   0  -2 -10    3.15    0.26
   0  -2 -10    3.74    0.27
  -1  -2 -10   24.20    1.44
  -1  -2 -10   21.81    1.56
  -1  -2 -10   24.94    1.60
  -1  -2 -10   21.91    1.27
  -1  -2 -10   22.26    1.29
  -1  -2 -10   24.48    1.30
  -2  -2 -10   12.88    0.74
  -2  -2 -10   12.00    0.87
  -2  -2 -10   13.93    0.73
  -2  -2 -10   12.92    0.88
  -2  -2 -10   13.16    0.73
  -2  -2 -10   11.66    0.98
  -3  -2 -10    7.12    0.53
  -3  -2 -10    7.73    0.55
  -3  -2 -10    7.08    0.45
  -3  -2 -10    7.10    0.43
  -4  -2 -10   17.19    1.22
  -4  -2 -10   19.04    1.01
  -4  -2 -10   19.07    1.23
  -5  -2 -10    5.49    0.40
  -5  -2 -10    5.85    0.33
   7  -3 -10    0.02    0.11
  -7   3  10   -0.02    0.09
   6  -3 -10    4.25    0.31
  -6   3  10    3.77    0.31
   5  -3 -10    2.86    0.27
   4  -3 -10   10.03    0.63
   3  -3 -10   16.09    1.33
   3  -3 -10   20.33    1.06
   3  -3 -10   19.74    1.42
   3  -3 -10   16.54    1.23
   3  -3 -10   19.10    1.05
   2  -3 -10   66.71    4.13
   2  -3 -10   63.09    3.39
   2  -3 -10   55.00    3.89
   2  -3 -10   65.80    3.45
   1  -3 -10  102.07    6.61
   1  -3 -10  106.56    6.61
   1  -3 -10  105.17    5.59
   1  -3 -10  108.92    5.80
   1  -3 -10  107.94    5.53
   1  -3 -10   98.08    5.64
   1  -3 -10   91.98    6.27
   0  -3 -10    5.37    0.35
   0  -3 -10    5.28    0.34
   0  -3 -10    5.81    0.60
   0  -3 -10    4.17    0.51
   0  -3 -10    5.32    0.34
   0  -3 -10    5.77    0.54
   0  -3 -10    5.34    0.44
  -1  -3 -10    0.36    0.15
  -1  -3 -10    0.22    0.27
  -1  -3 -10    0.32    0.10
  -1  -3 -10    0.33    0.13
  -2  -3 -10    0.06    0.14
  -2  -3 -10    0.18    0.19
  -2  -3 -10    0.11    0.11
  -2  -3 -10    0.14    0.08
  -3  -3 -10    0.02    0.10
  -3  -3 -10    0.16    0.11
  -3  -3 -10    0.17    0.07
  -3  -3 -10    0.04    0.17
  -4  -3 -10    1.32    0.14
  -4  -3 -10    1.36    0.13
   7  -4 -10    5.80    0.39
   7  -4 -10    6.40    0.35
  -7   4  10    5.94    0.37
   6  -4 -10    0.11    0.09
   5  -4 -10    0.10    0.12
   5  -4 -10    0.02    0.10
   5  -4 -10    0.04    0.13
   4  -4 -10    0.01    0.18
   4  -4 -10   -0.10    0.12
   4  -4 -10   -0.09    0.13
   3  -4 -10    1.98    0.21
   3  -4 -10    2.07    0.23
   3  -4 -10    2.27    0.24
   3  -4 -10    2.33    0.20
   2  -4 -10   12.74    0.71
   2  -4 -10   11.74    0.70
   2  -4 -10   11.00    1.05
   2  -4 -10   13.54    0.84
   2  -4 -10   12.00    0.85
   2  -4 -10   13.01    0.73
   1  -4 -10   57.02    3.48
   1  -4 -10   59.37    3.67
   1  -4 -10   60.89    3.10
   1  -4 -10   55.31    3.65
   1  -4 -10   48.89    3.73
   1  -4 -10   57.37    3.06
   0  -4 -10    4.44    0.39
   0  -4 -10    3.62    0.34
   0  -4 -10    4.12    0.26
   0  -4 -10    4.32    0.29
  -1  -4 -10   15.12    0.85
  -1  -4 -10   17.22    1.07
  -1  -4 -10   14.59    1.05
  -1  -4 -10   15.51    0.88
  -2  -4 -10    1.54    0.15
  -2  -4 -10    1.44    0.20
  -2  -4 -10    1.55    0.21
  -3  -4 -10   11.95    0.78
  -3  -4 -10   11.27    0.64
   6  -5 -10    5.16    0.31
   5  -5 -10   17.29    0.98
   4  -5 -10    2.03    0.18
   4  -5 -10    2.02    0.22
   4  -5 -10    2.09    0.18
   3  -5 -10    8.60    0.51
   3  -5 -10    8.30    0.53
   3  -5 -10   10.02    0.62
   2  -5 -10   15.12    0.86
   2  -5 -10   16.01    0.88
   2  -5 -10   16.28    1.01
   2  -5 -10   15.06    1.04
   1  -5 -10    4.00    0.24
   1  -5 -10    4.68    0.30
   1  -5 -10    4.47    0.37
   1  -5 -10    3.73    0.32
   0  -5 -10   -0.07    0.18
   0  -5 -10    0.02    0.09
  -1  -5 -10    0.19    0.08
  -1  -5 -10    0.05    0.14
  -1  -5 -10    0.18    0.13
  -2  -5 -10    5.16    0.36
  -2  -5 -10    4.92    0.39
   5  -6 -10    1.97    0.16
   4  -6 -10    0.34    0.10
   4  -6 -10    0.75    0.12
   3  -6 -10    4.76    0.39
   3  -6 -10    6.39    0.33
   2  -6 -10    1.99    0.15
   2  -6 -10    2.15    0.20
   2  -6 -10    1.92    0.19
   1  -6 -10    3.78    0.21
   1  -6 -10    3.46    0.28
   1  -6 -10    2.93    0.25
   0  -6 -10   13.00    0.87
  -1  -6 -10    0.09    0.08
  -1  -7  11   -0.08    0.07
  -1  -7  11    0.01    0.09
   0  -7  11   19.52    1.12
   0  -7  11   15.38    1.14
   0  -7  11   18.44    1.08
   1  -7  11    1.34    0.16
   1  -7  11    1.20    0.16
   2  -7  11    1.46    0.21
   2  -7  11    1.85    0.17
   3  -7  11    7.13    0.50
   3  -7  11    7.21    0.47
   4  -7  11    1.70    0.10
   4  -7  11    2.30    0.19
  -3  -6  11    1.29    0.14
  -2  -6  11    2.93    0.23
  -2  -6  11    2.50    0.27
  -1  -6  11    4.90    0.35
  -1  -6  11    5.00    0.36
  -1  -6  11    4.23    0.34
   0  -6  11    0.30    0.18
   0  -6  11    0.47    0.21
   0  -6  11    0.14    0.18
   1  -6  11   12.45    0.79
   1  -6  11   12.38    0.80
   1  -6  11   10.55    0.64
   1  -6  11   12.26    0.75
   2  -6  11    1.64    0.23
   2  -6  11    1.86    0.24
   2  -6  11    1.81    0.14
   3  -6  11    0.11    0.17
   3  -6  11    0.19    0.09
   3  -6  11    0.22    0.14
   4  -6  11    5.66    0.34
   5  -6  11    0.20    0.09
   5  -6  11    0.20    0.09
  -4  -5  11    0.11    0.08
  -4  -5  11   -0.11    0.12
  -3  -5  11   11.50    0.69
  -3  -5  11    9.21    0.70
  -3  -5  11   11.03    0.71
  -2  -5  11    2.72    0.24
  -2  -5  11    2.25    0.30
  -2  -5  11    2.40    0.26
  -1  -5  11    0.50    0.20
  -1  -5  11    0.37    0.06
  -1  -5  11    0.60    0.15
  -1  -5  11    0.65    0.24
   0  -5  11    0.19    0.19
   0  -5  11   -0.06    0.20
   0  -5  11    0.08    0.09
   0  -5  11    0.14    0.17
   1  -5  11   -0.06    0.16
   1  -5  11   -0.06    0.17
   1  -5  11   -0.03    0.18
   1  -5  11    0.10    0.10
   2  -5  11    2.32    0.19
   2  -5  11    2.57    0.27
   2  -5  11    2.13    0.27
   2  -5  11    2.20    0.15
   2  -5  11    2.00    0.25
   3  -5  11    2.67    0.29
   3  -5  11    2.88    0.19
   3  -5  11    3.01    0.23
   4  -5  11    1.52    0.14
   4  -5  11    1.00    0.20
   4  -5  11    1.64    0.18
   5  -5  11   14.61    1.02
   5  -5  11   18.15    0.88
   5  -5  11   15.15    0.90
   6  -5  11    0.00    0.11
   6  -5  11    0.04    0.05
  -5  -4  11   -0.06    0.12
  -5  -4  11   -0.02    0.07
  -4  -4  11   18.22    1.05
  -4  -4  11   14.33    1.06
  -3  -4  11    4.32    0.32
  -3  -4  11    3.99    0.32
  -3  -4  11    3.81    0.33
  -3  -4  11    4.01    0.25
  -2  -4  11    7.15    0.52
  -2  -4  11    6.54    0.49
  -2  -4  11    6.28    0.49
  -2  -4  11    6.65    0.39
  -1  -4  11    0.09    0.10
  -1  -4  11    0.03    0.10
  -1  -4  11    0.07    0.13
  -1  -4  11   -0.12    0.17
  -1  -4  11    0.03    0.22
  -1  -4  11    0.14    0.27
   0  -4  11   44.32    2.58
   0  -4  11   42.72    2.49
   0  -4  11   39.75    2.23
   0  -4  11   44.87    2.65
   0  -4  11   44.03    2.27
   0  -4  11   35.60    2.54
   0  -4  11   39.46    2.34
   1  -4  11   37.75    2.03
   1  -4  11   37.79    2.34
   1  -4  11   33.39    2.26
   1  -4  11   35.62    2.15
   1  -4  11   39.40    2.06
   1  -4  11   40.26    2.41
   1  -4  11   39.75    2.55
   2  -4  11    0.32    0.18
   2  -4  11    0.07    0.13
   2  -4  11    0.10    0.16
   2  -4  11   -0.27    0.26
   2  -4  11    0.14    0.19
   2  -4  11    0.22    0.10
   3  -4  11    0.96    0.34
   3  -4  11    1.78    0.18
   3  -4  11    1.98    0.24
   3  -4  11    1.99    0.21
   3  -4  11    1.79    0.15
   4  -4  11    2.98    0.24
   4  -4  11    3.01    0.26
   4  -4  11    3.39    0.27
   4  -4  11    3.02    0.22
   5  -4  11    4.21    0.35
   5  -4  11    4.52    0.29
   5  -4  11    4.60    0.28
   6  -4  11    0.98    0.08
   6  -4  11    0.62    0.11
   6  -4  11    0.66    0.12
  -6  -3  11    7.86    0.50
  -5  -3  11    1.43    0.12
  -5  -3  11    1.22    0.17
  -4  -3  11    1.39    0.17
  -4  -3  11    1.13    0.13
  -4  -3  11    0.97    0.20
  -3  -3  11   13.72    0.76
  -3  -3  11   11.02    1.06
  -3  -3  11   14.38    0.95
  -3  -3  11   14.74    0.92
  -3  -3  11   14.64    0.80
  -3  -3  11   14.98    0.93
  -2  -3  11    1.00    0.33
  -2  -3  11    0.90    0.19
  -2  -3  11    1.63    0.21
  -2  -3  11    1.56    0.15
  -2  -3  11    1.29    0.24
  -2  -3  11    1.43    0.13
  -2  -3  11    0.45    0.32
  -2  -3  11    1.50    0.20
  -2  -3  11    1.42    0.22
  -1  -3  11   40.80    2.57
  -1  -3  11   41.95    2.37
  -1  -3  11   40.62    2.24
  -1  -3  11   43.48    2.27
  -1  -3  11   46.15    2.80
  -1  -3  11   40.45    2.64
  -1  -3  11   36.70    2.55
  -1  -3  11   41.68    2.58
  -1  -3  11   43.16    2.49
   0  -3  11    5.84    0.38
   0  -3  11    6.67    0.66
   0  -3  11    7.17    0.42
   0  -3  11    7.37    0.41
   0  -3  11    6.79    0.48
   0  -3  11    7.59    0.55
   0  -3  11    6.40    0.57
   0  -3  11    7.08    0.51
   0  -3  11    6.71    0.47
   1  -3  11   28.66    1.56
   1  -3  11   26.73    1.76
   1  -3  11   30.72    1.69
   1  -3  11   29.00    1.56
   1  -3  11   24.45    1.81
   1  -3  11   29.10    1.95
   1  -3  11   29.21    1.54
   2  -3  11   11.33    0.63
   2  -3  11   10.40    0.87
   2  -3  11   10.89    0.72
   2  -3  11   10.92    0.65
   2  -3  11   11.13    0.64
   2  -3  11   12.39    0.92
   2  -3  11    9.62    0.76
   3  -3  11   54.40    3.25
   3  -3  11   56.91    3.04
   3  -3  11   56.46    3.47
   3  -3  11   54.67    3.68
   3  -3  11   58.23    3.09
   4  -3  11    8.64    0.52
   4  -3  11    8.15    0.51
   5  -3  11    0.62    0.15
  -6   3 -11    1.85    0.16
   6  -3  11    1.76    0.17
   6  -3  11    1.75    0.17
  -6  -2  11    3.02    0.25
  -5  -2  11    1.25    0.15
  -5  -2  11    1.22    0.16
  -5  -2  11    1.12    0.09
  -4  -2  11    1.80    0.24
  -4  -2  11    2.45    0.17
  -4  -2  11    2.41    0.21
  -4  -2  11    2.01    0.27
  -3  -2  11  174.41   11.70
  -3  -2  11  188.17   10.12
  -3  -2  11  194.66   11.37
  -3  -2  11  191.24   10.02
  -2  -2  11   14.96    1.03
  -2  -2  11   16.52    1.18
  -2  -2  11   16.04    1.07
  -2  -2  11   15.61    0.87
  -2  -2  11   16.91    1.02
  -2  -2  11   15.14    0.89
  -2  -2  11   15.18    0.87
  -2  -2  11   14.81    1.12
  -1  -2  11   51.19    3.24
  -1  -2  11   54.75    2.84
  -1  -2  11   48.28    2.70
  -1  -2  11   46.68    3.12
  -1  -2  11   49.73    3.07
  -1  -2  11   47.35    2.72
  -1  -2  11   47.47    2.67
  -1  -2  11   51.60    3.13
   0  -2  11    0.03    0.25
   0  -2  11    0.26    0.14
   0  -2  11    0.14    0.12
   0  -2  11    0.33    0.11
   0  -2  11    0.07    0.29
   0  -2  11    0.12    0.24
   1  -2  11   11.46    0.65
   1  -2  11   11.12    0.88
   1  -2  11   11.12    0.67
   1  -2  11   10.97    0.85
   1  -2  11   11.35    0.65
   1  -2  11   11.71    0.79
   2  -2  11    7.77    0.72
   2  -2  11    8.57    0.66
   2  -2  11    7.48    0.46
   2  -2  11    7.73    0.47
   2  -2  11    6.67    0.50
   2  -2  11    7.77    0.68
   3  -2  11    9.68    0.85
   3  -2  11   10.57    0.62
   4  -2  11    6.25    0.42
  -5   2 -11    9.81    0.63
   5  -2  11   11.29    0.64
  -6   2 -11    5.90    0.41
  -6   2 -11    6.05    0.36
   6  -2  11    5.50    0.37
  -7  -1  11    0.09    0.05
  -6  -1  11    0.43    0.10
  -6  -1  11    0.37    0.09
  -6  -1  11    0.65    0.08
  -6  -1  11    0.73    0.13
  -5  -1  11    0.61    0.14
  -5  -1  11    1.01    0.15
  -5  -1  11    0.79    0.13
  -5  -1  11    0.88    0.12
  -4  -1  11   41.98    2.32
  -4  -1  11   37.83    2.74
  -4  -1  11   41.16    2.32
  -4  -1  11   45.36    2.29
  -4  -1  11   43.76    2.61
  -3  -1  11    2.13    0.19
  -3  -1  11    1.96    0.21
  -3  -1  11    2.42    0.44
  -3  -1  11    1.38    0.31
  -3  -1  11    2.23    0.20
  -3  -1  11    1.59    0.29
  -2  -1  11   20.39    1.16
  -2  -1  11   20.34    1.34
  -2  -1  11   23.47    1.47
  -2  -1  11   21.46    1.43
  -2  -1  11   20.51    1.17
  -2  -1  11   19.58    1.39
  -2  -1  11   20.28    1.15
  -2  -1  11   21.42    1.30
  -1  -1  11   19.04    1.12
  -1  -1  11   17.53    0.99
  -1  -1  11   17.09    1.23
  -1  -1  11   16.40    0.97
  -1  -1  11   17.87    1.20
   0  -1  11   21.26    1.31
   0  -1  11   23.72    1.58
   0  -1  11   24.11    1.43
   0  -1  11   25.33    1.58
   1  -1  11   24.80    1.66
   1  -1  11   23.84    1.38
   1  -1  11   26.54    1.67
   1  -1  11   23.47    1.50
   2  -1  11    0.28    0.28
   2  -1  11    0.43    0.19
  -4   1 -11    4.17    0.31
  -5   1 -11    0.48    0.14
  -5   1 -11    0.29    0.13
  -6   1 -11   -0.01    0.07
  -6   1 -11    0.05    0.11
  -6   1 -11    0.06    0.07
  -7   0  11   19.05    0.90
  -7   0  11   14.28    1.07
  -6   0  11    1.18    0.16
  -6   0  11    0.69    0.14
  -6   0  11    0.97    0.14
  -6   0  11    1.18    0.15
  -5   0  11   11.56    0.77
  -5   0  11   12.67    0.68
  -5   0  11   10.93    0.67
  -4   0  11   26.66    1.40
  -4   0  11   25.88    1.43
  -4   0  11   22.86    1.73
  -3   0  11    9.33    0.56
  -3   0  11    8.26    0.75
  -3   0  11    9.84    0.74
  -3   0  11    8.95    0.78
  -3   0  11    9.41    0.55
  -2   0  11    2.11    0.22
  -2   0  11    1.79    0.37
  -1   0  11    2.90    0.25
  -2   0 -11    3.90    0.29
  -2   0 -11    3.45    0.44
  -3   0 -11    5.58    0.38
  -3   0 -11    5.29    0.57
  -4   0 -11   80.58    5.09
  -4   0 -11   80.95    4.23
  -4   0 -11   73.80    4.30
  -5   0 -11    0.38    0.12
  -5   0 -11    0.38    0.14
  -5   0 -11    0.65    0.10
  -6   0 -11    5.97    0.43
  -6   0 -11    6.61    0.36
  -7   1  11   -0.05    0.07
  -7   1  11    0.04    0.06
  -6   1  11    1.94    0.21
  -6   1  11    2.08    0.17
  -6   1  11    1.98    0.18
  -5   1  11   31.07    1.96
  -5   1  11   32.14    1.74
  -4   1  11    8.68    0.55
  -4   1  11    8.15    0.72
  -3   1  11   15.72    0.91
   1  -1 -11   80.71    4.44
   0  -1 -11    5.57    0.37
  -1  -1 -11    0.42    0.15
  -1  -1 -11    0.29    0.30
  -1  -1 -11    0.43    0.23
  -1  -1 -11    0.52    0.13
  -2  -1 -11    0.43    0.33
  -2  -1 -11    0.43    0.24
  -2  -1 -11    0.50    0.25
  -2  -1 -11    0.58    0.13
  -2  -1 -11    0.80    0.14
  -3  -1 -11    5.57    0.35
  -3  -1 -11    5.49    0.35
  -3  -1 -11    4.81    0.40
  -4  -1 -11    3.53    0.24
  -4  -1 -11    2.94    0.28
  -4  -1 -11    3.06    0.21
  -4  -1 -11    3.32    0.24
  -5  -1 -11    0.23    0.07
  -5  -1 -11    0.35    0.09
  -5  -1 -11    0.32    0.11
   7  -2 -11    9.97    0.57
  -7   2  11    9.58    0.55
   6  -2 -11    3.34    0.30
  -6   2  11    3.67    0.27
   5  -2 -11    0.17    0.18
   4  -2 -11    1.08    0.19
   4  -2 -11    0.83    0.34
  -4   2  11    0.57    0.32
   3  -2 -11    2.71    0.27
   2  -2 -11    2.31    0.24
   1  -2 -11    0.22    0.26
   1  -2 -11    0.40    0.33
   1  -2 -11    0.50    0.14
   1  -2 -11    0.22    0.13
   0  -2 -11  190.05   12.29
   0  -2 -11  187.74   10.93
   0  -2 -11  227.54   11.18
   0  -2 -11  211.51   11.32
  -1  -2 -11    7.70    0.76
  -1  -2 -11   10.20    0.58
  -1  -2 -11    9.06    0.72
  -1  -2 -11   10.44    0.57
  -1  -2 -11   10.21    0.57
  -1  -2 -11   10.02    0.80
  -2  -2 -11   19.34    1.05
  -2  -2 -11   17.92    1.06
  -2  -2 -11   19.33    1.06
  -3  -2 -11    0.87    0.15
  -3  -2 -11    1.14    0.14
  -3  -2 -11    0.94    0.19
  -3  -2 -11    0.91    0.17
  -4  -2 -11    2.73    0.23
  -4  -2 -11    3.26    0.22
  -4  -2 -11    2.61    0.25
  -4  -2 -11    2.45    0.17
  -5  -2 -11    1.05    0.09
   7  -3 -11    0.37    0.07
  -7   3  11    0.38    0.08
   6  -3 -11    2.24    0.19
  -6   3  11    2.41    0.23
   5  -3 -11    0.72    0.17
   4  -3 -11    9.04    0.58
   3  -3 -11   28.94    1.67
   3  -3 -11   31.61    1.70
   2  -3 -11   13.19    0.99
   2  -3 -11   14.48    0.80
   2  -3 -11   13.65    1.13
   2  -3 -11   14.01    0.81
   1  -3 -11   64.69    4.14
   1  -3 -11   66.81    3.53
   1  -3 -11   64.09    3.47
   1  -3 -11   62.84    4.21
   1  -3 -11   62.45    3.50
   0  -3 -11    3.52    0.28
   0  -3 -11    3.72    0.27
   0  -3 -11    3.79    0.26
   0  -3 -11    4.12    0.36
  -1  -3 -11    3.24    0.33
  -1  -3 -11    2.96    0.22
  -1  -3 -11    2.97    0.24
  -2  -3 -11    6.99    0.50
  -2  -3 -11    6.46    0.39
  -2  -3 -11    5.49    0.46
  -2  -3 -11    6.17    0.37
  -3  -3 -11    5.00    0.42
  -3  -3 -11    5.58    0.32
  -3  -3 -11    5.83    0.44
  -3  -3 -11    6.18    0.35
  -4  -3 -11    8.97    0.50
  -4  -3 -11    7.86    0.60
  -4  -3 -11    9.95    0.61
   6  -4 -11    0.14    0.07
   5  -4 -11    0.75    0.15
   5  -4 -11    0.61    0.17
   5  -4 -11    0.70    0.13
   4  -4 -11    3.49    0.26
   4  -4 -11    3.60    0.34
   4  -4 -11    3.76    0.28
   3  -4 -11    5.85    0.39
   3  -4 -11    6.26    0.39
   3  -4 -11    5.95    0.37
   3  -4 -11    6.22    0.47
   2  -4 -11    0.95    0.21
   2  -4 -11    0.91    0.14
   2  -4 -11    0.42    0.17
   2  -4 -11    0.69    0.09
   2  -4 -11    0.93    0.16
   1  -4 -11    1.18    0.21
   1  -4 -11    1.16    0.21
   1  -4 -11    1.19    0.15
   1  -4 -11    1.49    0.17
   0  -4 -11   37.33    2.31
   0  -4 -11   33.28    2.18
   0  -4 -11   35.86    1.91
   0  -4 -11   34.63    1.94
  -1  -4 -11   11.45    0.63
  -1  -4 -11   10.84    0.76
  -1  -4 -11   10.59    0.60
  -2  -4 -11   13.89    0.83
  -2  -4 -11   10.53    0.82
  -2  -4 -11   11.89    0.68
  -3  -4 -11    0.22    0.07
  -3  -4 -11    0.23    0.08
  -3  -4 -11    0.22    0.09
   6  -5 -11    3.72    0.22
   5  -5 -11   17.48    1.06
   5  -5 -11   16.40    0.96
   4  -5 -11    0.84    0.11
   4  -5 -11    0.32    0.12
   4  -5 -11    0.69    0.14
   3  -5 -11    3.36    0.23
   3  -5 -11    2.88    0.32
   3  -5 -11    3.29    0.22
   2  -5 -11    2.74    0.17
   2  -5 -11    2.27    0.23
   2  -5 -11    2.93    0.30
   2  -5 -11    2.68    0.20
   1  -5 -11    0.14    0.12
   1  -5 -11    0.02    0.10
   1  -5 -11    0.14    0.10
   0  -5 -11    1.81    0.21
   0  -5 -11    2.02    0.16
  -1  -5 -11    1.09    0.16
  -1  -5 -11    1.07    0.11
  -2  -5 -11    2.54    0.21
   4  -6 -11    3.04    0.21
   4  -6 -11    3.45    0.24
   3  -6 -11   -0.10    0.10
   3  -6 -11   -0.08    0.07
   2  -6 -11    3.08    0.27
   2  -6 -11    3.50    0.26
   2  -6 -11    3.85    0.22
   1  -6 -11    4.73    0.27
   1  -6 -11    4.68    0.34
   0  -6 -11    0.06    0.11
  -1  -7  12    3.67    0.26
   0  -7  12    0.97    0.15
   0  -7  12    0.99    0.13
   1  -7  12    0.25    0.10
   1  -7  12    0.32    0.15
   2  -7  12    1.52    0.19
   2  -7  12    1.55    0.17
   3  -7  12    0.21    0.09
   4  -7  12    4.22    0.29
  -2  -6  12   10.67    0.65
  -2  -6  12    9.20    0.66
  -1  -6  12    0.47    0.13
  -1  -6  12    0.35    0.16
   0  -6  12   26.16    1.47
   0  -6  12   22.18    1.51
   0  -6  12   23.88    1.55
   1  -6  12    0.98    0.20
   1  -6  12    0.95    0.09
   1  -6  12    0.64    0.20
   2  -6  12   14.09    0.74
   2  -6  12   11.58    0.83
   2  -6  12   14.29    0.87
   3  -6  12    0.84    0.14
   3  -6  12    0.81    0.11
   4  -6  12    2.92    0.23
   4  -6  12    2.80    0.19
   5  -6  12    1.79    0.14
  -4  -5  12    2.12    0.19
  -4  -5  12    2.72    0.19
  -3  -5  12    0.35    0.12
  -3  -5  12    0.21    0.11
  -3  -5  12    0.40    0.11
  -2  -5  12    1.33    0.16
  -2  -5  12    1.19    0.18
  -2  -5  12    1.32    0.17
  -1  -5  12    0.01    0.13
  -1  -5  12   -0.19    0.22
  -1  -5  12    0.23    0.19
  -1  -5  12    0.01    0.06
   0  -5  12    4.75    0.35
   0  -5  12    4.84    0.41
   0  -5  12    4.97    0.29
   0  -5  12    4.66    0.38
   1  -5  12    0.08    0.08
   1  -5  12    0.05    0.17
   1  -5  12    0.07    0.18
   1  -5  12    0.23    0.13
   2  -5  12    8.61    0.62
   2  -5  12    9.21    0.62
   2  -5  12    8.87    0.49
   2  -5  12    8.97    0.53
   3  -5  12    9.67    0.58
   3  -5  12   11.85    0.70
   3  -5  12   10.17    0.61
   4  -5  12    6.66    0.45
   4  -5  12    6.65    0.40
   4  -5  12    6.40    0.38
   5  -5  12    0.11    0.14
   5  -5  12    0.20    0.12
   5  -5  12    0.03    0.05
   6  -5  12    2.39    0.14
   6  -5  12    2.24    0.18
  -5  -4  12    0.47    0.09
  -4  -4  12    0.55    0.16
  -4  -4  12    0.63    0.15
  -3  -4  12   15.52    0.95
  -3  -4  12   14.78    0.95
  -3  -4  12   14.67    0.82
  -3  -4  12   14.22    0.97
  -2  -4  12   16.84    1.09
  -2  -4  12   16.11    1.07
  -2  -4  12   16.47    0.92
  -2  -4  12   16.94    1.07
  -1  -4  12    9.91    0.67
  -1  -4  12   10.20    0.70
  -1  -4  12    8.69    0.64
  -1  -4  12    9.72    0.65
  -1  -4  12   10.36    0.56
   0  -4  12    3.71    0.37
   0  -4  12    3.44    0.32
   0  -4  12    3.96    0.33
   0  -4  12    3.70    0.23
   0  -4  12    3.71    0.26
   1  -4  12    1.70    0.18
   1  -4  12    1.66    0.14
   1  -4  12    1.87    0.28
   1  -4  12    1.92    0.23
   2  -4  12    1.50    0.23
   2  -4  12    1.24    0.35
   2  -4  12    1.80    0.16
   2  -4  12    1.59    0.19
   2  -4  12    1.75    0.26
   3  -4  12    3.10    0.26
   3  -4  12    2.99    0.20
   3  -4  12    3.64    0.31
   3  -4  12    3.23    0.23
   3  -4  12    3.12    0.27
   4  -4  12   15.23    0.90
   4  -4  12   12.54    0.80
   4  -4  12   13.30    0.78
   4  -4  12   14.79    0.79
   5  -4  12    2.12    0.14
   5  -4  12    1.43    0.21
   5  -4  12    2.31    0.16
   6  -4  12    1.12    0.12
   6  -4  12    1.18    0.12
  -5  -3  12    1.37    0.16
  -5  -3  12    1.53    0.12
  -4  -3  12    1.43    0.18
  -4  -3  12    1.62    0.24
  -4  -3  12    1.47    0.16
  -3  -3  12   25.95    1.50
  -3  -3  12   24.21    1.31
  -3  -3  12   21.61    1.27
  -3  -3  12   23.21    1.54
  -3  -3  12   23.86    1.49
  -2  -3  12    8.79    0.58
  -2  -3  12    7.63    0.76
  -2  -3  12    8.48    0.60
  -2  -3  12    6.27    0.71
  -2  -3  12    8.27    0.47
  -2  -3  12    7.95    0.56
  -2  -3  12    8.65    0.49
  -1  -3  12    8.90    0.60
  -1  -3  12    9.25    0.64
  -1  -3  12    8.78    0.64
  -1  -3  12    8.62    0.83
  -1  -3  12    9.31    0.51
  -1  -3  12    8.34    0.67
  -1  -3  12    9.56    0.54
  -1  -3  12    7.98    0.59
   0  -3  12  155.66    9.43
   0  -3  12  157.95    8.25
   0  -3  12  150.04    7.97
   0  -3  12  136.57    8.11
   0  -3  12  141.68    8.97
   0  -3  12  159.67    9.32
   0  -3  12  148.00    8.06
   0  -3  12  141.81    9.10
   1  -3  12    0.03    0.22
   1  -3  12    0.09    0.09
   1  -3  12    0.10    0.27
   1  -3  12    0.05    0.14
   1  -3  12    0.09    0.10
   1  -3  12    0.01    0.24
   1  -3  12    0.17    0.16
   2  -3  12   16.82    0.94
   2  -3  12   17.00    0.92
   2  -3  12   17.55    0.93
   2  -3  12   13.70    1.18
   2  -3  12   16.10    1.09
   2  -3  12   16.30    1.05
   2  -3  12   16.67    1.24
   3  -3  12   20.96    1.51
   3  -3  12   19.71    1.28
   3  -3  12   20.11    1.13
   3  -3  12   20.14    1.12
   4  -3  12    0.22    0.16
   4  -3  12    0.14    0.13
   4  -3  12    0.03    0.15
   5  -3  12    3.11    0.22
   5  -3  12    2.66    0.25
   5  -3  12    2.49    0.24
  -6   3 -12    1.16    0.15
   6  -3  12    1.13    0.12
   6  -3  12    1.15    0.12
  -6  -2  12    0.04    0.11
  -5  -2  12    6.13    0.37
  -5  -2  12    5.91    0.42
  -4  -2  12    2.13    0.17
  -4  -2  12    1.98    0.26
  -4  -2  12    2.03    0.20
  -3  -2  12   14.51    1.13
  -3  -2  12   15.13    0.86
  -3  -2  12   16.36    0.99
  -3  -2  12   14.36    1.00
  -3  -2  12   14.92    0.84
  -2  -2  12   19.92    1.12
  -2  -2  12   20.58    1.36
  -2  -2  12   20.61    1.14
  -2  -2  12   19.48    1.45
  -2  -2  12   21.63    1.12
  -2  -2  12   20.32    1.27
  -2  -2  12   18.14    1.40
  -2  -2  12   21.02    1.32
  -1  -2  12   -0.31    0.28
  -1  -2  12    0.04    0.12
  -1  -2  12   -0.03    0.16
  -1  -2  12    0.06    0.24
  -1  -2  12   -0.29    0.25
  -1  -2  12    0.02    0.09
  -1  -2  12    0.01    0.12
  -1  -2  12    0.01    0.24
   0  -2  12   47.37    2.48
   0  -2  12   43.10    2.50
   0  -2  12   48.03    2.52
   0  -2  12   44.00    2.99
   0  -2  12   46.04    2.64
   1  -2  12   18.08    1.35
   1  -2  12   20.49    1.07
   1  -2  12   18.49    1.20
   1  -2  12   18.55    1.06
   2  -2  12    3.31    0.26
   2  -2  12    3.71    0.51
   2  -2  12    2.73    0.25
   3  -2  12   25.57    1.30
   3  -2  12   22.38    1.63
   3  -2  12   20.42    1.43
   4  -2  12   19.74    1.13
  -5   2 -12    8.48    0.53
   5  -2  12    8.75    0.53
  -6   2 -12    7.14    0.42
   6  -2  12    7.36    0.43
  -6  -1  12    0.04    0.08
  -6  -1  12   -0.05    0.05
  -6  -1  12    0.01    0.07
  -5  -1  12    3.08    0.22
  -5  -1  12    2.96    0.25
  -5  -1  12    3.12    0.26
  -4  -1  12   54.27    3.08
  -4  -1  12   57.36    3.05
  -4  -1  12   53.88    3.08
  -4  -1  12   59.97    3.47
  -3  -1  12   19.59    1.36
  -3  -1  12   15.64    1.31
  -3  -1  12   20.01    1.07
  -3  -1  12   19.81    1.08
  -3  -1  12   20.34    1.09
  -2  -1  12    3.72    0.29
  -2  -1  12    3.89    0.47
  -2  -1  12    4.21    0.51
  -2  -1  12    3.95    0.29
  -2  -1  12    4.16    0.48
  -2  -1  12    3.84    0.33
  -2  -1  12    3.98    0.28
  -1  -1  12  107.42    5.73
  -1  -1  12  111.48    5.98
  -1  -1  12  101.41    5.84
   0  -1  12    1.27    0.29
   0  -1  12    1.06    0.29
   0  -1  12    1.86    0.20
   1  -1  12   16.04    0.92
   2  -1  12   26.50    1.49
  -3   1 -12    3.44    0.29
  -4   1 -12    1.76    0.21
  -5   1 -12    1.27    0.14
  -5   1 -12    1.39    0.16
  -6   1 -12    3.86    0.22
  -6   1 -12    3.15    0.26
  -6   0  12    6.14    0.39
  -6   0  12    6.78    0.37
  -6   0  12    6.07    0.43
  -5   0  12    5.16    0.42
  -5   0  12    5.81    0.35
  -5   0  12    5.80    0.37
  -4   0  12    0.10    0.13
  -4   0  12    0.15    0.33
  -4   0  12    0.15    0.14
  -3   0  12    0.33    0.14
  -3   0  12    0.48    0.15
  -3   0  12    0.73    0.31
  -3   0  12    0.31    0.31
  -2   0  12    0.13    0.13
  -1   0  12    6.90    0.45
  -2   0 -12   20.37    1.17
  -3   0 -12   15.33    0.88
  -4   0 -12    6.18    0.46
  -4   0 -12    6.73    0.40
  -4   0 -12    6.04    0.39
  -5   0 -12    7.28    0.42
  -5   0 -12    6.55    0.49
  -5   0 -12    7.50    0.41
  -7   1  12    6.23    0.35
  -6   1  12    0.49    0.10
  -6   1  12    0.45    0.09
  -6   1  12    0.30    0.09
  -5   1  12   34.26    1.82
  -5   1  12   31.62    2.03
  -5   1  12   32.30    1.79
  -4   1  12   12.18    0.72
  -3   1  12    0.27    0.15
   1  -1 -12   23.86    1.35
   0  -1 -12   73.64    4.05
  -1  -1 -12    2.84    0.24
  -2  -1 -12    0.49    0.11
  -2  -1 -12    0.44    0.12
  -3  -1 -12    8.96    0.53
  -3  -1 -12    8.82    0.53
  -4  -1 -12    0.74    0.09
  -4  -1 -12    0.59    0.07
  -4  -1 -12    0.63    0.13
  -4  -1 -12    0.30    0.14
  -5  -1 -12    2.91    0.22
  -5  -1 -12    2.59    0.20
  -5  -1 -12    2.97    0.18
   6  -2 -12    1.78    0.23
  -6   2  12    2.33    0.19
   5  -2 -12    1.27    0.20
   4  -2 -12    0.22    0.17
  -4   2  12    0.34    0.17
   3  -2 -12    7.78    0.51
   2  -2 -12    4.88    0.36
   1  -2 -12   80.47    5.44
   1  -2 -12   85.43    4.57
   1  -2 -12   88.49    4.66
   0  -2 -12   79.42    4.08
   0  -2 -12   68.34    4.67
   0  -2 -12   78.26    4.15
  -1  -2 -12   21.31    1.17
  -1  -2 -12   22.31    1.19
  -1  -2 -12   19.71    1.19
  -2  -2 -12    4.13    0.28
  -2  -2 -12    4.36    0.27
  -2  -2 -12    4.05    0.27
  -3  -2 -12    4.48    0.31
  -3  -2 -12    4.63    0.29
  -3  -2 -12    4.21    0.37
  -4  -2 -12    1.98    0.21
  -4  -2 -12    2.37    0.16
  -4  -2 -12    1.82    0.18
  -4  -2 -12    2.16    0.14
   6  -3 -12    7.69    0.48
  -6   3  12    8.15    0.48
   5  -3 -12   11.51    0.82
   5  -3 -12   14.17    0.75
   4  -3 -12   21.87    1.24
   3  -3 -12    2.67    0.24
   3  -3 -12    2.74    0.25
   2  -3 -12    8.52    0.51
   2  -3 -12    7.08    0.77
   2  -3 -12    8.10    0.50
   1  -3 -12   11.48    1.00
   1  -3 -12   11.39    0.71
   1  -3 -12   12.73    0.70
   1  -3 -12   11.75    0.84
   1  -3 -12   12.87    0.70
   0  -3 -12    0.03    0.08
   0  -3 -12   -0.01    0.13
   0  -3 -12    0.08    0.11
   0  -3 -12   -0.01    0.18
  -1  -3 -12    0.14    0.13
  -1  -3 -12   -0.01    0.09
  -1  -3 -12    0.05    0.18
  -2  -3 -12    5.41    0.40
  -2  -3 -12    5.37    0.31
  -2  -3 -12    4.81    0.33
  -3  -3 -12   12.40    0.81
  -3  -3 -12   10.19    0.64
  -3  -3 -12   13.26    0.67
  -4  -3 -12    4.47    0.26
   6  -4 -12    0.42    0.07
  -6   4  12    0.71    0.10
   5  -4 -12    3.23    0.22
   5  -4 -12    3.27    0.25
   5  -4 -12    2.86    0.20
   4  -4 -12   10.95    0.69
   4  -4 -12   10.60    0.61
   4  -4 -12    9.85    0.59
   3  -4 -12    0.44    0.14
   3  -4 -12    0.19    0.14
   3  -4 -12    0.34    0.09
   3  -4 -12    0.44    0.13
   2  -4 -12   14.23    0.85
   2  -4 -12   15.27    0.84
   2  -4 -12   15.48    0.98
   1  -4 -12    2.40    0.18
   1  -4 -12    2.23    0.23
   1  -4 -12    2.18    0.27
   1  -4 -12    2.35    0.19
   0  -4 -12    1.88    0.16
   0  -4 -12    1.80    0.18
   0  -4 -12    1.65    0.25
  -1  -4 -12   27.48    1.51
  -1  -4 -12   29.42    1.81
  -1  -4 -12   25.85    1.48
  -2  -4 -12    0.13    0.06
  -2  -4 -12    0.13    0.10
  -3  -4 -12    0.03    0.04
   5  -5 -12    0.01    0.08
   5  -5 -12    0.00    0.06
   4  -5 -12    0.05    0.08
   4  -5 -12    0.24    0.11
   4  -5 -12    0.15    0.08
   3  -5 -12   -0.10    0.11
   3  -5 -12    0.04    0.07
   3  -5 -12    0.11    0.12
   2  -5 -12    1.74    0.19
   2  -5 -12    1.75    0.12
   2  -5 -12    1.25    0.17
   2  -5 -12    1.90    0.14
   1  -5 -12    0.13    0.11
   1  -5 -12    0.16    0.09
   1  -5 -12    0.22    0.10
   0  -5 -12    0.71    0.09
   0  -5 -12    0.80    0.13
  -1  -5 -12    4.84    0.30
  -1  -5 -12    5.70    0.38
   3  -6 -12    3.88    0.27
   2  -6 -12    0.09    0.05
   2  -6 -12    0.09    0.07
   0  -7  13    0.90    0.11
   1  -7  13    1.76    0.18
   2  -7  13    0.34    0.09
   3  -7  13    4.18    0.29
  -2  -6  13    0.27    0.14
  -2  -6  13    0.63    0.10
  -1  -6  13    5.65    0.40
  -1  -6  13    5.28    0.38
   0  -6  13    0.18    0.16
   0  -6  13    0.04    0.13
   0  -6  13    0.06    0.12
   1  -6  13   13.19    0.90
   1  -6  13   16.77    0.94
   1  -6  13   14.14    0.97
   2  -6  13    6.88    0.39
   2  -6  13    6.91    0.47
   3  -6  13    0.17    0.07
   3  -6  13    0.24    0.14
   4  -6  13    0.04    0.05
   4  -6  13    0.05    0.08
  -3  -5  13    0.27    0.11
  -3  -5  13    0.00    0.08
  -2  -5  13    7.98    0.54
  -2  -5  13    7.82    0.50
  -2  -5  13    6.54    0.50
  -1  -5  13    2.11    0.20
  -1  -5  13    2.02    0.27
  -1  -5  13    1.96    0.14
   0  -5  13   15.39    1.01
   0  -5  13   16.13    1.05
   0  -5  13   16.65    1.09
   0  -5  13   16.83    0.90
   1  -5  13    1.50    0.21
   1  -5  13    1.15    0.16
   1  -5  13    1.49    0.14
   1  -5  13    0.96    0.21
   2  -5  13    5.06    0.29
   2  -5  13    5.76    0.42
   2  -5  13    4.97    0.33
   2  -5  13    5.33    0.40
   3  -5  13    6.25    0.36
   3  -5  13    5.70    0.46
   3  -5  13    6.41    0.39
   3  -5  13    6.74    0.44
   4  -5  13   17.21    1.08
   4  -5  13   16.73    0.94
   4  -5  13   17.56    0.96
   5  -5  13    2.20    0.17
   5  -5  13    2.11    0.13
   5  -5  13    1.57    0.17
  -4  -4  13    0.62    0.11
  -4  -4  13    0.48    0.11
  -3  -4  13    0.12    0.06
  -3  -4  13    0.08    0.10
  -3  -4  13   -0.17    0.13
  -3  -4  13    0.07    0.12
  -2  -4  13   53.15    2.92
  -2  -4  13   51.15    3.31
  -2  -4  13   56.02    3.30
  -2  -4  13   54.35    3.39
  -1  -4  13    2.46    0.26
  -1  -4  13    2.63    0.26
  -1  -4  13    2.36    0.19
   0  -4  13    1.42    0.12
   0  -4  13    1.43    0.16
   0  -4  13    1.14    0.20
   0  -4  13    1.50    0.22
   0  -4  13    1.19    0.22
   1  -4  13    1.43    0.18
   1  -4  13    1.14    0.12
   1  -4  13    1.26    0.19
   1  -4  13    0.73    0.18
   2  -4  13   -0.04    0.15
   2  -4  13    0.06    0.13
   2  -4  13    0.14    0.18
   2  -4  13    0.06    0.12
   3  -4  13   11.07    0.75
   3  -4  13   12.18    0.65
   3  -4  13   10.61    0.67
   3  -4  13   12.08    0.78
   4  -4  13    3.49    0.30
   4  -4  13    4.36    0.25
   4  -4  13    3.56    0.22
   4  -4  13    4.02    0.31
   4  -4  13    3.00    0.29
   5  -4  13    2.52    0.18
   5  -4  13    2.51    0.20
  -5  -3  13    0.18    0.08
  -4  -3  13    1.68    0.21
  -4  -3  13    1.86    0.15
  -4  -3  13    1.86    0.24
  -3  -3  13   24.19    1.61
  -3  -3  13   23.78    1.38
  -3  -3  13   26.95    1.57
  -2  -3  13    2.64    0.19
  -2  -3  13    2.83    0.24
  -2  -3  13    3.02    0.29
  -2  -3  13    2.67    0.30
  -1  -3  13   33.92    2.07
  -1  -3  13   28.70    2.26
  -1  -3  13   33.96    1.84
  -1  -3  13   35.67    2.15
  -1  -3  13   33.97    1.81
   0  -3  13    0.59    0.12
   0  -3  13    0.63    0.16
   0  -3  13    0.58    0.14
   0  -3  13    0.34    0.20
   0  -3  13    0.16    0.27
   1  -3  13   16.59    1.08
   1  -3  13   17.07    0.94
   1  -3  13   17.36    0.92
   1  -3  13   13.20    1.22
   1  -3  13   16.32    1.06
   1  -3  13   17.36    0.92
   2  -3  13    0.11    0.27
   2  -3  13    0.34    0.15
   2  -3  13    0.21    0.14
   2  -3  13    0.12    0.12
   2  -3  13    0.21    0.12
   3  -3  13    0.25    0.12
   3  -3  13    0.29    0.13
   3  -3  13    0.35    0.11
   4  -3  13    0.25    0.12
   4  -3  13    0.28    0.14
   4  -3  13    0.39    0.10
   5  -3  13    3.38    0.22
   5  -3  13    2.78    0.25
   5  -3  13    2.88    0.23
  -6   3 -13    2.46    0.17
   6  -3  13    2.56    0.16
  -6  -2  13   18.07    1.12
  -5  -2  13    0.09    0.10
  -5  -2  13    0.04    0.07
  -4  -2  13    9.04    0.52
  -4  -2  13    9.94    0.62
  -4  -2  13    8.81    0.55
  -3  -2  13   10.53    0.73
  -3  -2  13   10.55    0.61
  -3  -2  13   10.55    0.63
  -3  -2  13   11.37    0.73
  -2  -2  13    0.33    0.12
  -2  -2  13    0.27    0.13
  -2  -2  13    0.28    0.08
  -2  -2  13    0.40    0.12
  -2  -2  13    0.08    0.32
  -2  -2  13    0.19    0.16
  -2  -2  13    0.19    0.27
  -1  -2  13    1.10    0.20
  -1  -2  13    1.10    0.30
  -1  -2  13    0.95    0.12
  -1  -2  13    0.71    0.29
  -1  -2  13    0.61    0.33
  -1  -2  13    0.88    0.15
  -1  -2  13    0.93    0.14
  -1  -2  13    0.42    0.25
   0  -2  13   12.74    0.91
   0  -2  13   13.07    0.72
   0  -2  13   11.80    0.95
   0  -2  13   12.84    0.72
   0  -2  13   11.95    0.73
   1  -2  13    0.11    0.24
   1  -2  13    0.20    0.30
   1  -2  13    0.33    0.13
   1  -2  13    0.41    0.16
   1  -2  13    0.18    0.23
   2  -2  13   21.02    1.20
   2  -2  13   22.31    1.23
   3  -2  13    2.83    0.25
   4  -2  13    6.73    0.43
  -5   2 -13   29.09    1.67
   5  -2  13   30.73    1.66
  -6   2 -13    0.77    0.09
   6  -2  13    0.87    0.11
  -6  -1  13    1.32    0.14
  -6  -1  13    1.09    0.14
  -5  -1  13    9.29    0.58
  -5  -1  13    9.47    0.56
  -5  -1  13   10.88    0.65
  -4  -1  13   47.20    2.73
  -4  -1  13   41.73    2.42
  -4  -1  13   43.12    2.43
  -4  -1  13   45.11    2.40
  -3  -1  13    5.20    0.38
  -3  -1  13    5.54    0.36
  -3  -1  13    5.76    0.35
  -2  -1  13   14.88    0.81
  -2  -1  13   15.61    0.81
  -2  -1  13   12.56    1.05
  -2  -1  13   13.81    0.94
  -2  -1  13   13.06    1.05
  -2  -1  13   14.40    0.83
  -2  -1  13   14.03    0.98
  -1  -1  13    1.78    0.19
  -1  -1  13    1.44    0.20
  -1  -1  13    2.10    0.35
   0  -1  13   76.49    4.11
   0  -1  13   75.84    4.19
   1  -1  13    2.36    0.27
   2  -1  13    0.07    0.21
  -3   1 -13    5.24    0.36
   3  -1  13    4.76    0.36
  -4   1 -13    9.99    0.58
   4  -1  13    9.41    0.59
  -5   1 -13    5.67    0.33
   5  -1  13    5.55    0.37
  -6   0  13    2.39    0.19
  -6   0  13    3.07    0.20
  -6   0  13    2.78    0.22
  -5   0  13    3.27    0.22
  -5   0  13    3.03    0.21
  -5   0  13    3.15    0.26
  -4   0  13    6.40    0.41
  -4   0  13    6.74    0.42
  -3   0  13    1.30    0.38
  -3   0  13    2.10    0.24
  -3   0  13    2.06    0.23
  -2   0  13    7.53    0.48
  -1   0  13    3.99    0.31
   0   0  13   -0.05    0.16
  -1   0 -13  131.84    7.23
  -2   0 -13   10.57    0.64
  -3   0 -13   15.15    0.87
  -4   0 -13    0.05    0.10
  -4   0 -13    0.14    0.12
  -6   1  13    6.17    0.34
  -6   1  13    5.46    0.36
  -5   1  13    2.17    0.26
  -5   1  13    2.47    0.21
  -5   1  13    2.56    0.20
  -4   1  13    9.35    0.57
  -3   1  13    0.09    0.15
  -2   1  13   11.29    0.69
   1  -1 -13    0.67    0.16
   0  -1 -13   34.05    1.91
  -1  -1 -13    0.08    0.13
  -2  -1 -13    2.21    0.21
  -2  -1 -13    2.08    0.22
  -3  -1 -13    5.54    0.37
  -3  -1 -13    5.93    0.36
  -4  -1 -13    7.25    0.42
  -4  -1 -13    7.21    0.50
  -5  -1 -13    6.27    0.35
   6  -2 -13    1.03    0.13
  -6   2  13    0.93    0.12
   5  -2 -13   11.27    0.67
   4  -2 -13    5.47    0.41
  -4   2  13    6.13    0.41
   3  -2 -13   15.43    0.91
   2  -2 -13   32.02    1.79
   1  -2 -13    6.75    0.42
   1  -2 -13    6.04    0.48
   1  -2 -13    6.34    0.42
   0  -2 -13    0.45    0.15
   0  -2 -13    0.39    0.13
  -1  -2 -13   10.35    0.57
  -1  -2 -13    8.95    0.56
  -2  -2 -13   10.36    0.61
  -2  -2 -13   10.04    0.64
  -2  -2 -13   11.00    0.75
  -2  -2 -13   12.06    0.63
  -3  -2 -13    2.19    0.20
  -3  -2 -13    2.15    0.21
  -3  -2 -13    2.10    0.17
  -4  -2 -13    0.48    0.09
  -4  -2 -13    0.40    0.07
  -4  -2 -13    0.43    0.06
   6  -3 -13    6.16    0.38
  -6   3  13    6.51    0.39
   5  -3 -13    9.04    0.53
   5  -3 -13    8.53    0.59
   4  -3 -13   34.81    1.94
   3  -3 -13    5.09    0.36
   3  -3 -13    5.10    0.35
   2  -3 -13    8.20    0.50
   2  -3 -13    8.51    0.51
   1  -3 -13   39.82    1.99
   1  -3 -13   35.67    2.37
   1  -3 -13   35.15    2.02
   1  -3 -13   35.01    2.01
   0  -3 -13    0.11    0.07
   0  -3 -13    0.13    0.14
   0  -3 -13    0.13    0.08
   0  -3 -13    0.04    0.13
   0  -3 -13   -0.03    0.17
  -1  -3 -13   14.30    0.84
  -1  -3 -13   14.57    0.82
  -1  -3 -13   15.54    1.01
  -2  -3 -13    2.87    0.20
  -2  -3 -13    2.79    0.25
  -2  -3 -13    2.66    0.18
  -3  -3 -13    5.99    0.42
  -3  -3 -13    6.10    0.36
   5  -4 -13    1.17    0.12
   5  -4 -13    1.09    0.14
   5  -4 -13    1.18    0.09
   4  -4 -13    8.29    0.56
   4  -4 -13    7.77    0.47
   4  -4 -13    9.15    0.49
   3  -4 -13    4.87    0.38
   3  -4 -13    5.57    0.32
   2  -4 -13    0.14    0.09
   2  -4 -13    0.03    0.12
   2  -4 -13    0.07    0.11
   1  -4 -13    3.25    0.26
   1  -4 -13    3.21    0.29
   1  -4 -13    3.51    0.28
   1  -4 -13    3.34    0.23
   0  -4 -13    9.19    0.67
   0  -4 -13   10.46    0.55
   0  -4 -13    9.75    0.57
  -1  -4 -13    0.06    0.09
  -1  -4 -13   -0.09    0.10
  -2  -4 -13    0.05    0.09
  -2  -4 -13    0.10    0.07
   5  -5 -13    0.54    0.07
   4  -5 -13    0.49    0.10
   4  -5 -13    0.25    0.07
   3  -5 -13    2.19    0.14
   3  -5 -13    2.15    0.20
   3  -5 -13    2.29    0.16
   2  -5 -13    1.70    0.15
   2  -5 -13    1.34    0.16
   1  -5 -13    0.03    0.12
   1  -5 -13   -0.08    0.10
   1  -5 -13    0.05    0.06
   1  -7  14    2.91    0.21
  -2  -6  14    4.62    0.32
  -1  -6  14    6.82    0.43
  -1  -6  14    5.54    0.42
   0  -6  14    3.53    0.25
   0  -6  14    2.87    0.25
   1  -6  14    0.02    0.14
   1  -6  14   -0.07    0.09
   2  -6  14    2.38    0.23
   2  -6  14    2.66    0.17
   2  -6  14    2.82    0.22
   3  -6  14    5.12    0.30
   4  -6  14    0.16    0.08
   4  -6  14    0.15    0.06
  -3  -5  14    0.39    0.07
  -3  -5  14    0.32    0.12
  -2  -5  14    4.58    0.35
  -2  -5  14    5.43    0.39
  -1  -5  14    6.19    0.41
  -1  -5  14    5.72    0.31
  -1  -5  14    4.60    0.39
   0  -5  14    1.92    0.15
   0  -5  14    1.72    0.22
   0  -5  14    1.96    0.22
   1  -5  14   51.41    2.94
   1  -5  14   56.76    3.42
   2  -5  14    1.06    0.16
   2  -5  14    0.78    0.18
   2  -5  14    1.03    0.14
   3  -5  14    9.71    0.60
   3  -5  14    8.66    0.62
   3  -5  14    9.57    0.53
   3  -5  14    8.76    0.50
   4  -5  14    7.13    0.40
   4  -5  14    7.20    0.42
   5  -5  14    0.21    0.04
   5  -5  14    0.19    0.10
  -4  -4  14    4.38    0.28
  -4  -4  14    3.41    0.29
  -3  -4  14    0.19    0.15
  -3  -4  14    0.33    0.06
  -3  -4  14    0.20    0.14
  -2  -4  14   16.77    0.91
  -2  -4  14   16.21    1.04
  -2  -4  14   16.41    1.09
  -1  -4  14    0.08    0.10
  -1  -4  14    0.06    0.17
  -1  -4  14    0.04    0.15
   0  -4  14   -0.01    0.07
   0  -4  14   -0.02    0.15
   0  -4  14   -0.04    0.11
   0  -4  14    0.00    0.13
   1  -4  14    7.39    0.42
   1  -4  14    7.50    0.45
   1  -4  14    6.59    0.51
   1  -4  14    8.08    0.55
   2  -4  14    7.64    0.53
   2  -4  14    6.44    0.49
   2  -4  14    7.72    0.44
   2  -4  14    6.71    0.42
   3  -4  14    0.64    0.17
   3  -4  14    0.47    0.11
   3  -4  14    0.43    0.15
   3  -4  14    0.80    0.12
   4  -4  14    8.12    0.42
   4  -4  14    6.22    0.49
   4  -4  14    7.54    0.48
   5  -4  14    4.19    0.29
   5  -4  14    4.33    0.26
  -5  -3  14    3.38    0.25
  -4  -3  14    2.62    0.21
  -4  -3  14    2.34    0.17
  -4  -3  14    2.33    0.20
  -3  -3  14   59.17    3.92
  -3  -3  14   61.90    3.38
  -3  -3  14   65.64    3.81
  -2  -3  14    8.75    0.60
  -2  -3  14    8.59    0.51
  -2  -3  14    9.08    0.58
  -2  -3  14    8.19    0.48
  -1  -3  14    0.40    0.18
  -1  -3  14    0.30    0.13
  -1  -3  14    0.38    0.12
  -1  -3  14    0.46    0.14
   0  -3  14   30.97    1.75
   0  -3  14   32.88    2.04
   0  -3  14   31.45    1.73
   1  -3  14    1.48    0.16
   1  -3  14    0.93    0.16
   1  -3  14    1.65    0.23
   1  -3  14    1.29    0.14
   2  -3  14    0.09    0.10
   2  -3  14   -0.07    0.13
   2  -3  14   -0.04    0.12
   3  -3  14   -0.02    0.10
   3  -3  14    0.17    0.09
   4  -3  14    0.23    0.09
   4  -3  14    0.06    0.10
  -5   3 -14    3.40    0.22
   5  -3  14    2.61    0.22
   5  -3  14    3.46    0.21
  -5  -2  14    3.40    0.22
  -5  -2  14    3.10    0.27
  -4  -2  14    2.04    0.19
  -4  -2  14    1.69    0.13
  -4  -2  14    1.92    0.23
  -3  -2  14    0.02    0.11
  -3  -2  14   -0.16    0.09
  -3  -2  14    0.07    0.12
  -3  -2  14   -0.07    0.10
  -2  -2  14    5.82    0.38
  -2  -2  14    5.89    0.37
  -2  -2  14    5.99    0.44
  -2  -2  14    5.65    0.43
  -1  -2  14    9.72    0.57
  -1  -2  14   10.20    0.58
  -1  -2  14    9.61    0.59
  -1  -2  14   10.29    0.68
   0  -2  14   14.48    0.86
   0  -2  14   15.23    0.84
   0  -2  14   14.88    0.84
   1  -2  14    5.86    0.38
   1  -2  14    6.31    0.40
   2  -2  14    6.15    0.41
   2  -2  14    6.33    0.40
   3  -2  14   15.06    0.87
  -4   2 -14    2.74    0.24
   4  -2  14    2.31    0.22
  -5   2 -14    4.52    0.28
   5  -2  14    3.88    0.28
  -5  -1  14   -0.10    0.09
  -5  -1  14    0.02    0.08
  -5  -1  14   -0.03    0.11
  -4  -1  14   30.17    1.79
  -4  -1  14   27.42    1.58
  -4  -1  14   28.15    1.56
  -3  -1  14    9.21    0.54
  -3  -1  14    8.54    0.55
  -3  -1  14    9.29    0.53
  -2  -1  14    0.28    0.29
  -2  -1  14    0.27    0.13
  -2  -1  14    0.12    0.11
  -2  -1  14    0.09    0.15
  -1  -1  14    9.11    0.57
  -1  -1  14    9.87    0.58
  -1  -1  14    9.62    0.66
   0  -1  14    8.88    0.55
   0  -1  14    8.99    0.55
   1  -1  14   37.14    2.07
   2  -1  14   17.16    0.99
  -3   1 -14    3.88    0.30
   3  -1  14    3.53    0.29
  -4   1 -14   18.01    1.01
   4  -1  14   17.57    1.02
  -5   1 -14    0.52    0.09
  -5   1 -14    0.77    0.10
   5  -1  14    1.04    0.11
  -6   0  14    1.28    0.12
  -6   0  14    1.62    0.14
  -6   0  14    1.63    0.13
  -5   0  14    1.91    0.18
  -5   0  14    1.72    0.11
  -5   0  14    1.98    0.19
  -4   0  14    3.10    0.26
  -3   0  14    8.29    0.52
  -3   0  14    8.52    0.53
  -2   0  14    4.39    0.32
  -1   0  14    5.86    0.40
   0   0  14   62.91    3.47
  -1   0 -14   92.69    5.09
  -2   0 -14   19.83    1.13
  -3   0 -14    1.32    0.17
  -4   0 -14    5.36    0.32
  -4   0 -14    5.06    0.32
  -5   0 -14    0.08    0.05
  -6   1  14    1.29    0.13
  -6   1  14    1.43    0.12
  -5   1  14   22.18    1.37
  -5   1  14   20.98    1.21
  -5   1  14   22.32    1.22
  -4   1  14    3.39    0.27
  -3   1  14   16.49    0.95
   2  -1 -14    6.72    0.47
  -2   1  14    7.28    0.47
   1  -1 -14    5.13    0.38
   0  -1 -14   31.08    1.74
  -1  -1 -14    1.47    0.20
  -2  -1 -14    0.83    0.14
  -2  -1 -14    0.89    0.13
  -3  -1 -14    5.89    0.37
  -3  -1 -14    7.02    0.39
  -4  -1 -14    7.15    0.54
  -4  -1 -14    8.81    0.45
   6  -2 -14    8.77    0.50
  -6   2  14    8.45    0.49
   5  -2 -14    1.11    0.17
  -4   2  14   17.26    1.00
   3  -2 -14   18.28    1.05
   2  -2 -14    2.43    0.27
   1  -2 -14   20.33    1.13
   1  -2 -14   18.47    1.33
   1  -2 -14   21.76    1.16
   0  -2 -14    2.02    0.21
   0  -2 -14    2.44    0.23
   0  -2 -14    1.97    0.22
  -1  -2 -14    0.62    0.13
  -1  -2 -14    0.66    0.12
  -1  -2 -14    0.71    0.15
  -2  -2 -14    7.74    0.48
  -2  -2 -14    8.01    0.57
  -3  -2 -14    0.08    0.10
  -3  -2 -14    0.12    0.05
  -3  -2 -14    0.05    0.10
   6  -3 -14    1.24    0.11
  -6   3  14    1.47    0.13
   5  -3 -14    2.73    0.22
   4  -3 -14    1.33    0.15
   4  -3 -14    1.23    0.17
   3  -3 -14    0.53    0.15
   3  -3 -14    0.61    0.13
   2  -3 -14   11.29    0.67
   2  -3 -14   11.96    0.68
   1  -3 -14    7.59    0.54
   1  -3 -14    7.66    0.44
   1  -3 -14    7.09    0.44
   0  -3 -14    4.96    0.30
   0  -3 -14    4.58    0.35
   0  -3 -14    4.13    0.32
  -1  -3 -14    0.10    0.12
  -1  -3 -14    0.43    0.12
  -1  -3 -14    0.27    0.07
  -2  -3 -14   10.61    0.57
  -2  -3 -14    9.79    0.59
  -2  -3 -14   10.52    0.70
  -3  -3 -14    8.51    0.41
  -3  -3 -14    5.99    0.48
   5  -4 -14   26.37    1.64
   5  -4 -14   27.09    1.45
   4  -4 -14    9.78    0.57
   4  -4 -14   10.51    0.66
   3  -4 -14    3.98    0.26
   3  -4 -14    4.25    0.31
   2  -4 -14    6.90    0.48
   2  -4 -14    6.77    0.40
   1  -4 -14    0.11    0.08
   1  -4 -14    0.12    0.09
   1  -4 -14    0.03    0.08
   1  -4 -14    0.02    0.13
   0  -4 -14    0.21    0.10
   0  -4 -14    0.15    0.06
   0  -4 -14    0.19    0.10
  -1  -4 -14    0.19    0.09
  -1  -4 -14    0.22    0.08
   4  -5 -14    0.19    0.08
   3  -5 -14    0.32    0.08
   2  -5 -14    0.91    0.09
   2  -5 -14    1.01    0.12
   1  -5 -14    7.17    0.41
  -1  -6  15   11.98    0.78
   0  -6  15    0.06    0.08
   0  -6  15    0.02    0.12
   1  -6  15    0.27    0.09
   1  -6  15    0.16    0.12
   2  -6  15    4.75    0.36
   2  -6  15    5.84    0.30
   3  -6  15    0.93    0.10
   3  -6  15    0.91    0.08
  -2  -5  15   11.43    0.82
  -2  -5  15   13.76    0.80
  -1  -5  15    1.93    0.20
  -1  -5  15    1.77    0.24
  -1  -5  15    2.26    0.13
   0  -5  15   17.45    0.87
   0  -5  15   14.47    1.04
   0  -5  15   15.31    1.01
   1  -5  15    1.70    0.20
   1  -5  15    1.77    0.24
   1  -5  15    1.84    0.15
   2  -5  15    6.89    0.49
   2  -5  15    7.19    0.48
   2  -5  15    7.20    0.41
   3  -5  15    0.55    0.04
   3  -5  15    0.45    0.12
   3  -5  15    0.42    0.13
   3  -5  15    0.65    0.09
   4  -5  15    0.03    0.09
   4  -5  15    0.03    0.06
  -3  -4  15    2.63    0.15
  -3  -4  15    2.38    0.22
  -3  -4  15    2.27    0.21
  -2  -4  15    0.16    0.09
  -2  -4  15    0.19    0.07
  -2  -4  15    0.19    0.12
  -1  -4  15    0.78    0.15
  -1  -4  15    0.89    0.12
   0  -4  15    1.42    0.19
   0  -4  15    1.28    0.16
   0  -4  15    1.36    0.11
   1  -4  15    3.68    0.30
   1  -4  15    4.02    0.28
   1  -4  15    3.88    0.24
   1  -4  15    4.37    0.36
   2  -4  15    0.19    0.17
   2  -4  15    0.11    0.12
   2  -4  15    0.26    0.10
   2  -4  15    0.28    0.09
   3  -4  15    7.88    0.59
   3  -4  15    9.88    0.53
   3  -4  15    9.93    0.51
   3  -4  15    8.00    0.61
   4  -4  15    2.26    0.16
   4  -4  15    1.85    0.19
   5  -4  15    1.01    0.08
  -4  -3  15   16.43    0.88
  -4  -3  15   15.46    1.00
  -3  -3  15   22.41    1.44
  -3  -3  15   21.86    1.40
  -3  -3  15   23.10    1.24
  -2  -3  15    2.67    0.28
  -2  -3  15    2.55    0.18
  -2  -3  15    2.69    0.23
  -2  -3  15    2.67    0.22
  -1  -3  15    1.49    0.23
  -1  -3  15    1.53    0.15
  -1  -3  15    1.71    0.19
   0  -3  15    0.34    0.13
   0  -3  15    0.12    0.18
   0  -3  15    0.49    0.11
   1  -3  15    9.58    0.63
   1  -3  15    8.31    0.50
   1  -3  15    8.71    0.53
   1  -3  15    8.85    0.52
   2  -3  15    0.08    0.12
   2  -3  15   -0.04    0.09
   3  -3  15    4.61    0.29
   3  -3  15    4.54    0.31
   4  -3  15    3.92    0.25
   4  -3  15    3.68    0.24
  -5   3 -15    1.86    0.17
   5  -3  15    1.84    0.14
  -5  -2  15    0.02    0.08
  -5  -2  15    0.08    0.07
  -4  -2  15    0.36    0.11
  -4  -2  15    0.15    0.11
  -4  -2  15    0.29    0.06
  -3  -2  15   16.25    0.90
  -3  -2  15   15.96    1.00
  -3  -2  15   14.22    1.02
  -3  -2  15   16.50    0.87
  -2  -2  15    0.19    0.14
  -2  -2  15    0.24    0.11
  -2  -2  15    0.21    0.11
  -2  -2  15    0.26    0.15
  -1  -2  15   27.50    1.70
  -1  -2  15   25.53    1.46
  -1  -2  15   25.39    1.47
  -1  -2  15   27.39    1.45
   0  -2  15   10.17    0.59
   0  -2  15   10.17    0.70
   0  -2  15    9.55    0.58
   1  -2  15    7.86    0.48
   1  -2  15    7.68    0.47
   2  -2  15   60.95    3.36
   2  -2  15   60.97    3.30
   3  -2  15    0.07    0.13
  -4   2 -15    2.67    0.23
   4  -2  15    2.87    0.22
  -5   2 -15    2.99    0.20
   5  -2  15    2.81    0.19
  -5  -1  15    6.41    0.44
  -5  -1  15    6.36    0.36
  -4  -1  15    1.71    0.19
  -4  -1  15    1.67    0.20
  -4  -1  15    1.96    0.17
  -3  -1  15    6.96    0.48
  -3  -1  15    6.07    0.42
  -3  -1  15    6.70    0.41
  -2  -1  15    4.44    0.30
  -2  -1  15    4.31    0.31
  -2  -1  15    4.06    0.35
  -1  -1  15    0.71    0.14
  -1  -1  15    0.86    0.18
  -1  -1  15    0.80    0.16
   0  -1  15    0.95    0.17
   0  -1  15    1.01    0.16
   1  -1  15    8.60    0.54
   2  -1  15    0.23    0.16
  -3   1 -15   14.18    0.83
   3  -1  15   14.26    0.83
  -4   1 -15    3.78    0.24
   4  -1  15    3.70    0.25
  -6   0  15    0.11    0.04
  -5   0  15    2.92    0.25
  -5   0  15    2.49    0.20
  -4   0  15   34.02    1.85
  -4   0  15   33.68    2.09
  -3   0  15    1.24    0.16
  -3   0  15    1.29    0.18
  -2   0  15   24.80    1.40
  -1   0  15   26.38    1.49
   0   0  15    0.05    0.16
  -1   0 -15   -0.12    0.14
   1   0  15   -0.06    0.17
  -2   0 -15    2.73    0.24
  -3   0 -15   11.47    0.66
  -4   0 -15    0.03    0.05
  -4   0 -15    0.01    0.06
  -5   1  15    0.06    0.11
  -5   1  15    0.10    0.08
  -5   1  15    0.05    0.12
  -4   1  15    7.51    0.46
  -3   1  15   10.09    0.61
   2  -1 -15    2.89    0.28
  -2   1  15    2.78    0.27
   1  -1 -15   26.81    1.52
  -1  -1 -15    0.42    0.12
  -1  -1 -15    0.33    0.14
  -2  -1 -15   12.37    0.75
  -2  -1 -15   14.14    0.75
  -3  -1 -15    2.70    0.18
  -3  -1 -15    2.27    0.15
  -3  -1 -15    2.89    0.23
  -4  -1 -15    2.49    0.19
  -4  -1 -15    2.47    0.15
   5  -2 -15   16.42    0.92
  -5   2  15   16.16    0.92
  -4   2  15    2.25    0.22
   3  -2 -15   18.90    1.06
  -3   2  15   18.24    1.07
   2  -2 -15    0.42    0.14
   1  -2 -15    5.00    0.34
   1  -2 -15    5.53    0.35
   1  -2 -15    4.55    0.39
   0  -2 -15    0.50    0.11
   0  -2 -15    0.51    0.16
   0  -2 -15    0.34    0.13
  -1  -2 -15    4.10    0.28
  -1  -2 -15    3.98    0.35
  -1  -2 -15    4.06    0.26
  -2  -2 -15    4.06    0.32
  -2  -2 -15    4.01    0.26
  -3  -2 -15    0.23    0.05
  -3  -2 -15    0.29    0.09
  -3  -2 -15    0.34    0.07
   5  -3 -15    0.30    0.09
   5  -3 -15    0.27    0.08
  -5   3  15    0.11    0.12
  -5   3  15    0.39    0.08
   4  -3 -15    6.64    0.42
   4  -3 -15    7.54    0.42
   3  -3 -15    3.54    0.27
   3  -3 -15    3.76    0.25
   2  -3 -15   21.64    1.21
   2  -3 -15   22.01    1.21
   1  -3 -15    7.68    0.42
   1  -3 -15    7.15    0.50
   1  -3 -15    6.99    0.53
   1  -3 -15    8.00    0.45
   0  -3 -15    1.54    0.21
   0  -3 -15    1.61    0.13
   0  -3 -15    1.43    0.18
  -1  -3 -15    8.43    0.48
  -1  -3 -15    8.10    0.59
  -1  -3 -15    9.12    0.50
  -2  -3 -15    2.25    0.19
  -2  -3 -15    2.29    0.17
   4  -4 -15    7.00    0.40
   3  -4 -15    3.62    0.31
   3  -4 -15    4.93    0.26
   2  -4 -15    1.33    0.11
   2  -4 -15    1.12    0.13
   2  -4 -15    1.26    0.15
   1  -4 -15    0.39    0.08
   1  -4 -15    0.31    0.07
   1  -4 -15    0.24    0.11
   1  -4 -15    0.34    0.08
   0  -4 -15    3.58    0.27
   0  -4 -15    3.62    0.22
  -1  -4 -15   10.43    0.68
  -1  -4 -15    9.96    0.56
   1  -6  16    0.22    0.07
  -2  -5  16   17.44    1.12
  -1  -5  16    0.65    0.12
   0  -5  16    0.00    0.07
   0  -5  16   -0.01    0.14
   1  -5  16    5.57    0.37
   1  -5  16    4.67    0.36
   2  -5  16    1.97    0.14
   2  -5  16    2.17    0.18
   2  -5  16    1.75    0.16
   3  -5  16    0.09    0.11
   3  -5  16    0.01    0.08
  -3  -4  16    0.09    0.10
  -3  -4  16    0.12    0.06
  -2  -4  16    1.66    0.13
  -2  -4  16    1.75    0.18
  -1  -4  16    9.59    0.56
  -1  -4  16   10.02    0.66
   0  -4  16    5.39    0.38
   0  -4  16    5.46    0.32
   0  -4  16    4.59    0.28
   1  -4  16    3.41    0.28
   1  -4  16    3.50    0.23
   1  -4  16    3.08    0.20
   2  -4  16    4.63    0.34
   2  -4  16    4.70    0.27
   2  -4  16    4.13    0.30
   3  -4  16    2.80    0.23
   3  -4  16    3.07    0.18
   3  -4  16    2.76    0.20
   4  -4  16    4.02    0.23
  -4  -3  16    0.17    0.06
  -4  -3  16    0.22    0.08
  -3  -3  16   10.34    0.61
  -3  -3  16   11.34    0.69
  -2  -3  16    0.29    0.06
  -2  -3  16    0.30    0.16
  -2  -3  16    0.25    0.09
  -2  -3  16    0.22    0.11
  -1  -3  16    0.10    0.08
  -1  -3  16   -0.05    0.12
  -1  -3  16   -0.23    0.15
   0  -3  16    0.15    0.10
   0  -3  16   -0.01    0.12
   0  -3  16    0.13    0.13
   1  -3  16    6.16    0.36
   1  -3  16    6.08    0.45
   1  -3  16    5.30    0.38
   2  -3  16    3.07    0.20
   2  -3  16    2.61    0.27
   2  -3  16    2.56    0.17
   3  -3  16    9.92    0.61
   3  -3  16    8.29    0.52
   3  -3  16    8.90    0.51
   4  -3  16    1.50    0.15
   4  -3  16    1.70    0.13
  -5  -2  16    0.02    0.06
  -4  -2  16    6.81    0.41
  -4  -2  16    7.04    0.46
  -3  -2  16    2.97    0.23
  -3  -2  16    2.72    0.20
  -3  -2  16    3.06    0.24
  -2  -2  16   19.88    1.33
  -2  -2  16   21.47    1.30
  -2  -2  16   20.45    1.16
  -2  -2  16   20.52    1.13
  -1  -2  16    1.24    0.11
  -1  -2  16    1.33    0.17
  -1  -2  16    0.97    0.19
  -1  -2  16    0.92    0.16
  -1  -2  16    1.31    0.17
   0  -2  16   12.06    0.73
   0  -2  16   13.12    0.74
   0  -2  16   13.50    0.86
   1  -2  16   12.43    0.71
   1  -2  16   12.34    0.71
   2  -2  16   36.93    2.07
   2  -2  16   37.85    2.04
   3  -2  16    2.07    0.16
  -4   2 -16    0.02    0.10
   4  -2  16    0.03    0.09
  -5  -1  16    3.66    0.23
  -5  -1  16    3.62    0.26
  -4  -1  16   11.87    0.67
  -4  -1  16   13.39    0.78
  -4  -1  16   10.99    0.69
  -3  -1  16    0.13    0.09
  -3  -1  16    0.05    0.10
  -3  -1  16    0.02    0.11
  -2  -1  16    7.23    0.58
  -2  -1  16    8.54    0.50
  -2  -1  16    9.42    0.50
  -1  -1  16   29.38    1.89
  -1  -1  16   29.72    1.62
   0  -1  16    0.32    0.14
   0  -1  16    0.34    0.13
   1  -1  16   48.06    2.66
  -2   1 -16    6.53    0.44
   2  -1  16    7.11    0.42
  -3   1 -16    3.17    0.25
   3  -1  16    2.94    0.25
  -4   1 -16    6.02    0.33
   4  -1  16    4.73    0.34
  -5   0  16   25.70    1.39
  -5   0  16   25.49    1.58
  -4   0  16    0.04    0.08
  -4   0  16    0.03    0.10
  -4   0  16    0.03    0.07
  -3   0  16   14.32    0.83
  -3   0  16   14.92    0.84
  -2   0  16    7.02    0.44
  -1   0  16    1.40    0.17
  -1   0  16    1.67    0.20
   0   0 -16   16.23    0.98
   0   0  16   17.45    0.97
  -1   0 -16    4.90    0.36
   1   0  16    5.25    0.36
  -2   0 -16    1.15    0.15
   2   0  16    0.75    0.17
  -3   0 -16    0.02    0.07
  -3   0 -16    0.03    0.08
   3   0  16    0.01    0.13
  -4   0 -16    0.05    0.07
  -5   1  16    0.21    0.05
  -5   1  16    0.22    0.07
  -5   1  16    0.30    0.08
   4  -1 -16    0.01    0.11
  -4   1  16    0.08    0.10
   3  -1 -16    0.21    0.11
  -3   1  16    0.25    0.14
   2  -1 -16    8.62    0.57
  -2   1  16    9.71    0.57
   1  -1 -16   15.95    0.95
  -1   1  16   16.67    0.95
   0  -1 -16    6.14    0.40
  -1  -1 -16    2.59    0.24
  -1  -1 -16    3.18    0.23
  -2  -1 -16    0.21    0.11
  -2  -1 -16    0.03    0.10
  -2  -1 -16    0.08    0.07
  -3  -1 -16    4.56    0.27
   5  -2 -16    1.16    0.15
  -5   2  16    1.22    0.13
   4  -2 -16   49.04    2.86
  -4   2  16   54.87    2.86
   3  -2 -16    4.34    0.30
  -3   2  16    4.18    0.31
   2  -2 -16    7.08    0.44
   1  -2 -16    0.30    0.12
   1  -2 -16    0.26    0.09
   0  -2 -16    0.25    0.12
   0  -2 -16    0.18    0.08
   0  -2 -16    0.28    0.15
  -1  -2 -16    6.16    0.36
  -2  -2 -16    0.05    0.07
  -2  -2 -16    0.03    0.09
   4  -3 -16    0.09    0.07
   4  -3 -16    0.07    0.09
   4  -3 -16    0.02    0.10
  -4   3  16   -0.07    0.10
   3  -3 -16    7.98    0.47
   3  -3 -16    7.93    0.46
   3  -3 -16    8.41    0.53
   2  -3 -16    0.80    0.13
   2  -3 -16    1.22    0.10
   2  -3 -16    1.33    0.15
   1  -3 -16    5.30    0.36
   0  -3 -16    3.94    0.31
   0  -3 -16    4.60    0.27
   0  -3 -16    4.06    0.26
  -1  -3 -16    0.30    0.08
  -1  -3 -16    0.22    0.06
  -1  -3 -16    0.18    0.05
   3  -4 -16    0.09    0.06
   3  -4 -16    0.06    0.08
   2  -4 -16    4.57    0.31
  -1  -5  17   -0.02    0.07
   0  -5  17    0.09    0.08
   0  -5  17    0.02    0.04
   1  -5  17    0.09    0.07
   1  -5  17    0.08    0.08
   2  -5  17    0.31    0.07
   2  -5  17    0.20    0.07
  -2  -4  17   12.71    0.70
  -1  -4  17    0.58    0.12
  -1  -4  17    0.67    0.08
   0  -4  17   12.06    0.80
   1  -4  17    4.60    0.33
   1  -4  17    4.61    0.29
   1  -4  17    4.23    0.25
   2  -4  17    2.74    0.22
   2  -4  17    2.64    0.26
   2  -4  17    3.28    0.18
   3  -4  17   19.90    1.01
   3  -4  17   17.95    0.98
   3  -4  17   16.74    1.16
  -3  -3  17    0.08    0.05
  -3  -3  17    0.04    0.09
  -3  -3  17    0.05    0.07
  -2  -3  17    1.27    0.15
  -2  -3  17    1.03    0.12
  -2  -3  17    1.19    0.12
  -1  -3  17   15.21    0.83
  -1  -3  17   15.48    0.86
  -1  -3  17   14.71    0.99
   0  -3  17    0.54    0.13
   0  -3  17    0.64    0.10
   0  -3  17    0.48    0.17
   1  -3  17    5.45    0.34
   1  -3  17    5.09    0.32
   1  -3  17    4.62    0.39
   2  -3  17    5.34    0.41
   3  -3  17    0.15    0.07
   3  -3  17    0.23    0.10
  -4  -2  17    1.26    0.13
  -4  -2  17    1.55    0.13
  -3  -2  17   31.19    1.53
  -3  -2  17   24.34    1.49
  -2  -2  17    0.00    0.12
  -2  -2  17    0.00    0.09
  -2  -2  17    0.11    0.12
  -2  -2  17   -0.06    0.13
  -1  -2  17   25.14    1.45
  -1  -2  17   26.54    1.43
  -1  -2  17   26.74    1.67
   0  -2  17    4.33    0.28
   0  -2  17    3.74    0.34
   0  -2  17    3.85    0.25
   1  -2  17    0.50    0.14
   1  -2  17    0.31    0.17
   1  -2  17    0.69    0.10
   2  -2  17   10.21    0.58
   2  -2  17    9.91    0.58
  -3   2 -17    0.28    0.12
   3  -2  17    0.67    0.11
   3  -2  17    0.78    0.10
  -4   2 -17    1.29    0.13
   4  -2  17    1.52    0.11
  -4  -1  17    0.43    0.06
  -4  -1  17    0.27    0.08
  -4  -1  17    0.41    0.08
  -3  -1  17    1.43    0.13
  -3  -1  17    1.37    0.20
  -2  -1  17    0.24    0.08
  -2  -1  17    0.08    0.12
  -1  -1  17    1.86    0.20
  -1  -1  17    2.09    0.18
  -1  -1  17    2.20    0.19
   0  -1  17   36.53    2.04
   0  -1  17   38.49    2.08
   1  -1  17   39.56    2.19
  -2   1 -17    4.46    0.29
   2  -1  17    4.30    0.28
  -3   1 -17    7.83    0.48
   3  -1  17    8.45    0.47
  -5   0  17    1.70    0.14
  -5   0  17    1.46    0.11
  -3   0  17    0.07    0.09
  -3   0  17    0.04    0.08
  -2   0  17    7.35    0.43
  -2   0  17    6.45    0.43
  -1   0  17    0.43    0.14
   0   0 -17    4.72    0.34
   0   0  17    4.32    0.32
   1   0  17    3.35    0.27
  -2   0 -17   -0.02    0.10
   2   0  17   -0.07    0.13
  -3   0 -17    7.50    0.47
  -3   0 -17    6.39    0.39
  -3   0 -17    6.61    0.40
   3   0  17    7.03    0.41
   4  -1 -17    0.63    0.11
  -4   1  17    0.97    0.13
  -4   1  17    0.42    0.12
   3  -1 -17   15.86    0.95
  -3   1  17   17.28    0.94
   2  -1 -17    0.87    0.16
  -2   1  17    1.37    0.18
  -1   1  17   31.00    1.73
   0  -1 -17    6.72    0.47
   0   1  17    6.31    0.42
  -1  -1 -17    1.73    0.18
  -1  -1 -17    1.83    0.15
  -1  -1 -17    1.71    0.16
  -2  -1 -17    2.80    0.16
   4  -2 -17    1.19    0.14
   3  -2 -17    7.99    0.47
  -3   2  17    8.24    0.49
   2  -2 -17    0.19    0.10
  -2   2  17    0.04    0.12
   1  -2 -17    0.91    0.12
   1  -2 -17    0.80    0.11
   0  -2 -17    2.09    0.15
   0  -2 -17    2.06    0.18
   0  -2 -17    1.82    0.14
  -1  -2 -17    1.81    0.13
  -1  -2 -17    1.77    0.17
  -2  -2 -17   10.43    0.57
   3  -3 -17    0.59    0.08
   3  -3 -17    0.81    0.11
   2  -3 -17   15.89    0.87
   1  -3 -17    2.57    0.17
   1  -3 -17    2.00    0.18
   0  -3 -17    2.40    0.15
  -1  -4  18    8.84    0.51
  -1  -4  18    9.49    0.60
   0  -4  18    0.15    0.08
   0  -4  18    0.11    0.09
   1  -4  18    3.59    0.25
   1  -4  18    4.08    0.28
   2  -4  18    1.21    0.07
   2  -4  18    1.37    0.16
  -3  -3  18    1.52    0.11
  -2  -3  18    4.35    0.29
  -2  -3  18    3.63    0.24
  -1  -3  18    1.18    0.09
  -1  -3  18    1.33    0.12
  -1  -3  18    0.72    0.15
   0  -3  18   30.40    1.84
   0  -3  18   27.23    1.56
   0  -3  18   29.09    1.59
   1  -3  18    0.57    0.12
   1  -3  18    0.71    0.13
   1  -3  18    0.85    0.11
   2  -3  18   25.93    1.25
   2  -3  18   19.91    1.46
   3  -3  18    1.23    0.15
   3  -3  18    1.06    0.11
  -3  -2  18    0.06    0.07
  -3  -2  18    0.10    0.06
  -3  -2  18    0.05    0.04
  -2  -2  18    8.26    0.57
  -2  -2  18    9.57    0.59
  -2  -2  18    8.69    0.49
  -1  -2  18   -0.08    0.09
  -1  -2  18    0.04    0.09
  -1  -2  18    0.03    0.12
   0  -2  18    0.19    0.15
   0  -2  18    0.16    0.11
   1  -2  18    0.18    0.15
   1  -2  18    0.19    0.11
   1  -2  18    0.17    0.07
   2  -2  18    1.11    0.12
   2  -2  18    0.95    0.10
   2  -2  18    1.20    0.14
   3  -2  18    1.99    0.13
   3  -2  18    2.12    0.17
  -4  -1  18    0.03    0.04
  -4  -1  18    0.06    0.06
  -3  -1  18    0.55    0.07
  -3  -1  18    0.38    0.09
  -2  -1  18    2.92    0.23
  -2  -1  18    3.18    0.24
  -1  -1  18   15.94    0.86
  -1  -1  18   14.29    1.00
  -1  -1  18   15.69    0.86
   0  -1  18   10.08    0.57
   0  -1  18   10.04    0.66
   0  -1  18    9.62    0.57
  -1   1 -18    3.12    0.22
   1  -1  18    2.84    0.22
  -2   1 -18    0.05    0.11
   2  -1  18    0.24    0.10
  -3   1 -18    0.23    0.05
   3  -1  18    0.25    0.07
  -4   0  18    0.53    0.08
  -4   0  18    0.48    0.07
  -3   0  18   21.27    1.11
  -3   0  18   19.23    1.26
  -2   0  18    0.48    0.10
  -2   0  18    0.42    0.12
   1   0 -18    3.76    0.29
   0   0 -18    3.69    0.29
   0   0  18    4.10    0.26
   1   0  18    1.66    0.15
  -2   0 -18   18.09    1.02
  -2   0 -18   18.86    1.20
   2   0  18   18.01    1.02
  -4   1  18   11.58    0.73
   3  -1 -18    0.72    0.10
  -3   1  18    0.61    0.08
   2  -1 -18   10.44    0.60
  -2   1  18   10.11    0.60
   1  -1 -18    0.50    0.09
  -1   1  18    0.38    0.13
   0  -1 -18    7.91    0.47
   0  -1 -18    6.89    0.54
   0   1  18    8.95    0.47
  -1  -1 -18    0.75    0.10
  -1  -1 -18    0.47    0.07
  -1  -1 -18    0.60    0.08
   1   1  18    0.39    0.12
   3  -2 -18    0.03    0.07
  -3   2  18   -0.06    0.09
   2  -2 -18    0.48    0.09
   2  -2 -18    0.27    0.11
  -2   2  18    0.64    0.09
   1  -2 -18   29.14    1.70
  -1   2  18   33.12    1.72
   0  -2 -18    0.37    0.06
   0  -4  19    6.62    0.37
   0  -4  19    6.23    0.43
  -2  -3  19    0.83    0.08
  -1  -3  19    1.18    0.12
  -1  -3  19    1.15    0.12
   0  -3  19    0.05    0.04
   0  -3  19    0.02    0.06
   0  -3  19    0.04    0.11
   1  -3  19   15.89    0.85
   1  -3  19   15.04    0.98
   1  -3  19   15.08    0.83
   2  -3  19    4.06    0.29
  -2  -2  19    3.02    0.19
  -2  -2  19    3.47    0.21
  -1  -2  19    0.46    0.08
  -1  -2  19    0.75    0.09
  -1  -2  19    0.36    0.11
   0  -2  19    5.40    0.35
   0  -2  19    4.53    0.29
   1  -2  19    0.00    0.09
   1  -2  19    0.00    0.09
   2  -2  19    4.26    0.30
  -3  -1  19    1.76    0.13
  -3  -1  19    1.34    0.10
  -2  -1  19   16.37    1.17
  -2  -1  19   21.56    1.04
  -1  -1  19    0.10    0.10
   0  -1  19   16.33    1.09
   0  -1  19   17.67    0.94
  -1   1 -19    0.94    0.11
   1  -1  19    1.00    0.09
   1  -1  19    0.83    0.12
   1  -1  19    0.84    0.10
  -2   1 -19    1.49    0.13
   2  -1  19    1.51    0.11
   2  -1  19    1.00    0.15
  -3   0  19    3.54    0.25
  -2   0  19    1.51    0.11
  -2   0  19    1.38    0.13
   1   0 -19    2.65    0.19
  -1   0  19    2.53    0.18
   0   0 -19    0.03    0.07
   0   0  19    0.06    0.09
  -1   0 -19    7.72    0.42
   1   0  19    6.73    0.42
   1   0  19    6.93    0.47
  -3   1  19   14.04    0.88
   2  -1 -19    0.07    0.06
  -2   1  19    0.04    0.05
   1  -1 -19   14.64    0.92
  -1   1  19   18.42    0.92
   0  -1 -19    0.13    0.07
   0   1  19    0.03    0.09
  -1  -2  20    1.92    0.12
   0  -2  20    0.03    0.04
  -1  -1  20    8.68    0.48
   0   0   0    0.00    0.00
;
_shelx_hkl_checksum   50509

