 
data_x14381 
 
_audit_creation_method            SHELXL-2014/6 
# CIF edited on-the-fly by script CIFFIX (S. Parkin, 2000-2014). 
# CIFFIX: http://xray.uky.edu/people/parkin/programs/ciffix 
 
_publ_section_exptl_refinement 
; 
H atoms were found in difference Fourier maps, but subsequently included 
in the refinement using riding models, with constrained distances set to 
0.95 %A (C~sp2~H), 0.98 %A (RCH~3~), 0.99 %A (R~2~CH~2~) and 1.00 %A (R~3~CH). 
U~iso~(H) parameters were set to values of either 1.2U~eq~ or 1.5U~eq~ 
(RCH~3~ only) of the attached atom. 
 
To ensure satisfactory refinement of disordered groups in the structure, 
a combination of constraints and restraints were employed. The constraints 
(SHELXL commands EXYZ and EADP) were used to fix overlapping fragments. 
Restraints were used to maintain the integrity of ill-defined or disordered 
groups (SHELXL commands SAME and RIGU). 
; 
 
_publ_section_references 
; 
Bruker-AXS (2006). 
  <i>APEX2</i> Bruker-AXS Inc., Madison, Wisconsin, USA. 
 
Hope, H. (1994). 
  <i>Prog. Inorg. Chem.</i> <b>41</b>, 1--19. 
 
Parkin, S. & Hope, H. (1998). 
  <i>J. Appl. Cryst.</i> <b>31</b>, 945--953. 
 
Parkin, S. (2000). 
  <i>Acta Cryst.</i> A<b>56</b>, 157--162. 
 
Parkin, S. (2013). 
  <i>CIFFIX</i>, http://xray.uky.edu/people/parkin/programs/ciffix 
 
Sheldrick, G.M. (2008a). 
  <i>Acta Cryst.</i> A<b>64</b>, 112--122. 
 
Sheldrick, G.M. (2008b). 
  <i>SADABS</i> University of G\"ottingen, Germany. 
 
Spek, A.L. (2009). 
  <i>Acta Cryst.</i> D<b>65</b>, 148--155. 
; 
 
_chemical_name_systematic         ? 
_chemical_name_common             ? 
_chemical_melting_point           ? 
_chemical_formula_moiety          'C38 H40 F2 S2 Si2' 
_chemical_formula_sum             'C38 H40 F2 S2 Si2' 
_chemical_formula_weight          655.00 
 
loop_ 
 _atom_type_symbol 
 _atom_type_description 
 _atom_type_scat_dispersion_real 
 _atom_type_scat_dispersion_imag 
 _atom_type_scat_source 
 'C'  'C'   0.0181   0.0091 
 'International Tables Vol C Tables 4.2.6.8 and 6.1.1.4' 
 'H'  'H'   0.0000   0.0000 
 'International Tables Vol C Tables 4.2.6.8 and 6.1.1.4' 
 'F'  'F'   0.0727   0.0534 
 'International Tables Vol C Tables 4.2.6.8 and 6.1.1.4' 
 'Si'  'Si'   0.2541   0.3302 
 'International Tables Vol C Tables 4.2.6.8 and 6.1.1.4' 
 'S'  'S'   0.3331   0.5567 
 'International Tables Vol C Tables 4.2.6.8 and 6.1.1.4' 
 
_space_group_crystal_system       monoclinic 
_space_group_IT_number            14 
_space_group_name_H-M_alt         'P 21/c' 
_space_group_name_Hall            '-P 2ybc' 
 
_shelx_space_group_comment 
; 
The symmetry employed for this shelxl refinement is uniquely defined 
by the following loop, which should always be used as a source of 
symmetry information in preference to the above space-group names. 
They are only intended as comments. 
; 
 
loop_ 
 _space_group_symop_operation_xyz 
 'x, y, z' 
 '-x, y+1/2, -z+1/2' 
 '-x, -y, -z' 
 'x, -y-1/2, z-1/2' 
 
_cell_length_a                    15.5490(5) 
_cell_length_b                    6.8561(2) 
_cell_length_c                    15.4245(5) 
_cell_angle_alpha                 90 
_cell_angle_beta                  98.125(1) 
_cell_angle_gamma                 90 
_cell_volume                      1627.83(9) 
_cell_formula_units_Z             2 
_cell_measurement_temperature     90.0(2) 
_cell_measurement_reflns_used     9858 
_cell_measurement_theta_min       2.87 
_cell_measurement_theta_max       68.26 
 
_exptl_crystal_description        plate 
_exptl_crystal_colour             orange 
_exptl_crystal_density_meas       ? 
_exptl_crystal_density_method     ? 
_exptl_crystal_density_diffrn     1.336 
_exptl_crystal_F_000              692 
_exptl_transmission_factor_min    ? 
_exptl_transmission_factor_max    ? 
_exptl_crystal_size_max           0.210 
_exptl_crystal_size_mid           0.140 
_exptl_crystal_size_min           0.020 
_exptl_absorpt_coefficient_mu     2.496 
_shelx_estimated_absorpt_T_min    0.622 
_shelx_estimated_absorpt_T_max    0.952 
_exptl_absorpt_correction_type    multi-scan 
_exptl_absorpt_correction_T_min   0.753 
_exptl_absorpt_correction_T_max   0.907 
_exptl_absorpt_process_details    '<i>SADABS</i> (Sheldrick, 2008b)' 
_exptl_absorpt_special_details    ? 
_diffrn_ambient_temperature       90.0(2) 
_diffrn_radiation_wavelength      1.54178 
_diffrn_radiation_type            CuK\a 
_diffrn_source                    'fine-focus rotating anode' 
_diffrn_measurement_device_type   'Bruker X8 Proteum diffractometer' 
_diffrn_measurement_method        '\f and \w scans' 
_diffrn_detector_area_resol_mean  5.6 
_diffrn_reflns_number             20729 
_diffrn_reflns_av_unetI/netI      0.0293 
_diffrn_reflns_av_R_equivalents   0.0512 
_diffrn_reflns_limit_h_min        -18 
_diffrn_reflns_limit_h_max        18 
_diffrn_reflns_limit_k_min        -5 
_diffrn_reflns_limit_k_max        8 
_diffrn_reflns_limit_l_min        -16 
_diffrn_reflns_limit_l_max        18 
_diffrn_reflns_theta_min          2.871 
_diffrn_reflns_theta_max          68.456 
_diffrn_reflns_theta_full         67.679 
_diffrn_measured_fraction_theta_max                0.989 
_diffrn_measured_fraction_theta_full               0.995 
_diffrn_reflns_Laue_measured_fraction_max          0.989 
_diffrn_reflns_Laue_measured_fraction_full         0.995 
_diffrn_reflns_point_group_measured_fraction_max   0.989 
_diffrn_reflns_point_group_measured_fraction_full  0.995 
 
_reflns_number_total              2966 
_reflns_number_gt                 2771 
_reflns_threshold_expression      'I > 2\s(I)' 
_reflns_Friedel_coverage          0.000 
_reflns_Friedel_fraction_max      . 
_reflns_Friedel_fraction_full     . 
 
_reflns_special_details 
; 
Reflections were merged by SHELXL according to the crystal 
class for the calculation of statistics and refinement. 
 
_reflns_Friedel_fraction is defined as the number of unique 
Friedel pairs measured divided by the number that would be 
possible theoretically, ignoring centric projections and 
systematic absences. 
; 
 
_computing_data_collection        '<i>APEX2</i> (Bruker-AXS, 2006)' 
_computing_cell_refinement        '<i>APEX2</i> (Bruker-AXS, 2006)' 
_computing_data_reduction         '<i>APEX2</i> (Bruker-AXS, 2006)' 
_computing_structure_solution     '<i>SHELXS-97</i> (Sheldrick, 2008a)' 
_computing_structure_refinement   '<i>SHELXL-2014/6</i> (Sheldrick, 2008a)' 
_computing_molecular_graphics     '<i>XP in SHELXTL</i> (Sheldrick, 2008a)' 
_computing_publication_material 
'<i>SHELX</i> (Sheldrick, 2008a) and <i>CIFFIX</i> (Parkin, 2013)' 
_refine_special_details 
; 
Refinement progress was checked using <i>Platon</i> (Spek, 2009) and by 
an <i>R</i>-tensor (Parkin, 2000). The final model was further checked 
with the IUCr utility <i>checkCIF</i>. 
; 
_refine_ls_structure_factor_coef  Fsqd 
_refine_ls_matrix_type            full 
_refine_ls_weighting_scheme       calc 
_refine_ls_weighting_details 
'w=1/[\s^2^(Fo^2^)+(0.0622P)^2^+0.7557P] where P=(Fo^2^+2Fc^2^)/3' 
_atom_sites_solution_primary      direct 
_atom_sites_solution_secondary    difmap 
_atom_sites_solution_hydrogens    difmap 
_refine_ls_hydrogen_treatment     constr 
_refine_ls_extinction_method      none 
_refine_ls_extinction_coef        . 
_refine_ls_number_reflns          2966 
_refine_ls_number_parameters      214 
_refine_ls_number_restraints      13 
_refine_ls_R_factor_all           0.0384 
_refine_ls_R_factor_gt            0.0365 
_refine_ls_wR_factor_ref          0.1067 
_refine_ls_wR_factor_gt           0.1046 
_refine_ls_goodness_of_fit_ref    1.078 
_refine_ls_restrained_S_all       1.076 
_refine_ls_shift/su_max           0.001 
_refine_ls_shift/su_mean          0.000 
 
loop_ 
 _atom_site_label 
 _atom_site_type_symbol 
 _atom_site_fract_x 
 _atom_site_fract_y 
 _atom_site_fract_z 
 _atom_site_U_iso_or_equiv 
 _atom_site_adp_type 
 _atom_site_occupancy 
 _atom_site_site_symmetry_order 
 _atom_site_calc_flag 
 _atom_site_refinement_flags_posn 
 _atom_site_refinement_flags_adp 
 _atom_site_refinement_flags_occupancy 
 _atom_site_disorder_assembly 
 _atom_site_disorder_group 
Si1 Si 0.86542(2) 0.41668(6) 0.65695(2) 0.01639(15) Uani 1 1 d . . . . . 
C1 C 0.59040(9) 0.49291(19) 0.53114(10) 0.0147(3) Uani 1 1 d . . . . . 
C2 C 0.56204(10) 0.49624(19) 0.43985(10) 0.0154(3) Uani 1 1 d . . . . . 
C3 C 0.62198(10) 0.4943(2) 0.37819(10) 0.0169(3) Uani 1 1 d . . . . . 
H3 H 0.6826 0.4903 0.3981 0.020 Uiso 1 1 calc R U . A 1 
C4 C 0.59261(10) 0.49802(19) 0.29035(10) 0.0170(3) Uani 0.5055(19) 1 d D . P B 1 
S5 S 0.65589(10) 0.4994(3) 0.20518(9) 0.0189(3) Uani 0.5055(19) 1 d D . P B 1 
C6 C 0.5606(3) 0.5036(14) 0.1305(4) 0.0147(11) Uani 0.5055(19) 1 d D . P B 1 
F1 F 0.57287(17) 0.5088(4) 0.04600(18) 0.0257(5) Uani 0.5055(19) 1 d D . P B 1 
C7 C 0.4847(6) 0.5062(14) 0.1647(5) 0.0180(3) Uani 0.5055(19) 1 d D . P B 1 
H7 H 0.4286 0.5106 0.1310 0.022 Uiso 0.5055(19) 1 calc R U P B 1 
C8 C 0.50102(11) 0.50160(19) 0.25899(10) 0.0167(3) Uani 0.5055(19) 1 d D . P B 1 
C4' C 0.59261(10) 0.49802(19) 0.29035(10) 0.0170(3) Uani 0.4945(19) 1 d D . P B  
2 
C5' C 0.6427(5) 0.4971(13) 0.2199(5) 0.0189(3) Uani 0.4945(19) 1 d D . P B 2 
H5' H 0.7043 0.4939 0.2265 0.023 Uiso 0.4945(19) 1 calc R U P B 2 
F1' F 0.61243(18) 0.5011(4) 0.06062(18) 0.0257(5) Uani 0.4945(19) 1 d D . P B 2 
C6' C 0.5889(3) 0.5015(15) 0.1406(4) 0.0147(11) Uani 0.4945(19) 1 d D . P B 2 
S7' S 0.47681(13) 0.5029(3) 0.14586(7) 0.0180(3) Uani 0.4945(19) 1 d D . P B 2 
C8' C 0.50102(11) 0.50160(19) 0.25899(10) 0.0167(3) Uani 0.4945(19) 1 d D . P B  
2 
C9 C 0.44194(10) 0.50359(19) 0.31654(10) 0.0163(3) Uani 1 1 d . . . . . 
H9 H 0.3816 0.5058 0.2952 0.020 Uiso 1 1 calc R U . B 1 
C10 C 0.47023(10) 0.50231(18) 0.40825(10) 0.0148(3) Uani 1 1 d . . . . . 
C11 C 0.68080(10) 0.4793(2) 0.56474(10) 0.0163(3) Uani 1 1 d . . . . . 
C12 C 0.75561(10) 0.4612(2) 0.59806(10) 0.0184(3) Uani 1 1 d . . . . . 
C13 C 0.86558(10) 0.4748(2) 0.77577(10) 0.0178(3) Uani 1 1 d . . . . . 
H13 H 0.9259 0.4490 0.8056 0.021 Uiso 1 1 calc R U . . . 
C14 C 0.80502(10) 0.3425(2) 0.82030(10) 0.0217(3) Uani 1 1 d . . . . . 
H14A H 0.7445 0.3600 0.7914 0.026 Uiso 1 1 calc R U . . . 
H14B H 0.8214 0.2045 0.8131 0.026 Uiso 1 1 calc R U . . . 
C15 C 0.80995(12) 0.3885(2) 0.91746(11) 0.0283(4) Uani 1 1 d . . . . . 
H15A H 0.7683 0.3049 0.9433 0.034 Uiso 1 1 calc R U . . . 
H15B H 0.8690 0.3586 0.9475 0.034 Uiso 1 1 calc R U . . . 
C16 C 0.78917(12) 0.6020(2) 0.93232(11) 0.0277(4) Uani 1 1 d . . . . . 
H16A H 0.7283 0.6294 0.9069 0.033 Uiso 1 1 calc R U . . . 
H16B H 0.7953 0.6287 0.9960 0.033 Uiso 1 1 calc R U . . . 
C17 C 0.84998(11) 0.7345(2) 0.89023(11) 0.0248(3) Uani 1 1 d . . . . . 
H17A H 0.9102 0.7165 0.9200 0.030 Uiso 1 1 calc R U . . . 
H17B H 0.8334 0.8722 0.8978 0.030 Uiso 1 1 calc R U . . . 
C18 C 0.84654(10) 0.6904(2) 0.79259(10) 0.0229(3) Uani 1 1 d . . . . . 
H18A H 0.8896 0.7729 0.7683 0.027 Uiso 1 1 calc R U . . . 
H18B H 0.7882 0.7241 0.7618 0.027 Uiso 1 1 calc R U . . . 
C19 C 0.94532(10) 0.5730(2) 0.60924(11) 0.0233(3) Uani 1 1 d . . . . . 
H19A H 0.9440 0.5409 0.5471 0.035 Uiso 1 1 calc R U . . . 
H19B H 1.0038 0.5494 0.6405 0.035 Uiso 1 1 calc R U . . . 
H19C H 0.9301 0.7106 0.6150 0.035 Uiso 1 1 calc R U . . . 
C20 C 0.89328(10) 0.1528(2) 0.64754(10) 0.0230(3) Uani 1 1 d . . . . . 
H20A H 0.8423 0.0729 0.6539 0.035 Uiso 1 1 calc R U . . . 
H20B H 0.9409 0.1188 0.6937 0.035 Uiso 1 1 calc R U . . . 
H20C H 0.9112 0.1285 0.5901 0.035 Uiso 1 1 calc R U . . . 
 
loop_ 
 _atom_site_aniso_label 
 _atom_site_aniso_U_11 
 _atom_site_aniso_U_22 
 _atom_site_aniso_U_33 
 _atom_site_aniso_U_23 
 _atom_site_aniso_U_13 
 _atom_site_aniso_U_12 
Si1 0.0129(2) 0.0191(2) 0.0168(2) 0.00111(15) 0.00095(16) 0.00083(14) 
C1 0.0154(7) 0.0121(7) 0.0165(8) -0.0004(5) 0.0012(6) 0.0009(5) 
C2 0.0163(8) 0.0124(7) 0.0176(8) -0.0001(5) 0.0027(6) 0.0010(5) 
C3 0.0151(7) 0.0172(8) 0.0184(8) -0.0003(5) 0.0021(6) 0.0006(5) 
C4 0.0190(8) 0.0121(7) 0.0204(8) -0.0005(5) 0.0047(6) 0.0004(5) 
S5 0.0231(7) 0.0221(4) 0.0129(7) 0.0001(4) 0.0066(4) 0.0004(4) 
C6 0.013(3) 0.0184(9) 0.0127(15) -0.0008(11) 0.002(2) -0.002(3) 
F1 0.0319(15) 0.0317(7) 0.0147(9) 0.0015(6) 0.0070(11) 0.0015(12) 
C7 0.0220(6) 0.0196(4) 0.0127(7) 0.0002(5) 0.0033(6) 0.0007(3) 
C8 0.0194(8) 0.0126(7) 0.0177(8) -0.0003(5) 0.0012(6) 0.0007(5) 
C4' 0.0190(8) 0.0121(7) 0.0204(8) -0.0005(5) 0.0047(6) 0.0004(5) 
C5' 0.0231(7) 0.0221(4) 0.0129(7) 0.0001(4) 0.0066(4) 0.0004(4) 
F1' 0.0319(15) 0.0317(7) 0.0147(9) 0.0015(6) 0.0070(11) 0.0015(12) 
C6' 0.013(3) 0.0184(9) 0.0127(15) -0.0008(11) 0.002(2) -0.002(3) 
S7' 0.0220(6) 0.0196(4) 0.0127(7) 0.0002(5) 0.0033(6) 0.0007(3) 
C8' 0.0194(8) 0.0126(7) 0.0177(8) -0.0003(5) 0.0012(6) 0.0007(5) 
C9 0.0167(8) 0.0143(7) 0.0172(8) 0.0000(5) 0.0002(6) 0.0006(5) 
C10 0.0165(8) 0.0110(7) 0.0165(7) -0.0001(5) 0.0009(6) 0.0011(5) 
C11 0.0175(8) 0.0152(7) 0.0165(7) -0.0002(5) 0.0039(6) 0.0000(5) 
C12 0.0194(8) 0.0195(7) 0.0167(7) 0.0000(6) 0.0038(6) 0.0009(6) 
C13 0.0151(7) 0.0180(7) 0.0197(8) 0.0013(6) 0.0000(6) -0.0004(6) 
C14 0.0243(8) 0.0194(8) 0.0217(8) 0.0015(6) 0.0038(6) -0.0024(6) 
C15 0.0375(10) 0.0262(9) 0.0224(8) 0.0026(7) 0.0082(7) -0.0071(7) 
C16 0.0313(9) 0.0294(9) 0.0238(8) -0.0043(7) 0.0086(7) -0.0031(7) 
C17 0.0281(8) 0.0201(8) 0.0266(8) -0.0042(7) 0.0055(6) -0.0013(6) 
C18 0.0265(8) 0.0186(8) 0.0236(8) 0.0018(6) 0.0039(6) -0.0015(6) 
C19 0.0181(8) 0.0289(9) 0.0231(8) 0.0035(7) 0.0033(6) 0.0001(6) 
C20 0.0209(8) 0.0241(8) 0.0236(8) -0.0001(6) 0.0016(6) 0.0033(6) 
 
_geom_special_details 
; 
 All esds (except the esd in the dihedral angle between two l.s. planes) 
 are estimated using the full covariance matrix.  The cell esds are taken 
 into account individually in the estimation of esds in distances, angles 
 and torsion angles; correlations between esds in cell parameters are only 
 used when they are defined by crystal symmetry.  An approximate (isotropic) 
 treatment of cell esds is used for estimating esds involving l.s. planes. 
; 
 
loop_ 
 _geom_bond_atom_site_label_1 
 _geom_bond_atom_site_label_2 
 _geom_bond_distance 
 _geom_bond_site_symmetry_2 
 _geom_bond_publ_flag 
Si1 C12 1.8427(16) . ? 
Si1 C19 1.8686(16) . ? 
Si1 C20 1.8706(16) . ? 
Si1 C13 1.8752(16) . ? 
C1 C2 1.415(2) . ? 
C1 C10 1.419(2) 3_666 ? 
C1 C11 1.431(2) . ? 
C2 C3 1.423(2) . ? 
C2 C10 1.442(2) . ? 
C3 C4' 1.367(2) . ? 
C3 C4 1.367(2) . ? 
C3 H3 0.9500 . ? 
C4 C8 1.438(2) . ? 
C4 S5 1.7493(17) . ? 
S5 C6 1.743(5) . ? 
C6 F1 1.344(7) . ? 
C6 C7 1.360(10) . ? 
C7 C8 1.442(7) . ? 
C7 H7 0.9500 . ? 
C8 C9 1.365(2) . ? 
C4' C5' 1.423(7) . ? 
C4' C8' 1.438(2) . ? 
C5' C6' 1.381(10) . ? 
C5' H5' 0.9500 . ? 
F1' C6' 1.335(7) . ? 
C6' S7' 1.756(6) . ? 
S7' C8' 1.7324(19) . ? 
C8' C9 1.365(2) . ? 
C9 C10 1.421(2) . ? 
C9 H9 0.9500 . ? 
C10 C1 1.419(2) 3_666 ? 
C11 C12 1.210(2) . ? 
C13 C18 1.537(2) . ? 
C13 C14 1.538(2) . ? 
C13 H13 1.0000 . ? 
C14 C15 1.523(2) . ? 
C14 H14A 0.9900 . ? 
C14 H14B 0.9900 . ? 
C15 C16 1.523(2) . ? 
C15 H15A 0.9900 . ? 
C15 H15B 0.9900 . ? 
C16 C17 1.521(2) . ? 
C16 H16A 0.9900 . ? 
C16 H16B 0.9900 . ? 
C17 C18 1.530(2) . ? 
C17 H17A 0.9900 . ? 
C17 H17B 0.9900 . ? 
C18 H18A 0.9900 . ? 
C18 H18B 0.9900 . ? 
C19 H19A 0.9800 . ? 
C19 H19B 0.9800 . ? 
C19 H19C 0.9800 . ? 
C20 H20A 0.9800 . ? 
C20 H20B 0.9800 . ? 
C20 H20C 0.9800 . ? 
 
loop_ 
 _geom_angle_atom_site_label_1 
 _geom_angle_atom_site_label_2 
 _geom_angle_atom_site_label_3 
 _geom_angle 
 _geom_angle_site_symmetry_1 
 _geom_angle_site_symmetry_3 
 _geom_angle_publ_flag 
C12 Si1 C19 109.41(7) . . ? 
C12 Si1 C20 109.29(7) . . ? 
C19 Si1 C20 110.49(7) . . ? 
C12 Si1 C13 108.64(7) . . ? 
C19 Si1 C13 110.72(7) . . ? 
C20 Si1 C13 108.25(7) . . ? 
C2 C1 C10 120.84(14) . 3_666 ? 
C2 C1 C11 120.90(14) . . ? 
C10 C1 C11 118.24(14) 3_666 . ? 
C1 C2 C3 121.58(14) . . ? 
C1 C2 C10 119.42(14) . . ? 
C3 C2 C10 119.01(14) . . ? 
C4' C3 C2 120.24(14) . . ? 
C4 C3 C2 120.24(14) . . ? 
C4 C3 H3 119.9 . . ? 
C2 C3 H3 119.9 . . ? 
C3 C4 C8 120.65(14) . . ? 
C3 C4 S5 126.85(13) . . ? 
C8 C4 S5 112.50(13) . . ? 
C6 S5 C4 88.9(2) . . ? 
F1 C6 C7 128.7(5) . . ? 
F1 C6 S5 114.7(4) . . ? 
C7 C6 S5 116.6(5) . . ? 
C6 C7 C8 110.6(7) . . ? 
C6 C7 H7 124.7 . . ? 
C8 C7 H7 124.7 . . ? 
C9 C8 C4 120.47(14) . . ? 
C9 C8 C7 128.1(4) . . ? 
C4 C8 C7 111.4(4) . . ? 
C3 C4' C5' 127.9(4) . . ? 
C3 C4' C8' 120.65(14) . . ? 
C5' C4' C8' 111.4(4) . . ? 
C6' C5' C4' 110.4(6) . . ? 
C6' C5' H5' 124.8 . . ? 
C4' C5' H5' 124.8 . . ? 
F1' C6' C5' 127.4(5) . . ? 
F1' C6' S7' 116.5(4) . . ? 
C5' C6' S7' 116.1(5) . . ? 
C8' S7' C6' 88.3(2) . . ? 
C9 C8' C4' 120.47(14) . . ? 
C9 C8' S7' 125.78(14) . . ? 
C4' C8' S7' 113.76(14) . . ? 
C8' C9 C10 120.35(14) . . ? 
C8 C9 C10 120.35(14) . . ? 
C8 C9 H9 119.8 . . ? 
C10 C9 H9 119.8 . . ? 
C1 C10 C9 120.99(14) 3_666 . ? 
C1 C10 C2 119.73(14) 3_666 . ? 
C9 C10 C2 119.28(14) . . ? 
C12 C11 C1 175.49(16) . . ? 
C11 C12 Si1 174.15(14) . . ? 
C18 C13 C14 110.33(12) . . ? 
C18 C13 Si1 113.33(10) . . ? 
C14 C13 Si1 113.25(10) . . ? 
C18 C13 H13 106.5 . . ? 
C14 C13 H13 106.5 . . ? 
Si1 C13 H13 106.5 . . ? 
C15 C14 C13 111.61(13) . . ? 
C15 C14 H14A 109.3 . . ? 
C13 C14 H14A 109.3 . . ? 
C15 C14 H14B 109.3 . . ? 
C13 C14 H14B 109.3 . . ? 
H14A C14 H14B 108.0 . . ? 
C16 C15 C14 111.42(14) . . ? 
C16 C15 H15A 109.3 . . ? 
C14 C15 H15A 109.3 . . ? 
C16 C15 H15B 109.3 . . ? 
C14 C15 H15B 109.3 . . ? 
H15A C15 H15B 108.0 . . ? 
C17 C16 C15 110.60(14) . . ? 
C17 C16 H16A 109.5 . . ? 
C15 C16 H16A 109.5 . . ? 
C17 C16 H16B 109.5 . . ? 
C15 C16 H16B 109.5 . . ? 
H16A C16 H16B 108.1 . . ? 
C16 C17 C18 111.39(13) . . ? 
C16 C17 H17A 109.3 . . ? 
C18 C17 H17A 109.3 . . ? 
C16 C17 H17B 109.3 . . ? 
C18 C17 H17B 109.3 . . ? 
H17A C17 H17B 108.0 . . ? 
C17 C18 C13 112.06(13) . . ? 
C17 C18 H18A 109.2 . . ? 
C13 C18 H18A 109.2 . . ? 
C17 C18 H18B 109.2 . . ? 
C13 C18 H18B 109.2 . . ? 
H18A C18 H18B 107.9 . . ? 
Si1 C19 H19A 109.5 . . ? 
Si1 C19 H19B 109.5 . . ? 
H19A C19 H19B 109.5 . . ? 
Si1 C19 H19C 109.5 . . ? 
H19A C19 H19C 109.5 . . ? 
H19B C19 H19C 109.5 . . ? 
Si1 C20 H20A 109.5 . . ? 
Si1 C20 H20B 109.5 . . ? 
H20A C20 H20B 109.5 . . ? 
Si1 C20 H20C 109.5 . . ? 
H20A C20 H20C 109.5 . . ? 
H20B C20 H20C 109.5 . . ? 
 
loop_ 
 _geom_torsion_atom_site_label_1 
 _geom_torsion_atom_site_label_2 
 _geom_torsion_atom_site_label_3 
 _geom_torsion_atom_site_label_4 
 _geom_torsion 
 _geom_torsion_site_symmetry_1 
 _geom_torsion_site_symmetry_2 
 _geom_torsion_site_symmetry_3 
 _geom_torsion_site_symmetry_4 
 _geom_torsion_publ_flag 
C10 C1 C2 C3 179.11(12) 3_666 . . . ? 
C11 C1 C2 C3 -2.6(2) . . . . ? 
C10 C1 C2 C10 -0.7(2) 3_666 . . . ? 
C11 C1 C2 C10 177.58(12) . . . . ? 
C1 C2 C3 C4' -179.85(12) . . . . ? 
C10 C2 C3 C4' -0.02(19) . . . . ? 
C1 C2 C3 C4 -179.85(12) . . . . ? 
C10 C2 C3 C4 -0.02(19) . . . . ? 
C2 C3 C4 C8 -0.8(2) . . . . ? 
C2 C3 C4 S5 179.16(12) . . . . ? 
C3 C4 S5 C6 179.8(3) . . . . ? 
C8 C4 S5 C6 -0.2(3) . . . . ? 
C4 S5 C6 F1 179.1(6) . . . . ? 
C4 S5 C6 C7 0.7(8) . . . . ? 
F1 C6 C7 C8 -179.1(8) . . . . ? 
S5 C6 C7 C8 -1.0(10) . . . . ? 
C3 C4 C8 C9 0.8(2) . . . . ? 
S5 C4 C8 C9 -179.17(12) . . . . ? 
C3 C4 C8 C7 179.7(4) . . . . ? 
S5 C4 C8 C7 -0.2(4) . . . . ? 
C6 C7 C8 C9 179.6(5) . . . . ? 
C6 C7 C8 C4 0.7(9) . . . . ? 
C2 C3 C4' C5' 179.9(5) . . . . ? 
C2 C3 C4' C8' -0.8(2) . . . . ? 
C3 C4' C5' C6' 179.9(5) . . . . ? 
C8' C4' C5' C6' 0.5(8) . . . . ? 
C4' C5' C6' F1' -179.6(8) . . . . ? 
C4' C5' C6' S7' -1.0(10) . . . . ? 
F1' C6' S7' C8' 179.7(7) . . . . ? 
C5' C6' S7' C8' 0.9(7) . . . . ? 
C3 C4' C8' C9 0.8(2) . . . . ? 
C5' C4' C8' C9 -179.8(4) . . . . ? 
C3 C4' C8' S7' -179.22(13) . . . . ? 
C5' C4' C8' S7' 0.2(4) . . . . ? 
C6' S7' C8' C9 179.4(3) . . . . ? 
C6' S7' C8' C4' -0.6(3) . . . . ? 
C4' C8' C9 C10 0.1(2) . . . . ? 
S7' C8' C9 C10 -179.96(13) . . . . ? 
C4 C8 C9 C10 0.1(2) . . . . ? 
C7 C8 C9 C10 -178.7(5) . . . . ? 
C8' C9 C10 C1 179.11(13) . . . 3_666 ? 
C8 C9 C10 C1 179.11(13) . . . 3_666 ? 
C8' C9 C10 C2 -0.82(19) . . . . ? 
C8 C9 C10 C2 -0.82(19) . . . . ? 
C1 C2 C10 C1 0.7(2) . . . 3_666 ? 
C3 C2 C10 C1 -179.13(12) . . . 3_666 ? 
C1 C2 C10 C9 -179.35(12) . . . . ? 
C3 C2 C10 C9 0.81(19) . . . . ? 
C12 Si1 C13 C18 -63.39(12) . . . . ? 
C19 Si1 C13 C18 56.78(12) . . . . ? 
C20 Si1 C13 C18 178.03(10) . . . . ? 
C12 Si1 C13 C14 63.27(12) . . . . ? 
C19 Si1 C13 C14 -176.56(10) . . . . ? 
C20 Si1 C13 C14 -55.31(12) . . . . ? 
C18 C13 C14 C15 -54.23(17) . . . . ? 
Si1 C13 C14 C15 177.54(11) . . . . ? 
C13 C14 C15 C16 56.48(18) . . . . ? 
C14 C15 C16 C17 -56.84(19) . . . . ? 
C15 C16 C17 C18 55.97(18) . . . . ? 
C16 C17 C18 C13 -55.14(18) . . . . ? 
C14 C13 C18 C17 53.64(17) . . . . ? 
Si1 C13 C18 C17 -178.18(10) . . . . ? 
 
_refine_diff_density_max    0.349 
_refine_diff_density_min   -0.307 
_refine_diff_density_rms    0.057 
 
_shelxl_version_number 2014/6 
 
_iucr_refine_instructions_details 
; 
TITL x14381t_a.res in P2(1)/c 
CELL  1.54178  15.5490   6.8561  15.4245   90.000   98.125   90.000 
ZERR    2.000   0.0005   0.0002   0.0005    0.000    0.001    0.000 
LATT  1 
SYMM -X, 1/2+Y, 1/2-Z 
SFAC C H F SI S 
UNIT 76 80 4 4 4 
TEMP -183.000 
SIZE 0.21 0.14 0.02 
REM FORM plate 
REM COLR orange 
L.S. 8 
BOND $H 
CONF 
ACTA 
LIST 4 
FMAP 2 
PLAN 10 
REM EXTI    0.000399 (SU = 0.00019, not significant) 
WGHT    0.062200    0.755700 
FVAR       0.12271   0.50551 
SI1   4    0.865425    0.416680    0.656952    11.00000    0.01294    0.01907 = 
         0.01683    0.00111    0.00095    0.00083 
C1    1    0.590397    0.492914    0.531141    11.00000    0.01537    0.01206 = 
         0.01650   -0.00040    0.00124    0.00093 
C2    1    0.562036    0.496235    0.439853    11.00000    0.01634    0.01243 = 
         0.01763   -0.00006    0.00269    0.00104 
C3    1    0.621977    0.494261    0.378188    11.00000    0.01513    0.01723 = 
         0.01839   -0.00034    0.00208    0.00061 
AFIX  43 
H3    2    0.682625    0.490315    0.398105    11.00000   -1.20000 
AFIX   0 
EXYZ C4 c4' 
EXYZ C8 C8' 
EADP C4 C4' 
EADP S5 C5' 
EADP C6 C6' 
EADP F1 F1' 
EADP C7 S7' 
EADP C8 C8' 
SAME C8' < C4' 
REM RIGU C4 > C8' 
PART 1 
C4    1    0.592607    0.498023    0.290355    21.00000    0.01900    0.01207 = 
         0.02040   -0.00048    0.00468    0.00038 
S5    5    0.655892    0.499402    0.205178    21.00000    0.02309    0.02207 = 
         0.01285    0.00014    0.00665    0.00039 
C6    1    0.560636    0.503592    0.130507    21.00000    0.01281    0.01843 = 
         0.01268   -0.00082    0.00164   -0.00152 
F1    3    0.572868    0.508780    0.046004    21.00000    0.03194    0.03169 = 
         0.01467    0.00153    0.00699    0.00151 
C7    1    0.484674    0.506243    0.164661    21.00000    0.02205    0.01956 = 
         0.01270    0.00021    0.00326    0.00069 
AFIX  43 
H7    2    0.428597    0.510557    0.131020    21.00000   -1.20000 
AFIX   0 
C8    1    0.501021    0.501602    0.258991    21.00000    0.01941    0.01260 = 
         0.01773   -0.00032    0.00118    0.00072 
PART 2 
C4'   1    0.592607    0.498023    0.290355   -21.00000    0.01900    0.01207 = 
         0.02040   -0.00048    0.00468    0.00038 
C5'   1    0.642651    0.497112    0.219885   -21.00000    0.02309    0.02207 = 
         0.01285    0.00014    0.00665    0.00039 
AFIX  43 
H5'   2    0.704312    0.493922    0.226472   -21.00000   -1.20000 
AFIX   0 
F1'   3    0.612429    0.501148    0.060621   -21.00000    0.03194    0.03169 = 
         0.01467    0.00153    0.00699    0.00151 
C6'   1    0.588865    0.501525    0.140571   -21.00000    0.01281    0.01843 = 
         0.01268   -0.00082    0.00164   -0.00152 
S7'   5    0.476809    0.502941    0.145858   -21.00000    0.02205    0.01956 = 
         0.01270    0.00021    0.00326    0.00069 
C8'   1    0.501021    0.501602    0.258991   -21.00000    0.01941    0.01260 = 
         0.01773   -0.00032    0.00118    0.00072 
PART 0 
C9    1    0.441937    0.503591    0.316536    11.00000    0.01673    0.01434 = 
         0.01717    0.00004    0.00023    0.00057 
AFIX  43 
H9    2    0.381571    0.505848    0.295159    11.00000   -1.20000 
AFIX   0 
C10   1    0.470229    0.502306    0.408247    11.00000    0.01649    0.01102 = 
         0.01655   -0.00008    0.00092    0.00113 
C11   1    0.680800    0.479339    0.564740    11.00000    0.01749    0.01524 = 
         0.01651   -0.00019    0.00386   -0.00002 
C12   1    0.755607    0.461152    0.598062    11.00000    0.01936    0.01953 = 
         0.01674   -0.00005    0.00377    0.00088 
C13   1    0.865582    0.474844    0.775766    11.00000    0.01509    0.01801 = 
         0.01973    0.00128    0.00000   -0.00044 
AFIX  13 
H13   2    0.925876    0.448982    0.805582    11.00000   -1.20000 
AFIX   0 
C14   1    0.805019    0.342472    0.820303    11.00000    0.02429    0.01939 = 
         0.02170    0.00146    0.00380   -0.00244 
AFIX  23 
H14A  2    0.744497    0.359951    0.791400    11.00000   -1.20000 
H14B  2    0.821388    0.204485    0.813109    11.00000   -1.20000 
AFIX   0 
C15   1    0.809951    0.388537    0.917460    11.00000    0.03752    0.02617 = 
         0.02241    0.00264    0.00817   -0.00715 
AFIX  23 
H15A  2    0.768300    0.304895    0.943300    11.00000   -1.20000 
H15B  2    0.869043    0.358644    0.947452    11.00000   -1.20000 
AFIX   0 
C16   1    0.789172    0.601963    0.932318    11.00000    0.03127    0.02937 = 
         0.02376   -0.00428    0.00863   -0.00308 
AFIX  23 
H16A  2    0.728307    0.629411    0.906877    11.00000   -1.20000 
H16B  2    0.795294    0.628671    0.995970    11.00000   -1.20000 
AFIX   0 
C17   1    0.849977    0.734493    0.890231    11.00000    0.02812    0.02011 = 
         0.02662   -0.00424    0.00552   -0.00129 
AFIX  23 
H17A  2    0.910153    0.716515    0.920003    11.00000   -1.20000 
H17B  2    0.833399    0.872205    0.897811    11.00000   -1.20000 
AFIX   0 
C18   1    0.846539    0.690400    0.792591    11.00000    0.02649    0.01865 = 
         0.02362    0.00184    0.00387   -0.00149 
AFIX  23 
H18A  2    0.889599    0.772913    0.768267    11.00000   -1.20000 
H18B  2    0.788212    0.724118    0.761770    11.00000   -1.20000 
AFIX   0 
C19   1    0.945318    0.572981    0.609236    11.00000    0.01810    0.02885 = 
         0.02314    0.00348    0.00331    0.00014 
AFIX 137 
H19A  2    0.944018    0.540944    0.547146    11.00000   -1.50000 
H19B  2    1.003756    0.549375    0.640490    11.00000   -1.50000 
H19C  2    0.930082    0.710599    0.615049    11.00000   -1.50000 
AFIX   0 
C20   1    0.893277    0.152822    0.647543    11.00000    0.02095    0.02409 = 
         0.02355   -0.00015    0.00157    0.00332 
AFIX 137 
H20A  2    0.842291    0.072922    0.653935    11.00000   -1.50000 
H20B  2    0.940927    0.118816    0.693665    11.00000   -1.50000 
H20C  2    0.911206    0.128489    0.590101    11.00000   -1.50000 
 
AFIX   0 
HKLF 4 
 
REM  x14381t_a.res in P2(1)/c 
REM R1 =  0.0365 for    2771 Fo > 4sig(Fo)  and  0.0384 for all    2966 data 
REM    214 parameters refined using     13 restraints 
 
END 
 
WGHT      0.0620      0.7591 
 
REM Highest difference peak  0.349,  deepest hole -0.307,  1-sigma level  0.057 
Q1    1   0.8589  0.5809  0.7797  11.00000  0.05    0.35 
Q2    1   0.9009  0.2669  0.6677  11.00000  0.05    0.26 
Q3    1   0.8400  0.3973  0.7971  11.00000  0.05    0.25 
Q4    1   0.5267  0.5530  0.1424  11.00000  0.05    0.22 
Q5    1   0.5440  0.4593  0.2772  11.00000  0.05    0.21 
Q6    1   0.9207  0.5032  0.6375  11.00000  0.05    0.21 
Q7    1   0.6169  0.5000  0.1757  11.00000  0.05    0.21 
Q8    1   0.8600  0.4608  0.7238  11.00000  0.05    0.19 
Q9    1   0.4582  0.3095  0.1350  11.00000  0.05    0.18 
Q10   1   0.8989  0.4159  0.5865  11.00000  0.05    0.18 
; 
_shelx_res_checksum   19226 
 
_shelx_hkl_file
;
   0   0  -1   -0.10    0.02
   0   0  -1   -0.08    0.01
   0   0   1   -0.12    0.02
   0   0   1   -0.09    0.00
   0   0   1   -0.09    0.01
   0   0   1   -0.10    0.01
   0   0   1   -0.10    0.01
   0   0   1   -0.09    0.01
   0   0  -1   -0.08    0.02
   0   0  -2   71.08    4.40
   0   0  -2   65.34    4.06
   0   0   2   65.42    4.38
   0   0  -2   69.25    4.38
   0   0   2   58.60    4.07
   0   0   2   61.77    4.15
   0   0   2   67.02    3.98
   0   0   3   -0.05    0.05
   0   0   3   -0.02    0.05
   0   0   3   -0.02    0.01
   0   0   3    0.02    0.03
   0   0   3    0.02    0.02
   0   0  -3   -0.02    0.03
   0   0   3   -0.05    0.04
   0   0  -3    0.02    0.05
   0   0   4  159.23    9.27
   0   0  -4  174.21   10.21
   0   0   4  152.90    9.49
   0   0  -4  128.88    9.45
   0   0   4  142.73   10.21
   0   0   4  151.16    9.69
   0   0  -4  163.62   10.21
   0   0   5   -0.02    0.04
   0   0   5   -0.03    0.02
   0   0   5    0.02    0.03
   0   0  -5    0.05    0.07
   0   0  -5    0.00    0.05
   0   0   5    0.02    0.05
   0   0  -5   -0.07    0.06
   0   0   5    0.09    0.06
   0   0   5   -0.01    0.07
   0   0   6    9.87    0.77
   0   0   6   11.12    0.67
   0   0  -6   10.80    0.77
   0   0  -6   11.46    0.77
   0   0   6   10.99    0.69
   0   0   6   10.66    0.70
   0   0   7   -0.05    0.09
   0   0   7    0.07    0.08
   0   0   7   -0.04    0.05
   0   0   7    0.13    0.09
   0   0   7   -0.01    0.05
   0   0   7   -0.08    0.06
   0   0   8   26.57    1.70
   0   0   8   27.67    1.89
   0   0   8   29.33    1.78
   0   0   8   28.00    1.75
   0   0   9    0.04    0.10
   0   0   9    0.09    0.09
   0   0   9    0.02    0.06
   0   0   9    0.07    0.07
   0   0  10    7.32    0.47
   0   0  10    6.55    0.44
   0   0  10    6.88    0.45
   0   0  10    6.54    0.40
   0   0  10    6.60    0.53
   0   0  10    7.32    0.45
   0   0  10    7.04    0.47
   0   0  10    6.31    0.49
   0   0  11    0.01    0.04
   0   0  11    0.01    0.02
   0   0  11    0.04    0.08
   0   0  11    0.08    0.06
   0   0  11    0.00    0.04
   0   0  11    0.05    0.08
   0   0  11    0.01    0.12
   0   0  11    0.00    0.04
   0   0  12    1.52    0.20
   0   0  12    1.39    0.14
   0   0  12    1.64    0.10
   0   0  12    1.52    0.17
   0   0  12    1.52    0.16
   0   0  12    1.51    0.18
   0   0  12    1.57    0.12
   0   0  12    1.40    0.12
   0   0  13   -0.03    0.04
   0   0  13   -0.01    0.10
   0   0  13   -0.01    0.05
   0   0  13   -0.03    0.08
   0   0  13    0.01    0.03
   0   0  14   15.20    0.95
   0   0  14   14.28    1.07
   0   0  14   14.47    0.98
   0   0  14   15.63    1.09
   0   0  15   -0.04    0.04
   0   0  15    0.03    0.04
   0   0  15    0.02    0.09
   0   0  16    8.11    0.54
   0   0  16    7.99    0.55
   0   0  16    8.98    0.63
   0   0  17   -0.07    0.04
   0   0  17    0.06    0.06
   0   0  18    0.45    0.06
   0   0  18    0.41    0.05
   0   1   0   -1.51    0.03
   0   1   0   -1.50    0.02
   0   1   0   -1.47    0.03
   0   1   0   -1.51    0.02
   0   1   0   -1.48    0.04
   0   1   0   -1.51    0.02
   0   1   0   -1.52    0.02
   0   1   0   -1.50    0.02
   0   1   0   -1.48    0.03
   0  -1   0   -1.50    0.03
   0  -1   0   -1.52    0.03
   0   1   1   15.98    1.10
   0   1  -1   15.89    0.93
   0   1   1   15.70    0.99
   0   1   1   16.83    1.01
   0   1  -1   16.26    0.99
   0   1   1   16.21    0.93
   0   1   1   18.48    1.09
   0   1  -1   17.20    1.11
   0   1   1   15.79    1.04
   0   1   1   14.76    1.10
   0   1  -1   15.61    1.02
   0   1   1   16.63    1.02
   0   1   1   16.70    0.99
   0   1   1   16.89    1.09
   0  -1  -1   17.09    1.09
   0  -1   1   15.68    0.99
   0  -1   1   15.33    1.02
   0  -1  -1   17.13    1.09
   0  -1   1   16.77    1.11
   0  -1   1   17.48    1.11
   0   1  -2   34.32    2.09
   0   1   2   32.52    2.08
   0   1   2   35.21    1.95
   0   1  -2   33.90    1.95
   0   1   2   35.00    2.18
   0   1   2   36.81    2.30
   0   1  -2   37.18    2.32
   0   1   2   33.70    2.08
   0   1  -2   34.78    2.14
   0   1   2   32.74    2.30
   0   1  -2   37.85    2.32
   0   1   2   29.34    2.30
   0   1   2   34.71    2.30
   0  -1  -2   35.53    2.30
   0  -1   2   34.53    2.09
   0  -1   2   34.50    2.32
   0  -1   2   34.40    2.14
   0  -1   2   37.22    2.32
   0  -1   2   32.84    2.17
   0   1  -3    4.83    0.35
   0   1  -3    5.77    0.40
   0   1   3    5.13    0.32
   0   1   3    5.33    0.36
   0   1   3    5.32    0.36
   0   1  -3    5.44    0.38
   0   1  -3    5.11    0.33
   0   1   3    5.13    0.35
   0   1   3    5.01    0.30
   0   1   3    4.94    0.33
   0   1   3    5.26    0.37
   0   1   3    5.69    0.36
   0   1   3    5.62    0.32
   0   1  -3    4.91    0.30
   0   1   3    5.26    0.33
   0  -1   3    5.17    0.35
   0  -1   3    5.18    0.34
   0  -1   3    5.24    0.33
   0  -1   3    5.20    0.39
   0  -1  -3    5.71    0.36
   0  -1   3    5.31    0.39
   0  -1  -3    5.33    0.36
   0   1  -4    1.98    0.20
   0   1   4    1.90    0.15
   0   1  -4    1.63    0.11
   0   1   4    1.72    0.15
   0   1  -4    1.70    0.19
   0   1   4    1.87    0.15
   0   1  -4    1.87    0.16
   0   1   4    1.94    0.12
   0   1   4    1.75    0.12
   0   1   4    1.78    0.11
   0   1  -4    1.76    0.14
   0   1   4    1.82    0.16
   0   1   4    2.04    0.13
   0   1   4    1.77    0.13
   0  -1  -4    1.82    0.15
   0  -1   4    2.08    0.16
   0  -1   4    1.76    0.14
   0  -1   4    1.91    0.19
   0  -1   4    1.76    0.18
   0  -1  -4    2.11    0.16
   0  -1   4    1.95    0.14
   0   1   5   37.83    2.23
   0   1   5   36.29    2.34
   0   1   5   36.65    2.23
   0   1   5   38.01    2.48
   0   1   5   35.16    2.29
   0   1  -5   36.08    2.30
   0   1  -5   37.86    2.50
   0   1   5   38.32    2.29
   0   1   5   36.98    2.47
   0   1   5   38.25    2.48
   0   1  -5   36.79    2.50
   0   1   5   33.10    2.08
   0   1  -5   33.29    2.24
   0  -1   5   38.76    2.24
   0  -1   5   33.62    2.50
   0  -1   5   39.32    2.30
   0  -1  -5   40.16    2.48
   0  -1   5   37.03    2.50
   0  -1  -5   36.14    2.48
   0  -1   5   38.66    2.33
   0   1   6    2.98    0.23
   0   1  -6    2.47    0.20
   0   1   6    2.72    0.20
   0   1   6    2.94    0.19
   0   1  -6    2.73    0.26
   0   1   6    3.19    0.20
   0   1   6    3.00    0.20
   0   1  -6    2.95    0.28
   0   1  -6    2.81    0.22
   0   1   6    3.04    0.25
   0   1   6    2.88    0.24
   0   1   6    2.98    0.22
   0  -1   6    3.03    0.21
   0  -1   6    2.95    0.27
   0  -1  -6    3.00    0.24
   0  -1   6    3.31    0.23
   0  -1  -6    2.80    0.24
   0  -1   6    2.60    0.26
   0  -1   6    3.01    0.21
   0   1   7    2.61    0.24
   0   1   7    2.81    0.19
   0   1   7    2.74    0.21
   0   1  -7    2.52    0.27
   0   1   7    2.80    0.20
   0   1   7    2.76    0.23
   0   1   7    2.81    0.19
   0  -1   7    2.20    0.27
   0  -1   7    2.86    0.21
   0  -1   7    2.65    0.21
   0  -1   7    2.94    0.22
   0   1   8    0.52    0.09
   0   1   8    0.46    0.08
   0   1   8    0.48    0.12
   0   1   8    0.51    0.07
   0  -1   8    0.47    0.07
   0  -1   8    0.58    0.08
   0  -1   8    0.71    0.11
   0   1   9    0.35    0.06
   0   1   9    0.21    0.08
   0   1   9    0.21    0.08
   0   1   9    0.23    0.09
   0  -1   9    0.23    0.07
   0  -1   9    0.33    0.10
   0  -1   9    0.24    0.07
   0   1  10    0.41    0.05
   0   1  10    0.23    0.10
   0   1  10    0.40    0.05
   0   1  10    0.33    0.05
   0   1  10    0.36    0.08
   0   1  10    0.39    0.07
   0   1  10    0.44    0.09
   0   1  10    0.37    0.05
   0   1  10    0.36    0.07
   0  -1  10    0.39    0.13
   0  -1  10    0.33    0.04
   0  -1  10    0.26    0.08
   0  -1  10    0.29    0.10
   0  -1  10    0.33    0.05
   0   1  11   15.06    0.94
   0   1  11   14.25    1.07
   0   1  11   15.29    1.05
   0   1  11   15.07    0.91
   0   1  11   13.59    0.93
   0   1  11   15.33    1.05
   0   1  11   14.22    0.96
   0   1  11   15.88    0.97
   0   1  11   14.82    0.97
   0  -1  11   15.23    1.05
   0  -1  11   13.38    0.93
   0  -1  11   15.33    0.86
   0  -1  11   15.04    0.93
   0  -1  11   13.21    0.96
   0  -1  11   14.26    0.96
   0   1  12    3.41    0.23
   0   1  12    3.50    0.25
   0   1  12    3.28    0.22
   0   1  12    3.33    0.26
   0   1  12    3.15    0.28
   0   1  12    2.73    0.24
   0   1  12    3.16    0.22
   0   1  12    3.31    0.25
   0   1  12    3.52    0.34
   0  -1  12    2.86    0.28
   0  -1  12    3.16    0.20
   0  -1  12    2.95    0.34
   0  -1  12    2.95    0.23
   0  -1  12    3.52    0.23
   0  -1  12    3.56    0.28
   0   1  13    0.85    0.08
   0   1  13    0.87    0.12
   0   1  13    0.71    0.08
   0   1  13    0.81    0.09
   0   1  13    0.72    0.09
   0   1  13    0.73    0.19
   0  -1  13    0.86    0.07
   0  -1  13    0.84    0.10
   0  -1  13    0.82    0.10
   0  -1  13    0.54    0.18
   0   1  14    1.19    0.11
   0   1  14    1.31    0.12
   0   1  14    1.17    0.09
   0   1  14    1.38    0.14
   0   1  14    1.17    0.11
   0  -1  14    1.28    0.12
   0  -1  14    1.15    0.16
   0  -1  14    1.12    0.08
   0  -1  14    1.21    0.12
   0   1  15   18.60    1.18
   0   1  15   18.65    1.34
   0   1  15   19.01    1.36
   0  -1  15   17.59    1.23
   0  -1  15   17.56    1.19
   0  -1  15   20.91    1.37
   0   1  16    0.41    0.07
   0   1  16    0.17    0.04
   0   1  16    0.33    0.05
   0  -1  16    0.32    0.05
   0  -1  16    0.36    0.05
   0  -1  16    0.22    0.07
   0   1  17    3.63    0.27
   0   1  17    4.56    0.33
   0  -1  17    4.29    0.28
   0  -1  17    4.48    0.32
   0  -1  17    4.18    0.28
   0   1  18    1.33    0.12
   0   2   0 1000.00   66.41
   0   2  -1    7.19    0.42
   0   2  -1    7.28    0.44
   0   2  -1    5.93    0.42
   0   2   1    6.23    0.42
   0   2   1    6.91    0.42
   0   2  -1    6.99    0.48
   0   2  -1    6.31    0.44
   0   2   1    6.61    0.43
   0   2   1    6.34    0.44
   0   2   1    6.66    0.43
   0   2  -1    7.06    0.49
   0   2   1    7.23    0.40
   0   2  -1    7.40    0.48
   0   2  -1    7.02    0.40
   0   2   1    6.19    0.47
   0   2   1    7.26    0.47
   0   2   1    6.49    0.47
   0   2   1    6.91    0.47
   0  -2   1    7.05    0.49
   0  -2  -1    7.27    0.47
   0  -2   1    7.08    0.48
   0  -2  -1    7.16    0.47
   0   2  -2    3.17    0.20
   0   2  -2    3.33    0.21
   0   2   2    3.40    0.24
   0   2   2    3.13    0.20
   0   2   2    3.50    0.24
   0   2  -2    3.30    0.23
   0   2  -2    3.34    0.25
   0   2   2    3.05    0.22
   0  -2   2    2.89    0.26
   0  -2   2    3.34    0.26
   0  -2   2    2.77    0.21
   0  -2   2    3.06    0.23
   0   2  -3    0.06    0.07
   0   2  -3    0.10    0.08
   0   2  -3    0.09    0.04
   0   2   3    0.07    0.05
   0   2  -3    0.14    0.05
   0   2   3    0.13    0.05
   0   2   3    0.13    0.04
   0   2   3    0.11    0.07
   0   2  -3    0.19    0.07
   0  -2   3    0.07    0.08
   0  -2   3    0.09    0.08
   0  -2   3    0.09    0.06
   0  -2   3    0.09    0.05
   0   2   4    7.12    0.42
   0   2  -4    7.11    0.42
   0   2  -4    7.41    0.45
   0   2  -4    7.86    0.53
   0   2  -4    7.23    0.54
   0   2   4    7.14    0.50
   0   2   4    6.25    0.50
   0   2  -4    7.85    0.47
   0   2   4    7.28    0.47
   0  -2   4    6.94    0.47
   0  -2   4    7.30    0.46
   0  -2   4    7.17    0.54
   0  -2   4    6.69    0.53
   0   2  -5    4.02    0.33
   0   2  -5    4.25    0.29
   0   2  -5    4.20    0.34
   0   2   5    3.66    0.31
   0   2  -5    3.89    0.27
   0   2   5    4.24    0.29
   0   2   5    3.94    0.30
   0   2   5    3.99    0.24
   0   2  -5    4.12    0.24
   0  -2   5    4.04    0.29
   0  -2   5    4.20    0.34
   0  -2   5    4.13    0.28
   0  -2   5    3.76    0.34
   0   2  -6    3.94    0.28
   0   2  -6    4.47    0.30
   0   2   6    3.64    0.24
   0   2   6    4.23    0.29
   0   2  -6    4.13    0.36
   0   2   6    3.73    0.31
   0   2  -6    4.28    0.35
   0  -2   6    4.33    0.30
   0  -2   6    3.90    0.34
   0  -2   6    4.24    0.29
   0   2   7    7.42    0.57
   0   2   7    8.55    0.53
   0   2  -7    8.21    0.53
   0   2  -7    7.20    0.50
   0  -2   7    7.99    0.53
   0  -2   7    7.48    0.51
   0   2   8    8.15    0.59
   0   2   8    9.54    0.55
   0   2   8    7.27    0.48
   0   2   8    7.76    0.48
   0  -2   8    8.01    0.53
   0  -2   8    7.75    0.55
   0   2   9    0.06    0.05
   0   2   9    0.16    0.08
   0   2   9    0.07    0.04
   0   2   9    0.16    0.08
   0   2   9    0.07    0.04
   0   2   9    0.09    0.04
   0   2   9    0.08    0.02
   0   2  10   13.34    0.83
   0   2  10   13.42    0.84
   0   2  10   11.89    0.90
   0   2  10   12.92    0.79
   0   2  10   11.97    0.89
   0   2  10   11.55    0.91
   0   2  10   11.92    0.83
   0  -2  10   12.45    0.74
   0   2  11    9.79    0.68
   0   2  11    8.99    0.69
   0   2  11    9.81    0.65
   0   2  11    9.13    0.71
   0   2  11    8.82    0.60
   0   2  11    9.80    0.63
   0  -2  11    9.27    0.56
   0   2  12    3.72    0.28
   0   2  12    3.44    0.29
   0   2  12    3.53    0.24
   0   2  12    3.47    0.26
   0   2  12    3.12    0.36
   0  -2  12    3.39    0.36
   0  -2  12    3.55    0.26
   0  -2  12    3.76    0.22
   0   2  13    4.65    0.34
   0   2  13    3.88    0.28
   0   2  13    4.19    0.30
   0   2  13    4.57    0.33
   0  -2  13    4.52    0.27
   0  -2  13    4.09    0.31
   0   2  14   11.48    0.79
   0   2  14    9.89    0.77
   0   2  14   10.22    0.68
   0   2  14   11.15    0.71
   0  -2  14   10.42    0.63
   0  -2  14   10.89    0.71
   0   2  15    1.83    0.15
   0   2  15    1.99    0.17
   0   2  15    2.10    0.16
   0   2  15    1.66    0.13
   0  -2  15    2.00    0.12
   0  -2  15    1.75    0.16
   0  -2  15    1.67    0.17
   0   2  16    2.49    0.20
   0   2  16    2.64    0.21
   0   2  16    2.33    0.16
   0  -2  16    2.34    0.18
   0  -2  16    2.67    0.21
   0   2  17    1.34    0.13
   0   2  17    1.06    0.11
   0  -2  17    1.45    0.12
   0  -2  17    1.04    0.10
   0   3   0   -0.06    0.03
   0   3   0   -0.07    0.07
   0   3   0   -0.15    0.03
   0   3   0   -0.06    0.04
   0   3   0   -0.10    0.05
   0   3   0   -0.08    0.06
   0   3   0   -0.12    0.04
   0   3   0   -0.09    0.05
   0  -3   0   -0.19    0.06
   0  -3   0   -0.15    0.05
   0   3  -1   45.99    2.93
   0   3   1   46.90    3.23
   0   3   1   47.20    2.99
   0   3   1   47.49    2.92
   0   3  -1   48.85    3.24
   0   3   1   46.12    3.05
   0   3  -1   50.46    2.92
   0   3   1   50.68    2.99
   0   3   1   53.29    2.74
   0   3  -1   51.22    2.74
   0   3  -1   49.83    3.00
   0   3   1   51.57    2.92
   0   3  -1   45.56    3.25
   0   3  -1   49.88    3.25
   0   3  -1   46.54    3.00
   0   3   1   47.39    3.23
   0   3   1   46.27    3.23
   0  -3  -1   49.42    3.23
   0  -3  -1   46.26    3.23
   0  -3   1   46.90    3.26
   0   3   2    3.51    0.22
   0   3  -2    3.04    0.28
   0   3  -2    3.69    0.23
   0   3  -2    3.51    0.22
   0   3  -2    3.40    0.29
   0   3   2    3.33    0.27
   0   3  -2    3.73    0.28
   0   3   2    3.35    0.23
   0   3  -2    3.74    0.24
   0   3   2    3.07    0.26
   0   3   3    0.10    0.04
   0   3   3    0.10    0.05
   0   3  -3    0.08    0.05
   0   3  -3    0.10    0.06
   0   3  -3    0.14    0.05
   0   3   3    0.13    0.07
   0   3   3    0.06    0.06
   0   3  -3    0.04    0.07
   0   3   4    2.61    0.20
   0   3   4    2.56    0.17
   0   3  -4    2.84    0.23
   0   3  -4    2.64    0.18
   0   3  -4    2.51    0.20
   0   3   4    2.52    0.21
   0   3   4    2.60    0.22
   0   3  -5    7.88    0.47
   0   3  -5    8.65    0.54
   0   3   5    8.52    0.57
   0   3   5    7.85    0.53
   0   3   5    7.89    0.56
   0   3   5    7.19    0.46
   0   3  -5    7.54    0.50
   0   3   6    0.21    0.09
   0   3  -6    0.12    0.06
   0   3  -6    0.10    0.04
   0   3   6    0.20    0.05
   0   3   6    0.11    0.07
   0   3  -6    0.32    0.10
   0   3   6    0.14    0.06
   0   3   7   12.10    0.95
   0   3   7   14.25    0.86
   0   3   7   13.14    0.94
   0   3   7   12.59    0.87
   0   3  -7   13.49    0.86
   0   3   7   13.22    0.92
   0   3  -7   12.96    0.83
   0   3   7   13.21    0.87
   0   3   8   20.67    1.62
   0   3   8   23.13    1.49
   0   3  -8   22.17    1.32
   0   3   8   20.78    1.44
   0   3   8   19.57    1.41
   0   3   8   24.57    1.48
   0   3   8   24.23    1.60
   0   3   8   22.24    1.54
   0   3   8   22.61    1.48
   0   3   8   25.15    1.46
   0   3   9    0.13    0.02
   0   3   9    0.22    0.06
   0   3   9    0.23    0.04
   0   3   9    0.05    0.08
   0   3   9    0.13    0.05
   0   3  -9    0.12    0.03
   0   3   9    0.18    0.05
   0   3   9    0.05    0.11
   0   3   9    0.18    0.07
   0   3   9    0.12    0.04
   0   3  10    7.92    0.52
   0   3  10    8.28    0.54
   0   3  10    8.15    0.56
   0   3  10    7.38    0.57
   0   3  10    7.35    0.59
   0   3  10    8.11    0.52
   0   3  10    7.06    0.50
   0   3  10    7.12    0.48
   0   3  11   21.28    1.23
   0   3  11   16.27    1.16
   0   3  11   18.28    1.32
   0   3  11   15.91    1.29
   0   3  11   20.83    1.22
   0   3  11   17.85    1.34
   0  -3  11   18.11    1.09
   0   3  12    7.47    0.54
   0   3  12    6.95    0.52
   0   3  12    6.00    0.44
   0   3  12    7.32    0.47
   0  -3  12    7.53    0.42
   0   3  13    2.04    0.17
   0   3  13    1.63    0.14
   0   3  13    1.91    0.16
   0  -3  13    1.84    0.12
   0   3  14    5.10    0.39
   0   3  14    5.32    0.35
   0   3  14    4.81    0.40
   0  -3  14    5.02    0.31
   0   3  15    2.45    0.18
   0   3  15    2.56    0.20
   0   3  15    2.39    0.20
   0  -3  15    2.24    0.18
   0  -3  15    2.45    0.15
   0   3  16    0.26    0.05
   0   3  16    0.24    0.06
   0  -3  16    0.34    0.05
   0  -3  16    0.25    0.08
   0  -3  16    0.26    0.03
   0   3  17    2.98    0.20
   0  -3  17    2.19    0.18
   0  -3  17    2.77    0.21
   0   4   0  206.47   14.96
   0   4   0  230.10   12.75
   0   4   0  234.21   13.60
   0   4   0  230.02   13.93
   0   4  -1   26.70    1.48
   0   4   1   22.54    1.65
   0   4  -1   25.19    1.39
   0   4  -1   23.72    1.52
   0   4  -1   22.45    1.65
   0   4   1   24.85    1.39
   0   4  -2    4.29    0.36
   0   4  -2    4.63    0.29
   0   4   2    4.55    0.35
   0   4  -2    4.67    0.32
   0   4  -2    4.65    0.30
   0   4   2    4.39    0.29
   0   4  -3    0.22    0.07
   0   4  -3    0.24    0.11
   0   4  -3    0.25    0.05
   0   4  -3    0.31    0.09
   0   4   3    0.17    0.06
   0   4   3    0.24    0.09
   0   4  -3    0.22    0.02
   0   4  -4    1.92    0.14
   0   4   4    1.68    0.13
   0   4  -4    1.69    0.11
   0   4   4    1.82    0.12
   0   4   4    1.72    0.17
   0   4  -4    1.75    0.22
   0   4   4    1.72    0.16
   0   4   4    1.60    0.13
   0   4   4    1.81    0.19
   0   4  -4    1.88    0.15
   0   4  -4    1.88    0.13
   0   4  -4    2.06    0.18
   0   4   4    1.76    0.14
   0   4   5    3.25    0.26
   0   4   5    3.58    0.25
   0   4  -5    4.06    0.23
   0   4   5    3.43    0.29
   0   4   5    3.46    0.26
   0   4  -5    4.19    0.27
   0   4   5    3.89    0.24
   0   4   5    3.55    0.26
   0   4   5    3.88    0.25
   0   4  -5    4.46    0.34
   0   4   5    4.06    0.31
   0   4   5    3.76    0.29
   0   4   5    3.63    0.25
   0   4   5    3.68    0.29
   0   4  -5    4.05    0.26
   0   4  -5    3.80    0.25
   0   4  -5    4.29    0.25
   0   4  -5    3.97    0.31
   0   4  -5    3.43    0.25
   0   4  -6   10.49    0.68
   0   4   6    8.83    0.55
   0   4   6    9.17    0.62
   0   4  -6    9.69    0.61
   0   4   6    9.20    0.57
   0   4   6    9.51    0.60
   0   4   6    9.36    0.62
   0   4   6    9.33    0.67
   0   4   6    8.35    0.62
   0   4  -6    8.41    0.59
   0   4  -6   10.02    0.60
   0   4   6    9.19    0.68
   0   4   6    8.97    0.62
   0   4   6    9.08    0.60
   0   4  -6    9.52    0.55
   0   4  -6    9.45    0.64
   0   4   6    9.58    0.67
   0   4  -6    9.27    0.55
   0   4  -6    9.44    0.59
   0   4   7    1.20    0.09
   0   4   7    1.01    0.10
   0   4  -7    1.27    0.09
   0   4   7    1.28    0.11
   0   4  -7    1.26    0.10
   0   4   7    1.12    0.09
   0   4   7    1.19    0.11
   0   4  -7    1.55    0.15
   0   4  -7    1.64    0.19
   0   4   7    1.01    0.15
   0   4   7    1.14    0.11
   0   4   7    1.16    0.14
   0   4  -7    1.06    0.16
   0   4   7    1.25    0.11
   0   4  -8    0.13    0.05
   0   4  -8    0.02    0.08
   0   4   8    0.08    0.05
   0   4  -8    0.12    0.03
   0   4   8    0.08    0.10
   0   4  -8    0.19    0.10
   0   4   8    0.00    0.05
   0   4   8    0.10    0.07
   0   4  -8    0.09    0.12
   0   4   8    0.08    0.06
   0   4   8    0.10    0.05
   0   4   8    0.04    0.03
   0   4   8    0.11    0.03
   0   4   9    1.16    0.11
   0   4   9    1.26    0.14
   0   4   9    0.98    0.10
   0   4   9    1.04    0.13
   0   4  -9    1.20    0.08
   0   4   9    1.06    0.10
   0   4   9    1.00    0.10
   0   4  -9    1.14    0.19
   0   4 -10    0.44    0.12
   0   4  10    0.31    0.06
   0   4  10    0.22    0.08
   0   4  10    0.28    0.04
   0   4  10    0.35    0.06
   0   4  10    0.35    0.06
   0   4 -10    0.33    0.04
   0   4  10    0.34    0.05
   0   4  11    3.70    0.32
   0   4 -11    3.90    0.24
   0   4  11    3.74    0.28
   0   4  11    3.85    0.31
   0   4  11    4.41    0.29
   0   4  12   21.78    1.51
   0   4 -12   22.94    1.35
   0   4  12   22.12    1.64
   0   4  12   23.55    1.66
   0  -4  12   24.00    1.35
   0   4  13   -0.02    0.06
   0   4 -13    0.02    0.04
   0   4  13    0.02    0.04
   0   4  13   -0.01    0.05
   0  -4  13    0.07    0.04
   0   4 -14    0.93    0.07
   0   4  14    0.80    0.10
   0   4  14    0.92    0.10
   0   4  14    0.92    0.10
   0  -4  14    0.94    0.08
   0   4 -15    7.98    0.46
   0   4  15    8.11    0.56
   0  -4  15    7.24    0.46
   0   4  16    0.00    0.03
   0  -4  16    0.10    0.04
   0  -4  16    0.10    0.02
   0   5   0    0.01    0.04
   0   5   0    0.00    0.03
   0   5   0    0.03    0.07
   0   5   0    0.00    0.03
   0   5   0    0.07    0.04
   0   5   0   -0.06    0.10
   0   5   0   -0.02    0.06
   0   5  -1    0.15    0.07
   0   5  -1    0.02    0.02
   0   5  -1    0.06    0.06
   0   5   1    0.03    0.04
   0   5  -1    0.08    0.08
   0   5  -1    0.08    0.03
   0   5   1    0.10    0.07
   0   5  -1    0.10    0.05
   0   5  -1    0.06    0.03
   0   5   1    0.03    0.04
   0   5   1    0.07    0.04
   0   5   1   -0.04    0.06
   0   5  -1    0.09    0.07
   0   5  -1    0.07    0.03
   0   5   1    0.09    0.02
   0   5  -1    0.01    0.05
   0   5   1    0.06    0.09
   0   5  -2    3.39    0.25
   0   5   2    3.36    0.24
   0   5   2    3.10    0.25
   0   5  -2    3.62    0.24
   0   5   2    3.45    0.23
   0   5   2    3.74    0.25
   0   5  -2    3.77    0.23
   0   5  -2    3.41    0.23
   0   5  -2    3.32    0.26
   0   5  -2    3.41    0.22
   0   5   2    3.35    0.28
   0   5  -2    3.72    0.24
   0   5  -2    3.55    0.24
   0   5  -2    3.60    0.33
   0   5   2    3.64    0.24
   0   5   2    3.29    0.22
   0   5   2    2.86    0.29
   0   5  -3   40.72    2.57
   0   5  -3   40.29    2.26
   0   5  -3   39.84    2.47
   0   5   3   39.37    2.41
   0   5  -3   41.62    2.60
   0   5  -3   37.98    2.49
   0   5   3   42.04    2.50
   0   5  -3   35.24    2.41
   0   5  -3   39.60    2.40
   0   5   3   38.92    2.53
   0   5   3   40.71    2.84
   0   5   3   38.78    2.26
   0   5  -3   40.59    2.48
   0   5   3   37.95    2.59
   0   5  -3   38.72    2.68
   0   5   4    0.02    0.04
   0   5   4    0.02    0.05
   0   5   4    0.03    0.04
   0   5  -4   -0.02    0.03
   0   5  -4   -0.01    0.06
   0   5  -4    0.06    0.13
   0   5   4    0.04    0.05
   0   5   4   -0.01    0.06
   0   5  -4   -0.04    0.04
   0   5  -4   -0.03    0.05
   0   5   4    0.06    0.06
   0   5  -4    0.10    0.10
   0   5   4    0.07    0.05
   0   5  -4    0.06    0.07
   0   5  -4   -0.05    0.03
   0   5  -5   10.08    0.65
   0   5  -5    9.35    0.66
   0   5  -5   10.60    0.58
   0   5   5    9.44    0.59
   0   5   5    9.55    0.65
   0   5   5   10.63    0.61
   0   5   5    9.46    0.72
   0   5  -5    9.58    0.72
   0   5  -5   10.24    0.66
   0   5   5    9.98    0.64
   0   5  -5   10.14    0.63
   0   5  -5    9.44    0.59
   0   5  -5    9.27    0.63
   0   5  -5    9.48    0.62
   0   5   5   10.02    0.63
   0   5   5    8.47    0.71
   0   5   6    0.03    0.07
   0   5  -6   -0.03    0.04
   0   5   6    0.09    0.05
   0   5  -6    0.07    0.04
   0   5   6    0.07    0.05
   0   5   6    0.05    0.04
   0   5  -6    0.00    0.07
   0   5   6    0.09    0.04
   0   5   6    0.04    0.04
   0   5  -6    0.02    0.10
   0   5  -6    0.12    0.10
   0   5   6    0.00    0.04
   0   5  -6    0.05    0.04
   0   5   6    0.02    0.03
   0   5  -6    0.03    0.02
   0   5   7   19.65    1.20
   0   5  -7   20.68    1.28
   0   5   7   18.89    1.29
   0   5   7   19.76    1.25
   0   5  -7   19.40    1.37
   0   5  -7   20.33    1.24
   0   5   7   17.83    1.24
   0   5  -7   20.16    1.14
   0   5   7   18.76    1.29
   0   5   7   19.90    1.42
   0   5   7   18.79    1.30
   0   5   7   19.41    1.40
   0   5   8    0.23    0.06
   0   5   8    0.49    0.09
   0   5   8    0.27    0.06
   0   5   8    0.36    0.06
   0   5  -8    0.38    0.06
   0   5   8    0.38    0.06
   0   5   8    0.23    0.08
   0   5  -8    0.41    0.05
   0   5  -8    0.36    0.04
   0   5   8    0.35    0.05
   0   5   8    0.30    0.05
   0   5   9    0.69    0.10
   0   5   9    0.81    0.10
   0   5  -9    0.79    0.09
   0   5   9    0.74    0.08
   0   5  -9    0.77    0.06
   0   5   9    0.58    0.08
   0   5   9    0.62    0.08
   0   5   9    0.66    0.08
   0   5   9    0.67    0.07
   0   5 -10    4.36    0.25
   0   5  10    4.14    0.29
   0   5  10    4.33    0.32
   0   5 -10    3.96    0.29
   0   5  10    3.76    0.28
   0   5  10    3.94    0.32
   0   5  10    4.59    0.30
   0   5  11    9.90    0.73
   0   5  11    9.93    0.72
   0   5 -11   10.16    0.59
   0   5  11   10.21    0.66
   0   5 -11    9.35    0.66
   0   5  12    1.25    0.10
   0   5  12    1.02    0.12
   0   5 -12    1.25    0.12
   0   5 -12    1.22    0.09
   0   5  12    1.34    0.12
   0   5  13    2.44    0.22
   0   5  13    2.56    0.21
   0   5 -13    2.73    0.19
   0   5 -13    3.02    0.17
   0  -5  13    2.74    0.17
   0   5 -14    0.69    0.05
   0   5 -14    0.44    0.06
   0   5  14    0.60    0.07
   0   5  14    0.84    0.08
   0  -5  14    0.71    0.05
   0   6   0   80.68    5.18
   0   6   0   81.78    5.04
   0   6   0   79.36    4.98
   0   6   0   74.33    4.81
   0   6   0   86.39    4.97
   0   6   0   71.22    4.47
   0   6   1    0.25    0.09
   0   6   1    0.22    0.04
   0   6   1    0.25    0.06
   0   6   1    0.16    0.03
   0   6  -1    0.12    0.03
   0   6   1    0.14    0.06
   0   6  -1    0.17    0.07
   0   6  -1    0.10    0.06
   0   6   1    0.05    0.08
   0   6  -1    0.16    0.08
   0   6  -1    0.18    0.05
   0   6   2    4.36    0.30
   0   6   2    4.64    0.30
   0   6  -2    4.38    0.30
   0   6  -2    4.40    0.32
   0   6  -2    4.54    0.29
   0   6   2    4.39    0.32
   0   6  -2    4.62    0.29
   0   6   2    4.31    0.30
   0   6  -2    4.09    0.30
   0   6   2    4.44    0.29
   0   6  -3    0.35    0.05
   0   6   3    0.36    0.06
   0   6  -3    0.37    0.05
   0   6   3    0.30    0.06
   0   6   3    0.37    0.07
   0   6  -3    0.29    0.09
   0   6   3    0.30    0.07
   0   6  -3    0.16    0.06
   0   6   4    4.23    0.30
   0   6  -4    4.06    0.29
   0   6  -4    4.80    0.33
   0   6  -4    4.60    0.29
   0   6  -4    4.36    0.30
   0   6   4    4.39    0.28
   0   6   4    4.39    0.31
   0   6   4    4.55    0.30
   0   6  -5    0.61    0.06
   0   6  -5    0.63    0.10
   0   6   5    0.64    0.07
   0   6   5    0.61    0.07
   0   6  -5    0.71    0.07
   0   6   5    0.57    0.10
   0   6   5    0.48    0.08
   0   6   5    0.62    0.08
   0   6  -5    0.56    0.07
   0   6  -6    0.67    0.07
   0   6   6    0.63    0.07
   0   6   6    0.62    0.08
   0   6   6    0.67    0.08
   0   6  -6    0.62    0.07
   0   6  -6    0.75    0.08
   0   6  -6    0.72    0.11
   0   6   6    0.70    0.08
   0   6   6    0.74    0.08
   0   6  -7    0.17    0.05
   0   6   7    0.06    0.04
   0   6   7    0.11    0.04
   0   6   7    0.09    0.08
   0   6  -7    0.11    0.04
   0   6  -7    0.05    0.06
   0   6   7    0.10    0.05
   0   6   7    0.10    0.07
   0   6   7    0.07    0.05
   0   6   8    2.77    0.23
   0   6  -8    3.26    0.21
   0   6  -8    3.24    0.21
   0   6   8    3.09    0.20
   0   6   8    2.54    0.23
   0   6   8    3.11    0.21
   0   6  -8    3.14    0.24
   0   6   8    2.63    0.20
   0   6   9    0.43    0.09
   0   6  -9    0.68    0.07
   0   6  -9    0.57    0.07
   0   6   9    0.44    0.06
   0   6  -9    0.59    0.08
   0   6   9    0.48    0.09
   0   6  10    0.10    0.04
   0   6  10    0.11    0.05
   0   6 -10    0.13    0.04
   0   6 -10    0.13    0.08
   0   6  10    0.13    0.05
   0   6  11    1.09    0.11
   0   6  11    0.82    0.11
   0   6 -11    1.18    0.11
   0   6 -11    1.10    0.09
   0   6 -12    9.51    0.65
   0   6 -12   10.43    0.66
   0   7   0    0.05    0.05
   0   7   0    0.02    0.08
   0   7   0    0.03    0.04
   0   7   1    1.14    0.12
   0   7   1    1.23    0.09
   0   7  -1    1.29    0.12
   0   7  -1    0.93    0.12
   0   7  -1    1.31    0.10
   0   7   1    1.23    0.11
   0   7  -2    0.90    0.07
   0   7  -2    0.67    0.09
   0   7  -2    0.84    0.09
   0   7   2    0.91    0.10
   0   7   2    0.91    0.09
   0   7   2    1.02    0.11
   0   7  -3   20.48    1.33
   0   7  -3   20.68    1.32
   0   7  -3   22.42    1.39
   0   7   3   22.17    1.33
   0   7   3   19.12    1.38
   0   7   3   20.59    1.28
   0   7   4    1.92    0.15
   0   7  -4    1.83    0.12
   0   7   4    1.55    0.14
   0   7  -4    1.95    0.16
   0   7  -4    1.75    0.13
   0   7  -5    1.25    0.10
   0   7  -5    1.09    0.11
   0   7  -5    1.21    0.12
   0   7   5    1.24    0.10
   0   7   6    0.33    0.05
   0   7  -6    0.38    0.07
   0   7  -6    0.33    0.04
   0   7   7   11.03    0.70
   0   7  -8    1.99    0.17
   0   7  -8    2.12    0.15
   0   8   0   33.92    2.14
   0   8  -1    0.07    0.04
   0   8   1    0.12    0.04
   0   8   1    0.15    0.03
   0   8  -1    0.09    0.04
   0   8  -2    0.01    0.03
   0   8   2    0.07    0.04
   0   8  -2   -0.01    0.03
   0   8  -3    0.21    0.04
   0   8  -3    0.10    0.03
   0   8   3    0.15    0.04
   0   8   4    0.02    0.03
  -1   0  18   26.46    1.67
  -1   0  17    0.06    0.05
  -1   0  17    0.01    0.03
  -1   0  16    6.34    0.49
  -1   0  16    6.55    0.42
  -1   0  15    0.05    0.06
  -1   0  15   -0.05    0.09
  -1   0  15    0.03    0.04
  -1   0  15   -0.02    0.05
  -1   0  14    5.49    0.36
  -1   0  14    5.55    0.43
  -1   0  14    5.53    0.37
  -1   0  14    5.01    0.40
  -1   0  13    0.01    0.11
  -1   0  13    0.07    0.08
  -1   0  13    0.02    0.05
  -1   0  13    0.08    0.04
  -1   0  13    0.03    0.05
  -1   0  13   -0.01    0.07
  -1   0  12   21.10    1.61
  -1   0  12   21.54    1.57
  -1   0  12   21.35    1.33
  -1   0  12   22.49    1.40
  -1   0  12   22.90    1.64
  -1   0  12   22.68    1.44
  -1   0  12   22.66    1.47
  -1   0  12   24.69    1.48
  -1   0  12   23.93    1.43
  -1   0  11   -0.10    0.08
  -1   0  11    0.00    0.04
  -1   0  11   -0.07    0.08
  -1   0  11    0.01    0.02
  -1   0  11    0.06    0.04
  -1   0  11   -0.04    0.08
  -1   0  11   -0.01    0.04
  -1   0  11    0.03    0.08
  -1   0  10    6.29    0.42
  -1   0  10    6.64    0.51
  -1   0  10    6.43    0.43
  -1   0  10    6.65    0.45
  -1   0  10    6.69    0.39
  -1   0  10    5.99    0.48
  -1   0  10    6.88    0.46
  -1   0  10    6.81    0.44
  -1   0   9   -0.08    0.08
  -1   0   9   -0.03    0.06
  -1   0   9    0.08    0.10
  -1   0   9    0.03    0.07
  -1   0   8    9.99    0.66
  -1   0   8    9.76    0.65
  -1   0   8    9.44    0.62
  -1   0   8   10.76    0.71
  -1   0   7    0.01    0.06
  -1   0   7    0.07    0.09
  -1   0   7    0.05    0.08
  -1   0   7   -0.03    0.05
  -1   0   7    0.00    0.06
   1   0  -7   -0.02    0.08
  -1   0   6   10.06    0.58
  -1   0   6    9.37    0.61
  -1   0   6    8.89    0.60
   1   0  -6    9.22    0.66
  -1   0   6    8.93    0.66
   1   0  -6    9.00    0.67
  -1   0   5    0.00    0.04
  -1   0   5   -0.02    0.05
   1   0  -5    0.04    0.06
  -1   0   5    0.01    0.07
  -1   0   5    0.00    0.02
   1   0  -5   -0.12    0.09
  -1   0   5   -0.03    0.03
  -1   0   5   -0.06    0.05
   1   0  -5   -0.04    0.05
  -1   0   4   10.00    0.69
   1   0  -4   10.18    0.69
  -1   0   4    9.83    0.62
  -1   0   4    9.83    0.61
   1   0  -4    8.98    0.62
   1   0  -4   10.32    0.69
  -1   0   4   10.01    0.64
   1   0  -3   -0.51    0.05
  -1   0   3   -0.48    0.02
  -1   0   3   -0.46    0.04
   1   0  -3   -0.49    0.04
  -1   0   3   -0.52    0.03
  -1   0   3   -0.51    0.04
   1   0  -3   -0.51    0.07
   1   0  -3   -0.51    0.03
  -1   0   2   15.52    1.00
   1   0  -2   16.20    1.08
  -1   0   2   15.06    1.02
   1   0  -2   18.12    1.08
   1   0  -2   15.36    0.97
   1   0  -2   15.15    1.00
  -1   0   2   17.38    1.08
  -1   0   2   15.88    0.97
   1   0  -1    0.03    0.02
  -1   0   1   -0.02    0.02
  -1   0   1   -0.01    0.03
   1   0  -1    0.00    0.03
   1   0  -1   -0.01    0.02
   1   0  -1   -0.01    0.03
  -1   0   1   -0.01    0.02
  -1   0   1   -0.02    0.02
  -1   0   1    0.01    0.02
  -1   0   1    0.00    0.03
  -1   0   0  129.54    8.72
  -1   0   0  123.78    7.89
   1   0   0  139.21    8.09
  -1   0   0  125.13    8.73
   1   0   0  133.01    8.73
   1   0   0  130.77    8.72
  -1   0   0  135.64    8.08
   1   0   0  128.66    7.89
   1   0   1   -0.01    0.03
   1   0   1   -0.02    0.03
  -1   0  -1   -0.05    0.02
  -1   0  -1   -0.03    0.04
   1   0   1   -0.04    0.02
  -1   0  -1   -0.07    0.03
   1   0   1   -0.04    0.02
  -1   0  -1   -0.05    0.02
   1   0   1   -0.03    0.04
   1   0   1   -0.04    0.03
  -1   0  -2    0.38    0.05
   1   0   2    0.43    0.07
   1   0   2    0.37    0.05
  -1   0  -2    0.43    0.05
  -1   0  -2    0.43    0.07
   1   0   2    0.46    0.06
   1   0   2    0.38    0.05
  -1   0  -2    0.40    0.07
   1   0   2    0.38    0.05
   1   0   2    0.46    0.05
  -1   0  -3   -0.18    0.04
   1   0   3   -0.19    0.04
   1   0   3   -0.22    0.04
  -1   0  -3   -0.19    0.06
   1   0   3   -0.17    0.06
   1   0   3   -0.22    0.04
  -1   0  -3   -0.16    0.04
   1   0   3   -0.16    0.04
  -1   0  -3   -0.20    0.08
   1   0   3   -0.16    0.07
  -1   0  -4   34.60    2.17
   1   0   4   32.32    1.95
  -1   0  -4   28.84    1.95
   1   0   4   33.31    2.17
  -1   0  -4   35.79    2.18
   1   0   4   33.49    2.04
   1   0   4   34.40    2.17
   1   0   4   29.22    2.00
  -1   0  -4   27.75    2.00
   1   0   4   31.08    2.00
   1   0   5   -0.04    0.04
   1   0   5    0.02    0.09
   1   0   5   -0.04    0.05
  -1   0  -5   -0.04    0.05
   1   0   5   -0.06    0.07
  -1   0  -5   -0.06    0.05
   1   0   5   -0.03    0.06
  -1   0  -5   -0.07    0.08
   1   0   5   -0.06    0.05
  -1   0  -5   -0.12    0.07
   1   0   5    0.00    0.06
   1   0   6    0.97    0.10
   1   0   6    0.90    0.12
  -1   0  -6    0.97    0.13
   1   0   6    0.98    0.10
   1   0   6    1.03    0.11
   1   0   6    0.88    0.13
   1   0   7    0.04    0.08
   1   0   7   -0.04    0.06
   1   0   7    0.00    0.06
   1   0   7    0.12    0.09
   1   0   7   -0.05    0.10
   1   0   8   73.44    4.40
   1   0   8   73.49    4.48
   1   0   8   65.57    4.73
   1   0   8   70.82    4.29
   1   0   9    0.03    0.05
   1   0   9   -0.14    0.06
   1   0   9   -0.10    0.07
   1   0   9   -0.01    0.10
   1   0  10    2.56    0.20
   1   0  10    2.72    0.16
   1   0  10    2.78    0.24
   1   0  10    2.83    0.28
   1   0  10    2.55    0.19
   1   0  10    2.39    0.18
   1   0  10    2.95    0.21
   1   0  11   -0.02    0.04
   1   0  11    0.01    0.02
   1   0  11    0.15    0.13
   1   0  11   -0.02    0.04
   1   0  11    0.13    0.07
   1   0  11    0.01    0.03
   1   0  11    0.05    0.09
   1   0  11    0.00    0.06
   1   0  12    3.02    0.33
   1   0  12    3.33    0.22
   1   0  12    2.85    0.26
   1   0  12    3.34    0.26
   1   0  12    3.39    0.22
   1   0  12    3.03    0.24
   1   0  12    2.69    0.24
   1   0  12    2.81    0.18
   1   0  13    0.01    0.05
   1   0  13   -0.03    0.10
   1   0  13   -0.02    0.05
   1   0  13    0.01    0.04
   1   0  14    0.04    0.05
   1   0  14    0.10    0.06
   1   0  14    0.03    0.05
   1   0  15    0.05    0.06
   1   0  15    0.00    0.05
   1   0  15   -0.03    0.04
   1   0  16    2.46    0.19
   1   0  16    1.68    0.13
   1   0  16    2.07    0.15
   1   0  17   -0.02    0.05
   1   0  17    0.02    0.03
   1   0  18    0.82    0.06
   1   0  18    0.62    0.08
  -1   1  18    2.16    0.15
  -1  -1  18    1.53    0.15
  -1   1  17    1.45    0.13
  -1   1  17    1.39    0.10
  -1   1  17    1.34    0.11
  -1  -1  17    1.27    0.13
  -1  -1  17    1.18    0.11
  -1   1  16    0.31    0.05
  -1   1  16    0.23    0.05
  -1   1  16    0.07    0.09
  -1  -1  16    0.19    0.09
  -1  -1  16    0.32    0.04
  -1  -1  16    0.12    0.06
  -1   1  15    0.74    0.12
  -1   1  15    0.84    0.09
  -1   1  15    0.86    0.09
  -1  -1  15    0.88    0.10
  -1  -1  15    0.77    0.09
  -1  -1  15    0.94    0.11
  -1   1  14    0.81    0.09
  -1   1  14    0.85    0.12
  -1   1  14    0.78    0.09
  -1   1  14    0.91    0.09
  -1  -1  14    0.81    0.09
  -1  -1  14    0.88    0.10
  -1   1  13    5.04    0.40
  -1   1  13    5.07    0.47
  -1   1  13    5.37    0.36
  -1   1  13    5.07    0.36
  -1   1  13    5.36    0.40
  -1   1  13    5.30    0.35
  -1   1  13    5.87    0.42
  -1  -1  13    6.02    0.37
  -1  -1  13    4.97    0.47
  -1  -1  13    4.68    0.35
  -1  -1  13    5.45    0.32
  -1   1  12    0.64    0.12
  -1   1  12    0.65    0.11
  -1   1  12    0.67    0.07
  -1   1  12    0.71    0.07
  -1   1  12    0.60    0.10
  -1   1  12    0.67    0.08
  -1   1  12    0.61    0.08
  -1   1  12    0.69    0.14
  -1   1  12    0.61    0.09
  -1  -1  12    0.44    0.12
  -1  -1  12    0.77    0.08
  -1  -1  12    0.38    0.10
  -1  -1  12    0.63    0.17
  -1  -1  12    0.64    0.08
  -1  -1  12    0.59    0.06
  -1   1  11    1.18    0.13
  -1   1  11    1.20    0.10
  -1   1  11    1.40    0.13
  -1   1  11    1.19    0.10
  -1   1  11    1.19    0.10
  -1   1  11    1.28    0.15
  -1   1  11    1.49    0.19
  -1   1  11    1.36    0.14
  -1   1  11    1.20    0.11
  -1  -1  11    1.07    0.11
  -1  -1  11    1.12    0.11
  -1  -1  11    1.14    0.14
  -1  -1  11    0.81    0.12
  -1  -1  11    1.16    0.09
  -1  -1  11    1.48    0.18
  -1  -1  11    1.31    0.11
  -1  -1  11    1.20    0.15
  -1   1  10    4.31    0.28
  -1   1  10    3.98    0.31
  -1   1  10    4.61    0.29
  -1   1  10    4.06    0.28
  -1   1  10    3.88    0.27
  -1   1  10    4.40    0.28
  -1   1  10    4.81    0.37
  -1   1  10    3.94    0.32
  -1   1  10    4.08    0.28
  -1   1  10    4.35    0.31
  -1  -1  10    3.69    0.28
  -1  -1  10    4.12    0.25
  -1  -1  10    3.99    0.30
  -1  -1  10    3.92    0.30
  -1  -1  10    3.99    0.32
  -1   1   9    7.20    0.45
  -1   1   9    7.03    0.47
  -1   1   9    6.54    0.51
  -1   1   9    7.03    0.44
  -1  -1   9    6.64    0.45
  -1  -1   9    6.41    0.47
  -1  -1   9    6.88    0.47
  -1   1   8    0.17    0.07
  -1   1   8    0.16    0.06
  -1   1   8    0.03    0.09
  -1   1   8    0.17    0.05
  -1  -1   8    0.16    0.06
  -1  -1   8    0.18    0.06
  -1  -1   8    0.20    0.10
  -1   1   7   54.67    3.84
  -1   1   7   65.48    4.03
  -1   1   7   69.40    3.94
  -1   1   7   62.20    4.26
  -1   1   7   63.77    3.84
  -1   1   7   62.63    3.94
  -1   1   7   61.54    4.25
   1   1  -7   63.41    4.30
  -1  -1   7   58.99    4.29
  -1  -1   7   64.40    3.95
  -1  -1   7   71.47    3.86
  -1  -1   7   65.60    4.02
  -1  -1   7   63.55    4.29
  -1   1   6    9.39    0.60
  -1   1   6    8.61    0.63
  -1   1   6    9.05    0.63
  -1   1   6    8.15    0.55
   1   1  -6    8.40    0.56
  -1   1   6    9.88    0.56
   1   1  -6    9.12    0.65
   1   1  -6    8.91    0.67
   1   1  -6    9.07    0.59
  -1   1   6    9.49    0.57
  -1   1   6    8.53    0.63
  -1   1   6    8.49    0.57
  -1  -1   6    9.51    0.59
  -1  -1   6    8.70    0.59
   1  -1  -6    9.48    0.63
  -1  -1   6    9.82    0.57
  -1  -1   6    9.75    0.66
  -1  -1   6    8.54    0.66
   1  -1  -6    8.76    0.64
  -1   1   5    4.18    0.32
  -1   1   5    4.65    0.31
   1   1  -5    4.51    0.31
  -1   1   5    3.75    0.27
  -1   1   5    4.83    0.27
   1   1  -5    4.54    0.34
   1   1  -5    4.35    0.36
   1   1  -5    4.29    0.28
   1   1  -5    3.75    0.25
  -1   1   5    4.06    0.28
  -1   1   5    4.42    0.28
  -1   1   5    4.43    0.32
  -1   1   5    4.11    0.32
  -1  -1   5    4.89    0.35
  -1  -1   5    4.26    0.29
  -1  -1   5    4.75    0.29
   1  -1  -5    4.27    0.33
  -1  -1   5    4.37    0.31
  -1  -1   5    4.52    0.34
   1  -1  -5    4.83    0.32
  -1   1   4   21.08    1.42
  -1   1   4   22.24    1.42
  -1   1   4   21.59    1.34
  -1   1   4   21.78    1.31
   1   1  -4   20.59    1.28
   1   1  -4   21.30    1.32
  -1   1   4   20.52    1.19
  -1   1   4   23.54    1.42
  -1   1   4   22.61    1.28
   1   1  -4   22.03    1.44
  -1   1   4   18.89    1.31
   1   1  -4   19.76    1.19
  -1   1   4   18.56    1.28
  -1   1   4   18.79    1.42
   1   1  -4   21.60    1.45
   1  -1  -4   22.78    1.42
  -1  -1   4   23.48    1.45
  -1  -1   4   20.66    1.29
  -1  -1   4   21.30    1.32
   1  -1  -4   19.80    1.42
  -1  -1   4   22.02    1.44
  -1  -1   4   20.62    1.34
   1   1  -3  128.49    8.64
  -1   1   3  126.46    8.02
  -1   1   3  132.21    8.20
  -1   1   3  132.18    7.82
  -1   1   3  138.51    8.66
  -1   1   3  116.49    8.61
  -1   1   3  138.60    8.65
   1   1  -3  124.52    7.86
   1   1  -3  140.44    8.65
  -1   1   3  123.89    8.02
   1   1  -3  123.21    8.01
  -1   1   3  123.66    8.65
   1   1  -3  126.28    7.31
  -1   1   3  122.77    7.31
  -1   1   3  125.29    7.82
  -1  -1   3  122.71    7.83
   1  -1  -3  135.30    8.64
  -1  -1   3  124.15    8.01
  -1  -1   3  129.81    8.19
   1  -1  -3  138.19    8.65
  -1  -1   3  140.31    8.65
  -1  -1   3  137.43    8.65
   1   1  -2    4.56    0.27
  -1   1   2    4.93    0.28
   1   1  -2    4.93    0.34
  -1   1   2    4.08    0.28
  -1   1   2    4.04    0.31
  -1   1   2    4.51    0.26
  -1   1   2    4.06    0.32
   1   1  -2    4.73    0.30
  -1   1   2    4.62    0.29
  -1   1   2    4.98    0.31
   1   1  -2    4.47    0.29
  -1   1   2    4.43    0.29
  -1   1   2    4.28    0.32
  -1   1   2    4.47    0.30
   1   1  -2    4.88    0.33
  -1  -1   2    5.26    0.34
   1  -1  -2    4.43    0.31
  -1  -1   2    4.83    0.29
  -1  -1   2    4.17    0.29
  -1  -1   2    5.33    0.34
  -1  -1   2    4.27    0.30
   1  -1  -2    5.15    0.31
  -1   1   1   33.01    1.91
   1   1  -1   34.37    2.09
   1   1  -1   35.15    2.04
   1   1  -1   31.40    2.27
  -1   1   1   38.63    2.26
  -1   1   1   34.38    2.05
  -1   1   1   32.02    2.13
   1   1  -1   37.28    2.27
   1   1  -1   29.99    2.09
  -1   1   1   35.02    2.10
  -1   1   1   34.08    2.04
   1   1  -1   33.33    1.91
  -1   1   1   32.31    2.09
  -1   1   1   32.17    2.26
  -1   1   1   34.80    2.25
  -1   1   1   32.01    2.25
  -1  -1   1   38.38    2.27
  -1  -1   1   31.15    2.09
   1  -1  -1   36.73    2.26
   1  -1  -1   32.16    2.26
  -1  -1   1   32.23    2.04
   1   1   0    6.31    0.42
   1   1   0    6.82    0.46
  -1   1   0    6.07    0.42
   1   1   0    6.22    0.45
  -1   1   0    6.28    0.42
  -1   1   0    5.55    0.45
  -1   1   0    6.31    0.41
   1   1   0    5.73    0.41
   1   1   0    6.34    0.38
  -1   1   0    6.89    0.41
   1   1   0    7.04    0.46
  -1   1   0    5.84    0.38
   1   1   0    6.35    0.41
  -1   1   0    6.57    0.46
  -1   1   0    6.55    0.46
   1   1   0    5.63    0.42
  -1  -1   0    6.72    0.46
   1  -1   0    7.19    0.46
   1  -1   0    7.55    0.46
  -1  -1   0    6.94    0.46
   1   1   1   12.55    0.79
  -1   1  -1   12.69    0.75
   1   1   1   12.13    0.70
  -1   1  -1   11.30    0.77
   1   1   1   11.93    0.77
  -1   1  -1   13.57    0.85
   1   1   1   11.86    0.83
  -1   1  -1   11.89    0.70
   1   1   1   11.13    0.83
   1   1   1   11.01    0.84
  -1   1  -1   12.70    0.78
   1   1   1   13.05    0.77
  -1   1  -1   13.02    0.85
   1   1   1   13.06    0.75
   1   1   1   12.74    0.84
   1   1   1   11.20    0.75
  -1  -1  -1   12.33    0.84
  -1  -1  -1   13.97    0.84
   1  -1   1   12.25    0.78
   1  -1   1   11.70    0.75
   1  -1   1   13.82    0.85
   1  -1   1   13.65    0.85
   1   1   2   27.91    1.71
  -1   1  -2   26.11    1.64
   1   1   2   27.64    1.80
   1   1   2   25.91    1.53
   1   1   2   25.96    1.64
   1   1   2   25.59    1.81
   1   1   2   27.62    1.81
   1   1   2   25.80    1.68
   1   1   2   27.35    1.68
  -1   1  -2   30.16    1.83
  -1   1  -2   26.66    1.53
   1   1   2   27.20    1.63
  -1   1  -2   30.38    1.83
  -1   1  -2   26.89    1.68
   1   1   2   24.83    1.81
   1  -1   2   25.19    1.64
  -1  -1  -2   23.58    1.81
  -1  -1  -2   30.14    1.81
   1  -1   2   30.39    1.83
   1  -1   2   27.36    1.83
   1  -1   2   26.84    1.68
   1   1   3    2.09    0.18
   1   1   3    1.85    0.14
   1   1   3    1.87    0.17
   1   1   3    2.24    0.14
   1   1   3    2.00    0.14
  -1   1  -3    2.31    0.21
  -1   1  -3    2.18    0.17
   1   1   3    1.99    0.13
   1   1   3    2.13    0.14
   1   1   3    2.38    0.17
  -1   1  -3    2.23    0.20
   1   1   3    2.07    0.16
  -1   1  -3    1.97    0.15
   1  -1   3    1.88    0.17
   1  -1   3    1.92    0.15
  -1  -1  -3    2.09    0.17
   1  -1   3    1.96    0.20
  -1  -1  -3    2.32    0.18
   1  -1   3    2.18    0.19
   1   1   4    0.00    0.03
   1   1   4   -0.08    0.06
   1   1   4   -0.02    0.05
   1   1   4    0.02    0.03
  -1   1  -4    0.08    0.09
   1   1   4   -0.02    0.02
  -1   1  -4   -0.03    0.07
   1   1   4    0.01    0.04
  -1   1  -4    0.04    0.07
  -1   1  -4   -0.01    0.04
   1   1   4    0.00    0.04
   1   1   4    0.00    0.04
   1   1   4    0.04    0.07
  -1  -1  -4   -0.01    0.06
   1  -1   4   -0.02    0.07
   1  -1   4    0.03    0.05
   1  -1   4    0.03    0.09
   1  -1   4    0.12    0.08
  -1  -1  -4   -0.08    0.05
   1   1   5    2.99    0.23
   1   1   5    2.87    0.22
   1   1   5    2.64    0.18
   1   1   5    2.37    0.16
   1   1   5    2.61    0.21
  -1   1  -5    2.53    0.19
   1   1   5    2.54    0.18
   1   1   5    3.06    0.18
   1   1   5    3.04    0.20
   1   1   5    2.70    0.19
  -1   1  -5    2.74    0.25
   1  -1   5    2.76    0.24
  -1  -1  -5    2.71    0.22
   1  -1   5    2.49    0.21
   1  -1   5    2.61    0.20
   1  -1   5    2.75    0.25
  -1   1  -6   20.90    1.40
  -1   1  -6   21.78    1.54
  -1   1  -6   21.99    1.53
   1   1   6   20.35    1.50
   1   1   6   19.32    1.34
   1   1   6   22.90    1.50
   1   1   6   24.67    1.42
  -1   1  -6   20.52    1.35
   1   1   6   23.02    1.51
   1   1   6   24.51    1.38
   1   1   6   24.86    1.35
   1   1   6   19.97    1.38
   1  -1   6   21.02    1.53
   1  -1   6   21.14    1.53
  -1  -1  -6   23.25    1.51
   1  -1   6   22.14    1.36
   1  -1   6   24.83    1.40
  -1  -1  -6   21.82    1.51
   1   1   7   86.42    5.05
   1   1   7   81.62    5.45
  -1   1  -7   82.20    5.51
   1   1   7   86.55    5.16
   1   1   7   84.99    4.93
   1  -1   7   83.99    5.07
   1  -1   7   76.84    4.94
   1  -1   7   70.57    5.49
   1   1   8    8.00    0.52
   1   1   8    7.49    0.57
   1   1   8    7.83    0.51
   1   1   8    7.99    0.49
   1  -1   8    7.06    0.50
   1  -1   8    7.94    0.52
   1   1   9   16.88    1.03
   1   1   9   17.29    1.06
   1   1   9   16.51    1.00
   1   1   9   15.07    1.18
   1   1   9   15.11    1.06
   1   1   9   16.96    1.14
   1  -1   9   15.64    1.02
   1  -1   9   16.75    1.05
   1  -1   9   16.95    1.14
   1   1  10    4.92    0.39
   1   1  10    4.99    0.33
   1   1  10    4.87    0.37
   1   1  10    4.78    0.34
   1   1  10    4.49    0.34
   1   1  10    5.50    0.37
   1   1  10    5.18    0.34
   1   1  10    5.15    0.35
   1   1  10    5.59    0.41
   1  -1  10    5.18    0.30
   1  -1  10    4.88    0.34
   1  -1  10    5.11    0.42
   1  -1  10    5.13    0.38
   1  -1  10    5.33    0.36
   1   1  11   45.60    2.85
   1   1  11   43.88    3.33
   1   1  11   48.36    3.05
   1   1  11   45.58    3.08
   1   1  11   48.34    2.92
   1   1  11   45.75    3.38
   1   1  11   49.53    2.95
   1   1  11   50.60    3.18
   1  -1  11   49.73    3.05
   1  -1  11   46.08    2.75
   1  -1  11   41.40    2.95
   1  -1  11   46.94    2.95
   1  -1  11   49.61    2.87
   1  -1  11   45.54    3.17
   1   1  12   11.27    0.70
   1   1  12   10.27    0.70
   1   1  12   11.50    0.79
   1   1  12   11.45    0.80
   1   1  12    9.05    0.67
   1   1  12   10.59    0.71
   1   1  12   10.05    0.68
   1   1  12   11.02    0.77
   1  -1  12   12.02    0.63
   1  -1  12    9.44    0.73
   1  -1  12    9.83    0.78
   1  -1  12   10.54    0.70
   1  -1  12   10.60    0.69
   1  -1  12   10.76    0.71
   1   1  13   26.98    1.82
   1   1  13   26.50    1.93
   1   1  13   30.35    2.03
   1   1  13   29.93    2.00
   1   1  13   29.22    1.77
   1   1  13   29.20    1.85
   1  -1  13   24.91    1.93
   1  -1  13   29.34    1.83
   1  -1  13   25.60    1.65
   1  -1  13   27.44    1.77
   1   1  14    0.31    0.04
   1   1  14    0.29    0.09
   1   1  14    0.29    0.07
   1   1  14    0.29    0.05
   1  -1  14    0.25    0.06
   1  -1  14    0.27    0.09
   1  -1  14    0.33    0.06
   1  -1  14    0.29    0.03
   1   1  15    3.73    0.28
   1   1  15    3.74    0.31
   1   1  15    3.58    0.25
   1  -1  15    3.78    0.26
   1  -1  15    3.56    0.31
   1  -1  15    4.04    0.26
   1   1  16    1.63    0.14
   1   1  16    1.66    0.12
   1   1  16    1.94    0.16
   1  -1  16    1.39    0.13
   1  -1  16    1.55    0.14
   1  -1  16    1.70    0.15
   1   1  17   10.70    0.81
   1   1  17   11.11    0.70
   1  -1  17   11.29    0.81
   1   1  18    0.49    0.06
   1  -1  18    0.53    0.05
  -1   2  17    1.14    0.11
  -1  -2  17    1.24    0.12
  -1   2  16    1.04    0.11
  -1   2  16    1.10    0.11
  -1  -2  16    0.83    0.10
  -1  -2  16    1.12    0.12
  -1   2  15    0.68    0.09
  -1   2  15    0.62    0.06
  -1   2  15    0.48    0.07
  -1   2  15    0.60    0.08
  -1  -2  15    0.51    0.08
  -1   2  14    1.11    0.12
  -1   2  14    0.92    0.10
  -1   2  14    1.05    0.11
  -1   2  14    0.93    0.08
  -1  -2  14    1.00    0.08
  -1  -2  14    0.94    0.11
  -1   2  13    5.37    0.36
  -1   2  13    5.53    0.42
  -1   2  13    5.55    0.39
  -1   2  13    5.58    0.44
  -1  -2  13    5.66    0.34
  -1  -2  13    5.88    0.39
  -1   2  12    2.97    0.21
  -1   2  12    3.04    0.19
  -1   2  12    2.84    0.25
  -1   2  12    3.06    0.26
  -1   2  12    2.60    0.31
  -1   2  12    2.86    0.23
  -1  -2  12    2.69    0.18
  -1  -2  12    2.59    0.21
  -1  -2  12    2.88    0.29
  -1   2  11    8.19    0.55
  -1   2  11    8.39    0.58
  -1   2  11    8.35    0.60
  -1   2  11    7.35    0.61
  -1   2  11    7.19    0.62
  -1   2  11    7.89    0.52
  -1   2  11    9.23    0.56
  -1  -2  11    8.56    0.49
  -1   2  10    6.34    0.41
  -1   2  10    5.33    0.45
  -1   2  10    6.62    0.44
  -1   2  10    6.34    0.41
  -1   2  10    6.34    0.44
  -1   2  10    5.20    0.47
  -1   2  10    6.11    0.39
  -1  -2  10    5.78    0.36
  -1   2   9    1.02    0.09
  -1   2   9    1.08    0.10
  -1   2   9    0.90    0.10
  -1   2   9    0.88    0.09
  -1   2   9    0.90    0.07
  -1   2   9    0.95    0.15
  -1   2   9    0.83    0.12
  -1   2   9    1.24    0.13
  -1  -2   9    0.97    0.14
  -1   2   8    6.31    0.42
  -1   2   8    5.49    0.45
  -1  -2   8    6.35    0.40
  -1  -2   8    5.57    0.42
   1   2  -7    5.05    0.36
  -1   2   7    5.38    0.37
   1   2  -7    5.86    0.38
  -1   2   7    4.76    0.40
  -1  -2   7    5.66    0.37
  -1  -2   7    5.47    0.38
   1   2  -6    4.91    0.30
  -1   2   6    5.28    0.35
   1   2  -6    4.92    0.41
   1   2  -6    5.13    0.33
   1   2  -6    4.64    0.41
   1   2  -6    5.54    0.36
  -1   2   6    4.67    0.38
  -1   2   6    4.97    0.29
  -1  -2   6    4.75    0.36
  -1  -2   6    4.83    0.42
  -1  -2   6    5.39    0.34
  -1  -2   6    5.14    0.41
   1   2  -5    1.28    0.10
   1   2  -5    1.50    0.12
  -1   2   5    1.19    0.14
   1   2  -5    1.44    0.16
  -1   2   5    1.22    0.09
   1   2  -5    1.22    0.14
  -1   2   5    1.39    0.14
   1   2  -5    1.38    0.17
  -1   2   5    1.34    0.13
  -1  -2   5    1.33    0.12
  -1  -2   5    1.52    0.17
  -1  -2   5    1.36    0.14
  -1  -2   5    1.39    0.17
   1   2  -4    2.69    0.23
  -1   2   4    2.69    0.20
   1   2  -4    2.68    0.19
  -1   2   4    2.83    0.21
  -1   2   4    2.52    0.16
   1   2  -4    2.80    0.17
   1   2  -4    2.43    0.24
  -1   2   4    2.35    0.21
   1   2  -4    2.70    0.20
  -1  -2   4    2.37    0.20
  -1  -2   4    2.73    0.24
  -1  -2   4    2.59    0.19
  -1  -2   4    2.60    0.24
   1   2  -3    3.01    0.18
  -1   2   3    2.85    0.18
  -1   2   3    2.95    0.21
  -1   2   3    3.07    0.22
   1   2  -3    2.96    0.21
   1   2  -3    3.15    0.26
   1   2  -3    2.83    0.25
  -1   2   3    2.78    0.23
   1   2  -3    3.10    0.20
  -1  -2   3    3.05    0.25
  -1  -2   3    2.45    0.21
  -1  -2   3    3.04    0.27
  -1  -2   3    2.64    0.21
  -1   2   2   57.99    3.60
   1   2  -2   59.83    3.22
  -1   2   2   56.39    3.22
  -1   2   2   54.35    3.81
  -1   2   2   57.83    3.80
   1   2  -2   58.41    3.54
   1   2  -2   59.43    3.83
   1   2  -2   61.79    3.45
  -1  -2   2   47.92    3.54
  -1  -2   2   62.97    3.84
  -1  -2   2   51.15    3.45
  -1  -2   2   58.35    3.83
   1   2  -1    2.00    0.17
  -1   2   1    2.01    0.15
  -1   2   1    1.92    0.13
  -1   2   1    2.03    0.14
  -1   2   1    2.00    0.16
   1   2  -1    1.68    0.18
   1   2  -1    1.85    0.14
   1   2  -1    1.96    0.14
  -1   2   1    2.07    0.17
   1   2  -1    1.66    0.15
   1   2  -1    2.04    0.15
  -1   2   1    1.86    0.16
  -1   2   1    1.94    0.13
  -1   2   1    1.99    0.13
   1   2  -1    2.15    0.14
  -1   2   1    1.89    0.13
  -1   2   1    1.87    0.13
  -1  -2   1    2.05    0.18
  -1  -2   1    2.16    0.19
   1  -2  -1    2.07    0.16
   1  -2  -1    2.06    0.15
  -1   2   0  535.70   35.12
  -1   2   0  536.53   34.48
   1   2   0  576.50   31.44
   1   2   0  545.50   37.21
  -1   2   0  575.03   37.20
   1   2   0  520.19   34.48
   1   2   0  502.56   33.65
   1   2   0  527.97   37.12
  -1   2   0  521.76   37.12
  -1   2   0  577.33   31.43
   1   2   0  580.30   37.19
   1  -2   0  589.64   37.20
  -1  -2   0  591.89   37.21
   1  -2   0  638.69   37.21
   1   2   1    3.24    0.28
   1   2   1    4.04    0.24
   1   2   1    4.00    0.29
   1   2   1    3.76    0.28
   1   2   1    3.62    0.25
  -1   2  -1    3.62    0.24
   1   2   1    3.91    0.24
  -1   2  -1    3.90    0.29
   1   2   1    3.86    0.25
  -1   2  -1    3.58    0.26
   1   2   1    3.99    0.24
  -1   2  -1    4.10    0.25
  -1   2  -1    4.13    0.30
   1   2   1    3.89    0.28
   1  -2   1    4.09    0.30
  -1  -2  -1    3.94    0.28
   1  -2   1    4.24    0.30
   1   2   2  105.32    6.46
   1   2   2   97.71    5.47
   1   2   2   91.22    6.45
  -1   2  -2   97.84    5.47
   1   2   2  103.11    6.12
   1   2   2  102.64    6.00
   1   2   2   98.06    6.46
   1   2   2   92.15    5.86
   1   2   2   91.87    6.00
  -1   2  -2   86.73    6.00
  -1   2  -2  101.51    5.88
   1   2   2   99.73    5.85
   1   2   2   99.39    6.47
  -1   2  -2  107.01    6.49
   1  -2   2  101.30    6.50
   1  -2   2   86.15    5.86
   1  -2   2   96.26    6.49
   1  -2   2   87.55    6.00
  -1  -2  -2  101.11    6.47
   1   2   3    2.44    0.21
   1   2   3    2.78    0.18
   1   2   3    2.23    0.18
   1   2   3    2.55    0.16
  -1   2  -3    2.52    0.16
  -1   2  -3    2.56    0.18
  -1   2  -3    2.77    0.23
   1  -2   3    2.23    0.18
   1  -2   3    2.44    0.19
   1  -2   3    2.49    0.23
   1  -2   3    2.42    0.23
   1   2   4    1.02    0.13
  -1   2  -4    1.25    0.11
  -1   2  -4    1.33    0.14
  -1   2  -4    1.35    0.10
  -1   2  -4    1.41    0.17
   1   2   4    1.22    0.11
  -1   2  -4    1.03    0.14
   1   2   4    1.15    0.09
   1   2   4    1.42    0.12
   1  -2   4    1.32    0.13
   1  -2   4    1.09    0.16
   1  -2   4    1.15    0.12
   1  -2   4    1.09    0.15
  -1   2  -5    1.02    0.11
   1   2   5    0.95    0.08
   1   2   5    0.85    0.13
  -1   2  -5    0.92    0.14
   1   2   5    1.02    0.11
  -1   2  -5    1.05    0.12
  -1   2  -5    0.93    0.15
   1  -2   5    0.76    0.15
   1  -2   5    1.15    0.12
   1  -2   5    0.97    0.10
   1  -2   5    0.91    0.14
   1   2   6   21.04    1.44
   1   2   6   20.62    1.44
  -1   2  -6   22.60    1.32
   1   2   6   21.32    1.46
   1   2   6   24.60    1.38
  -1   2  -6   21.53    1.50
   1   2   6   22.40    1.33
   1   2   6   20.74    1.29
  -1   2  -6   22.12    1.36
   1   2   6   22.56    1.33
   1   2   6   20.87    1.30
   1   2   6   21.06    1.22
  -1   2  -6   21.23    1.51
   1  -2   6   21.14    1.32
  -1  -2  -6   18.30    1.44
   1  -2   6   22.74    1.36
   1  -2   6   20.44    1.49
  -1   2  -7    0.75    0.13
   1   2   7    0.71    0.07
   1   2   7    0.91    0.10
   1   2   7    0.71    0.06
   1   2   7    0.81    0.06
   1   2   7    0.72    0.13
   1   2   7    0.84    0.07
   1  -2   7    0.81    0.12
   1  -2   7    0.80    0.10
   1   2   8    2.74    0.21
   1   2   8    2.31    0.25
   1   2   8    2.38    0.16
   1   2   8    2.25    0.16
   1   2   8    2.72    0.16
   1   2   8    2.44    0.16
   1  -2   8    2.44    0.24
   1   2   9    2.55    0.16
   1   2   9    2.18    0.16
   1   2   9    2.48    0.16
   1   2   9    2.44    0.16
   1   2   9    2.73    0.20
   1   2   9    2.54    0.18
   1   2   9    2.25    0.16
   1   2   9    2.43    0.21
   1   2   9    3.13    0.22
   1   2   9    2.11    0.17
   1   2   9    2.75    0.18
   1   2   9    2.35    0.26
   1   2   9    2.70    0.17
   1  -2   9    2.57    0.16
   1   2  10    0.26    0.09
   1   2  10    0.35    0.06
   1   2  10    0.39    0.06
   1   2  10    0.26    0.10
   1   2  10    0.53    0.06
   1   2  10    0.35    0.05
   1   2  10    0.35    0.04
   1  -2  10    0.31    0.04
   1   2  11    1.61    0.15
   1   2  11    1.39    0.22
   1   2  11    1.51    0.17
   1   2  11    1.48    0.11
   1   2  11    1.66    0.13
   1  -2  11    1.65    0.11
   1  -2  11    1.66    0.22
   1   2  12   14.26    1.04
   1   2  12   14.82    1.02
   1   2  12   14.34    0.95
   1   2  12   12.96    0.90
   1   2  12   14.96    1.05
   1  -2  12   13.18    0.94
   1  -2  12   14.25    1.03
   1  -2  12   15.01    0.84
   1   2  13    0.41    0.10
   1   2  13    0.35    0.05
   1   2  13    0.29    0.08
   1   2  13    0.44    0.06
   1  -2  13    0.39    0.05
   1  -2  13    0.41    0.06
   1   2  14    3.37    0.25
   1   2  14    2.46    0.20
   1   2  14    3.10    0.22
   1   2  14    3.31    0.24
   1  -2  14    3.10    0.22
   1  -2  14    2.87    0.19
   1   2  15    1.52    0.14
   1   2  15    1.35    0.10
   1   2  15    1.52    0.16
   1  -2  15    1.49    0.14
   1  -2  15    1.29    0.12
   1  -2  15    1.13    0.09
   1   2  16    0.28    0.09
   1   2  16    0.43    0.04
   1   2  16    0.36    0.06
   1  -2  16    0.57    0.07
   1  -2  16    0.57    0.06
   1   2  17    0.03    0.03
   1   2  17   -0.02    0.05
   1  -2  17    0.04    0.05
   1  -2  17    0.01    0.03
  -1   3  17    3.06    0.22
  -1  -3  17    2.83    0.23
  -1   3  16    3.26    0.25
  -1   3  16    3.07    0.24
  -1  -3  16    3.24    0.26
  -1   3  15    2.27    0.18
  -1   3  15    2.14    0.19
  -1  -3  15    2.35    0.17
  -1   3  14    2.95    0.25
  -1   3  14    2.92    0.23
  -1   3  14    2.70    0.21
  -1  -3  14    2.87    0.18
  -1   3  13    2.54    0.22
  -1   3  13    2.63    0.19
  -1   3  13    2.47    0.22
  -1  -3  13    2.65    0.17
  -1   3  12    0.25    0.09
  -1   3  12    0.37    0.06
  -1   3  12    0.32    0.06
  -1   3  12    0.32    0.05
  -1  -3  12    0.33    0.04
  -1   3  11   -0.14    0.07
  -1   3  11    0.04    0.05
  -1   3  11    0.02    0.04
  -1   3  11    0.03    0.01
  -1   3  11    0.14    0.10
  -1   3  11    0.12    0.06
  -1  -3  11    0.09    0.04
  -1   3  10    4.24    0.37
  -1   3  10    4.85    0.33
  -1   3  10    4.23    0.39
  -1   3  10    4.23    0.30
  -1   3  10    5.14    0.33
  -1   3  10    4.89    0.36
  -1   3  10    5.25    0.36
  -1   3  10    5.02    0.33
  -1   3   9   21.82    1.35
  -1   3   9   21.49    1.33
   1   3  -9   19.02    1.19
  -1   3   9   22.29    1.44
  -1   3   9   18.36    1.27
  -1   3   9   18.73    1.39
  -1   3   9   21.63    1.32
  -1   3   9   18.36    1.46
  -1   3   9   20.13    1.33
  -1   3   8   18.57    1.20
  -1   3   8   15.29    1.06
  -1   3   8   17.42    1.11
  -1   3   8   17.02    1.11
  -1   3   8   17.86    1.12
  -1   3   8   14.91    1.08
  -1   3   8   19.31    1.10
  -1   3   8   17.18    1.16
   1   3  -8   15.47    0.99
  -1   3   8   15.91    1.22
  -1   3   7   27.74    1.88
   1   3  -7   27.71    1.76
   1   3  -7   26.40    1.70
  -1   3   7   27.16    1.83
  -1   3   7   29.17    1.78
  -1   3   7   27.44    1.97
  -1   3   7   28.59    1.84
   1   3  -6    0.35    0.07
  -1   3   6    0.30    0.08
   1   3  -6    0.52    0.10
   1   3  -6    0.29    0.05
  -1   3   6    0.38    0.05
  -1   3   6    0.37    0.08
  -1   3   6    0.30    0.08
  -1   3   5    0.69    0.09
   1   3  -5    0.86    0.11
  -1   3   5    0.67    0.10
  -1   3   5    0.58    0.10
   1   3  -5    0.73    0.08
   1   3  -5    0.72    0.09
  -1   3   5    0.64    0.07
  -1   3   4   32.27    2.11
   1   3  -4   33.37    1.91
  -1   3   4   30.25    2.11
   1   3  -4   32.36    1.78
  -1   3   4   29.40    1.99
  -1   3   4   30.96    1.78
   1   3  -4   31.26    1.97
   1   3  -3   23.93    1.73
  -1   3   3   24.40    1.61
  -1   3   3   25.46    1.44
   1   3  -3   26.47    1.54
   1   3  -3   26.57    1.44
  -1   3   3   23.79    1.71
  -1   3   3   25.16    1.70
   1   3  -3   26.72    1.59
   1   3  -2    4.79    0.35
   1   3  -2    4.87    0.30
   1   3  -2    4.09    0.36
   1   3  -2    4.71    0.32
  -1   3   2    4.88    0.29
   1   3  -2    4.40    0.35
  -1   3   2    4.27    0.31
  -1   3   2    4.75    0.35
   1   3  -2    4.73    0.29
  -1   3   1   30.33    1.83
  -1   3   1   30.96    1.88
   1   3  -1   31.63    2.04
   1   3  -1   33.68    1.72
  -1   3   1   30.66    2.04
  -1   3   1   27.26    2.03
  -1   3   1   31.44    1.72
  -1   3   1   31.50    1.83
   1   3  -1   31.01    1.89
  -1   3   1   30.69    2.04
  -1   3   1   28.07    1.91
   1   3  -1   29.06    1.89
   1   3  -1   27.56    2.05
   1   3  -1   31.02    2.05
   1   3  -1   26.87    1.84
   1   3  -1   33.98    1.84
  -1   3   1   31.37    1.88
   1  -3  -1   31.37    2.03
   1  -3  -1   27.89    2.03
  -1  -3   1   29.76    2.06
  -1   3   0   52.90    3.48
   1   3   0   55.41    3.77
  -1   3   0   55.20    3.77
   1   3   0   58.98    3.77
   1   3   0   50.65    3.39
  -1   3   0   61.94    3.40
   1   3   0   59.76    3.39
  -1   3   0   54.32    3.77
   1   3   0   54.07    3.48
  -1   3   0   60.17    3.48
   1   3   0   61.22    3.18
  -1   3   0   52.34    3.76
  -1   3   0   54.17    3.40
  -1   3   0   57.93    3.18
   1   3   0   61.04    3.48
   1   3   0   50.60    3.75
  -1  -3   0   54.09    3.77
   1  -3   0   57.37    3.77
   1   3   1   11.35    0.69
  -1   3  -1   10.54    0.77
   1   3   1   12.27    0.64
   1   3   1   11.70    0.75
   1   3   1   11.18    0.69
   1   3   1   10.16    0.76
   1   3   1   10.59    0.67
  -1   3  -1    9.78    0.68
  -1   3  -1   12.12    0.68
  -1   3  -1   11.59    0.64
   1   3   1    9.83    0.75
  -1   3  -1   12.22    0.70
   1   3   1   11.57    0.67
  -1   3  -1   10.79    0.77
  -1   3  -1   10.39    0.70
  -1   3  -1   11.06    0.77
  -1  -3  -1   10.48    0.75
  -1  -3  -1   10.66    0.76
   1  -3   1   10.86    0.78
  -1   3  -2    9.45    0.68
   1   3   2   10.01    0.55
  -1   3  -2    9.12    0.55
  -1   3  -2    8.60    0.68
  -1   3  -2    9.97    0.59
   1   3   2   10.13    0.66
  -1   3  -2    9.23    0.61
  -1   3  -2    9.74    0.67
   1   3   2    8.83    0.65
   1   3   3    7.60    0.44
  -1   3  -3    7.57    0.49
   1   3   3    6.30    0.51
  -1   3  -3    7.27    0.43
   1   3   3    7.82    0.53
  -1   3  -3    7.34    0.46
   1   3   3    7.21    0.48
  -1   3  -3    7.53    0.53
  -1   3  -4    0.83    0.08
   1   3   4    0.79    0.09
   1   3   4    0.80    0.08
  -1   3  -4    0.66    0.09
  -1   3  -4    0.76    0.11
   1   3   4    0.90    0.11
   1   3   4    0.72    0.09
   1   3   5    1.00    0.11
   1   3   5    1.11    0.10
   1   3   5    1.08    0.14
  -1   3  -5    1.03    0.11
  -1   3  -5    1.31    0.14
  -1   3  -5    1.06    0.10
   1   3   5    1.13    0.12
   1   3   6    3.93    0.32
   1   3   6    3.43    0.23
  -1   3  -6    3.78    0.30
  -1   3  -6    3.48    0.27
   1   3   6    4.20    0.28
   1   3   7    7.70    0.58
  -1   3  -7    7.81    0.51
   1   3   7    7.86    0.58
   1   3   7    9.00    0.53
   1   3   7    7.20    0.50
   1   3   7    7.63    0.57
   1   3   7    7.04    0.49
   1   3   7    8.04    0.52
  -1   3  -7    8.59    0.54
   1   3   7    7.66    0.52
   1   3   8   12.13    0.85
  -1   3  -8   11.20    0.70
   1   3   8   11.77    0.78
   1   3   8   10.08    0.74
   1   3   8   12.70    0.79
   1   3   8   13.28    0.79
   1   3   8   11.91    0.85
   1   3   8   11.93    0.86
   1   3   8   11.92    0.78
   1   3   8   11.39    0.76
   1   3   9    0.09    0.03
  -1   3  -9    0.02    0.03
   1   3   9    0.21    0.12
   1   3   9    0.04    0.03
   1   3   9    0.02    0.05
   1   3   9    0.01    0.05
   1   3   9   -0.03    0.06
   1   3   9    0.03    0.02
   1   3  10    0.51    0.05
   1   3  10    0.79    0.08
   1   3  10    0.75    0.08
   1   3  10    0.55    0.09
   1   3  10    0.76    0.08
   1   3  10    0.49    0.15
   1   3  10    0.68    0.08
   1   3  11   17.93    1.13
   1   3  11   15.90    1.21
   1   3  11   16.26    1.10
   1   3  11   15.88    1.07
   1   3  11   18.56    1.23
   1   3  11   17.19    1.24
   1  -3  11   17.44    1.01
   1   3  12   14.65    0.99
   1   3  12   13.16    0.91
   1   3  12   11.88    0.86
   1   3  12   14.48    1.00
   1  -3  12   14.23    0.81
   1   3  13   14.58    0.95
   1   3  13   14.58    1.05
   1   3  13   13.78    1.03
   1  -3  13   14.22    0.85
   1   3  14    0.75    0.11
   1   3  14    0.98    0.12
   1   3  14    1.06    0.11
   1  -3  14    1.00    0.08
   1   3  15    5.18    0.36
   1   3  15    4.69    0.35
   1  -3  15    3.92    0.35
   1  -3  15    4.76    0.28
   1  -3  15    4.51    0.32
   1   3  16    7.31    0.50
   1   3  16    5.80    0.51
   1  -3  16    7.20    0.46
   1  -3  16    6.81    0.41
   1  -3  16    7.68    0.52
  -1   4  16    0.54    0.06
  -1  -4  16    0.57    0.07
  -1   4  15    0.84    0.09
  -1   4  15    0.89    0.09
  -1  -4  15    1.10    0.08
  -1   4  14    0.45    0.07
  -1   4  14    0.43    0.07
   1   4 -14    0.57    0.06
  -1   4  14    0.46    0.07
  -1   4  13    1.26    0.12
   1   4 -13    1.25    0.09
  -1   4  13    1.19    0.13
  -1  -4  13    1.26    0.10
  -1   4  12    0.14    0.07
  -1   4  12    0.26    0.05
   1   4 -12    0.19    0.04
  -1   4  12    0.18    0.06
  -1   4  12    0.19    0.06
  -1  -4  12    0.19    0.04
  -1   4  11    1.01    0.11
  -1   4  11    0.89    0.11
  -1   4  11    0.93    0.11
   1   4 -11    0.95    0.08
  -1   4  11    0.86    0.11
  -1   4  10   29.31    1.99
  -1   4  10   27.35    2.01
  -1   4  10   29.05    1.85
  -1   4  10   26.62    1.83
  -1   4  10   26.35    1.83
   1   4 -10   28.29    1.64
  -1   4   9    6.58    0.47
  -1   4   9    6.45    0.50
  -1   4   9    7.82    0.49
  -1   4   9    7.35    0.53
   1   4  -9    6.89    0.43
  -1   4   9    7.21    0.49
  -1   4   9    7.44    0.54
  -1   4   9    7.63    0.49
  -1   4   8   12.76    0.86
   1   4  -8   12.26    0.83
  -1   4   8   12.39    0.80
  -1   4   8   13.83    0.86
  -1   4   8   12.91    0.83
   1   4  -8   11.56    0.86
  -1   4   8   12.19    0.84
  -1   4   8   13.75    0.95
   1   4  -8   13.56    0.77
  -1   4   8   12.92    0.86
  -1   4   8   13.89    0.93
   1   4  -8   12.64    0.86
  -1   4   8   13.30    0.87
   1   4  -7    7.38    0.50
   1   4  -7    7.73    0.46
  -1   4   7    7.82    0.57
  -1   4   7    7.56    0.50
   1   4  -7    7.82    0.51
  -1   4   7    7.65    0.53
  -1   4   7    7.93    0.52
   1   4  -7    8.03    0.55
  -1   4   7    7.11    0.50
  -1   4   7    8.02    0.53
   1   4  -7    7.52    0.52
  -1   4   7    7.64    0.48
  -1   4   7    7.85    0.57
  -1   4   7    8.26    0.52
   1   4  -6   30.56    2.02
  -1   4   6   30.84    2.30
  -1   4   6   31.06    2.10
  -1   4   6   30.16    2.04
  -1   4   6   32.57    2.02
   1   4  -6   30.46    2.01
  -1   4   6   29.35    2.12
   1   4  -6   36.77    2.19
   1   4  -6   32.24    1.87
  -1   4   6   32.46    2.27
   1   4  -6   33.40    1.82
  -1   4   6   32.21    2.04
  -1   4   6   33.70    1.95
  -1   4   6   32.17    1.82
  -1   4   6   32.26    2.10
  -1   4   6   30.79    2.16
  -1   4   6   32.18    2.16
   1   4  -6   33.55    2.02
   1   4  -6   31.29    2.08
   1   4  -5    6.91    0.44
  -1   4   5    6.20    0.48
  -1   4   5    5.60    0.44
  -1   4   5    6.54    0.43
  -1   4   5    6.74    0.41
  -1   4   5    6.42    0.44
  -1   4   5    6.16    0.48
  -1   4   5    6.01    0.48
   1   4  -5    6.80    0.39
  -1   4   5    6.08    0.44
   1   4  -5    7.20    0.47
  -1   4   5    7.01    0.40
  -1   4   5    6.05    0.44
   1   4  -5    6.93    0.43
   1   4  -5    6.62    0.42
   1   4  -5    7.11    0.40
   1   4  -5    6.58    0.42
   1   4  -5    7.60    0.51
  -1   4   5    6.51    0.43
  -1   4   5    6.65    0.48
  -1   4   4    0.06    0.02
   1   4  -4    0.04    0.03
  -1   4   4   -0.06    0.07
  -1   4   4    0.05    0.04
   1   4  -4    0.15    0.08
   1   4  -4    0.09    0.06
   1   4  -4   -0.03    0.03
  -1   4   4    0.01    0.04
   1   4  -4    0.06    0.10
  -1   4   4    0.03    0.05
   1   4  -4    0.03    0.02
  -1   4   4    0.08    0.03
   1   4  -4    0.08    0.06
   1   4  -3    8.79    0.59
  -1   4   3    8.99    0.53
   1   4  -3    8.81    0.53
   1   4  -3    9.26    0.57
  -1   4   3    8.21    0.63
   1   4  -3    9.62    0.65
   1   4  -3    8.84    0.53
  -1   4   2    0.57    0.11
   1   4  -2    0.69    0.10
  -1   4   2    0.77    0.09
   1   4  -2    0.59    0.08
   1   4  -2    0.65    0.08
   1   4  -2    0.63    0.12
  -1   4   1   24.56    1.66
  -1   4   1   24.68    1.50
  -1   4   1   24.91    1.40
   1   4  -1   25.56    1.52
   1   4  -1   26.02    1.40
  -1   4   1   23.11    1.47
   1   4  -1   25.95    1.48
   1   4  -1   22.82    1.65
  -1   4   1   22.33    1.50
  -1   4   1   23.78    1.47
  -1   4   0  263.07   14.88
   1   4   0  278.18   15.91
  -1   4   0  254.01   16.29
  -1   4   0  257.65   17.50
   1   4   0  262.12   16.29
   1   4   0  272.43   14.92
  -1   4   0  256.67   15.90
   1   4   1    0.38    0.04
   1   4   1    0.35    0.04
  -1   4  -1    0.46    0.06
   1   4   1    0.40    0.09
  -1   4  -1    0.46    0.07
  -1   4  -1    0.52    0.06
   1   4   1    0.37    0.04
   1   4   1    0.44    0.08
  -1   4  -1    0.56    0.12
   1   4   1    0.39    0.04
  -1   4  -2    7.70    0.59
   1   4   2    7.20    0.57
  -1   4  -2    8.42    0.53
   1   4   2    8.25    0.49
  -1   4  -2    8.49    0.51
  -1   4  -2    8.14    0.48
   1   4   3    0.27    0.07
  -1   4  -3    0.32    0.04
   1   4   3    0.28    0.04
   1   4   3    0.47    0.07
  -1   4  -3    0.27    0.08
  -1   4  -3    0.31    0.07
  -1   4  -3    0.51    0.12
   1   4   3    0.35    0.05
  -1   4  -3    0.31    0.03
  -1   4  -3    0.29    0.07
   1   4   4   30.80    1.75
  -1   4  -4   29.06    1.99
  -1   4  -4   32.89    2.09
  -1   4  -4   32.99    1.75
  -1   4  -4   32.51    1.93
   1   4   4   30.17    2.21
   1   4   4   27.22    1.93
   1   4   4   31.92    2.08
  -1   4  -4   29.39    1.93
   1   4   4   29.15    1.87
  -1   4  -4   33.25    1.88
  -1   4  -4   30.34    1.80
   1   4   4   30.16    2.18
   1   4   4   30.14    1.96
  -1   4  -5    1.46    0.12
   1   4   5    1.34    0.11
  -1   4  -5    1.25    0.10
   1   4   5    1.14    0.12
   1   4   5    1.32    0.11
   1   4   5    1.39    0.13
  -1   4  -5    1.33    0.09
   1   4   5    1.23    0.11
  -1   4  -5    1.23    0.10
  -1   4  -5    1.75    0.18
   1   4   5    1.40    0.12
   1   4   5    1.24    0.11
  -1   4  -5    1.48    0.16
  -1   4  -5    1.79    0.19
  -1   4  -5    1.21    0.10
   1   4   5    1.36    0.10
   1   4   5    1.37    0.10
   1   4   5    1.35    0.17
  -1   4  -6    9.44    0.63
   1   4   6    8.93    0.66
   1   4   6   10.05    0.66
  -1   4  -6   10.95    0.64
  -1   4  -6   10.00    0.66
  -1   4  -6   10.64    0.67
   1   4   6    9.08    0.66
   1   4   6    9.32    0.63
  -1   4  -6    9.87    0.59
   1   4   6   10.07    0.64
   1   4   6    9.20    0.59
   1   4   6   10.61    0.72
  -1   4  -6   11.96    0.74
   1   4   6   10.10    0.61
   1   4   6    9.56    0.72
   1   4   6   10.23    0.73
  -1   4  -7    1.08    0.16
   1   4   7    1.12    0.09
  -1   4  -7    1.15    0.18
  -1   4  -7    1.07    0.08
   1   4   7    1.01    0.12
   1   4   7    1.15    0.10
   1   4   7    1.16    0.13
   1   4   7    1.02    0.08
   1   4   7    1.11    0.15
   1   4   7    1.07    0.09
  -1   4  -7    0.97    0.10
   1   4   8    0.05    0.02
  -1   4  -8    0.05    0.08
  -1   4  -8    0.06    0.12
  -1   4  -8    0.02    0.04
   1   4   8    0.03    0.03
   1   4   8    0.04    0.05
   1   4   8   -0.17    0.10
   1   4   8    0.07    0.06
   1   4   8    0.01    0.04
  -1   4  -8    0.00    0.03
  -1   4  -8    0.03    0.11
   1   4   8    0.01    0.07
   1   4   9   13.25    1.06
   1   4   9   15.23    1.10
   1   4   9   15.10    1.01
  -1   4  -9   16.03    1.08
   1   4   9   15.99    1.00
  -1   4  -9   14.67    0.89
   1   4   9   15.26    0.97
   1   4   9   14.55    1.08
   1   4  10    1.60    0.13
   1   4  10    1.42    0.11
   1   4  10    1.16    0.20
   1   4  10    1.43    0.13
   1   4  10    1.47    0.17
  -1   4 -10    1.47    0.10
   1   4  10    1.56    0.16
   1   4  11    2.35    0.17
   1   4  11    2.23    0.18
   1   4  11    2.43    0.21
   1   4  11    2.49    0.22
  -1   4 -11    2.57    0.16
   1   4  12    2.00    0.18
   1   4  12    2.00    0.16
   1   4  12    1.97    0.19
  -1   4 -12    2.08    0.13
   1  -4  12    1.99    0.14
   1   4  13    3.50    0.25
  -1   4 -13    3.58    0.22
   1   4  13    3.57    0.28
   1   4  13    3.39    0.28
   1  -4  13    3.43    0.22
   1   4  14    9.42    0.70
   1   4  14    9.45    0.68
  -1   4 -14    9.71    0.56
   1  -4  14    9.21    0.56
   1   4  15    5.89    0.41
  -1   4 -15    5.50    0.34
   1   4  15    6.08    0.42
   1  -4  15    5.59    0.34
   1  -4  15    5.09    0.42
  -1   5  14    1.17    0.10
   1   5 -13    1.58    0.12
  -1   5  13    1.63    0.14
  -1   5  12    0.08    0.06
   1   5 -12    0.12    0.06
  -1   5  12    0.04    0.07
  -1   5  11    6.45    0.49
  -1   5  11    6.23    0.50
  -1   5  11    7.21    0.46
   1   5 -11    6.81    0.45
   1   5 -10    1.89    0.14
  -1   5  10    1.58    0.13
  -1   5  10    1.59    0.16
  -1   5  10    1.67    0.17
  -1   5  10    1.78    0.15
   1   5  -9    1.06    0.08
  -1   5   9    1.13    0.13
  -1   5   9    1.08    0.11
  -1   5   9    0.96    0.09
  -1   5   9    1.02    0.10
   1   5  -9    1.02    0.09
  -1   5   9    0.91    0.09
  -1   5   9    0.97    0.11
  -1   5   9    1.09    0.11
  -1   5   9    1.14    0.11
   1   5  -8    0.86    0.09
  -1   5   8    0.92    0.10
  -1   5   8    1.01    0.12
   1   5  -8    0.75    0.09
   1   5  -8    0.99    0.07
  -1   5   8    0.78    0.09
  -1   5   8    0.80    0.08
  -1   5   8    0.70    0.09
  -1   5   8    0.83    0.10
  -1   5   8    0.85    0.10
   1   5  -8    1.13    0.17
  -1   5   8    0.97    0.09
   1   5  -7    4.84    0.47
  -1   5   7    5.39    0.38
   1   5  -7    5.41    0.37
  -1   5   7    5.71    0.42
  -1   5   7    5.35    0.39
   1   5  -7    5.86    0.38
  -1   5   7    5.97    0.39
  -1   5   7    5.71    0.36
  -1   5   7    5.42    0.37
   1   5  -7    5.59    0.37
  -1   5   7    5.50    0.42
  -1   5   7    5.79    0.38
   1   5  -7    6.21    0.34
  -1   5   6    0.86    0.09
   1   5  -6    1.00    0.07
   1   5  -6    0.88    0.18
   1   5  -6    0.92    0.09
  -1   5   6    0.85    0.08
  -1   5   6    0.88    0.09
   1   5  -6    0.87    0.08
   1   5  -6    0.82    0.11
   1   5  -6    1.02    0.09
  -1   5   6    0.84    0.10
  -1   5   6    0.76    0.09
   1   5  -6    0.94    0.16
  -1   5   6    0.91    0.09
  -1   5   6    0.84    0.10
  -1   5   6    0.76    0.09
   1   5  -5    1.92    0.20
   1   5  -5    1.81    0.23
  -1   5   5    1.98    0.14
  -1   5   5    1.81    0.17
   1   5  -5    1.96    0.14
   1   5  -5    1.88    0.15
   1   5  -5    1.96    0.12
  -1   5   5    2.13    0.15
  -1   5   5    1.92    0.15
  -1   5   5    1.87    0.14
  -1   5   5    1.93    0.16
   1   5  -5    2.01    0.14
  -1   5   5    1.84    0.17
   1   5  -5    1.79    0.17
  -1   5   5    1.63    0.14
   1   5  -5    1.95    0.14
   1   5  -4    0.06    0.03
   1   5  -4    0.06    0.03
   1   5  -4    0.08    0.07
  -1   5   4    0.06    0.06
  -1   5   4    0.08    0.06
  -1   5   4    0.00    0.04
  -1   5   4    0.04    0.04
  -1   5   4    0.04    0.06
   1   5  -4   -0.01    0.09
  -1   5   4   -0.01    0.04
   1   5  -4    0.02    0.03
  -1   5   4    0.03    0.04
   1   5  -4    0.16    0.07
   1   5  -4    0.01    0.06
   1   5  -4   -0.12    0.12
  -1   5   3    3.47    0.23
   1   5  -3    3.28    0.22
   1   5  -3    3.23    0.25
  -1   5   3    3.21    0.24
  -1   5   3    3.44    0.21
   1   5  -3    3.56    0.24
  -1   5   3    3.04    0.26
   1   5  -3    3.30    0.26
   1   5  -3    3.22    0.22
  -1   5   3    3.15    0.23
  -1   5   3    2.66    0.28
   1   5  -3    3.51    0.23
   1   5  -3    3.28    0.32
   1   5  -3    3.40    0.24
   1   5  -3    3.01    0.21
  -1   5   3    3.46    0.22
  -1   5   2    0.14    0.07
   1   5  -2    0.31    0.08
  -1   5   2    0.28    0.05
   1   5  -2    0.24    0.04
  -1   5   2    0.22    0.07
  -1   5   2    0.22    0.02
   1   5  -2    0.21    0.07
   1   5  -2    0.20    0.04
  -1   5   2    0.20    0.03
  -1   5   2    0.19    0.05
   1   5  -2    0.17    0.04
   1   5  -2    0.21    0.03
   1   5  -2    0.31    0.06
   1   5  -2    0.25    0.12
   1   5  -2    0.18    0.07
   1   5  -2    0.21    0.04
  -1   5   2    0.22    0.10
  -1   5   2    0.19    0.07
   1   5  -1    1.63    0.16
   1   5  -1    1.72    0.14
   1   5  -1    1.88    0.16
  -1   5   1    1.67    0.20
  -1   5   1    1.78    0.16
  -1   5   1    1.77    0.13
   1   5  -1    1.73    0.12
   1   5  -1    1.77    0.13
   1   5  -1    1.62    0.12
   1   5  -1    1.69    0.12
  -1   5   1    1.74    0.14
   1   5  -1    1.74    0.13
   1   5  -1    1.63    0.15
  -1   5   1    1.81    0.16
  -1   5   1    1.84    0.14
  -1   5   1    1.77    0.12
   1   5  -1    1.63    0.20
   1   5   0    1.29    0.11
  -1   5   0    1.49    0.10
   1   5   0    1.35    0.14
  -1   5   0    1.35    0.10
   1   5   0    1.15    0.12
  -1   5   0    1.32    0.12
  -1   5   0    1.48    0.12
   1   5   0    1.28    0.12
  -1   5   0    1.47    0.14
  -1   5   0    1.66    0.19
   1   5   0    1.38    0.17
   1   5   0    1.38    0.10
   1   5   0    1.51    0.12
  -1   5   0    1.25    0.12
   1   5   1   24.47    1.71
  -1   5  -1   23.52    1.63
  -1   5  -1   25.22    1.52
   1   5   1   23.27    1.45
  -1   5  -1   23.44    1.54
  -1   5  -1   24.16    1.37
  -1   5  -1   22.71    1.48
  -1   5  -1   22.16    1.45
   1   5   1   22.45    1.37
   1   5   1   24.41    1.52
   1   5   1   21.53    1.56
  -1   5  -1   24.66    1.50
  -1   5  -1   24.06    1.49
   1   5   1   24.91    1.50
   1   5   1   24.33    1.49
  -1   5  -1   23.74    1.57
  -1   5  -1   23.31    1.44
  -1   5  -2    0.33    0.05
  -1   5  -2    0.36    0.04
   1   5   2    0.25    0.07
  -1   5  -2    0.40    0.11
   1   5   2    0.30    0.04
  -1   5  -2    0.28    0.04
   1   5   2    0.26    0.06
  -1   5  -2    0.38    0.08
   1   5   2    0.21    0.05
   1   5   2    0.28    0.08
   1   5   2    0.25    0.03
  -1   5  -2    0.27    0.04
  -1   5  -2    0.29    0.07
  -1   5  -2    0.23    0.08
  -1   5  -2    0.27    0.09
   1   5   2    0.29    0.04
   1   5   3    0.15    0.03
  -1   5  -3    0.32    0.11
   1   5   3    0.12    0.04
  -1   5  -3    0.18    0.04
   1   5   3    0.10    0.07
  -1   5  -3    0.18    0.04
  -1   5  -3    0.20    0.07
  -1   5  -3    0.14    0.07
   1   5   3    0.10    0.07
   1   5   3    0.06    0.05
   1   5   3    0.19    0.07
   1   5   3    0.09    0.05
  -1   5  -3   -0.01    0.09
  -1   5  -3    0.24    0.06
  -1   5  -3    0.15    0.04
  -1   5  -3    0.11    0.04
   1   5   4    0.40    0.06
  -1   5  -4    0.26    0.08
  -1   5  -4    0.43    0.08
  -1   5  -4    0.51    0.16
  -1   5  -4    0.38    0.05
   1   5   4    0.31    0.06
   1   5   4    0.43    0.08
  -1   5  -4    0.44    0.05
   1   5   4    0.42    0.05
  -1   5  -4    0.47    0.12
  -1   5  -4    0.54    0.09
   1   5   4    0.37    0.08
  -1   5  -4    0.39    0.05
   1   5   4    0.31    0.08
   1   5   4    0.34    0.05
  -1   5  -5    0.48    0.12
   1   5   5    0.36    0.05
  -1   5  -5    0.34    0.10
   1   5   5    0.39    0.06
   1   5   5    0.33    0.06
  -1   5  -5    0.55    0.09
  -1   5  -5    0.40    0.05
   1   5   5    0.37    0.08
  -1   5  -5    0.37    0.04
   1   5   5    0.26    0.06
   1   5   5    0.32    0.08
  -1   5  -5    0.42    0.05
  -1   5  -5    0.34    0.11
  -1   5  -5    0.41    0.05
   1   5   5    0.52    0.08
  -1   5  -6    0.15    0.10
  -1   5  -6    0.05    0.04
  -1   5  -6    0.03    0.02
   1   5   6    0.04    0.05
   1   5   6    0.02    0.04
  -1   5  -6    0.15    0.11
   1   5   6    0.00    0.04
  -1   5  -6    0.16    0.05
   1   5   6    0.03    0.07
   1   5   6    0.04    0.03
   1   5   6    0.10    0.05
   1   5   7    0.78    0.08
   1   5   7    0.79    0.09
   1   5   7    0.81    0.08
  -1   5  -7    0.75    0.06
   1   5   7    0.67    0.08
  -1   5  -7    0.86    0.09
   1   5   7    0.81    0.10
  -1   5  -7    0.49    0.17
  -1   5  -7    0.79    0.09
   1   5   7    0.79    0.09
   1   5   8    1.60    0.14
   1   5   8    1.75    0.17
  -1   5  -8    1.65    0.11
  -1   5  -8    1.71    0.14
   1   5   8    1.57    0.15
   1   5   8    1.70    0.13
   1   5   8    1.66    0.13
   1   5   8    1.70    0.12
   1   5   9    0.68    0.09
   1   5   9    0.57    0.07
   1   5   9    0.63    0.07
   1   5   9    0.72    0.08
  -1   5  -9    0.63    0.06
   1   5   9    0.63    0.08
  -1   5  -9    0.53    0.07
   1   5   9    0.50    0.06
  -1   5 -10    0.16    0.03
   1   5  10    0.08    0.05
  -1   5 -10    0.18    0.06
   1   5  10    0.29    0.05
   1   5  10    0.18    0.06
   1   5  10    0.20    0.07
   1   5  11   -0.01    0.04
   1   5  11    0.18    0.06
   1   5  11   -0.02    0.06
  -1   5 -11    0.09    0.06
   1   5  11    0.10    0.08
  -1   5 -11    0.09    0.03
   1   5  12    0.06    0.08
  -1   5 -12    0.10    0.03
   1   5  12    0.11    0.06
  -1   5 -12    0.15    0.06
   1   5  13    4.34    0.33
  -1   5 -13    3.96    0.30
  -1   5 -13    4.11    0.26
   1   5  13    4.80    0.32
  -1   5 -13    4.04    0.29
   1  -5  13    4.58    0.26
  -1   5 -14    0.43    0.04
  -1   5 -14    0.51    0.06
   1  -5  14    0.45    0.04
   1   6 -12    0.19    0.05
  -1   6  12    0.02    0.04
   1   6 -11    0.44    0.07
  -1   6  11    0.35    0.06
  -1   6  10    1.94    0.17
  -1   6  10    2.22    0.17
  -1   6   9    0.11    0.07
  -1   6   9    0.16    0.05
   1   6  -9    0.18    0.05
  -1   6   9    0.13    0.05
  -1   6   9    0.09    0.05
  -1   6   9    0.23    0.04
   1   6  -9    0.12    0.08
  -1   6   9    0.07    0.04
  -1   6   9    0.12    0.06
  -1   6   8    4.40    0.30
   1   6  -8    5.14    0.32
  -1   6   8    4.23    0.29
  -1   6   8    4.46    0.28
   1   6  -8    4.34    0.29
  -1   6   8    4.11    0.29
  -1   6   8    4.03    0.33
   1   6  -8    4.80    0.30
  -1   6   8    3.60    0.32
  -1   6   7    0.36    0.08
   1   6  -7    0.55    0.10
   1   6  -7    0.60    0.06
  -1   6   7    0.49    0.06
   1   6  -7    0.50    0.06
  -1   6   7    0.57    0.07
  -1   6   7    0.35    0.07
  -1   6   7    0.50    0.08
   1   6  -7    0.61    0.06
  -1   6   6    4.89    0.42
   1   6  -6    5.56    0.37
  -1   6   6    5.60    0.37
   1   6  -6    5.87    0.37
  -1   6   6    5.56    0.39
   1   6  -6    5.70    0.39
  -1   6   6    5.33    0.37
  -1   6   6    5.75    0.36
   1   6  -6    5.78    0.38
  -1   6   5    1.23    0.10
  -1   6   5    1.13    0.10
   1   6  -5    1.13    0.09
   1   6  -5    1.23    0.13
  -1   6   5    1.18    0.11
   1   6  -5    1.23    0.11
   1   6  -5    1.13    0.09
  -1   6   5    1.03    0.13
  -1   6   5    1.09    0.13
   1   6  -4    0.06    0.04
   1   6  -4    0.06    0.04
  -1   6   4    0.01    0.05
   1   6  -4    0.08    0.05
  -1   6   4    0.03    0.03
  -1   6   4   -0.07    0.07
   1   6  -4    0.06    0.09
  -1   6   4    0.02    0.04
  -1   6   3    3.75    0.25
  -1   6   3    3.68    0.24
   1   6  -3    3.69    0.27
   1   6  -3    3.51    0.24
   1   6  -3    3.87    0.25
  -1   6   3    3.74    0.25
   1   6  -3    3.39    0.23
  -1   6   3    3.53    0.27
   1   6  -2    1.33    0.14
   1   6  -2    1.51    0.12
   1   6  -2    1.50    0.11
   1   6  -2    1.33    0.13
  -1   6   2    1.60    0.12
   1   6  -2    1.45    0.12
  -1   6   2    1.34    0.14
  -1   6   2    1.41    0.14
  -1   6   2    1.56    0.14
  -1   6   2    1.57    0.12
   1   6  -1    1.64    0.17
  -1   6   1    1.56    0.17
   1   6  -1    1.71    0.18
  -1   6   1    1.92    0.15
   1   6  -1    1.73    0.15
   1   6  -1    1.80    0.13
  -1   6   1    1.78    0.16
  -1   6   1    1.88    0.13
  -1   6   1    1.70    0.12
   1   6  -1    1.96    0.13
  -1   6   0  130.53    7.63
   1   6   0  122.78    7.40
  -1   6   0  125.47    7.41
  -1   6   0  109.36    6.85
  -1   6   0  128.39    7.94
  -1   6   0  119.48    7.62
   1   6   0  130.60    7.77
   1   6   0  106.88    6.85
   1   6   0  119.12    7.94
   1   6   0  120.67    7.62
   1   6   0  120.55    7.63
  -1   6  -1    6.08    0.38
   1   6   1    5.78    0.36
   1   6   1    5.88    0.38
  -1   6  -1    5.57    0.36
  -1   6  -1    5.28    0.40
   1   6   1    5.68    0.38
   1   6   1    5.99    0.36
   1   6   1    4.83    0.37
  -1   6  -1    6.13    0.37
   1   6   1    5.21    0.40
  -1   6  -2    0.20    0.09
  -1   6  -2    0.31    0.04
   1   6   2    0.29    0.05
   1   6   2    0.24    0.07
   1   6   2    0.32    0.07
   1   6   2    0.31    0.06
   1   6   2    0.25    0.05
  -1   6  -2    0.13    0.16
  -1   6  -2    0.21    0.06
  -1   6  -2    0.22    0.04
  -1   6  -3    0.06    0.03
  -1   6  -3    0.07    0.06
  -1   6  -3    0.04    0.04
   1   6   3    0.01    0.06
   1   6   3    0.16    0.05
  -1   6  -3    0.08    0.09
  -1   6  -3    0.04    0.04
   1   6   3    0.06    0.04
   1   6   3    0.04    0.04
   1   6   4   30.03    1.96
  -1   6  -4   30.20    1.96
  -1   6  -4   33.11    2.05
  -1   6  -4   30.75    1.95
  -1   6  -4   30.50    2.02
   1   6   4   32.44    1.99
   1   6   4   32.08    2.24
   1   6   4   31.68    1.90
   1   6   4   28.19    2.04
   1   6   5    0.63    0.11
  -1   6  -5    0.77    0.08
   1   6   5    0.71    0.08
  -1   6  -5    0.95    0.10
   1   6   5    0.77    0.09
  -1   6  -5    0.74    0.08
  -1   6  -5    0.68    0.07
   1   6   5    0.74    0.07
   1   6   6    1.68    0.13
  -1   6  -6    1.77    0.13
  -1   6  -6    1.69    0.13
  -1   6  -6    1.65    0.15
   1   6   6    1.54    0.14
   1   6   6    1.58    0.13
   1   6   6    1.56    0.17
   1   6   7    0.30    0.05
   1   6   7    0.29    0.04
  -1   6  -7    0.15    0.05
  -1   6  -7    0.09    0.05
   1   6   7    0.10    0.06
   1   6   7    0.18    0.06
  -1   6  -7    0.24    0.09
   1   6   7    0.20    0.06
   1   6   8    2.27    0.22
  -1   6  -8    2.90    0.19
   1   6   8    2.64    0.17
  -1   6  -8    2.64    0.19
   1   6   8    2.67    0.23
   1   6   8    2.59    0.18
  -1   6  -8    2.77    0.21
  -1   6  -9    0.08    0.04
  -1   6  -9    0.09    0.06
  -1   6  -9    0.16    0.05
   1   6   9    0.05    0.04
   1   6   9    0.08    0.08
   1   6   9    0.14    0.06
   1   6  10    4.81    0.32
   1   6  10    5.15    0.37
   1   6  10    4.49    0.36
  -1   6 -10    4.59    0.34
  -1   6 -10    5.07    0.33
  -1   6 -11    1.34    0.10
   1   6  11    1.16    0.11
  -1   6 -11    1.12    0.11
   1   6  12    0.29    0.05
  -1   6 -12    0.44    0.05
   1   7  -9    0.18    0.05
   1   7  -8   -0.03    0.05
  -1   7   8    0.07    0.03
   1   7  -7    0.53    0.09
  -1   7   7    0.53    0.07
  -1   7   6    1.92    0.16
  -1   7   6    2.21    0.16
   1   7  -6    2.12    0.17
   1   7  -6    2.20    0.15
   1   7  -6    2.21    0.15
   1   7  -5    1.33    0.10
   1   7  -5    1.03    0.12
  -1   7   5    1.17    0.10
  -1   7   5    1.25    0.12
   1   7  -5    1.17    0.11
   1   7  -4    0.09    0.04
   1   7  -4    0.01    0.06
  -1   7   4    0.11    0.05
  -1   7   4   -0.02    0.04
  -1   7   4    0.05    0.05
   1   7  -4    0.04    0.03
   1   7  -3    0.46    0.09
  -1   7   3    0.32    0.06
  -1   7   3    0.42    0.06
   1   7  -3    0.29    0.04
  -1   7   3    0.41    0.07
   1   7  -3    0.44    0.06
   1   7  -2   -0.01    0.05
   1   7  -2    0.03    0.03
   1   7  -2    0.00    0.06
  -1   7   2   -0.05    0.05
  -1   7   2    0.05    0.05
  -1   7   2   -0.03    0.05
   1   7  -1    1.63    0.13
  -1   7   1    1.61    0.17
  -1   7   1    1.94    0.15
  -1   7   1    1.72    0.13
   1   7  -1    1.63    0.14
  -1   7   0    1.82    0.18
   1   7   0    1.85    0.16
   1   7   0    1.75    0.14
  -1   7   0    1.73    0.13
  -1   7   0    1.70    0.15
  -1   7  -1   20.94    1.36
   1   7   1   21.26    1.25
   1   7   1   20.65    1.30
  -1   7  -1   20.73    1.30
  -1   7  -1   20.61    1.25
   1   7   1   18.42    1.35
  -1   7  -2    1.41    0.12
   1   7   2    1.35    0.11
  -1   7  -2    1.18    0.09
  -1   7  -2    1.26    0.13
  -1   7  -2    1.22    0.09
   1   7   2    1.37    0.10
  -1   7  -3    0.07    0.03
   1   7   3    0.05    0.05
  -1   7  -3    0.11    0.09
  -1   7  -3   -0.03    0.06
  -1   7  -4    0.12    0.04
  -1   7  -4    0.07    0.04
   1   7   4    0.07    0.05
  -1   7  -4    0.21    0.07
   1   7   4    0.17    0.04
   1   7   5    1.91    0.14
  -1   7  -5    1.72    0.16
   1   7   5    1.98    0.13
  -1   7  -5    2.07    0.14
   1   7   5    1.93    0.15
  -1   7  -5    1.76    0.14
  -1   7  -6    1.25    0.10
   1   7   6    1.04    0.09
   1   7   6    1.20    0.10
  -1   7  -6    0.98    0.12
   1   7   7    0.68    0.07
  -1   7  -7    0.88    0.07
   1   7   7    0.65    0.08
  -1   7  -7    0.89    0.10
  -1   7  -8    0.00    0.03
   1   7   8    0.01    0.03
  -1   7  -8   -0.02    0.05
  -1   7  -9    0.00    0.05
  -1   7  -9    0.08    0.03
   1   8  -4    0.85    0.07
   1   8  -3    1.73    0.12
  -1   8   3    1.79    0.13
  -1   8   2    1.98    0.14
  -1   8   1    0.63    0.07
   1   8  -1    0.62    0.07
  -1   8   1    0.94    0.09
  -1   8   0   37.23    2.56
   1   8   0   44.17    2.57
  -1   8  -1    0.10    0.04
   1   8   1    0.13    0.04
  -1   8  -2    0.32    0.05
  -1   8  -2    0.29    0.04
   1   8   3    7.07    0.42
  -1   8  -3    5.98    0.44
   1   8   4    0.04    0.03
  -2   0  18    0.09    0.04
  -2   0  17   -0.03    0.05
  -2   0  17    0.06    0.08
  -2   0  16    0.20    0.09
  -2   0  16    0.29    0.05
  -2   0  16    0.28    0.06
  -2   0  15   -0.10    0.09
  -2   0  15    0.00    0.03
  -2   0  15   -0.03    0.05
  -2   0  15   -0.03    0.04
  -2   0  14   17.66    1.22
  -2   0  14   16.74    1.11
  -2   0  14   15.78    1.08
  -2   0  14   17.67    1.24
  -2   0  13   -0.02    0.08
  -2   0  13   -0.10    0.09
  -2   0  13   -0.01    0.04
  -2   0  13    0.06    0.15
  -2   0  13   -0.05    0.04
  -2   0  13    0.05    0.05
  -2   0  13    0.02    0.06
  -2   0  12    2.21    0.20
  -2   0  12    2.00    0.18
  -2   0  12    1.90    0.15
  -2   0  12    2.08    0.16
  -2   0  12    2.23    0.13
  -2   0  12    2.41    0.21
  -2   0  12    1.97    0.20
  -2   0  12    1.78    0.25
  -2   0  11    0.05    0.08
  -2   0  11    0.02    0.04
  -2   0  11    0.00    0.02
  -2   0  11    0.06    0.12
  -2   0  11   -0.09    0.08
  -2   0  11   -0.03    0.03
  -2   0  11    0.00    0.03
  -2   0  11   -0.09    0.07
  -2   0  10   20.03    1.14
  -2   0  10   15.98    1.12
  -2   0  10   17.74    1.27
  -2   0  10   18.46    1.24
  -2   0  10   17.97    1.10
  -2   0  10   17.42    1.04
  -2   0  10   16.48    1.16
  -2   0  10   19.00    1.16
  -2   0   9   -0.04    0.05
  -2   0   9   -0.06    0.06
  -2   0   9    0.04    0.09
  -2   0   9   -0.12    0.06
  -2   0   8   16.04    1.01
  -2   0   8   15.90    0.98
  -2   0   8   15.70    1.03
  -2   0   7   -0.05    0.05
  -2   0   7   -0.03    0.04
  -2   0   7    0.00    0.04
  -2   0   7    0.01    0.07
  -2   0   7    0.05    0.08
  -2   0   6  337.42   22.49
   2   0  -6  324.75   22.50
  -2   0   6  345.29   20.42
   2   0  -6  337.37   22.49
  -2   0   6  332.01   20.92
  -2   0   6  350.66   21.33
  -2   0   5   -0.04    0.05
   2   0  -5   -0.01    0.08
   2   0  -5    0.00    0.08
  -2   0   5   -0.03    0.06
  -2   0   5    0.00    0.03
   2   0  -5   -0.05    0.04
   2   0  -5    0.06    0.06
  -2   0   4    5.95    0.42
   2   0  -4    6.16    0.43
   2   0  -4    6.07    0.42
  -2   0   4    5.96    0.36
   2   0  -4    5.00    0.37
  -2   0   4    5.63    0.38
  -2   0   4    6.13    0.42
  -2   0   4    5.14    0.37
   2   0  -4    5.02    0.36
  -2   0   4    5.94    0.37
   2   0  -3   -0.11    0.06
   2   0  -3   -0.11    0.04
  -2   0   3   -0.06    0.05
  -2   0   3   -0.07    0.05
  -2   0   3   -0.12    0.04
  -2   0   3   -0.10    0.07
   2   0  -3   -0.08    0.03
   2   0  -3   -0.18    0.08
  -2   0   3   -0.07    0.04
  -2   0   3   -0.10    0.07
  -2   0   2    1.08    0.09
   2   0  -2    1.12    0.12
   2   0  -2    1.06    0.09
  -2   0   2    0.96    0.08
  -2   0   2    1.13    0.12
  -2   0   2    1.08    0.09
  -2   0   2    0.89    0.09
   2   0  -2    0.97    0.09
  -2   0   2    0.98    0.11
   2   0  -2    1.27    0.12
  -2   0   1   -0.09    0.03
   2   0  -1   -0.01    0.03
  -2   0   1   -0.01    0.03
  -2   0   1   -0.03    0.03
   2   0  -1    0.04    0.05
   2   0  -1   -0.07    0.05
   2   0  -1   -0.04    0.03
  -2   0   1    0.01    0.07
  -2   0   1   -0.08    0.05
  -2   0   0   30.08    2.10
   2   0   0   32.39    2.10
   2   0   0   33.40    1.94
  -2   0   0   32.12    1.94
  -2   0   0   31.16    2.08
  -2   0   0   29.40    2.10
   2   0   0   31.10    1.89
  -2   0   0   29.14    1.89
   2   0   0   29.65    2.08
   2   0   0   32.85    2.10
  -2   0  -1   -0.31    0.02
   2   0   1   -0.30    0.06
   2   0   1   -0.28    0.04
  -2   0  -1   -0.27    0.04
   2   0   1   -0.30    0.04
   2   0   1   -0.32    0.06
  -2   0  -1   -0.30    0.06
  -2   0  -1   -0.25    0.03
  -2   0  -1   -0.30    0.06
   2   0   1   -0.33    0.04
   2   0   2   26.92    1.83
  -2   0  -2   26.24    1.68
  -2   0  -2   28.91    1.83
   2   0   2   29.16    1.83
   2   0   2   24.60    1.81
   2   0   2   27.42    1.68
   2   0   2   27.24    1.64
  -2   0  -2   24.71    1.64
  -2   0  -2   29.10    1.83
   2   0   3    0.06    0.09
  -2   0  -3   -0.02    0.05
   2   0   3    0.01    0.06
  -2   0  -3   -0.09    0.07
  -2   0  -3    0.06    0.09
   2   0   3    0.06    0.06
   2   0   3    0.01    0.05
  -2   0  -3   -0.05    0.04
   2   0   3   -0.01    0.05
  -2   0  -4   38.09    2.50
   2   0   4   45.56    2.50
  -2   0  -4   41.58    2.79
   2   0   4   41.27    2.57
   2   0   4   39.42    2.76
   2   0   4   45.31    2.78
   2   0   4   44.77    2.79
  -2   0  -4   34.81    2.56
  -2   0  -4   41.78    2.79
   2   0   5   -0.01    0.05
  -2   0  -5    0.00    0.08
   2   0   5    0.13    0.08
   2   0   5   -0.06    0.07
   2   0   5   -0.03    0.05
  -2   0  -5    0.06    0.05
   2   0   5   -0.07    0.05
  -2   0  -5   -0.03    0.04
   2   0   5    0.03    0.06
  -2   0  -5   -0.07    0.08
  -2   0  -6  113.29    7.79
   2   0   6  126.58    7.03
   2   0   6  110.60    7.74
  -2   0  -6  124.30    7.79
   2   0   6  112.89    7.78
   2   0   6  110.04    7.20
   2   0   6  117.48    7.79
   2   0   7    0.01    0.08
   2   0   7   -0.03    0.05
   2   0   7    0.02    0.09
   2   0   8  113.48    8.61
   2   0   8  140.27    7.81
   2   0   8  134.36    8.01
   2   0   9    0.04    0.02
   2   0   9    0.01    0.06
   2   0   9   -0.04    0.07
   2   0   9   -0.03    0.09
   2   0  10   29.66    1.72
   2   0  10   28.38    1.82
   2   0  10   28.63    1.77
   2   0  10   27.78    1.64
   2   0  10   28.06    1.76
   2   0  10   27.72    1.91
   2   0  10   25.54    2.02
   2   0  11   -0.09    0.07
   2   0  11    0.01    0.04
   2   0  11    0.02    0.02
   2   0  11   -0.07    0.08
   2   0  11    0.02    0.04
   2   0  11    0.02    0.04
   2   0  11    0.02    0.09
   2   0  12    9.31    0.62
   2   0  12    8.84    0.61
   2   0  12    8.61    0.59
   2   0  12    9.92    0.71
   2   0  12    9.82    0.68
   2   0  12    8.32    0.60
   2   0  12    9.25    0.54
   2   0  13    0.04    0.08
   2   0  13   -0.01    0.04
   2   0  13    0.16    0.16
   2   0  13    0.03    0.05
   2   0  14    8.47    0.61
   2   0  14    7.42    0.54
   2   0  14    8.43    0.52
   2   0  15    0.05    0.04
   2   0  15    0.02    0.05
   2   0  15   -0.08    0.08
   2   0  16    0.79    0.07
   2   0  16    0.65    0.06
   2   0  16    0.62    0.08
   2   0  17    0.01    0.07
   2   0  17   -0.01    0.04
  -2   1  18   -0.01    0.04
  -2  -1  18    0.02    0.05
  -2   1  17   11.67    0.89
  -2   1  17   12.57    0.90
  -2  -1  17   12.91    0.90
  -2   1  16    1.22    0.15
  -2   1  16    1.18    0.10
  -2   1  16    1.13    0.11
  -2  -1  16    1.07    0.12
  -2  -1  16    1.21    0.13
  -2   1  15    3.19    0.22
  -2   1  15    3.14    0.25
  -2   1  15    3.19    0.27
  -2  -1  15    3.62    0.28
  -2  -1  15    3.29    0.23
  -2  -1  15    3.25    0.23
  -2   1  14    0.92    0.10
  -2   1  14    1.04    0.10
  -2   1  14    1.00    0.13
  -2   1  14    1.08    0.09
  -2  -1  14    1.14    0.11
  -2  -1  14    0.90    0.09
  -2  -1  14    0.77    0.09
  -2   1  13    7.56    0.64
  -2   1  13    8.58    0.52
  -2   1  13    8.10    0.54
  -2   1  13    8.07    0.62
  -2   1  13    7.91    0.58
  -2   1  13    8.83    0.60
  -2   1  13    7.64    0.55
  -2  -1  13    7.63    0.64
  -2  -1  13    8.39    0.48
  -2  -1  13    8.02    0.55
  -2  -1  13    7.86    0.59
  -2  -1  13    8.42    0.53
  -2   1  12    6.84    0.48
  -2   1  12    6.99    0.48
  -2   1  12    7.01    0.57
  -2   1  12    7.76    0.47
  -2   1  12    7.39    0.46
  -2   1  12    6.79    0.54
  -2   1  12    7.28    0.51
  -2   1  12    7.24    0.53
  -2   1  12    7.28    0.47
  -2  -1  12    7.85    0.48
  -2  -1  12    7.18    0.58
  -2  -1  12    7.38    0.43
  -2  -1  12    6.60    0.52
  -2  -1  12    6.37    0.47
  -2  -1  12    7.30    0.49
  -2  -1  12    7.32    0.52
  -2   1  11    5.15    0.32
  -2   1  11    4.24    0.37
  -2   1  11    5.07    0.36
  -2   1  11    4.66    0.33
  -2   1  11    4.80    0.36
  -2   1  11    5.13    0.33
  -2   1  11    4.69    0.34
  -2   1  11    5.04    0.32
  -2   1  11    4.94    0.31
  -2   1  11    4.52    0.39
  -2  -1  11    4.85    0.33
  -2  -1  11    5.10    0.42
  -2  -1  11    4.58    0.35
  -2  -1  11    4.12    0.34
  -2  -1  11    4.41    0.31
  -2  -1  11    4.82    0.29
  -2  -1  11    4.73    0.36
  -2  -1  11    4.53    0.34
  -2   1  10   20.54    1.20
  -2   1  10   19.39    1.23
  -2   1  10   19.05    1.42
  -2   1  10   19.19    1.30
  -2   1  10   18.22    1.29
  -2   1  10   20.16    1.36
  -2   1  10   20.53    1.28
  -2   1  10   20.28    1.24
  -2   1  10   19.11    1.28
  -2   1  10   20.82    1.40
  -2  -1  10   18.49    1.15
  -2  -1  10   20.18    1.22
  -2  -1  10   21.75    1.26
  -2  -1  10   18.05    1.28
  -2  -1  10   17.70    1.39
  -2  -1  10   20.88    1.27
  -2   1   9   15.63    1.04
  -2   1   9   16.77    1.01
  -2   1   9   15.13    1.11
  -2   1   9   15.88    0.98
  -2  -1   9   15.37    1.03
  -2  -1   9   17.62    1.00
  -2  -1   9   15.56    1.04
  -2   1   8    0.00    0.08
  -2   1   8    0.05    0.05
  -2   1   8   -0.01    0.04
  -2   1   8   -0.02    0.07
  -2  -1   8    0.10    0.06
  -2  -1   8    0.01    0.05
  -2  -1   8    0.08    0.08
  -2   1   7   67.30    3.86
  -2   1   7   68.61    3.76
  -2   1   7   59.45    3.77
   2   1  -7   56.69    4.21
  -2   1   7   57.91    4.16
  -2   1   7   66.44    3.95
  -2   1   7   57.07    4.18
  -2  -1   7   57.39    4.20
  -2  -1   7   63.69    3.94
  -2  -1   7   67.46    3.78
  -2  -1   7   62.79    3.87
  -2   1   6   36.16    2.49
  -2   1   6   40.91    2.24
   2   1  -6   34.13    2.52
  -2   1   6   38.80    2.30
  -2   1   6   35.66    2.24
  -2   1   6   36.61    2.49
   2   1  -6   36.35    2.31
  -2   1   6   40.95    2.35
  -2   1   6   31.84    2.30
  -2   1   6   32.05    2.48
   2   1  -6   38.28    2.52
   2   1  -6   35.04    2.25
  -2  -1   6   38.58    2.25
   2  -1  -6   37.66    2.49
  -2  -1   6   37.60    2.52
  -2  -1   6   37.73    2.31
   2  -1  -6   38.52    2.50
  -2  -1   6   36.79    2.51
  -2  -1   6   39.26    2.35
   2   1  -5    3.05    0.30
   2   1  -5    3.37    0.20
  -2   1   5    3.65    0.23
  -2   1   5    3.59    0.22
   2   1  -5    3.23    0.23
  -2   1   5    3.28    0.22
  -2   1   5    3.52    0.23
   2   1  -5    3.30    0.25
  -2   1   5    2.97    0.26
  -2   1   5    3.92    0.25
  -2   1   5    3.36    0.26
   2   1  -5    3.47    0.29
  -2   1   5    3.55    0.26
  -2  -1   5    3.37    0.24
   2  -1  -5    3.68    0.27
  -2  -1   5    3.38    0.29
   2  -1  -5    3.52    0.26
  -2  -1   5    3.58    0.25
  -2  -1   5    3.80    0.24
  -2  -1   5    3.77    0.30
   2   1  -4   17.97    1.16
  -2   1   4   18.01    1.18
   2   1  -4   17.08    1.12
   2   1  -4   18.06    1.27
   2   1  -4   18.54    1.27
  -2   1   4   16.48    1.15
  -2   1   4   19.27    1.12
  -2   1   4   20.27    1.25
   2   1  -4   17.20    1.04
  -2   1   4   18.31    1.25
  -2   1   4   19.96    1.24
  -2   1   4   18.21    1.15
  -2   1   4   16.91    1.12
   2  -1  -4   19.27    1.25
  -2  -1   4   17.95    1.17
  -2  -1   4   19.11    1.28
  -2  -1   4   17.22    1.16
  -2  -1   4   18.96    1.13
  -2  -1   4   20.23    1.27
   2  -1  -4   19.34    1.25
  -2   1   3    0.63    0.07
  -2   1   3    0.67    0.08
  -2   1   3    0.81    0.09
  -2   1   3    0.66    0.08
   2   1  -3    0.68    0.06
  -2   1   3    0.61    0.06
   2   1  -3    0.71    0.11
  -2   1   3    0.70    0.06
   2   1  -3    0.72    0.08
  -2   1   3    0.70    0.08
  -2   1   3    0.68    0.08
  -2   1   3    0.85    0.07
   2   1  -3    0.78    0.10
   2   1  -3    0.65    0.07
   2  -1  -3    0.62    0.08
  -2  -1   3    0.69    0.12
   2  -1  -3    0.70    0.08
  -2  -1   3    0.85    0.11
  -2  -1   3    0.67    0.08
  -2  -1   3    0.73    0.08
  -2  -1   3    0.67    0.07
  -2   1   2    7.62    0.54
   2   1  -2    8.47    0.57
  -2   1   2    8.80    0.56
  -2   1   2    8.72    0.57
   2   1  -2    8.95    0.51
   2   1  -2    8.99    0.63
  -2   1   2   10.01    0.61
   2   1  -2   10.10    0.63
  -2   1   2    8.25    0.61
  -2   1   2    7.75    0.61
   2   1  -2    9.57    0.55
  -2   1   2    7.70    0.60
  -2   1   2    9.45    0.54
  -2   1   2    8.85    0.56
   2  -1  -2    9.33    0.61
  -2  -1   2    8.90    0.57
  -2  -1   2    8.75    0.55
  -2  -1   2    9.83    0.63
   2  -1  -2    8.80    0.61
  -2  -1   2    9.90    0.63
  -2   1   1  188.92   11.99
   2   1  -1  174.98   10.13
  -2   1   1  174.00   11.10
   2   1  -1  198.00   11.13
  -2   1   1  196.11   11.12
   2   1  -1  194.24   10.86
  -2   1   1  169.21   10.84
   2   1  -1  204.44   12.02
  -2   1   1  170.78   11.97
  -2   1   1  157.56   11.98
   2   1  -1  195.58   12.03
  -2   1   1  160.05   11.32
   2   1  -1  151.33   11.08
  -2   1   1  163.81   10.84
   2  -1  -1  187.22   12.00
  -2  -1   1  190.73   11.98
   2  -1  -1  171.32   12.00
  -2  -1   1  181.13   11.12
  -2  -1   1  184.76   12.01
  -2  -1   1  180.93   10.84
  -2   1   0    1.19    0.12
  -2   1   0    1.34    0.10
  -2   1   0    1.49    0.11
  -2   1   0    1.22    0.10
  -2   1   0    1.12    0.10
   2   1   0    1.33    0.10
   2   1   0    1.40    0.10
   2   1   0    1.47    0.13
  -2   1   0    1.47    0.13
   2   1   0    1.65    0.14
   2   1   0    1.44    0.10
   2   1   0    1.21    0.10
  -2   1   0    1.34    0.13
   2   1   0    1.31    0.14
   2   1   0    1.47    0.11
  -2  -1   0    1.33    0.14
   2  -1   0    1.41    0.14
  -2  -1   0    1.42    0.15
   2  -1   0    1.15    0.11
  -2  -1   0    1.41    0.11
   2  -1   0    1.45    0.13
  -2   1  -1  352.98   22.53
   2   1   1  341.29   20.88
   2   1   1  349.61   20.38
   2   1   1  288.13   22.52
   2   1   1  303.95   19.01
   2   1   1  311.25   20.87
  -2   1  -1  363.78   22.55
  -2   1  -1  322.93   22.47
  -2   1  -1  370.97   20.89
   2   1   1  360.82   22.53
   2   1   1  312.89   22.46
  -2   1  -1  347.25   20.39
   2   1   1  293.31   20.37
   2  -1   1  351.29   20.39
   2  -1   1  390.28   22.58
  -2  -1  -1  385.38   22.55
   2  -1   1  323.78   20.88
   2  -1   1  361.34   22.55
  -2  -1  -1  291.70   22.52
   2   1   2   -0.03    0.06
  -2   1  -2    0.07    0.04
   2   1   2   -0.02    0.04
   2   1   2    0.00    0.03
  -2   1  -2    0.09    0.08
  -2   1  -2   -0.04    0.05
  -2   1  -2   -0.04    0.08
   2   1   2    0.00    0.04
   2   1   2    0.02    0.07
   2   1   2    0.03    0.04
   2   1   2    0.04    0.05
   2   1   2    0.00    0.02
   2  -1   2    0.01    0.05
  -2  -1  -2    0.07    0.06
   2  -1   2   -0.03    0.08
  -2  -1  -2    0.04    0.06
   2  -1   2    0.07    0.05
   2  -1   2   -0.03    0.07
   2   1   3    2.32    0.16
   2   1   3    2.33    0.19
   2   1   3    2.32    0.17
   2   1   3    2.28    0.15
  -2   1  -3    2.52    0.17
   2   1   3    2.23    0.16
   2   1   3    2.14    0.15
  -2   1  -3    2.38    0.21
   2   1   3    2.37    0.20
   2   1   3    2.17    0.16
  -2   1  -3    2.41    0.18
   2   1   3    2.05    0.20
  -2   1  -3    2.29    0.22
   2  -1   3    2.68    0.21
  -2  -1  -3    2.58    0.20
   2  -1   3    2.44    0.22
  -2  -1  -3    2.20    0.21
   2  -1   3    2.44    0.18
   2  -1   3    2.45    0.17
   2   1   4   -0.02    0.07
  -2   1  -4    0.10    0.09
  -2   1  -4    0.02    0.06
  -2   1  -4    0.01    0.08
   2   1   4    0.05    0.04
  -2   1  -4    0.06    0.05
   2   1   4    0.03    0.03
   2   1   4    0.07    0.06
   2   1   4    0.01    0.06
   2   1   4    0.10    0.05
   2   1   4    0.00    0.04
   2   1   4    0.06    0.04
   2   1   4    0.03    0.03
  -2  -1  -4   -0.02    0.06
  -2  -1  -4    0.07    0.07
   2  -1   4    0.09    0.07
   2  -1   4    0.03    0.06
   2  -1   4    0.14    0.11
   2  -1   4    0.02    0.07
   2   1   5   14.13    0.86
   2   1   5   13.93    0.92
  -2   1  -5   14.61    0.93
   2   1   5   14.93    0.95
   2   1   5   15.60    0.95
  -2   1  -5   14.52    1.06
   2   1   5   15.89    1.04
   2   1   5   15.30    1.04
  -2   1  -5   16.13    1.07
   2   1   5   16.43    0.97
   2   1   5   13.78    1.04
  -2   1  -5   15.60    0.96
   2   1   5   15.12    0.93
   2  -1   5   15.06    1.06
  -2  -1  -5   15.49    1.04
   2  -1   5   15.56    0.94
   2  -1   5   15.41    0.96
   2  -1   5   15.14    1.07
  -2  -1  -5   15.29    1.05
   2   1   6   12.88    0.79
   2   1   6   14.06    0.81
   2   1   6   10.75    0.87
  -2   1  -6   13.34    0.80
   2   1   6   11.37    0.76
  -2   1  -6   13.22    0.90
   2   1   6   11.18    0.71
   2   1   6   12.25    0.77
   2   1   6   13.50    0.87
  -2   1  -6   11.95    0.77
  -2   1  -6   12.13    0.89
   2   1   6   12.03    0.86
   2  -1   6   12.67    0.80
  -2  -1  -6   12.70    0.87
   2  -1   6   12.81    0.78
   2  -1   6   12.29    0.89
   2  -1   6   12.67    0.90
   2   1   7   54.19    3.55
   2   1   7   55.26    3.35
   2   1   7   53.51    3.28
   2   1   7   50.14    3.20
   2  -1   7   47.60    3.58
   2  -1   7   54.24    3.21
   2  -1   7   55.14    3.30
   2   1   8    3.55    0.28
   2   1   8    4.30    0.33
   2   1   8    4.23    0.29
   2   1   8    4.13    0.30
   2  -1   8    4.34    0.31
   2  -1   8    4.20    0.33
   2  -1   8    4.21    0.29
   2   1   9    2.35    0.19
   2   1   9    2.72    0.20
   2   1   9    2.39    0.16
   2   1   9    2.64    0.26
   2   1   9    2.25    0.20
   2   1   9    2.31    0.17
   2  -1   9    2.55    0.23
   2  -1   9    2.52    0.20
   2  -1   9    2.66    0.25
   2  -1   9    2.29    0.15
   2   1  10    5.07    0.36
   2   1  10    6.18    0.45
   2   1  10    5.12    0.35
   2   1  10    4.86    0.35
   2   1  10    5.46    0.37
   2   1  10    5.52    0.35
   2   1  10    4.98    0.40
   2   1  10    5.37    0.39
   2   1  10    5.05    0.34
   2  -1  10    4.96    0.36
   2  -1  10    5.83    0.44
   2  -1  10    5.18    0.32
   2  -1  10    6.26    0.40
   2  -1  10    5.84    0.38
   2   1  11    6.39    0.48
   2   1  11    7.42    0.47
   2   1  11    7.38    0.55
   2   1  11    7.75    0.53
   2   1  11    7.86    0.58
   2   1  11    6.40    0.48
   2   1  11    7.03    0.49
   2   1  11    6.83    0.48
   2   1  11    7.71    0.49
   2  -1  11    8.05    0.44
   2  -1  11    7.73    0.50
   2  -1  11    7.31    0.49
   2  -1  11    6.85    0.52
   2  -1  11    7.21    0.57
   2   1  12    4.33    0.30
   2   1  12    5.06    0.36
   2   1  12    4.35    0.41
   2   1  12    4.49    0.31
   2   1  12    3.97    0.31
   2   1  12    4.56    0.34
   2   1  12    4.85    0.31
   2   1  12    4.96    0.30
   2  -1  12    4.56    0.34
   2  -1  12    3.95    0.36
   2  -1  12    4.56    0.28
   2  -1  12    4.11    0.41
   2  -1  12    4.82    0.32
   2  -1  12    3.85    0.30
   2   1  13   26.41    1.88
   2   1  13   25.03    1.66
   2   1  13   23.46    1.82
   2   1  13   23.67    1.71
   2   1  13   29.75    1.91
   2  -1  13   27.55    1.67
   2  -1  13   28.03    1.91
   2  -1  13   26.79    1.55
   2  -1  13   25.76    1.72
   2   1  14    0.33    0.07
   2   1  14    0.33    0.09
   2   1  14    0.38    0.05
   2   1  14    0.33    0.04
   2  -1  14    0.34    0.09
   2  -1  14    0.39    0.06
   2  -1  14    0.35    0.04
   2  -1  14    0.35    0.05
   2   1  15    2.31    0.19
   2   1  15    1.93    0.14
   2   1  15    1.89    0.16
   2  -1  15    1.71    0.14
   2  -1  15    1.97    0.17
   2  -1  15    1.88    0.15
   2   1  16    1.90    0.16
   2   1  16    1.78    0.13
   2  -1  16    2.04    0.18
   2  -1  16    1.85    0.15
   2  -1  16    1.78    0.14
   2   1  17    0.88    0.07
   2   1  17    0.97    0.10
   2  -1  17    0.80    0.07
   2  -1  17    0.78    0.08
   2  -1  17    0.84    0.11
  -2  -2  18    0.23    0.05
  -2   2  17    0.24    0.07
  -2   2  17    0.16    0.06
  -2  -2  17    0.13    0.07
  -2   2  16    1.72    0.15
  -2   2  16    1.70    0.16
  -2  -2  16    1.66    0.18
  -2   2  15    0.32    0.07
  -2   2  15    0.36    0.04
  -2   2  15    0.33    0.08
  -2  -2  15    0.35    0.07
  -2   2  14    3.93    0.26
  -2   2  14    3.80    0.31
  -2   2  14    3.89    0.31
  -2   2  14    3.86    0.28
  -2  -2  14    3.91    0.24
  -2  -2  14    4.15    0.28
  -2   2  13    0.29    0.04
  -2   2  13    0.33    0.08
  -2   2  13    0.39    0.05
  -2   2  13    0.23    0.09
  -2  -2  13    0.34    0.04
  -2  -2  13    0.09    0.16
  -2  -2  13    0.29    0.05
  -2   2  12    0.62    0.06
  -2   2  12    0.61    0.10
  -2   2  12    0.78    0.13
  -2   2  12    0.81    0.08
  -2   2  12    0.69    0.08
  -2   2  12    0.68    0.09
  -2  -2  12    0.77    0.08
  -2  -2  12    0.71    0.07
  -2   2  11    0.67    0.07
  -2   2  11    0.48    0.09
  -2   2  11    0.53    0.12
  -2   2  11    0.70    0.08
  -2   2  11    0.65    0.06
  -2   2  11    0.68    0.15
  -2   2  11    0.63    0.07
  -2  -2  11    0.59    0.06
  -2   2  10    8.92    0.58
  -2   2  10    9.01    0.56
  -2   2  10    7.70    0.61
  -2   2  10    8.77    0.60
  -2   2  10    7.99    0.52
  -2   2  10    7.00    0.61
  -2   2  10    8.09    0.55
  -2  -2  10    8.63    0.49
  -2   2   9    1.22    0.11
  -2   2   9    1.14    0.10
  -2   2   9    1.17    0.10
  -2   2   9    1.11    0.08
  -2   2   9    1.20    0.14
  -2   2   9    1.05    0.11
  -2   2   9    0.90    0.14
  -2   2   9    0.98    0.12
  -2  -2   9    1.13    0.15
  -2   2   8   -0.04    0.07
  -2   2   8    0.05    0.07
  -2  -2   8    0.12    0.07
  -2  -2   8    0.11    0.09
   2   2  -7    6.65    0.46
  -2   2   7    7.16    0.46
  -2   2   7    6.16    0.48
   2   2  -7    6.52    0.43
  -2  -2   7    6.53    0.46
  -2  -2   7    6.88    0.44
   2   2  -6   95.98    6.47
   2   2  -6   99.04    5.97
   2   2  -6  101.94    5.82
  -2   2   6   86.00    6.40
   2   2  -6   87.65    6.47
  -2   2   6  100.85    6.08
   2   2  -6   94.48    5.42
  -2   2   6  103.89    6.41
  -2  -2   6   93.02    5.97
  -2  -2   6   93.71    6.47
  -2  -2   6  101.76    5.82
  -2   2   5   13.84    1.06
   2   2  -5   14.56    1.11
   2   2  -5   16.60    0.90
  -2   2   5   17.29    1.07
   2   2  -5   15.82    0.97
  -2   2   5   16.41    1.01
   2   2  -5   15.89    1.00
   2   2  -5   15.68    1.10
  -2  -2   5   14.62    1.00
  -2  -2   5   15.44    0.97
  -2  -2   5   15.76    1.11
  -2  -2   5   16.03    1.11
  -2   2   4    0.73    0.08
  -2   2   4    0.61    0.06
   2   2  -4    0.65    0.09
  -2   2   4    0.54    0.07
   2   2  -4    0.62    0.11
   2   2  -4    0.73    0.07
   2   2  -4    0.46    0.11
   2   2  -4    0.68    0.07
  -2   2   4    0.69    0.09
  -2  -2   4    0.51    0.05
  -2  -2   4    0.70    0.12
  -2  -2   4    0.69    0.12
  -2  -2   4    0.59    0.09
  -2  -2   4    0.57    0.08
  -2   2   3   11.67    0.77
  -2   2   3   11.99    0.66
   2   2  -3   11.94    0.66
   2   2  -3   11.75    0.73
   2   2  -3   11.78    0.71
   2   2  -3   10.84    0.81
   2   2  -3   11.19    0.80
  -2   2   3   10.91    0.78
  -2   2   3   12.07    0.74
  -2  -2   3   10.03    0.73
  -2  -2   3   12.52    0.81
  -2  -2   3   10.52    0.72
  -2   2   2   12.10    0.66
  -2   2   2   10.99    0.72
  -2   2   2   11.10    0.78
  -2   2   2   11.95    0.70
  -2   2   2   11.78    0.72
  -2   2   2   12.05    0.79
  -2   2   2   11.30    0.78
  -2   2   2   11.77    0.78
   2   2  -2   11.68    0.66
   2   2  -2   11.66    0.80
   2   2  -2   10.89    0.81
  -2   2   2   11.17    0.74
  -2   2   2   11.83    0.70
   2   2  -2   12.20    0.71
   2   2  -2    9.94    0.73
   2   2  -2   11.62    0.73
   2  -2  -2   12.04    0.78
  -2  -2   2   10.21    0.73
   2  -2  -2   12.72    0.78
  -2  -2   2   11.05    0.71
  -2  -2   2   13.13    0.82
  -2  -2   2   10.79    0.73
  -2  -2   2   12.45    0.81
   2   2  -1   20.69    1.22
  -2   2   1   20.31    1.33
   2   2  -1   21.73    1.46
  -2   2   1   21.72    1.33
   2   2  -1   21.16    1.46
  -2   2   1   22.03    1.45
   2   2  -1   21.60    1.30
  -2   2   1   22.18    1.45
   2   2  -1   18.06    1.30
  -2   2   1   21.85    1.45
   2   2  -1   22.89    1.34
  -2   2   1   22.06    1.30
  -2   2   1   22.34    1.22
  -2   2   1   19.61    1.36
  -2   2   1   22.21    1.30
   2   2  -1   20.03    1.34
  -2  -2   1   21.61    1.46
   2  -2  -1   24.18    1.45
  -2  -2   1   24.31    1.47
   2  -2  -1   19.54    1.45
   2   2   0  146.87   10.43
  -2   2   0  154.27    9.48
  -2   2   0  157.60    9.73
   2   2   0  163.45   10.45
   2   2   0  152.86    8.87
  -2   2   0  161.70   10.45
  -2   2   0  167.02   10.45
   2   2   0  159.06   10.45
  -2   2   0  156.83    9.47
   2   2   0  158.39    9.48
  -2   2   0  160.90    8.87
  -2   2   0  137.36    9.89
  -2   2   0  142.18   10.42
   2   2   0  143.75    9.68
  -2   2   0  151.04    9.70
   2   2   0  168.42    9.74
   2   2   0  145.30    9.46
   2   2   0  155.85   10.45
   2  -2   0  173.14   10.46
   2  -2   0  167.99   10.45
  -2  -2   0  172.36   10.46
  -2  -2   0  156.83   10.45
  -2   2  -1    2.01    0.15
   2   2   1    1.82    0.18
   2   2   1    2.27    0.15
   2   2   1    1.92    0.15
   2   2   1    2.35    0.20
  -2   2  -1    2.60    0.16
  -2   2  -1    2.53    0.15
  -2   2  -1    2.33    0.20
  -2   2  -1    2.20    0.19
   2   2   1    2.03    0.15
  -2   2  -1    2.51    0.20
   2   2   1    2.33    0.15
   2   2   1    2.43    0.16
   2   2   1    2.40    0.18
   2   2   1    1.88    0.17
  -2   2  -1    2.45    0.17
  -2   2  -1    2.05    0.16
   2  -2   1    2.60    0.21
   2  -2   1    2.36    0.19
  -2  -2  -1    2.25    0.19
  -2  -2  -1    2.31    0.19
  -2   2  -2    1.93    0.19
  -2   2  -2    1.47    0.14
  -2   2  -2    1.81    0.18
   2   2   2    1.74    0.13
   2   2   2    1.61    0.12
  -2   2  -2    1.94    0.16
  -2   2  -2    2.01    0.14
   2   2   2    2.04    0.16
   2   2   2    1.59    0.14
   2   2   2    1.64    0.13
   2   2   2    1.85    0.15
   2   2   2    1.88    0.15
  -2   2  -2    2.02    0.13
  -2   2  -2    1.90    0.17
   2   2   2    1.75    0.13
   2   2   2    1.73    0.12
   2  -2   2    1.81    0.18
  -2  -2  -2    1.66    0.16
  -2  -2  -2    1.67    0.16
   2  -2   2    1.96    0.19
   2  -2   2    1.56    0.16
   2  -2   2    1.70    0.14
  -2   2  -3    0.59    0.11
   2   2   3    0.43    0.06
   2   2   3    0.52    0.06
  -2   2  -3    0.50    0.08
   2   2   3    0.41    0.06
   2   2   3    0.44    0.06
  -2   2  -3    0.30    0.11
   2   2   3    0.51    0.05
   2   2   3    0.57    0.06
   2   2   3    0.46    0.05
  -2   2  -3    0.44    0.08
   2   2   3    0.52    0.10
   2   2   3    0.50    0.05
   2  -2   3    0.46    0.08
  -2  -2  -3    0.42    0.07
  -2  -2  -3    0.48    0.06
   2  -2   3    0.43    0.08
   2  -2   3    0.51    0.13
   2  -2   3    0.56    0.10
   2   2   4   14.12    0.82
  -2   2  -4   14.05    1.01
  -2   2  -4   15.42    1.02
   2   2   4   13.69    0.98
   2   2   4   14.41    0.87
   2   2   4   13.46    0.89
   2   2   4   14.84    0.89
   2   2   4   15.24    0.87
  -2   2  -4   15.30    0.91
   2   2   4   14.52    0.97
   2   2   4   14.95    0.92
   2   2   4   13.27    0.97
  -2   2  -4   15.29    0.88
   2  -2   4   13.68    1.01
  -2  -2  -4   14.19    0.97
   2  -2   4   12.49    0.91
   2  -2   4   13.50    0.89
  -2  -2  -4   14.92    0.97
   2  -2   4   14.70    1.02
   2   2   5    0.19    0.05
   2   2   5    0.11    0.06
   2   2   5    0.18    0.04
   2   2   5    0.19    0.04
  -2   2  -5    0.27    0.11
   2   2   5    0.27    0.03
   2   2   5    0.19    0.04
   2   2   5    0.25    0.04
  -2   2  -5    0.31    0.07
   2   2   5    0.31    0.07
   2   2   5    0.24    0.10
   2  -2   5    0.21    0.09
   2  -2   5    0.24    0.07
   2  -2   5    0.29    0.11
   2  -2   5    0.22    0.10
  -2  -2  -5    0.19    0.06
   2   2   6   29.55    2.09
   2   2   6   31.38    2.10
   2   2   6   29.08    1.93
   2   2   6   30.17    1.88
  -2   2  -6   31.86    1.90
   2   2   6   30.70    1.76
   2   2   6   34.88    1.98
  -2   2  -6   31.93    1.96
   2   2   6   29.36    1.88
   2   2   6   34.72    1.93
   2  -2   6   30.09    1.90
   2  -2   6   32.72    1.96
   2  -2   6   27.66    2.13
   2   2   7    1.89    0.13
   2   2   7    1.61    0.19
   2   2   7    1.60    0.12
   2   2   7    1.75    0.12
   2   2   7    1.83    0.16
   2   2   7    1.67    0.12
   2  -2   7    1.90    0.18
   2   2   8    3.16    0.21
   2   2   8    3.11    0.20
   2   2   8    2.81    0.20
   2   2   8    2.89    0.24
   2   2   8    3.30    0.24
   2   2   8    2.58    0.20
   2   2   8    3.24    0.22
   2   2   8    3.26    0.29
   2   2   8    3.51    0.22
   2   2   9    5.01    0.36
   2   2   9    5.37    0.41
   2   2   9    5.30    0.34
   2   2   9    5.93    0.35
   2   2   9    5.64    0.44
   2   2   9    5.78    0.41
   2   2   9    5.05    0.35
   2   2   9    5.26    0.36
   2   2   9    5.99    0.37
   2  -2   9    5.40    0.33
   2   2  10    9.73    0.66
   2   2  10   10.19    0.70
   2   2  10   11.43    0.78
   2   2  10   10.73    0.80
   2   2  10   10.75    0.80
   2   2  10   10.20    0.69
   2   2  10   10.96    0.72
   2   2  10   11.35    0.68
   2   2  10   10.60    0.70
   2  -2  10   11.42    0.64
   2  -2  10   12.12    0.80
   2   2  11    0.13    0.03
   2   2  11    0.16    0.06
   2   2  11    0.24    0.16
   2   2  11    0.04    0.07
   2   2  11    0.16    0.05
   2   2  11    0.12    0.03
   2  -2  11    0.16    0.04
   2  -2  11   -0.02    0.13
   2   2  12    0.58    0.07
   2   2  12    0.45    0.17
   2   2  12    0.58    0.08
   2   2  12    0.49    0.06
   2   2  12    0.52    0.06
   2   2  12    0.65    0.10
   2  -2  12    0.42    0.07
   2  -2  12    0.49    0.17
   2  -2  12    0.55    0.06
   2   2  13    9.65    0.68
   2   2  13    9.21    0.63
   2   2  13    9.83    0.70
   2  -2  13    9.06    0.56
   2  -2  13    9.08    0.63
   2   2  14    0.56    0.06
   2   2  14    0.55    0.08
   2   2  14    0.42    0.08
   2  -2  14    0.56    0.08
   2  -2  14    0.43    0.05
   2  -2  14    0.30    0.07
   2   2  15    0.32    0.09
   2   2  15    0.46    0.05
   2   2  15    0.44    0.06
   2  -2  15    0.34    0.09
   2  -2  15    0.60    0.06
   2  -2  15    0.41    0.04
   2   2  16    0.80    0.09
   2   2  16    1.13    0.12
   2  -2  16    0.77    0.08
   2  -2  16    0.62    0.10
   2   2  17    1.61    0.13
   2  -2  17    1.58    0.13
   2  -2  17    1.23    0.11
  -2   3  17    1.03    0.09
  -2  -3  17    0.96    0.10
  -2   3  16    4.58    0.35
  -2   3  16    4.56    0.34
  -2  -3  16    4.57    0.35
  -2   3  15    1.51    0.15
  -2   3  15    1.83    0.16
  -2   3  14    0.75    0.09
  -2   3  14    0.78    0.11
  -2   3  14    0.77    0.10
  -2   3  13   11.87    0.87
  -2   3  13   12.77    0.80
  -2   3  13   11.93    0.89
  -2  -3  13   11.53    0.72
  -2   3  12    5.50    0.44
  -2   3  12    6.02    0.43
  -2   3  12    5.32    0.39
  -2   3  12    6.14    0.40
  -2   3  12    5.35    0.42
  -2  -3  12    5.88    0.35
  -2   3  11    0.48    0.07
  -2   3  11    0.64    0.10
  -2   3  11    0.46    0.07
  -2   3  11    0.51    0.07
  -2   3  11    0.43    0.08
  -2   3  11    0.41    0.04
  -2  -3  11    0.56    0.06
  -2   3  10    2.55    0.17
  -2   3  10    2.76    0.20
  -2   3  10    2.76    0.20
  -2   3  10    2.89    0.24
  -2   3  10    2.88    0.20
  -2   3  10    2.72    0.22
  -2   3  10    2.40    0.23
  -2   3   9    2.20    0.15
   2   3  -9    2.33    0.15
  -2   3   9    2.49    0.18
  -2   3   9    2.22    0.17
  -2   3   9    2.35    0.20
  -2   3   9    2.61    0.18
  -2   3   9    2.61    0.22
  -2   3   9    2.51    0.20
  -2   3   9    2.69    0.19
  -2   3   8   -0.03    0.04
  -2   3   8    0.07    0.08
  -2   3   8    0.00    0.07
   2   3  -8    0.06    0.03
  -2   3   8    0.03    0.01
  -2   3   8    0.10    0.05
  -2   3   8   -0.01    0.04
  -2   3   8    0.03    0.05
  -2   3   8    0.04    0.03
  -2   3   8    0.07    0.04
  -2   3   7    3.17    0.22
  -2   3   7    3.26    0.26
  -2   3   7    2.84    0.23
  -2   3   7    3.25    0.22
   2   3  -7    3.02    0.26
   2   3  -7    3.06    0.23
  -2   3   7    3.16    0.24
  -2   3   7    2.95    0.22
  -2   3   6   12.19    0.82
   2   3  -6   11.56    0.74
  -2   3   6   11.47    0.81
   2   3  -6   11.51    0.77
   2   3  -6   11.32    0.68
  -2   3   6   11.77    0.77
   2   3  -5    2.04    0.17
   2   3  -5    2.17    0.19
  -2   3   5    2.03    0.14
   2   3  -5    2.01    0.15
  -2   3   5    2.02    0.18
  -2   3   5    2.20    0.20
  -2   3   5    2.12    0.17
  -2   3   4   22.69    1.25
  -2   3   4   20.81    1.47
   2   3  -4   21.30    1.38
  -2   3   4   21.52    1.40
   2   3  -4   22.92    1.34
   2   3  -4   23.14    1.25
  -2   3   4   20.54    1.48
  -2   3   3    8.55    0.49
   2   3  -3    8.72    0.53
   2   3  -3    8.29    0.54
   2   3  -3    8.92    0.49
  -2   3   3    7.94    0.59
  -2   3   3    7.73    0.57
  -2   3   3    8.06    0.54
   2   3  -2   40.48    2.26
  -2   3   2   37.85    2.24
  -2   3   2   35.43    2.24
   2   3  -2   35.54    2.52
   2   3  -2   38.85    2.50
  -2   3   2   35.96    2.30
  -2   3   2   35.11    2.30
   2   3  -2   38.89    2.32
  -2   3   2   37.22    2.50
  -2   3   2   35.49    2.35
  -2   3   2   37.98    2.11
   2   3  -2   39.21    2.11
   2  -3  -2   36.51    2.48
   2   3  -1   58.95    3.16
  -2   3   1   52.17    3.37
   2   3  -1   59.95    3.46
   2   3  -1   53.21    3.76
  -2   3   1   51.21    3.45
   2   3  -1   58.63    3.38
   2   3  -1   54.76    3.73
  -2   3   1   59.31    3.37
  -2   3   1   55.19    3.74
  -2   3   1   58.54    3.46
  -2   3   1   57.87    3.74
   2   3  -1   52.56    3.75
  -2   3   1   54.16    3.74
  -2   3   1   57.32    3.16
  -2   3   1   54.52    3.52
  -2   3   0   39.45    2.53
   2   3   0   40.78    2.81
   2   3   0   37.04    2.59
   2   3   0   35.71    2.79
  -2   3   0   43.98    2.59
  -2   3   0   42.75    2.82
   2   3   0   46.15    2.53
   2   3   0   39.54    2.53
  -2   3   0   40.13    2.80
   2   3   0   44.24    2.37
  -2   3   0   44.00    2.53
  -2   3   0   43.98    2.82
   2   3   0   46.02    2.59
  -2   3   0   40.20    2.59
   2   3   0   40.62    2.82
  -2   3   0   43.37    2.37
   2  -3   0   40.51    2.82
  -2  -3   0   44.66    2.82
   2   3   1    4.89    0.37
  -2   3  -1    5.48    0.31
   2   3   1    5.75    0.33
  -2   3  -1    5.14    0.34
   2   3   1    5.40    0.39
   2   3   1    4.14    0.37
  -2   3  -1    5.07    0.39
   2   3   1    4.77    0.33
   2   3   1    5.68    0.32
   2   3   1    5.04    0.37
  -2   3  -1    5.69    0.33
   2   3   1    5.46    0.32
  -2   3  -1    5.01    0.39
   2   3   1    4.41    0.32
  -2   3  -1    5.04    0.39
  -2  -3  -1    5.14    0.37
   2   3   2    0.59    0.06
   2   3   2    0.64    0.05
   2   3   2    0.45    0.07
  -2   3  -2    0.78    0.08
   2   3   2    0.54    0.06
   2   3   2    0.64    0.07
  -2   3  -2    0.60    0.09
   2   3   2    0.66    0.08
   2   3   2    0.57    0.06
  -2   3  -2    0.70    0.08
   2   3   2    0.51    0.07
  -2   3  -2    0.62    0.09
   2   3   2    0.64    0.11
  -2  -3  -2    0.49    0.07
  -2   3  -3    0.38    0.10
  -2   3  -3    0.36    0.06
   2   3   3    0.32    0.05
  -2   3  -3    0.39    0.07
   2   3   3    0.37    0.10
   2   3   3    0.31    0.06
  -2   3  -3    0.39    0.10
   2   3   4    1.75    0.13
   2   3   4    1.89    0.19
  -2   3  -4    1.55    0.17
  -2   3  -4    1.76    0.19
  -2   3  -4    1.80    0.15
  -2   3  -5   10.47    0.76
   2   3   5   10.61    0.63
   2   3   5   10.91    0.76
  -2   3  -5   10.99    0.68
  -2   3  -5   10.65    0.71
   2   3   6    5.17    0.38
  -2   3  -6    4.97    0.39
   2   3   6    4.95    0.32
   2   3   6    5.58    0.42
  -2   3  -6    5.40    0.36
   2   3   7   19.54    1.34
  -2   3  -7   20.65    1.23
   2   3   7   22.59    1.49
   2   3   7   19.69    1.38
  -2   3  -7   20.88    1.34
   2   3   7   18.10    1.31
  -2   3  -7   21.39    1.30
   2   3   7   21.61    1.51
   2   3   7   22.46    1.37
   2   3   7   21.89    1.44
   2   3   8    0.23    0.05
   2   3   8    0.20    0.05
   2   3   8    0.22    0.03
   2   3   8    0.27    0.07
   2   3   8    0.30    0.13
  -2   3  -8    0.19    0.03
   2   3   8    0.15    0.04
   2   3   8    0.26    0.06
   2   3   9    8.61    0.59
   2   3   9    9.73    0.61
   2   3   9    9.12    0.61
   2   3   9    8.66    0.57
  -2   3  -9    8.48    0.54
   2   3   9    9.51    0.68
   2   3   9    9.68    0.66
   2   3   9    8.88    0.67
  -2   3 -10    5.67    0.33
   2   3  10    5.24    0.34
   2   3  10    5.16    0.37
   2   3  10    5.41    0.41
   2   3  10    5.64    0.40
   2   3  10    5.04    0.46
   2   3  10    4.89    0.35
   2   3  11    5.40    0.36
   2   3  11    5.12    0.44
   2   3  11    5.56    0.40
   2   3  11    5.08    0.34
   2   3  11    5.48    0.37
   2   3  11    5.51    0.42
   2  -3  11    5.06    0.46
   2  -3  11    5.22    0.33
   2   3  12    2.20    0.16
   2   3  12    2.19    0.15
   2   3  12    2.34    0.19
   2   3  12    2.47    0.17
   2   3  12    2.59    0.22
   2  -3  12    2.31    0.15
   2   3  13   27.65    1.95
   2   3  13   27.15    2.11
   2   3  13   32.89    2.14
   2  -3  13   30.79    1.74
   2   3  14    0.63    0.10
   2   3  14    0.56    0.08
   2  -3  14    0.63    0.06
   2   3  15    0.02    0.04
   2   3  15    0.01    0.06
   2  -3  15   -0.07    0.05
   2  -3  15   -0.02    0.03
   2  -3  15    0.03    0.05
   2  -3  16    5.18    0.44
   2  -3  16    6.66    0.40
  -2   4  16    0.04    0.04
  -2  -4  16    0.06    0.04
  -2   4  15    1.37    0.12
   2   4 -14    0.89    0.07
  -2   4  14    0.73    0.09
  -2   4  14    0.99    0.12
  -2   4  13    3.88    0.33
   2   4 -13    4.44    0.26
  -2   4  13    4.41    0.33
  -2  -4  13    4.32    0.27
  -2   4  12    1.06    0.10
  -2   4  12    0.81    0.10
  -2   4  12    0.68    0.10
  -2   4  12    0.94    0.11
   2   4 -12    0.89    0.08
  -2  -4  12    0.80    0.07
   2   4 -11    0.62    0.07
  -2   4  11    0.51    0.09
  -2   4  11    0.68    0.08
  -2   4  11    0.46    0.07
  -2   4  11    0.65    0.07
  -2   4  10    4.16    0.30
  -2   4  10    4.11    0.32
  -2   4  10    3.82    0.32
   2   4 -10    4.14    0.26
  -2   4  10    4.61    0.30
  -2   4  10    3.89    0.33
  -2   4  10    4.43    0.30
  -2   4   9    9.04    0.71
  -2   4   9    8.34    0.65
  -2   4   9    9.33    0.62
  -2   4   9   10.37    0.65
  -2   4   9    9.61    0.65
  -2   4   9   10.23    0.64
  -2   4   9    9.20    0.70
   2   4  -9   10.18    0.57
  -2   4   8    0.14    0.06
  -2   4   8    0.08    0.06
  -2   4   8    0.18    0.03
  -2   4   8    0.17    0.04
  -2   4   8    0.14    0.04
   2   4  -8    0.27    0.10
  -2   4   8    0.16    0.04
   2   4  -8    0.17    0.04
  -2   4   8    0.14    0.05
  -2   4   8    0.16    0.05
   2   4  -8    0.17    0.04
   2   4  -8    0.17    0.03
  -2   4   8    0.17    0.08
   2   4  -8    0.20    0.12
  -2   4   7   33.24    2.15
   2   4  -7   33.08    2.01
   2   4  -7   35.74    1.92
   2   4  -7   32.36    2.07
  -2   4   7   30.90    2.35
  -2   4   7   31.78    2.21
  -2   4   7   31.87    2.15
  -2   4   7   32.33    2.09
  -2   4   7   30.78    2.32
  -2   4   7   31.69    2.17
  -2   4   7   31.98    2.09
  -2   4   7   31.29    1.99
   2   4  -7   32.11    2.06
   2   4  -7   34.53    2.13
  -2   4   7   35.81    2.06
  -2   4   6   10.78    0.77
   2   4  -6   11.26    0.69
   2   4  -6   11.07    0.69
   2   4  -6   11.32    0.73
  -2   4   6    9.85    0.79
  -2   4   6   10.27    0.78
  -2   4   6   10.48    0.70
  -2   4   6   10.89    0.73
  -2   4   6   10.87    0.67
   2   4  -6   11.60    0.64
  -2   4   6   11.12    0.73
   2   4  -6   10.31    0.69
   2   4  -6   10.74    0.64
  -2   4   6   11.06    0.72
  -2   4   6   10.71    0.72
   2   4  -6   11.11    0.71
  -2   4   6   10.98    0.70
   2   4  -5    0.17    0.03
  -2   4   5    0.18    0.04
  -2   4   5    0.13    0.05
  -2   4   5    0.16    0.04
   2   4  -5    0.17    0.07
  -2   4   5    0.27    0.05
  -2   4   5    0.22    0.09
   2   4  -5    0.17    0.04
  -2   4   5    0.15    0.05
   2   4  -5    0.18    0.09
  -2   4   5    0.24    0.06
  -2   4   5    0.19    0.05
   2   4  -5    0.18    0.03
   2   4  -5    0.24    0.09
  -2   4   5    0.15    0.04
  -2   4   5    0.18    0.06
   2   4  -5    0.18    0.06
   2   4  -5    0.19    0.04
  -2   4   4   10.01    0.77
  -2   4   4   12.86    0.68
   2   4  -4   11.19    0.75
  -2   4   4   12.06    0.71
   2   4  -4   11.96    0.68
   2   4  -4   11.67    0.72
  -2   4   4   11.29    0.73
   2   4  -4   11.74    0.73
   2   4  -4   13.03    0.83
  -2   4   4   10.69    0.74
   2   4  -4   12.65    0.75
  -2   4   4   11.50    0.76
  -2   4   4   10.84    0.81
   2   4  -4   11.84    0.68
   2   4  -4   10.08    0.73
  -2   4   3   15.06    0.83
   2   4  -3   15.17    0.92
   2   4  -3   15.19    1.00
   2   4  -3   13.70    0.84
  -2   4   3   12.61    0.99
   2   4  -3   14.22    0.91
  -2   4   3   14.23    0.91
   2   4  -3   13.81    0.94
  -2   4   3   14.11    0.88
   2   4  -3   15.09    0.89
   2   4  -3   14.91    0.84
   2   4  -2   20.59    1.26
  -2   4   2   21.20    1.18
   2   4  -2   18.88    1.40
   2   4  -2   21.41    1.29
  -2   4   2   19.61    1.41
   2   4  -2   21.45    1.18
   2   4  -1    0.54    0.10
   2   4  -1    0.76    0.09
  -2   4   1    0.73    0.13
  -2   4   1    0.65    0.06
  -2   4   1    0.67    0.07
  -2   4   1    0.68    0.07
   2   4  -1    0.72    0.09
  -2   4   1    0.76    0.09
  -2   4   1    0.59    0.07
   2   4  -1    0.79    0.08
   2   4   0   72.21    4.30
   2   4   0   63.52    4.75
  -2   4   0   71.78    4.41
   2   4   0   72.46    4.03
   2   4   0   68.83    4.41
  -2   4   0   73.90    4.30
  -2   4   0   73.22    4.77
  -2   4   0   74.16    4.03
   2   4   1    0.94    0.08
  -2   4  -1    0.96    0.10
  -2   4  -1    0.98    0.15
   2   4   1    0.79    0.08
  -2   4  -1    1.14    0.11
   2   4   1    1.06    0.10
   2   4   1    0.83    0.10
  -2   4  -1    1.00    0.10
   2   4   1    1.03    0.07
   2   4   1    0.83    0.07
  -2   4  -2   22.98    1.21
  -2   4  -2   19.94    1.36
  -2   4  -2   20.13    1.44
  -2   4  -2   19.12    1.39
  -2   4  -2   22.07    1.29
   2   4   2   21.80    1.21
  -2   4  -2   22.54    1.32
   2   4   2   20.22    1.51
   2   4   2   20.12    1.34
   2   4   3    1.65    0.12
  -2   4  -3    1.74    0.13
  -2   4  -3    1.79    0.11
  -2   4  -3    1.87    0.15
   2   4   3    1.57    0.11
   2   4   3    1.73    0.13
  -2   4  -3    1.93    0.19
   2   4   3    1.61    0.16
   2   4   3    1.70    0.13
  -2   4  -3    1.73    0.20
  -2   4  -3    1.90    0.14
   2   4   3    1.72    0.14
   2   4   3    1.73    0.18
  -2   4  -3    1.62    0.12
   2   4   4    0.23    0.06
   2   4   4    0.19    0.02
  -2   4  -4    0.65    0.13
   2   4   4    0.14    0.03
  -2   4  -4    0.14    0.02
  -2   4  -4    0.25    0.04
   2   4   4    0.11    0.10
   2   4   4    0.19    0.04
  -2   4  -4    0.25    0.07
  -2   4  -4    0.14    0.10
   2   4   4    0.24    0.07
  -2   4  -4    0.16    0.04
   2   4   4    0.18    0.06
   2   4   4    0.18    0.03
   2   4   5    0.51    0.13
   2   4   5    0.59    0.07
  -2   4  -5    0.42    0.05
   2   4   5    0.50    0.06
   2   4   5    0.53    0.08
   2   4   5    0.44    0.07
  -2   4  -5    0.61    0.05
  -2   4  -5    0.45    0.06
   2   4   5    0.50    0.06
  -2   4  -5    0.69    0.14
  -2   4  -5    0.54    0.09
   2   4   5    0.48    0.06
   2   4   5    0.52    0.05
  -2   4  -5    0.53    0.11
   2   4   6    4.09    0.35
   2   4   6    3.46    0.27
  -2   4  -6    4.13    0.24
  -2   4  -6    4.48    0.36
   2   4   6    3.71    0.25
  -2   4  -6    4.06    0.26
   2   4   6    3.78    0.27
  -2   4  -6    3.96    0.32
  -2   4  -6    4.13    0.29
   2   4   6    3.84    0.26
   2   4   6    4.37    0.30
   2   4   6    3.87    0.27
  -2   4  -6    4.12    0.27
   2   4   6    4.11    0.31
   2   4   6    3.45    0.26
  -2   4  -7    4.81    0.38
   2   4   7    5.03    0.32
   2   4   7    5.04    0.33
  -2   4  -7    5.13    0.42
   2   4   7    4.57    0.34
  -2   4  -7    4.84    0.34
  -2   4  -7    4.83    0.36
   2   4   7    4.84    0.42
   2   4   7    4.92    0.34
   2   4   7    5.18    0.39
  -2   4  -7    5.26    0.30
   2   4   7    5.31    0.38
  -2   4  -8    2.83    0.30
   2   4   8    2.68    0.20
  -2   4  -8    2.91    0.21
  -2   4  -8    2.77    0.18
   2   4   8    2.66    0.18
   2   4   8    2.91    0.23
   2   4   8    2.85    0.20
   2   4   8    2.67    0.27
   2   4   8    2.58    0.20
   2   4   8    3.01    0.23
   2   4   9   17.96    1.24
   2   4   9   14.59    1.21
   2   4   9   17.22    1.14
  -2   4  -9   17.36    1.21
  -2   4  -9   17.55    1.02
   2   4   9   18.33    1.26
   2   4   9   17.76    1.15
   2   4   9   16.50    1.11
   2   4  10   18.39    1.28
   2   4  10   17.82    1.18
  -2   4 -10   18.84    1.05
   2   4  10   17.45    1.15
   2   4  10   15.73    1.26
   2   4  10   18.19    1.30
   2   4  11    0.79    0.10
   2   4  11    0.78    0.10
  -2   4 -11    0.74    0.06
   2   4  11    0.86    0.10
   2   4  11    0.78    0.09
  -2   4 -12    5.69    0.34
   2   4  12    5.34    0.37
   2   4  12    6.27    0.44
   2   4  12    5.78    0.42
   2   4  12    5.05    0.38
   2  -4  12    5.59    0.34
   2   4  13    7.07    0.56
   2   4  13    8.20    0.57
  -2   4 -13    7.33    0.45
   2  -4  13    7.68    0.45
   2   4  14    0.01    0.08
  -2   4 -14    0.02    0.04
   2   4  14    0.02    0.05
   2  -4  14    0.03    0.03
  -2   4 -15    0.35    0.05
  -2   4 -15    0.41    0.04
   2   4  15    0.28    0.06
   2   4  15    0.48    0.05
   2  -4  15    0.32    0.04
   2  -4  15    0.28    0.05
  -2   5  14    0.43    0.06
  -2   5  13    7.23    0.53
  -2   5  12    0.03    0.06
  -2   5  12    0.00    0.05
   2   5 -12    0.01    0.05
  -2   5  11   12.14    0.86
  -2   5  11   10.40    0.86
   2   5 -11   12.71    0.79
  -2   5  11   12.33    0.80
   2   5 -10    0.25    0.06
  -2   5  10    0.15    0.06
  -2   5  10    0.12    0.05
  -2   5  10    0.10    0.08
  -2   5  10    0.17    0.05
  -2   5  10    0.14    0.07
   2   5  -9   14.48    0.81
  -2   5   9   14.81    0.92
  -2   5   9   13.18    0.88
   2   5  -9   14.22    0.91
  -2   5   9   12.42    1.00
  -2   5   9   12.52    0.85
  -2   5   9   13.97    0.92
  -2   5   9   14.84    0.93
  -2   5   9   13.42    0.99
  -2   5   8    0.09    0.07
   2   5  -8    0.03    0.05
  -2   5   8    0.11    0.05
   2   5  -8    0.01    0.04
  -2   5   8    0.03    0.06
   2   5  -8    0.06    0.03
  -2   5   8    0.11    0.06
   2   5  -8   -0.03    0.04
  -2   5   8    0.04    0.05
  -2   5   8    0.03    0.05
  -2   5   8    0.06    0.04
  -2   5   8    0.03    0.03
   2   5  -7    0.77    0.18
  -2   5   7    0.96    0.09
  -2   5   7    0.92    0.11
   2   5  -7    0.97    0.08
  -2   5   7    0.88    0.09
  -2   5   7    0.90    0.11
   2   5  -7    1.02    0.10
  -2   5   7    0.95    0.09
  -2   5   7    1.09    0.11
   2   5  -7    0.96    0.09
  -2   5   7    1.04    0.12
   2   5  -7    0.91    0.07
  -2   5   7    0.91    0.10
  -2   5   6    2.89    0.20
   2   5  -6    3.04    0.18
  -2   5   6    2.72    0.22
   2   5  -6    2.96    0.20
   2   5  -6    3.02    0.31
  -2   5   6    2.66    0.23
  -2   5   6    2.61    0.21
  -2   5   6    2.55    0.23
   2   5  -6    3.03    0.23
  -2   5   6    3.22    0.20
  -2   5   6    2.87    0.20
  -2   5   6    2.72    0.21
   2   5  -6    2.96    0.20
   2   5  -6    3.19    0.21
   2   5  -5    0.12    0.03
  -2   5   5    0.14    0.07
   2   5  -5    0.12    0.04
  -2   5   5    0.08    0.10
   2   5  -5    0.10    0.09
   2   5  -5    0.10    0.04
   2   5  -5   -0.06    0.12
  -2   5   5    0.11    0.04
  -2   5   5    0.19    0.06
   2   5  -5    0.10    0.02
  -2   5   5    0.16    0.04
  -2   5   5    0.09    0.05
  -2   5   5    0.07    0.04
   2   5  -5    0.11    0.07
   2   5  -5    0.00    0.06
   2   5  -4    0.99    0.14
  -2   5   4    0.88    0.15
  -2   5   4    1.01    0.10
  -2   5   4    0.92    0.09
  -2   5   4    0.95    0.10
   2   5  -4    0.91    0.08
  -2   5   4    0.97    0.09
   2   5  -4    1.00    0.08
   2   5  -4    0.99    0.12
  -2   5   4    0.83    0.09
  -2   5   4    0.79    0.11
   2   5  -4    0.55    0.15
   2   5  -4    0.86    0.08
   2   5  -4    0.97    0.11
   2   5  -4    0.72    0.10
  -2   5   4    0.98    0.11
  -2   5   3    5.54    0.48
   2   5  -3    6.68    0.41
  -2   5   3    6.45    0.39
   2   5  -3    6.97    0.40
   2   5  -3    6.55    0.41
   2   5  -3    6.05    0.43
   2   5  -3    6.79    0.41
   2   5  -3    5.56    0.39
   2   5  -3    6.33    0.43
  -2   5   3    6.53    0.43
   2   5  -3    6.20    0.40
   2   5  -3    6.83    0.41
  -2   5   3    6.53    0.39
  -2   5   3    5.20    0.39
   2   5  -3    5.27    0.48
  -2   5   3    6.19    0.41
  -2   5   3    6.32    0.41
  -2   5   3    5.76    0.46
  -2   5   3    5.61    0.42
   2   5  -2   17.36    1.04
   2   5  -2   18.78    1.14
  -2   5   2   17.77    1.09
   2   5  -2   15.58    1.17
  -2   5   2   16.15    1.18
  -2   5   2   17.36    1.14
   2   5  -2   18.76    1.09
   2   5  -2   19.12    1.12
   2   5  -2   17.47    1.09
   2   5  -2   19.84    1.15
   2   5  -2   19.49    1.13
   2   5  -2   15.62    1.23
   2   5  -2   17.06    1.12
  -2   5   2   16.26    1.23
  -2   5   2   17.53    1.18
  -2   5   2   18.23    1.03
  -2   5   2   19.20    1.13
  -2   5   2   16.48    1.11
   2   5  -1    9.58    0.63
  -2   5   1    9.14    0.60
  -2   5   1    9.97    0.63
   2   5  -1   10.16    0.63
   2   5  -1    9.41    0.59
  -2   5   1    9.08    0.61
  -2   5   1   10.36    0.62
   2   5  -1    9.43    0.60
  -2   5   1    9.25    0.71
   2   5  -1    8.90    0.65
   2   5  -1    9.17    0.62
   2   5  -1   10.33    0.62
  -2   5   1   10.02    0.58
  -2   5   1    9.88    0.65
   2   5  -1   10.11    0.60
   2   5  -1    9.96    0.61
  -2   5   0    1.11    0.10
  -2   5   0    0.92    0.10
  -2   5   0    1.02    0.17
   2   5   0    1.11    0.11
   2   5   0    0.87    0.11
   2   5   0    1.17    0.08
   2   5   0    1.06    0.10
  -2   5   0    1.24    0.12
  -2   5   0    1.11    0.11
  -2   5   0    1.09    0.09
  -2   5   0    1.18    0.09
   2   5   0    1.14    0.09
   2   5   0    1.13    0.09
  -2   5  -1    0.33    0.05
  -2   5  -1    0.29    0.06
  -2   5  -1    0.27    0.08
   2   5   1    0.32    0.07
   2   5   1    0.40    0.06
   2   5   1    0.35    0.05
  -2   5  -1    0.44    0.06
  -2   5  -1    0.36    0.04
   2   5   1    0.37    0.04
  -2   5  -1    0.19    0.07
  -2   5  -1    0.29    0.06
  -2   5  -1    0.29    0.14
  -2   5  -1    0.31    0.04
   2   5   1    0.26    0.05
   2   5   1    0.33    0.03
   2   5   2    2.04    0.17
   2   5   2    1.85    0.17
   2   5   2    2.30    0.20
  -2   5  -2    2.18    0.15
   2   5   2    2.39    0.17
  -2   5  -2    2.25    0.16
  -2   5  -2    2.21    0.15
  -2   5  -2    2.12    0.17
  -2   5  -2    2.64    0.27
   2   5   2    2.25    0.14
  -2   5  -2    2.05    0.17
   2   5   2    2.36    0.16
   2   5   2    2.27    0.16
  -2   5  -2    2.24    0.16
  -2   5  -2    2.00    0.19
  -2   5  -3    6.07    0.38
  -2   5  -3    5.40    0.40
  -2   5  -3    5.64    0.39
  -2   5  -3    5.63    0.36
   2   5   3    5.56    0.37
   2   5   3    5.97    0.37
  -2   5  -3    5.23    0.35
   2   5   3    5.48    0.35
   2   5   3    5.85    0.35
   2   5   3    6.32    0.43
  -2   5  -3    5.57    0.37
   2   5   3    4.69    0.42
  -2   5  -3    5.47    0.38
  -2   5  -3    5.55    0.45
   2   5   3    5.51    0.36
   2   5   4    2.16    0.15
  -2   5  -4    2.26    0.15
  -2   5  -4    2.14    0.25
  -2   5  -4    1.86    0.14
   2   5   4    2.02    0.18
  -2   5  -4    1.96    0.19
   2   5   4    1.88    0.17
   2   5   4    2.05    0.15
  -2   5  -4    2.33    0.19
   2   5   4    2.10    0.15
   2   5   4    2.19    0.20
  -2   5  -4    2.03    0.22
  -2   5  -4    1.92    0.15
   2   5   5   36.88    2.41
   2   5   5   40.52    2.33
  -2   5  -5   38.09    2.23
  -2   5  -5   35.62    2.40
  -2   5  -5   36.40    2.40
   2   5   5   38.90    2.44
  -2   5  -5   40.68    2.48
   2   5   5   39.97    2.71
  -2   5  -5   34.90    2.33
  -2   5  -5   42.09    2.51
  -2   5  -5   36.06    2.60
   2   5   5   36.70    2.75
  -2   5  -6    0.02    0.14
  -2   5  -6    0.16    0.08
   2   5   6    0.31    0.08
   2   5   6    0.17    0.05
   2   5   6    0.20    0.04
   2   5   6    0.10    0.06
   2   5   6    0.19    0.04
  -2   5  -6    0.24    0.05
   2   5   6    0.17    0.05
  -2   5  -6    0.16    0.04
  -2   5  -6    0.20    0.03
  -2   5  -6    0.09    0.08
  -2   5  -7   19.50    1.31
   2   5   7   19.10    1.22
   2   5   7   20.43    1.44
   2   5   7   19.99    1.42
  -2   5  -7   20.13    1.16
  -2   5  -7   18.93    1.25
   2   5   7   19.41    1.27
  -2   5  -7   20.75    1.30
   2   5   7   19.85    1.31
   2   5   8    0.17    0.05
   2   5   8    0.11    0.08
  -2   5  -8    0.20    0.06
   2   5   8    0.21    0.05
  -2   5  -8    0.17    0.03
   2   5   8    0.20    0.08
   2   5   8    0.19    0.04
   2   5   9    0.16    0.05
   2   5   9    0.16    0.06
  -2   5  -9    0.23    0.06
  -2   5  -9    0.16    0.03
   2   5   9    0.19    0.03
   2   5   9    0.12    0.04
   2   5   9    0.26    0.09
   2   5  10    2.32    0.20
   2   5  10    2.18    0.19
   2   5  10    2.24    0.16
  -2   5 -10    2.30    0.15
  -2   5 -10    2.34    0.18
  -2   5 -11   30.70    2.04
  -2   5 -11   28.20    1.82
   2   5  11   33.37    2.24
   2   5  11   31.30    1.98
  -2   5 -11   29.67    2.02
   2   5  11   32.89    2.21
   2   5  12    0.94    0.10
  -2   5 -12    1.07    0.12
   2   5  12    0.94    0.11
   2   5  12    0.76    0.07
  -2   5 -12    0.89    0.06
  -2   5 -12    0.91    0.10
   2   5  13   24.76    1.76
   2   5  13   24.00    1.78
  -2   5 -13   26.89    1.45
  -2   5 -13   23.81    1.61
   2  -5  13   23.66    1.45
  -2   5 -14    0.90    0.07
  -2   5 -14    0.81    0.05
   2   5  14    0.86    0.08
   2   5  14    0.52    0.08
   2  -5  14    0.67    0.06
   2   6 -12    0.70    0.08
  -2   6  11    0.72    0.08
   2   6 -11    1.08    0.10
  -2   6  10   12.13    0.83
   2   6 -10   12.74    0.83
  -2   6   9    0.30    0.05
  -2   6   9    0.28    0.06
   2   6  -9    0.34    0.05
  -2   6   9    0.23    0.04
  -2   6   9    0.21    0.07
   2   6  -9    0.36    0.09
   2   6  -8    4.28    0.31
   2   6  -8    4.11    0.29
   2   6  -8    4.83    0.28
  -2   6   8    4.18    0.29
  -2   6   8    3.73    0.28
  -2   6   8    4.10    0.29
  -2   6   8    4.12    0.29
   2   6  -8    4.28    0.28
  -2   6   8    4.13    0.27
  -2   6   7    1.47    0.13
  -2   6   7    1.37    0.11
   2   6  -7    1.40    0.12
   2   6  -7    1.37    0.12
   2   6  -7    1.53    0.16
  -2   6   7    1.19    0.12
  -2   6   7    1.31    0.11
  -2   6   7    1.36    0.12
   2   6  -7    1.39    0.11
   2   6  -6    9.07    0.58
  -2   6   6    8.43    0.61
   2   6  -6    8.79    0.58
  -2   6   6    8.93    0.59
  -2   6   6   10.02    0.59
   2   6  -6    9.51    0.60
  -2   6   6    8.76    0.61
   2   6  -6    8.69    0.61
  -2   6   6    8.98    0.56
  -2   6   5    0.69    0.08
  -2   6   5    0.74    0.08
   2   6  -5    0.68    0.07
  -2   6   5    0.72    0.08
   2   6  -5    0.78    0.11
   2   6  -5    0.71    0.08
   2   6  -5    0.75    0.08
  -2   6   5    0.89    0.09
  -2   6   5    0.82    0.09
   2   6  -4   18.46    1.17
  -2   6   4   18.40    1.22
   2   6  -4   18.04    1.22
  -2   6   4   19.19    1.17
  -2   6   4   19.07    1.13
   2   6  -4   17.27    1.19
   2   6  -4   17.52    1.16
  -2   6   4   18.74    1.18
  -2   6   3    4.59    0.30
   2   6  -3    4.25    0.32
  -2   6   3    4.38    0.30
  -2   6   3    4.22    0.32
  -2   6   3    4.53    0.28
   2   6  -3    4.73    0.29
   2   6  -3    3.91    0.28
   2   6  -3    4.40    0.30
   2   6  -3    4.46    0.29
   2   6  -2   12.26    0.76
  -2   6   2   12.21    0.73
  -2   6   2   12.21    0.79
   2   6  -2   11.71    0.73
   2   6  -2   10.14    0.70
  -2   6   2   12.21    0.76
   2   6  -2   12.05    0.75
   2   6  -2   10.93    0.79
   2   6  -1   -0.03    0.07
  -2   6   1    0.04    0.04
   2   6  -1   -0.08    0.07
   2   6  -1    0.04    0.04
   2   6  -1    0.13    0.06
  -2   6   1   -0.01    0.08
  -2   6   1    0.05    0.03
   2   6  -1   -0.03    0.06
  -2   6   1    0.10    0.05
  -2   6   1    0.14    0.14
   2   6  -1    0.03    0.03
  -2   6   0   19.54    1.55
  -2   6   0   23.76    1.41
   2   6   0   23.05    1.44
   2   6   0   22.60    1.38
   2   6   0   23.91    1.43
  -2   6   0   22.70    1.43
   2   6   0   21.24    1.48
   2   6   0   22.17    1.41
  -2   6   0   25.08    1.49
  -2   6   0   22.50    1.38
   2   6   0   19.39    1.30
  -2   6  -1    0.36    0.05
   2   6   1    0.39    0.05
  -2   6  -1    0.30    0.10
   2   6   1    0.31    0.04
  -2   6  -1    0.31    0.04
  -2   6  -1    0.14    0.16
   2   6   1    0.22    0.07
  -2   6  -1    0.32    0.07
   2   6   1    0.26    0.03
   2   6   1    0.26    0.05
   2   6   1    0.25    0.07
   2   6   2    9.85    0.62
   2   6   2    9.80    0.61
  -2   6  -2    8.63    0.58
  -2   6  -2    9.37    0.64
  -2   6  -2    9.52    0.61
  -2   6  -2    9.13    0.60
  -2   6  -2    9.11    0.71
   2   6   2    9.54    0.59
  -2   6  -3    0.00    0.03
  -2   6  -3   -0.09    0.06
   2   6   3    0.03    0.06
   2   6   3   -0.01    0.03
  -2   6  -3    0.00    0.04
  -2   6  -3    0.06    0.04
  -2   6  -3   -0.02    0.03
   2   6   3    0.03    0.06
  -2   6  -4    1.64    0.13
   2   6   4    1.87    0.14
  -2   6  -4    1.83    0.16
  -2   6  -4    1.63    0.13
   2   6   4    1.94    0.14
   2   6   4    1.60    0.15
  -2   6  -4    1.79    0.13
   2   6   4    1.68    0.18
  -2   6  -5    0.32    0.06
  -2   6  -5    0.39    0.05
   2   6   5    0.42    0.05
   2   6   5    0.40    0.06
  -2   6  -5    0.42    0.07
   2   6   5    0.37    0.08
  -2   6  -5    0.37    0.06
   2   6   5    0.34    0.05
   2   6   6    6.85    0.49
   2   6   6    7.75    0.57
  -2   6  -6    7.40    0.50
   2   6   6    7.82    0.50
  -2   6  -6    7.61    0.49
   2   6   6    7.99    0.48
  -2   6  -6    7.71    0.52
   2   6   7    0.06    0.05
  -2   6  -7    0.05    0.04
  -2   6  -7    0.03    0.08
  -2   6  -7    0.06    0.04
   2   6   7   -0.01    0.08
   2   6   8    0.98    0.08
   2   6   8    0.80    0.08
  -2   6  -8    0.85    0.09
  -2   6  -8    0.80    0.08
   2   6   8    0.79    0.10
  -2   6  -8    0.89    0.09
  -2   6  -9    0.05    0.05
  -2   6  -9   -0.03    0.05
   2   6   9    0.05    0.05
  -2   6  -9   -0.02    0.04
   2   6   9    0.07    0.06
  -2   6 -10    4.18    0.29
   2   6  10    3.42    0.30
  -2   6 -10    4.11    0.27
   2   6  11    0.61    0.08
  -2   6 -11    0.83    0.08
   2   6  11    0.58    0.06
  -2   6 -11    0.66    0.06
   2   6  12    1.32    0.12
  -2   6 -12    1.43    0.10
   2   7  -9    4.43    0.31
  -2   7   8    1.50    0.12
   2   7  -8    2.10    0.15
   2   7  -7    2.75    0.20
  -2   7   7    2.98    0.20
  -2   7   7    2.90    0.20
   2   7  -6    0.29    0.05
  -2   7   6    0.35    0.06
  -2   7   6    0.31    0.05
   2   7  -6    0.43    0.08
   2   7  -6    0.37    0.04
   2   7  -5    1.70    0.14
  -2   7   5    1.80    0.14
  -2   7   5    1.79    0.12
   2   7  -5    1.74    0.13
   2   7  -5    1.68    0.16
  -2   7   5    1.83    0.14
  -2   7   4    0.00    0.07
   2   7  -4   -0.06    0.07
  -2   7   4    0.04    0.05
   2   7  -4    0.04    0.03
   2   7  -4    0.05    0.05
  -2   7   4    0.06    0.05
  -2   7   3    4.13    0.30
   2   7  -3    4.36    0.28
   2   7  -3    4.00    0.29
  -2   7   3    4.11    0.29
   2   7  -3    4.44    0.27
  -2   7   3    3.81    0.27
  -2   7   2    0.39    0.09
   2   7  -2    0.40    0.04
   2   7  -2    0.31    0.06
  -2   7   2    0.36    0.06
  -2   7   2    0.33    0.06
   2   7  -2    0.41    0.05
  -2   7   1    0.16    0.05
   2   7  -1    0.02    0.04
  -2   7   1    0.01    0.09
   2   7  -1    0.05    0.06
  -2   7   1    0.06    0.05
   2   7  -1    0.03    0.02
   2   7   0    1.01    0.12
  -2   7   0    1.12    0.10
  -2   7   0    1.23    0.13
  -2   7   0    1.14    0.12
  -2   7  -1    0.14    0.09
  -2   7  -1    0.09    0.05
  -2   7  -1    0.08    0.05
   2   7   1    0.04    0.05
  -2   7  -1    0.06    0.02
   2   7   2    0.27    0.07
  -2   7  -2    0.24    0.07
  -2   7  -2    0.17    0.05
   2   7   2    0.19    0.04
  -2   7  -2    0.18    0.03
  -2   7  -3    1.62    0.15
   2   7   3    1.50    0.13
  -2   7  -3    1.56    0.11
  -2   7  -3    1.48    0.12
   2   7   3    1.69    0.13
  -2   7  -4    1.18    0.11
  -2   7  -4    1.22    0.10
   2   7   4    1.27    0.10
   2   7   4    1.24    0.11
   2   7   4    1.21    0.10
  -2   7  -4    1.38    0.13
  -2   7  -5   19.77    1.19
   2   7   5   17.96    1.15
   2   7   5   16.93    1.14
  -2   7  -5   17.18    1.13
   2   7   6    0.83    0.08
  -2   7  -6    0.92    0.10
   2   7   6    0.79    0.08
  -2   7  -6    0.76    0.08
   2   7   7   11.42    0.73
  -2   7  -7   10.39    0.71
  -2   7  -7   11.91    0.75
  -2   7  -8    0.02    0.05
  -2   7  -8    0.02    0.03
   2   7   8    0.02    0.02
   2   7   8    0.01    0.03
  -2   7  -9    1.06    0.08
  -2   7  -9    0.89    0.09
  -2   8   4    0.24    0.04
   2   8  -4    0.28    0.04
  -2   8   3    2.69    0.18
   2   8  -2    1.39    0.10
  -2   8   2    1.30    0.11
  -2   8   2    1.28    0.10
  -2   8   1    5.79    0.35
   2   8  -1    4.97    0.35
  -2   8   1    5.40    0.36
  -2   8   0    8.23    0.56
   2   8   0    8.60    0.54
   2   8   1    2.90    0.20
  -2   8  -1    2.85    0.19
  -2   8  -2    5.76    0.37
   2   8   2    5.10    0.35
  -2   8  -3    5.84    0.39
  -3   0  18    0.66    0.07
  -3   0  17    0.03    0.05
  -3   0  17    0.02    0.08
  -3   0  16    9.95    0.78
  -3   0  16   11.87    0.69
  -3   0  16   10.53    0.80
  -3   0  15    0.02    0.04
  -3   0  15    0.01    0.04
  -3   0  15   -0.04    0.05
  -3   0  15    0.01    0.06
  -3   0  14    1.15    0.13
  -3   0  14    1.13    0.14
  -3   0  14    1.26    0.10
  -3   0  14    1.09    0.11
  -3   0  13    0.02    0.06
  -3   0  13   -0.02    0.05
  -3   0  13   -0.02    0.14
  -3   0  13    0.01    0.04
  -3   0  13    0.02    0.03
  -3   0  13    0.04    0.09
  -3   0  13    0.02    0.07
  -3   0  12   33.51    2.46
  -3   0  12   32.78    2.03
  -3   0  12   33.22    2.12
  -3   0  12   36.02    2.18
  -3   0  12   34.58    2.22
  -3   0  12   34.48    2.18
  -3   0  12   37.45    2.25
  -3   0  11    0.00    0.08
  -3   0  11   -0.02    0.04
  -3   0  11    0.00    0.02
  -3   0  11    0.03    0.08
  -3   0  11   -0.01    0.04
  -3   0  11   -0.02    0.11
  -3   0  11   -0.01    0.03
  -3   0  11    0.04    0.08
  -3   0  10   57.56    4.13
  -3   0  10   59.37    3.53
  -3   0  10   57.55    3.41
  -3   0  10   57.42    3.91
  -3   0  10   56.20    3.66
  -3   0  10   56.68    3.70
  -3   0  10   61.85    3.63
  -3   0  10   59.34    3.78
  -3   0   9    0.08    0.10
  -3   0   9    0.10    0.06
  -3   0   9    0.09    0.07
  -3   0   9    0.01    0.07
  -3   0   8   64.83    3.81
  -3   0   8   63.37    3.91
  -3   0   8   60.77    3.99
  -3   0   7   -0.03    0.06
  -3   0   7    0.01    0.06
  -3   0   7   -0.04    0.06
  -3   0   7   -0.06    0.09
   3   0  -6   19.65    1.42
  -3   0   6   17.24    1.40
   3   0  -6   20.88    1.41
  -3   0   6   23.20    1.29
  -3   0   6   21.28    1.31
  -3   0   5    0.01    0.07
  -3   0   5   -0.01    0.05
  -3   0   5   -0.09    0.07
  -3   0   5   -0.06    0.08
  -3   0   5    0.01    0.05
   3   0  -5   -0.03    0.04
  -3   0   5    0.00    0.05
   3   0  -5   -0.11    0.07
   3   0  -5   -0.09    0.10
   3   0  -5   -0.07    0.05
  -3   0   4   30.99    1.98
  -3   0   4   32.92    1.94
  -3   0   4   30.44    2.11
   3   0  -4   28.18    1.89
  -3   0   4   32.06    1.89
   3   0  -4   30.38    1.94
   3   0  -4   33.43    2.11
   3   0  -4   32.75    2.12
  -3   0   4   29.64    2.11
  -3   0   3   -0.02    0.05
   3   0  -3    0.03    0.05
   3   0  -3    0.10    0.07
   3   0  -3   -0.02    0.08
   3   0  -3    0.02    0.05
  -3   0   3   -0.03    0.10
  -3   0   3   -0.02    0.07
  -3   0   3    0.04    0.05
  -3   0   3   -0.01    0.06
   3   0  -2   17.74    1.18
  -3   0   2   17.65    1.18
   3   0  -2   16.25    1.05
  -3   0   2   16.45    1.06
  -3   0   2   18.04    1.16
   3   0  -2   17.37    1.18
  -3   0   2   18.02    1.19
  -3   0   2   18.47    1.08
   3   0  -2   16.32    1.08
  -3   0   1   -0.07    0.08
  -3   0   1    0.03    0.05
  -3   0   1    0.03    0.05
  -3   0   1    0.00    0.08
  -3   0   1    0.00    0.04
   3   0  -1    0.00    0.04
   3   0  -1    0.01    0.07
   3   0  -1   -0.09    0.07
   3   0  -1   -0.05    0.04
  -3   0   0  340.21   21.51
  -3   0   0  377.25   22.04
   3   0   0  380.24   23.81
   3   0   0  349.23   21.51
  -3   0   0  329.85   23.75
  -3   0   0  356.11   23.79
   3   0   0  322.54   23.65
   3   0   0  386.33   22.05
   3   0   0  381.16   23.79
  -3   0   0  343.11   23.67
   3   0   1   -0.28    0.07
  -3   0  -1   -0.25    0.03
   3   0   1   -0.25    0.05
   3   0   1   -0.22    0.05
  -3   0  -1   -0.22    0.05
  -3   0  -1   -0.18    0.08
   3   0   1   -0.18    0.08
  -3   0  -1   -0.22    0.05
   3   0   1   -0.18    0.04
  -3   0  -1   -0.27    0.08
   3   0   2  233.98   14.05
  -3   0  -2  251.26   15.11
   3   0   2  214.52   13.72
   3   0   2  229.38   15.11
   3   0   2  226.37   15.10
  -3   0  -2  220.85   14.02
   3   0   2  204.03   15.10
  -3   0  -2  251.18   15.13
  -3   0  -2  217.65   13.69
  -3   0  -2  218.79   15.07
  -3   0  -3   -0.02    0.05
   3   0   3    0.02    0.05
   3   0   3   -0.06    0.08
  -3   0  -3    0.02    0.09
   3   0   3    0.00    0.06
   3   0   3    0.01    0.07
  -3   0  -3   -0.05    0.05
  -3   0  -3    0.03    0.09
   3   0   3   -0.03    0.06
   3   0   4   48.31    2.75
  -3   0  -4   43.67    2.82
  -3   0  -4   43.59    3.06
   3   0   4   41.91    3.03
  -3   0  -4   48.15    3.06
   3   0   4   45.58    3.05
   3   0   4   49.92    2.82
  -3   0  -4   40.23    2.75
   3   0   4   47.20    3.06
   3   0   5   -0.06    0.07
   3   0   5   -0.03    0.09
   3   0   5    0.04    0.06
  -3   0  -5   -0.08    0.08
   3   0   5   -0.04    0.05
   3   0   5   -0.08    0.06
  -3   0  -5   -0.10    0.09
   3   0   6    2.96    0.28
   3   0   6    2.95    0.27
   3   0   6    3.92    0.24
   3   0   6    3.50    0.25
   3   0   6    3.38    0.30
  -3   0  -6    3.27    0.30
   3   0   7    0.07    0.09
   3   0   7    0.03    0.09
   3   0   7    0.07    0.06
   3   0   8   22.96    1.40
   3   0   8   22.79    1.44
   3   0   8   22.18    1.55
   3   0   9    0.01    0.08
   3   0   9    0.02    0.02
   3   0   9    0.01    0.08
   3   0   9    0.02    0.10
   3   0   9   -0.01    0.03
   3   0   9   -0.01    0.04
   3   0  10    7.67    0.49
   3   0  10    7.68    0.54
   3   0  10    7.53    0.57
   3   0  10    8.24    0.51
   3   0  10    6.81    0.48
   3   0  10    6.63    0.47
   3   0  10    6.88    0.43
   3   0  11    0.02    0.06
   3   0  11    0.03    0.04
   3   0  11   -0.25    0.08
   3   0  11    0.01    0.04
   3   0  11    0.00    0.09
   3   0  11    0.01    0.02
   3   0  11   -0.08    0.13
   3   0  12   32.92    2.38
   3   0  12   33.57    2.26
   3   0  12   34.10    2.15
   3   0  12   30.74    1.93
   3   0  12   35.78    2.08
   3   0  12   30.73    2.11
   3   0  13    0.05    0.05
   3   0  13    0.03    0.05
   3   0  13   -0.05    0.05
   3   0  13   -0.04    0.04
   3   0  14    0.27    0.06
   3   0  14    0.22    0.05
   3   0  14    0.34    0.09
   3   0  15    0.02    0.06
   3   0  15   -0.03    0.04
   3   0  15   -0.02    0.04
   3   0  16    6.25    0.44
   3   0  16    7.19    0.51
   3   0  16    7.02    0.44
   3   0  17   -0.01    0.03
   3   0  17   -0.06    0.04
  -3   1  18    1.63    0.12
  -3   1  18    1.41    0.14
  -3  -1  18    1.50    0.13
  -3   1  17    5.37    0.39
  -3   1  17    5.15    0.39
  -3  -1  17    5.25    0.40
  -3   1  16    0.50    0.07
  -3   1  16    0.46    0.05
  -3   1  16    0.35    0.09
  -3  -1  16    0.47    0.07
  -3  -1  16    0.44    0.08
  -3   1  15    0.02    0.04
  -3   1  15    0.06    0.07
  -3   1  15    0.05    0.09
  -3  -1  15    0.09    0.06
  -3  -1  15    0.19    0.06
  -3  -1  15    0.03    0.05
  -3  -1  15    0.10    0.06
  -3   1  14    1.08    0.10
  -3   1  14    0.83    0.09
  -3   1  14    0.80    0.12
  -3   1  14    0.94    0.10
  -3  -1  14    0.92    0.11
  -3  -1  14    1.05    0.09
  -3  -1  14    0.93    0.09
  -3   1  13   18.64    1.15
  -3   1  13   17.42    1.20
  -3   1  13   18.70    1.18
  -3   1  13   18.34    1.30
  -3   1  13   18.40    1.33
  -3   1  13   17.98    1.20
  -3  -1  13   16.43    1.28
  -3  -1  13   19.95    1.19
  -3  -1  13   16.41    1.15
  -3  -1  13   17.76    1.30
  -3  -1  13   19.01    1.07
  -3   1  12    2.81    0.18
  -3   1  12    2.74    0.22
  -3   1  12    2.76    0.18
  -3   1  12    2.45    0.22
  -3   1  12    2.38    0.29
  -3   1  12    2.37    0.22
  -3   1  12    2.76    0.20
  -3   1  12    2.62    0.20
  -3   1  12    2.66    0.25
  -3  -1  12    2.74    0.25
  -3  -1  12    2.56    0.30
  -3  -1  12    2.59    0.23
  -3  -1  12    2.56    0.19
  -3  -1  12    2.84    0.17
  -3  -1  12    2.59    0.20
  -3  -1  12    2.56    0.21
  -3   1  11    2.42    0.19
  -3   1  11    2.52    0.22
  -3   1  11    2.46    0.21
  -3   1  11    2.48    0.17
  -3   1  11    2.44    0.18
  -3   1  11    2.70    0.18
  -3   1  11    2.41    0.27
  -3   1  11    2.82    0.20
  -3   1  11    2.44    0.18
  -3   1  11    2.68    0.23
  -3  -1  11    2.52    0.19
  -3  -1  11    2.62    0.22
  -3  -1  11    2.44    0.19
  -3  -1  11    2.46    0.16
  -3  -1  11    2.03    0.21
  -3  -1  11    2.22    0.18
  -3  -1  11    2.44    0.24
  -3   1  10   15.88    1.18
  -3   1  10   17.49    1.07
  -3   1  10   16.16    1.23
  -3   1  10   17.08    1.13
  -3   1  10   16.95    1.12
  -3   1  10   17.18    1.04
  -3   1  10   17.38    1.07
  -3   1  10   17.34    1.10
  -3   1  10   17.00    1.11
  -3   1  10   16.23    1.21
  -3  -1  10   16.23    1.11
  -3  -1  10   17.44    1.06
  -3  -1  10   16.29    1.10
  -3  -1  10   18.38    1.10
  -3  -1  10   17.08    1.00
  -3   1   9    7.45    0.50
  -3   1   9    6.37    0.53
  -3   1   9    7.43    0.48
  -3   1   9    7.52    0.46
  -3  -1   9    7.68    0.50
  -3  -1   9    6.62    0.49
  -3  -1   9    7.33    0.48
  -3   1   8    0.01    0.06
  -3   1   8    0.02    0.07
  -3   1   8   -0.01    0.04
  -3   1   8   -0.03    0.09
  -3  -1   8    0.06    0.08
  -3  -1   8    0.03    0.05
  -3  -1   8    0.00    0.06
  -3   1   7    0.80    0.08
  -3   1   7    0.92    0.11
  -3   1   7    0.93    0.09
   3   1  -7    0.79    0.15
  -3   1   7    0.61    0.11
  -3  -1   7    0.85    0.12
  -3  -1   7    0.77    0.09
  -3  -1   7    0.88    0.10
  -3  -1   7    0.82    0.15
   3   1  -6   19.92    1.23
   3   1  -6   20.58    1.39
  -3   1   6   16.91    1.35
  -3   1   6   20.43    1.26
  -3   1   6   23.24    1.29
  -3   1   6   18.99    1.37
  -3   1   6   18.58    1.22
   3   1  -6   19.29    1.27
   3   1  -6   18.82    1.40
   3  -1  -6   21.14    1.38
  -3  -1   6   19.21    1.39
  -3  -1   6   21.78    1.28
   3  -1  -6   19.72    1.37
  -3  -1   6   22.49    1.27
  -3   1   5    0.93    0.10
  -3   1   5    0.79    0.10
  -3   1   5    0.99    0.11
   3   1  -5    0.89    0.10
   3   1  -5    1.05    0.15
  -3   1   5    0.72    0.07
   3   1  -5    0.91    0.14
  -3   1   5    1.11    0.13
  -3   1   5    0.87    0.09
  -3   1   5    0.81    0.10
   3   1  -5    0.88    0.07
  -3   1   5    1.03    0.10
   3   1  -5    0.85    0.09
  -3   1   5    0.73    0.08
  -3  -1   5    1.25    0.17
  -3  -1   5    1.13    0.11
  -3  -1   5    0.92    0.10
   3  -1  -5    0.97    0.12
  -3  -1   5    0.95    0.10
   3  -1  -5    0.98    0.12
  -3  -1   5    0.92    0.13
   3   1  -4    0.96    0.14
  -3   1   4    1.28    0.10
  -3   1   4    1.06    0.11
  -3   1   4    1.17    0.13
   3   1  -4    1.11    0.08
  -3   1   4    1.11    0.10
  -3   1   4    1.29    0.12
   3   1  -4    1.35    0.15
  -3   1   4    1.22    0.10
  -3   1   4    1.14    0.12
  -3   1   4    1.18    0.13
  -3   1   4    1.00    0.09
   3   1  -4    1.25    0.11
   3   1  -4    1.23    0.12
  -3  -1   4    1.08    0.11
  -3  -1   4    1.18    0.15
   3  -1  -4    1.23    0.14
   3  -1  -4    1.31    0.12
  -3  -1   4    1.22    0.13
  -3  -1   4    1.39    0.16
  -3  -1   4    1.13    0.12
   3   1  -3   43.98    2.91
  -3   1   3   45.21    2.88
  -3   1   3   41.13    2.89
   3   1  -3   44.70    2.61
  -3   1   3   45.81    2.67
  -3   1   3   38.66    2.60
  -3   1   3   39.52    2.67
  -3   1   3   38.73    2.86
  -3   1   3   42.99    2.72
   3   1  -3   44.52    2.67
  -3   1   3   42.97    2.60
   3   1  -3   42.51    2.43
   3   1  -3   47.20    2.90
  -3   1   3   42.14    2.89
  -3  -1   3   44.01    2.67
   3  -1  -3   47.09    2.89
  -3  -1   3   43.37    2.90
  -3  -1   3   43.03    2.61
  -3  -1   3   42.77    2.72
   3  -1  -3   39.35    2.89
  -3  -1   3   45.88    2.91
  -3   1   2   24.99    1.58
  -3   1   2   21.35    1.51
  -3   1   2   23.10    1.67
  -3   1   2   23.77    1.55
  -3   1   2   25.48    1.55
  -3   1   2   26.68    1.51
   3   1  -2   27.08    1.70
   3   1  -2   25.35    1.51
  -3   1   2   21.57    1.68
   3   1  -2   22.57    1.41
  -3   1   2   25.63    1.69
   3   1  -2   26.94    1.55
   3   1  -2   27.46    1.69
  -3  -1   2   25.74    1.70
  -3  -1   2   25.62    1.52
   3  -1  -2   25.97    1.69
  -3  -1   2   25.27    1.69
   3  -1  -2   25.62    1.69
  -3  -1   2   24.42    1.55
  -3   1   1   48.16    3.57
   3   1  -1   55.87    3.57
  -3   1   1   45.86    3.21
  -3   1   1   53.84    3.55
  -3   1   1   52.09    3.29
  -3   1   1   49.61    3.21
   3   1  -1   56.27    3.30
  -3   1   1   58.26    3.29
   3   1  -1   52.78    3.21
  -3   1   1   52.79    3.57
   3   1  -1   57.96    3.57
  -3  -1   1   50.32    3.22
   3  -1  -1   49.53    3.29
  -3  -1   1   54.80    3.57
  -3  -1   1   56.81    3.57
   3  -1  -1   54.60    3.57
  -3  -1   1   52.31    3.30
   3  -1  -1   57.23    3.57
  -3   1   0    0.06    0.06
   3   1   0    0.05    0.04
   3   1   0    0.02    0.07
  -3   1   0    0.06    0.07
  -3   1   0   -0.01    0.04
   3   1   0    0.03    0.04
   3   1   0    0.00    0.04
   3   1   0   -0.02    0.07
  -3   1   0    0.05    0.04
  -3   1   0    0.05    0.06
   3   1   0   -0.01    0.05
  -3   1   0    0.12    0.07
  -3  -1   0    0.07    0.05
   3  -1   0    0.05    0.05
  -3  -1   0    0.10    0.08
   3  -1   0    0.04    0.04
   3  -1   0    0.08    0.08
  -3  -1   0    0.01    0.04
  -3  -1   0    0.05    0.08
   3  -1   0    0.07    0.07
   3   1   1    4.51    0.32
   3   1   1    3.68    0.27
  -3   1  -1    4.68    0.33
   3   1   1    4.43    0.27
  -3   1  -1    4.13    0.30
   3   1   1    3.86    0.28
   3   1   1    4.35    0.28
  -3   1  -1    4.66    0.33
  -3   1  -1    4.21    0.27
   3   1   1    4.14    0.31
   3   1   1    4.24    0.32
  -3   1  -1    4.48    0.28
  -3  -1  -1    3.65    0.28
   3  -1   1    4.26    0.33
   3  -1   1    3.93    0.28
   3  -1   1    3.70    0.27
  -3  -1  -1    3.83    0.33
  -3  -1  -1    4.65    0.33
   3  -1   1    4.05    0.33
   3   1   2   15.58    0.97
   3   1   2   14.53    1.08
  -3   1  -2   15.74    0.97
  -3   1  -2   15.34    1.10
  -3   1  -2   17.67    1.00
   3   1   2   16.27    1.09
   3   1   2   16.82    1.00
  -3   1  -2   16.94    1.10
  -3   1  -2   15.90    1.07
   3   1   2   14.99    0.99
   3   1   2   15.23    1.09
   3  -1   2   15.89    0.98
   3  -1   2   17.04    1.10
  -3  -1  -2   15.37    1.09
  -3  -1  -2   14.75    1.10
   3  -1   2   16.04    1.00
   3  -1   2   16.65    1.10
   3   1   3   26.13    1.62
   3   1   3   26.02    1.59
   3   1   3   23.65    1.77
   3   1   3   26.45    1.76
  -3   1  -3   26.95    1.78
   3   1   3   25.57    1.77
   3   1   3   23.66    1.62
  -3   1  -3   25.94    1.63
  -3   1  -3   26.62    1.78
   3   1   3   24.32    1.58
  -3   1  -3   26.27    1.59
  -3  -1  -3   29.04    1.77
  -3  -1  -3   22.84    1.77
   3  -1   3   28.16    1.79
   3  -1   3   29.87    1.78
   3  -1   3   26.71    1.59
   3  -1   3   26.48    1.63
   3   1   4    2.77    0.21
   3   1   4    2.74    0.23
  -3   1  -4    2.56    0.25
  -3   1  -4    2.66    0.20
   3   1   4    2.39    0.17
   3   1   4    2.48    0.18
   3   1   4    2.89    0.19
  -3   1  -4    2.86    0.25
   3   1   4    2.29    0.22
  -3   1  -4    2.73    0.19
   3   1   4    2.49    0.18
   3   1   4    2.28    0.17
   3  -1   4    2.55    0.23
  -3  -1  -4    2.36    0.23
   3  -1   4    2.84    0.19
  -3  -1  -4    2.64    0.23
   3  -1   4    2.79    0.21
   3  -1   4    3.09    0.26
  -3   1  -5   94.14    6.11
   3   1   5   96.60    6.06
   3   1   5  102.58    5.62
  -3   1  -5   89.52    5.49
   3   1   5   93.46    6.08
   3   1   5   88.73    5.12
  -3   1  -5   88.30    5.63
  -3   1  -5   90.02    6.10
   3   1   5   77.26    6.08
   3   1   5   87.33    5.62
   3   1   5   78.67    5.48
   3   1   5   92.19    5.49
  -3  -1  -5   92.15    6.09
   3  -1   5   94.94    6.11
  -3  -1  -5   87.97    6.08
   3  -1   5   95.76    5.63
   3  -1   5   91.29    6.10
   3  -1   5   96.32    5.49
   3   1   6    0.13    0.06
   3   1   6    0.15    0.03
   3   1   6    0.00    0.09
   3   1   6    0.12    0.06
  -3   1  -6    0.03    0.11
   3  -1   6    0.08    0.08
   3  -1   6    0.13    0.07
   3  -1   6    0.12    0.10
   3  -1   6    0.16    0.08
   3  -1   6    0.15    0.06
   3   1   7   12.42    0.79
   3   1   7   13.05    0.89
   3   1   7   12.40    0.81
   3  -1   7   13.00    0.88
   3  -1   7   11.75    0.93
   3  -1   7   12.00    0.82
   3  -1   7   13.90    0.80
   3   1   8    0.09    0.06
   3   1   8    0.24    0.10
   3   1   8    0.10    0.06
   3  -1   8    0.26    0.09
   3  -1   8    0.25    0.10
   3  -1   8    0.11    0.11
   3   1   9    3.77    0.24
   3   1   9    3.47    0.28
   3   1   9    4.03    0.31
   3   1   9    4.71    0.35
   3   1   9    4.08    0.31
   3   1   9    3.93    0.28
   3   1   9    4.76    0.31
   3   1   9    4.31    0.27
   3   1   9    4.03    0.28
   3   1   9    4.47    0.28
   3  -1   9    4.57    0.33
   3  -1   9    4.06    0.25
   3  -1   9    4.46    0.31
   3  -1   9    4.07    0.36
   3   1  10    1.51    0.12
   3   1  10    1.37    0.12
   3   1  10    1.50    0.14
   3   1  10    1.50    0.12
   3   1  10    1.67    0.17
   3   1  10    1.48    0.16
   3   1  10    1.44    0.13
   3   1  10    1.53    0.20
   3   1  10    1.64    0.13
   3  -1  10    1.40    0.16
   3  -1  10    1.63    0.18
   3  -1  10    1.63    0.21
   3  -1  10    1.56    0.10
   3  -1  10    1.56    0.13
   3   1  11    2.83    0.24
   3   1  11    2.60    0.30
   3   1  11    2.84    0.19
   3   1  11    3.01    0.23
   3   1  11    2.47    0.22
   3   1  11    2.50    0.20
   3   1  11    2.59    0.19
   3   1  11    2.82    0.22
   3   1  11    2.83    0.20
   3  -1  11    2.93    0.27
   3  -1  11    3.01    0.31
   3  -1  11    2.78    0.17
   3  -1  11    3.04    0.25
   3  -1  11    2.76    0.20
   3   1  12    0.00    0.04
   3   1  12    0.08    0.11
   3   1  12    0.04    0.04
   3   1  12   -0.06    0.04
   3   1  12    0.02    0.05
   3   1  12    0.00    0.05
   3  -1  12    0.02    0.03
   3  -1  12   -0.01    0.05
   3  -1  12   -0.02    0.09
   3  -1  12   -0.30    0.13
   3  -1  12    0.03    0.05
   3  -1  12    0.00    0.05
   3   1  13   13.34    0.94
   3   1  13   12.06    0.84
   3   1  13   13.47    0.96
   3   1  13   12.22    0.85
   3   1  13   13.81    0.83
   3  -1  13   12.05    0.77
   3  -1  13   14.59    0.96
   3  -1  13   13.98    0.87
   3  -1  13   12.24    0.84
   3   1  14    2.93    0.20
   3   1  14    3.28    0.25
   3   1  14    2.94    0.20
   3  -1  14    2.96    0.22
   3  -1  14    2.83    0.18
   3  -1  14    3.07    0.22
   3  -1  14    3.27    0.25
   3   1  15    7.36    0.51
   3   1  15    6.46    0.44
   3  -1  15    6.90    0.51
   3  -1  15    6.39    0.46
   3  -1  15    6.99    0.45
   3   1  16    0.45    0.05
   3   1  16    0.61    0.07
   3  -1  16    0.40    0.05
   3  -1  16    0.39    0.07
   3  -1  16    0.43    0.07
   3   1  17    0.01    0.04
   3   1  17    0.06    0.03
   3  -1  17   -0.05    0.04
   3  -1  17    0.07    0.04
   3  -1  17    0.05    0.02
  -3   2  17    0.65    0.07
  -3   2  17    0.64    0.07
  -3  -2  17    0.44    0.07
  -3   2  16    6.07    0.47
  -3   2  16    6.54    0.46
  -3  -2  16    6.25    0.47
  -3   2  15    2.41    0.16
  -3   2  15    2.10    0.19
  -3   2  15    2.34    0.19
  -3  -2  15    2.31    0.18
  -3   2  14    0.07    0.03
  -3   2  14    0.02    0.07
  -3   2  14    0.05    0.08
  -3   2  14    0.06    0.05
  -3  -2  14    0.11    0.03
  -3  -2  14    0.07    0.06
  -3   2  13    1.91    0.14
  -3   2  13    1.83    0.16
  -3   2  13    1.72    0.16
  -3   2  13    1.63    0.13
  -3  -2  13    1.47    0.24
  -3  -2  13    1.79    0.12
  -3  -2  13    1.99    0.16
  -3   2  12   43.43    2.74
  -3   2  12   36.41    2.98
  -3   2  12   42.18    2.60
  -3   2  12   44.94    2.94
  -3   2  12   39.76    2.65
  -3   2  12   42.20    2.72
  -3  -2  12   39.68    2.69
  -3  -2  12   41.66    2.43
  -3   2  11    4.27    0.28
  -3   2  11    3.73    0.33
  -3   2  11    4.54    0.33
  -3   2  11    4.19    0.30
  -3   2  11    4.80    0.30
  -3   2  11    4.45    0.34
  -3  -2  11    4.40    0.26
  -3  -2  11    3.85    0.32
  -3   2  10   42.99    2.62
  -3   2  10   43.56    2.64
  -3   2  10   40.08    2.55
  -3   2  10   40.39    2.83
  -3   2  10   38.52    2.50
  -3   2  10   33.97    2.86
  -3  -2  10   39.01    2.34
  -3   2   9    6.96    0.42
  -3   2   9    7.21    0.46
  -3   2   9    6.72    0.45
  -3   2   9    7.54    0.41
  -3   2   9    5.63    0.49
  -3   2   9    6.51    0.44
  -3   2   9    6.99    0.45
  -3   2   9    7.27    0.49
  -3   2   9    5.87    0.49
  -3   2   9    5.88    0.41
  -3   2   9    6.01    0.42
  -3   2   9    7.38    0.48
  -3   2   9    7.32    0.43
  -3  -2   9    6.57    0.40
  -3   2   8   29.61    1.87
  -3   2   8   32.15    1.94
  -3   2   8   26.80    1.82
  -3   2   8   27.72    1.87
  -3   2   8   32.94    1.82
  -3   2   8   27.37    2.03
  -3  -2   8   32.47    1.91
  -3  -2   8   33.42    1.86
   3   2  -7    0.14    0.09
  -3   2   7    0.08    0.03
  -3   2   7    0.00    0.06
  -3   2   7    0.10    0.02
  -3   2   7    0.06    0.03
  -3   2   7    0.08    0.06
   3   2  -7   -0.02    0.05
  -3   2   7    0.06    0.04
  -3  -2   7    0.08    0.06
  -3  -2   7    0.13    0.08
  -3   2   6   18.39    1.00
   3   2  -6   16.25    1.05
  -3   2   6   14.22    1.11
   3   2  -6   17.68    1.02
  -3   2   6   14.13    1.00
   3   2  -6   17.17    0.94
   3   2  -6   15.34    1.16
  -3   2   6   16.77    1.02
  -3   2   6   18.16    1.13
  -3   2   6   18.32    1.07
  -3   2   6   16.41    1.02
  -3  -2   6   16.27    1.02
  -3  -2   6   14.77    1.16
   3  -2  -6   15.27    1.11
  -3  -2   6   17.20    1.05
  -3   2   5   39.68    2.61
  -3   2   5   40.69    2.36
  -3   2   5   38.07    2.61
  -3   2   5   43.09    2.62
  -3   2   5   33.72    2.61
   3   2  -5   35.31    2.66
   3   2  -5   38.13    2.66
   3   2  -5   41.65    2.21
  -3   2   5   43.55    2.49
  -3   2   5   39.19    2.42
   3   2  -5   40.97    2.38
   3   2  -5   39.57    2.44
  -3   2   5   42.18    2.42
  -3   2   5   39.40    2.36
  -3  -2   5   39.73    2.44
  -3  -2   5   38.71    2.66
   3  -2  -5   33.78    2.61
  -3  -2   5   39.69    2.67
   3  -2  -5   37.51    2.61
  -3  -2   5   37.63    2.38
  -3   2   4    0.21    0.05
  -3   2   4    0.19    0.04
  -3   2   4    0.26    0.06
  -3   2   4    0.19    0.03
  -3   2   4    0.17    0.08
   3   2  -4    0.23    0.07
   3   2  -4    0.18    0.04
  -3   2   4    0.24    0.03
   3   2  -4    0.20    0.09
  -3   2   4    0.23    0.03
   3   2  -4    0.14    0.08
  -3   2   4    0.25    0.03
  -3   2   4    0.25    0.05
   3   2  -4    0.18    0.06
  -3  -2   4    0.12    0.10
   3  -2  -4    0.12    0.04
  -3  -2   4    0.19    0.06
  -3  -2   4    0.21    0.07
   3  -2  -4    0.19    0.04
  -3  -2   4    0.19    0.10
  -3  -2   4    0.14    0.04
   3   2  -3    7.26    0.53
  -3   2   3    6.93    0.52
   3   2  -3    7.20    0.54
  -3   2   3    6.71    0.49
  -3   2   3    7.97    0.51
   3   2  -3    7.50    0.46
  -3   2   3    7.69    0.46
  -3   2   3    7.15    0.48
   3   2  -3    7.41    0.43
  -3   2   3    7.16    0.46
  -3   2   3    7.32    0.45
  -3   2   3    7.23    0.51
  -3   2   3    7.73    0.45
   3   2  -3    7.72    0.48
  -3  -2   3    7.67    0.55
   3  -2  -3    7.07    0.50
  -3  -2   3    7.79    0.55
  -3  -2   3    6.72    0.47
   3  -2  -3    7.37    0.51
  -3  -2   3    6.83    0.46
  -3  -2   3    7.04    0.48
   3   2  -2    1.52    0.12
  -3   2   2    1.22    0.11
  -3   2   2    1.58    0.11
  -3   2   2    1.42    0.13
   3   2  -2    1.50    0.16
  -3   2   2    1.60    0.16
  -3   2   2    1.42    0.11
  -3   2   2    1.41    0.14
   3   2  -2    1.71    0.13
  -3   2   2    1.38    0.10
   3   2  -2    1.46    0.10
  -3   2   2    1.30    0.13
   3   2  -2    1.62    0.16
  -3  -2   2    1.06    0.12
  -3  -2   2    1.58    0.18
  -3  -2   2    1.67    0.19
  -3  -2   2    1.32    0.13
   3  -2  -2    1.51    0.13
   3  -2  -2    1.37    0.15
  -3   2   1   31.90    2.12
   3   2  -1   31.60    2.13
   3   2  -1   33.28    1.78
  -3   2   1   34.91    1.95
   3   2  -1   34.54    1.96
   3   2  -1   27.67    1.95
   3   2  -1   28.17    1.91
  -3   2   1   29.27    1.90
  -3   2   1   32.81    2.11
   3   2  -1   32.63    2.12
   3   2  -1   33.69    1.91
  -3   2   1   28.87    2.12
  -3   2   1   30.85    1.95
  -3   2   1   33.08    1.90
  -3   2   1   29.56    1.99
   3  -2  -1   28.77    2.12
  -3  -2   1   26.81    1.95
  -3  -2   1   32.98    2.13
  -3  -2   1   31.28    2.13
   3  -2  -1   35.15    2.12
  -3   2   0    0.16    0.04
   3   2   0    0.16    0.04
  -3   2   0    0.22    0.06
   3   2   0    0.17    0.06
   3   2   0    0.17    0.04
   3   2   0    0.20    0.05
   3   2   0    0.24    0.07
   3   2   0    0.21    0.08
  -3   2   0    0.19    0.04
   3   2   0    0.20    0.05
   3   2   0    0.16    0.04
  -3   2   0    0.25    0.08
  -3   2   0    0.09    0.05
  -3   2   0    0.15    0.09
   3   2   0    0.13    0.04
  -3   2   0    0.10    0.05
  -3   2   0    0.12    0.07
   3  -2   0    0.14    0.09
  -3  -2   0    0.26    0.08
  -3  -2   0    0.14    0.08
   3  -2   0    0.23    0.08
  -3   2  -1    4.55    0.33
   3   2   1    4.07    0.30
  -3   2  -1    4.74    0.35
   3   2   1    4.33    0.29
  -3   2  -1    4.90    0.30
   3   2   1    4.60    0.33
   3   2   1    4.93    0.29
  -3   2  -1    3.63    0.33
   3   2   1    4.95    0.34
   3   2   1    3.83    0.33
   3   2   1    3.91    0.28
   3   2   1    4.51    0.28
   3   2   1    4.77    0.27
  -3   2  -1    4.71    0.29
  -3  -2  -1    4.35    0.34
   3  -2   1    4.68    0.35
   3  -2   1    4.82    0.34
   3  -2   1    4.21    0.31
  -3  -2  -1    4.29    0.34
   3   2   2   10.48    0.66
   3   2   2    9.77    0.58
   3   2   2    9.18    0.66
  -3   2  -2    9.73    0.68
   3   2   2    9.00    0.59
  -3   2  -2   10.17    0.59
  -3   2  -2    9.80    0.68
  -3   2  -2   10.73    0.66
   3   2   2    8.41    0.58
   3   2   2    9.20    0.59
  -3   2  -2    9.52    0.61
   3   2   2    9.74    0.55
   3   2   2    8.69    0.63
   3   2   2    9.52    0.66
   3  -2   2    8.75    0.61
   3  -2   2   10.14    0.69
  -3  -2  -2    8.24    0.66
   3  -2   2    8.46    0.59
  -3  -2  -2    9.11    0.66
   3  -2   2   10.45    0.68
  -3   2  -3    0.09    0.11
  -3   2  -3    0.19    0.10
   3   2   3    0.15    0.03
   3   2   3    0.16    0.04
   3   2   3    0.15    0.05
   3   2   3    0.15    0.09
  -3   2  -3    0.26    0.08
   3   2   3    0.18    0.04
   3   2   3    0.06    0.06
  -3   2  -3    0.28    0.09
   3   2   3    0.23    0.05
   3   2   3    0.20    0.04
  -3   2  -3    0.13    0.07
  -3  -2  -3    0.11    0.06
   3  -2   3    0.12    0.06
   3  -2   3    0.16    0.08
   3  -2   3    0.18    0.10
   3  -2   3    0.25    0.09
  -3  -2  -3    0.23    0.07
   3   2   4   14.16    0.81
   3   2   4   13.19    0.85
  -3   2  -4   14.40    0.90
   3   2   4   13.86    0.97
   3   2   4   13.31    0.96
  -3   2  -4   14.83    1.01
   3   2   4   14.83    0.86
  -3   2  -4   15.83    0.87
  -3   2  -4   13.67    1.00
   3   2   4   14.60    0.88
   3   2   4   13.94    0.96
   3   2   4   12.45    0.88
   3  -2   4   12.44    0.90
  -3  -2  -4   13.99    0.97
   3  -2   4   14.58    1.01
   3  -2   4   14.44    1.00
   3  -2   4   14.00    0.88
  -3   2  -5    0.60    0.10
   3   2   5    0.42    0.06
  -3   2  -5    0.52    0.08
   3   2   5    0.56    0.06
  -3   2  -5    0.51    0.13
   3   2   5    0.49    0.05
  -3   2  -5    0.47    0.12
   3   2   5    0.65    0.11
   3   2   5    0.49    0.07
   3   2   5    0.53    0.06
   3   2   5    0.50    0.06
   3  -2   5    0.43    0.12
   3   2   6    0.11    0.04
  -3   2  -6    0.30    0.07
   3   2   6    0.06    0.05
  -3   2  -6    0.11    0.08
   3   2   6    0.08    0.03
   3   2   6    0.03    0.04
   3   2   6    0.06    0.09
   3   2   6    0.06    0.03
   3   2   7    3.63    0.31
   3   2   7    3.24    0.23
   3   2   7    3.80    0.24
   3   2   8    0.10    0.06
   3   2   8    0.10    0.11
   3   2   8    0.11    0.03
   3   2   8    0.13    0.05
   3   2   8    0.11    0.05
   3   2   8    0.12    0.04
   3   2   8    0.09    0.02
   3   2   8    0.07    0.05
   3   2   8    0.11    0.04
   3   2   9    1.50    0.12
   3   2   9    1.43    0.11
   3   2   9    1.47    0.11
   3   2   9    1.90    0.21
   3   2   9    1.44    0.13
   3   2   9    1.59    0.15
   3   2   9    1.55    0.12
   3   2   9    1.46    0.14
   3   2   9    1.62    0.12
   3  -2   9    1.29    0.11
   3  -2   9    1.83    0.20
   3   2  10   26.42    1.74
   3   2  10   27.37    1.61
   3   2  10   22.86    1.48
   3   2  10   24.14    1.69
   3   2  10   23.97    1.59
   3   2  10   23.75    1.52
   3   2  10   25.60    1.77
   3   2  10   21.95    1.54
   3   2  10   24.25    1.57
   3  -2  10   23.16    1.44
   3  -2  10   25.39    1.69
   3   2  11    3.06    0.21
   3   2  11    2.38    0.19
   3   2  11    3.10    0.24
   3   2  11    2.98    0.22
   3   2  11    2.51    0.31
   3   2  11    2.71    0.20
   3  -2  11    2.31    0.30
   3  -2  11    2.95    0.18
   3   2  12   13.15    0.83
   3   2  12   13.05    0.90
   3   2  12   14.00    0.92
   3   2  12   11.63    0.92
   3   2  12   11.38    0.79
   3   2  12   13.37    0.81
   3  -2  12   10.64    0.91
   3  -2  12   12.36    0.74
   3  -2  12   11.58    0.83
   3   2  13    6.08    0.42
   3   2  13    6.79    0.49
   3   2  13    6.19    0.47
   3   2  13    6.38    0.41
   3  -2  13    5.88    0.43
   3  -2  13    6.88    0.38
   3   2  14    0.01    0.06
   3   2  14   -0.01    0.04
   3   2  14   -0.07    0.05
   3  -2  14   -0.03    0.08
   3  -2  14   -0.01    0.04
   3  -2  14    0.03    0.03
   3   2  15    0.06    0.08
   3   2  15    0.08    0.06
   3   2  15    0.07    0.03
   3  -2  15    0.11    0.08
   3  -2  15    0.07    0.02
   3  -2  15    0.07    0.05
   3  -2  16    1.63    0.12
   3  -2  16    1.67    0.14
   3   2  17    1.63    0.15
   3  -2  17    1.88    0.13
   3  -2  17    1.87    0.14
  -3   3  17    0.03    0.04
  -3  -3  17    0.13    0.05
  -3   3  16    0.25    0.06
  -3   3  15    2.54    0.19
  -3   3  15    2.10    0.19
  -3   3  14    0.02    0.05
  -3   3  14   -0.01    0.07
  -3   3  13    5.02    0.42
  -3   3  13    5.96    0.42
  -3   3  13    6.22    0.39
  -3   3  13    5.06    0.38
  -3  -3  13    5.65    0.34
  -3   3  12    5.01    0.39
  -3   3  12    5.17    0.36
  -3   3  12    4.86    0.39
  -3   3  12    5.16    0.37
  -3   3  12    5.57    0.39
  -3  -3  12    5.22    0.32
  -3   3  11    3.24    0.25
  -3   3  11    3.04    0.20
  -3   3  11    3.61    0.23
  -3   3  11    3.30    0.24
  -3   3  11    3.00    0.26
  -3   3  11    3.04    0.28
  -3  -3  11    3.15    0.20
  -3   3  10    1.51    0.11
  -3   3  10    1.79    0.14
  -3   3  10    1.59    0.15
  -3   3  10    1.52    0.16
  -3   3  10    1.57    0.15
  -3   3  10    1.59    0.15
  -3   3  10    1.72    0.14
  -3   3   9    5.69    0.40
  -3   3   9    6.01    0.38
  -3   3   9    5.25    0.34
  -3   3   9    5.79    0.37
  -3   3   9    4.92    0.41
   3   3  -9    5.14    0.33
  -3   3   9    4.80    0.36
  -3   3   9    5.49    0.40
  -3   3   9    6.06    0.38
   3   3  -8   19.61    1.19
  -3   3   8   20.74    1.31
  -3   3   8   20.23    1.27
  -3   3   8   21.09    1.28
  -3   3   8   20.02    1.33
  -3   3   8   20.85    1.34
  -3   3   8   20.74    1.44
  -3   3   8   20.50    1.35
  -3   3   8   18.23    1.46
  -3   3   7   16.53    1.14
   3   3  -7   17.29    1.17
  -3   3   7   18.06    1.29
  -3   3   7   18.40    1.18
  -3   3   7   18.87    1.20
  -3   3   7   19.67    1.25
   3   3  -7   19.17    1.13
  -3   3   7   17.62    1.20
  -3   3   7   18.66    1.21
  -3   3   7   17.31    1.15
  -3   3   6   19.04    1.29
  -3   3   6   18.89    1.22
   3   3  -6   18.72    1.21
   3   3  -6   18.80    1.17
   3   3  -6   18.63    1.08
   3   3  -5   -0.02    0.04
  -3   3   5    0.01    0.08
   3   3  -5    0.03    0.08
  -3   3   5    0.03    0.06
   3   3  -5    0.01    0.05
  -3   3   4    3.59    0.26
  -3   3   4    3.35    0.29
   3   3  -4    3.74    0.27
   3   3  -4    3.56    0.25
   3   3  -4    3.61    0.23
   3   3  -3   13.97    0.81
  -3   3   3   14.22    0.81
   3   3  -3   14.49    0.89
  -3   3   3   12.92    0.96
  -3   3   3   13.90    0.90
   3   3  -3   14.13    0.86
  -3   3   2   11.41    0.76
   3   3  -2   11.48    0.67
   3   3  -2   11.88    0.69
  -3   3   2   10.84    0.69
  -3   3   2    9.41    0.67
  -3   3   2   11.67    0.63
  -3   3   2   11.01    0.66
   3   3  -2   11.06    0.63
  -3   3   2   10.01    0.74
   3  -3  -2    8.92    0.74
   3   3  -1    1.20    0.11
   3   3  -1    1.21    0.10
  -3   3   1    1.12    0.10
  -3   3   1    1.24    0.10
  -3   3   1    1.12    0.10
   3   3  -1    1.27    0.13
  -3   3   1    1.30    0.11
  -3   3   1    1.22    0.14
   3   3  -1    1.20    0.12
   3  -3  -1    0.75    0.12
  -3   3   0    8.37    0.61
  -3   3   0    9.20    0.54
   3   3   0    8.65    0.50
  -3   3   0    8.91    0.53
  -3   3   0    8.68    0.61
   3   3   0    8.41    0.54
   3   3   0    8.43    0.52
   3   3   0    7.00    0.58
  -3   3   0    9.33    0.50
   3   3   0    7.69    0.61
  -3   3  -1    1.02    0.13
  -3   3  -1    1.04    0.09
   3   3   1    0.61    0.10
  -3   3  -1    1.11    0.12
   3   3   1    0.97    0.09
  -3   3  -1    1.14    0.09
   3   3   1    0.94    0.13
   3   3   1    0.84    0.08
   3   3   1    0.96    0.09
   3   3   1    0.78    0.09
   3   3   1    0.86    0.07
   3   3   1    0.74    0.08
  -3   3  -2    0.04    0.08
   3   3   2    0.01    0.05
  -3   3  -2    0.19    0.08
   3   3   2    0.09    0.03
   3   3   2    0.02    0.04
  -3   3  -2    0.15    0.06
   3   3   2    0.12    0.03
   3   3   2    0.13    0.03
   3   3   2    0.12    0.05
   3   3   2    0.14    0.06
  -3  -3  -2    0.03    0.05
  -3   3  -3    1.32    0.14
   3   3   3    1.13    0.08
  -3   3  -3    1.21    0.13
   3   3   3    1.23    0.14
   3   3   3    1.16    0.08
   3   3   3    0.95    0.10
   3   3   3    1.08    0.09
   3   3   3    1.15    0.08
   3   3   3    1.02    0.10
   3   3   4    6.10    0.44
  -3   3  -4    6.01    0.39
  -3   3  -4    6.12    0.44
   3   3   4    5.36    0.36
   3   3   5   36.61    2.17
  -3   3  -5   38.92    2.58
  -3   3  -5   37.18    2.40
  -3   3  -5   37.52    2.33
   3   3   5   40.96    2.58
  -3   3  -6    0.53    0.12
   3   3   6    0.69    0.08
   3   3   6    0.72    0.13
  -3   3  -6    0.67    0.13
   3   3   6    0.81    0.09
   3   3   6    0.64    0.06
   3   3   6    0.68    0.07
  -3   3  -6    0.69    0.10
   3   3   6    0.63    0.07
   3   3   6    0.63    0.07
  -3   3  -7   53.22    3.21
  -3   3  -7   49.59    2.90
   3   3   7   43.58    2.90
   3   3   7   48.11    3.15
   3   3   7   49.79    3.42
   3   3   7   47.94    3.04
   3   3   7   51.81    3.21
  -3   3  -7   44.13    2.79
   3   3   7   47.26    3.37
   3   3   7   43.83    2.98
  -3   3  -7   48.35    2.99
   3   3   7   44.40    3.12
   3   3   8    9.75    0.67
   3   3   8    8.94    0.65
   3   3   8    8.07    0.57
  -3   3  -8   10.02    0.67
  -3   3  -8    8.30    0.53
   3   3   8    8.57    0.60
   3   3   8    9.65    0.66
   3   3   8    9.10    0.58
   3   3   9    0.49    0.15
  -3   3  -9    0.41    0.05
   3   3   9    0.46    0.06
   3   3   9    0.58    0.07
  -3   3  -9    0.51    0.13
   3   3   9    0.44    0.06
   3   3   9    0.52    0.07
   3   3   9    0.45    0.05
   3   3  10   12.42    0.92
  -3   3 -10   11.81    0.90
   3   3  10   13.47    0.83
   3   3  10   12.54    0.81
   3   3  10   13.38    0.92
   3   3  10   12.15    0.90
   3   3  10   11.40    0.79
  -3   3 -10   12.66    0.74
   3  -3  10   12.53    0.92
   3   3  11   12.14    0.88
   3   3  11   11.20    0.75
   3   3  11   12.22    0.79
   3   3  11   11.40    0.86
   3   3  11   11.95    0.77
   3   3  11   13.18    0.88
  -3   3 -11   10.79    0.86
   3  -3  11   12.01    0.71
   3   3  12    0.29    0.06
   3   3  12    0.44    0.08
   3   3  12    0.35    0.04
   3   3  12    0.42    0.09
   3  -3  12    0.37    0.05
   3   3  13   21.46    1.47
   3   3  13   18.41    1.30
   3   3  13   21.12    1.45
   3  -3  13   19.75    1.19
   3   3  14    7.43    0.56
   3   3  14    7.67    0.58
   3  -3  14    7.61    0.58
   3  -3  14    8.04    0.46
   3   3  15    0.67    0.08
   3   3  15    1.01    0.10
   3  -3  15    0.77    0.09
   3  -3  15    0.67    0.08
   3  -3  15    0.79    0.06
   3   3  16    0.78    0.08
   3   3  16    1.00    0.09
   3  -3  16    0.84    0.08
   3  -3  16    0.93    0.08
  -3   4  16    0.30    0.05
  -3   4  15    3.26    0.25
  -3   4  14    9.40    0.69
  -3   4  13    1.91    0.15
   3   4 -13    1.92    0.13
  -3   4  13    1.97    0.17
   3   4 -12   10.78    0.63
  -3   4  12   11.32    0.78
  -3   4  12   10.34    0.71
  -3   4  12    8.97    0.78
  -3   4  12   10.94    0.72
  -3  -4  12   11.44    0.64
   3   4 -11    0.82    0.07
  -3   4  11    0.71    0.10
  -3   4  11    0.74    0.09
  -3   4  11    0.53    0.09
  -3   4  11    0.69    0.08
  -3   4  11    0.75    0.09
  -3   4  10    0.51    0.08
  -3   4  10    0.63    0.07
  -3   4  10    0.68    0.08
  -3   4  10    0.61    0.08
   3   4 -10    0.61    0.07
  -3   4  10    0.72    0.11
  -3   4  10    0.71    0.08
   3   4  -9   10.80    0.70
  -3   4   9   11.90    0.74
   3   4  -9   11.34    0.65
  -3   4   9   11.22    0.71
  -3   4   9   10.98    0.74
  -3   4   9   11.96    0.74
  -3   4   9   10.66    0.80
  -3   4   9    9.99    0.74
  -3   4   9    9.97    0.81
  -3   4   8   26.49    1.63
  -3   4   8   23.77    1.75
  -3   4   8   26.20    1.62
  -3   4   8   25.77    1.62
   3   4  -8   26.84    1.44
   3   4  -8   23.36    1.55
   3   4  -8   23.79    1.58
  -3   4   8   22.78    1.50
  -3   4   8   23.59    1.56
  -3   4   8   24.82    1.59
   3   4  -8   25.15    1.60
  -3   4   8   21.77    1.77
  -3   4   7    7.66    0.46
  -3   4   7    7.23    0.48
  -3   4   7    7.09    0.53
   3   4  -7    6.94    0.47
  -3   4   7    7.20    0.48
   3   4  -7    7.29    0.51
   3   4  -7    6.47    0.47
  -3   4   7    6.65    0.49
   3   4  -7    7.05    0.42
  -3   4   7    6.39    0.52
  -3   4   7    7.35    0.48
  -3   4   7    7.22    0.44
   3   4  -7    7.00    0.46
  -3   4   6    2.28    0.17
  -3   4   6    2.17    0.19
   3   4  -6    2.20    0.22
  -3   4   6    1.93    0.15
  -3   4   6    2.36    0.22
  -3   4   6    2.24    0.18
  -3   4   6    1.86    0.17
  -3   4   6    2.25    0.15
   3   4  -6    2.12    0.20
   3   4  -6    2.18    0.16
   3   4  -6    2.01    0.15
   3   4  -6    2.04    0.15
   3   4  -6    2.22    0.13
  -3   4   6    2.21    0.15
   3   4  -6    2.07    0.15
  -3   4   6    2.03    0.16
   3   4  -5   14.92    0.84
  -3   4   5   13.21    0.95
   3   4  -5   14.18    0.91
   3   4  -5   14.78    0.94
   3   4  -5   15.12    0.94
  -3   4   5   13.92    0.96
   3   4  -5   14.31    0.91
   3   4  -5   14.55    0.85
  -3   4   5   15.23    0.92
   3   4  -5   15.56    0.90
  -3   4   5   16.08    1.01
  -3   4   5   11.88    0.94
  -3   4   5   13.89    0.96
  -3   4   5   14.66    0.88
  -3   4   5   14.04    0.93
  -3   4   4    1.00    0.07
   3   4  -4    1.08    0.09
   3   4  -4    1.11    0.09
  -3   4   4    1.11    0.11
  -3   4   4    1.12    0.10
  -3   4   4    1.01    0.10
   3   4  -4    1.41    0.16
   3   4  -4    1.10    0.11
  -3   4   4    1.07    0.09
  -3   4   4    1.09    0.09
   3   4  -4    1.19    0.13
   3   4  -4    1.00    0.07
   3   4  -4    1.29    0.12
  -3   4   4    0.93    0.15
  -3   4   3    0.67    0.08
   3   4  -3    0.47    0.06
  -3   4   3    0.47    0.05
   3   4  -3    0.59    0.06
  -3   4   3    0.52    0.06
   3   4  -3    0.62    0.08
   3   4  -3    0.64    0.08
  -3   4   3    0.50    0.12
   3   4  -3    0.65    0.10
   3   4  -3    0.55    0.06
  -3   4   3    0.55    0.06
  -3   4   3    0.68    0.07
   3   4  -3    0.57    0.04
  -3   4   3    0.44    0.07
   3   4  -3    0.65    0.11
  -3   4   2   13.90    0.90
   3   4  -2   14.68    0.93
   3   4  -2   14.80    0.93
   3   4  -2   14.49    0.95
  -3   4   2   13.61    0.92
  -3   4   2   14.93    1.02
   3   4  -2   13.41    1.01
  -3   4   2   15.79    0.85
   3   4  -2   15.75    0.85
  -3   4   2   14.57    0.93
  -3   4   2   14.30    0.97
   3   4  -2   15.20    0.90
  -3   4   1   19.44    1.18
  -3   4   1   19.68    1.31
   3   4  -1   19.42    1.19
  -3   4   1   16.16    1.25
   3   4  -1   19.14    1.23
   3   4  -1   16.62    1.29
  -3   4   1   18.33    1.15
  -3   4   1   19.48    1.15
   3   4  -1   19.84    1.16
  -3   4   1   20.50    1.09
   3   4  -1   18.72    1.20
   3   4  -1   19.91    1.10
  -3   4   0    2.10    0.15
  -3   4   0    1.93    0.16
   3   4   0    2.16    0.16
  -3   4   0    1.95    0.16
  -3   4   0    2.00    0.15
   3   4   0    2.01    0.18
  -3   4   0    2.06    0.14
   3   4   0    2.00    0.16
  -3   4   0    2.03    0.23
   3   4   0    2.00    0.15
  -3   4  -1   14.14    0.94
   3   4   1   13.77    0.90
   3   4   1   12.96    0.91
   3   4   1   13.42    0.89
   3   4   1   15.18    0.93
  -3   4  -1   14.29    0.91
  -3   4  -1   12.66    0.96
  -3   4  -1   16.03    0.92
   3   4   1   15.32    0.84
   3   4   1   14.89    1.05
  -3   4  -1   15.54    0.89
   3   4   1   15.03    0.88
  -3   4  -1   14.92    1.01
  -3   4  -2    5.09    0.32
  -3   4  -2    4.95    0.39
  -3   4  -2    4.70    0.33
   3   4   2    4.50    0.30
   3   4   2    4.73    0.31
  -3   4  -2    4.35    0.30
   3   4   2    4.89    0.36
  -3   4  -2    4.88    0.34
  -3   4  -2    4.97    0.32
  -3   4  -2    4.22    0.28
   3   4   2    4.53    0.30
   3   4   2    4.85    0.31
   3   4   2    4.60    0.35
   3   4   2    5.20    0.31
   3   4   3    1.03    0.10
   3   4   3    0.89    0.09
  -3   4  -3    1.00    0.07
  -3   4  -3    1.05    0.09
  -3   4  -3    0.95    0.08
   3   4   3    0.98    0.12
   3   4   3    1.01    0.09
   3   4   3    0.94    0.08
  -3   4  -3    1.33    0.14
   3   4   3    1.14    0.12
  -3   4  -3    0.95    0.11
  -3   4  -3    0.93    0.11
   3   4   3    1.03    0.15
   3   4   3    0.96    0.07
  -3   4  -3    0.96    0.15
  -3   4  -4    3.31    0.26
   3   4   4    3.49    0.31
   3   4   4    3.13    0.21
   3   4   4    3.49    0.26
   3   4   4    3.40    0.22
   3   4   4    3.41    0.23
  -3   4  -4    3.08    0.22
  -3   4  -4    3.53    0.20
   3   4   4    3.31    0.23
   3   4   4    3.19    0.23
  -3   4  -4    3.48    0.27
   3   4   4    3.09    0.26
  -3   4  -4    3.37    0.23
  -3   4  -4    3.30    0.31
   3   4   4    3.12    0.22
   3   4   5    2.21    0.21
  -3   4  -5    1.93    0.15
   3   4   5    1.70    0.14
   3   4   5    1.97    0.13
   3   4   5    1.80    0.12
   3   4   5    1.88    0.18
   3   4   5    1.93    0.14
  -3   4  -5    1.72    0.14
   3   4   5    1.95    0.14
   3   4   5    1.85    0.16
  -3   4  -5    2.33    0.23
  -3   4  -5    2.35    0.24
   3   4   5    2.06    0.16
  -3   4  -5    2.01    0.12
  -3   4  -5    1.88    0.18
   3   4   6    7.91    0.55
   3   4   6    6.86    0.47
  -3   4  -6    7.15    0.50
   3   4   6    7.93    0.58
   3   4   6    7.75    0.49
  -3   4  -6    8.04    0.57
   3   4   6    7.01    0.46
  -3   4  -6    7.82    0.53
  -3   4  -6    7.51    0.50
   3   4   6    8.04    0.56
   3   4   6    7.63    0.47
   3   4   6    7.63    0.50
  -3   4  -6    6.90    0.48
  -3   4  -6    7.42    0.45
   3   4   7    5.81    0.42
   3   4   7    5.33    0.36
  -3   4  -7    5.25    0.42
   3   4   7    6.01    0.38
  -3   4  -7    5.05    0.37
   3   4   7    5.53    0.46
   3   4   7    5.90    0.41
  -3   4  -7    5.90    0.46
   3   4   7    5.02    0.34
  -3   4  -7    5.51    0.33
  -3   4  -7    4.71    0.38
   3   4   8    6.11    0.41
   3   4   8    6.07    0.40
  -3   4  -8    5.92    0.36
   3   4   8    5.67    0.38
  -3   4  -8    6.19    0.48
   3   4   8    6.24    0.46
   3   4   8    6.23    0.45
  -3   4  -8    5.54    0.40
   3   4   9    1.39    0.12
   3   4   9    1.42    0.14
   3   4   9    1.31    0.12
   3   4   9    1.48    0.15
  -3   4  -9    1.47    0.19
   3   4   9    1.33    0.19
  -3   4  -9    1.30    0.10
   3   4  10    3.27    0.26
  -3   4 -10    2.90    0.20
   3   4  10    3.33    0.26
   3   4  10    3.20    0.23
   3   4  10    3.16    0.23
  -3   4 -11    1.96    0.13
   3   4  11    1.97    0.15
   3   4  11    2.05    0.20
   3   4  11    1.92    0.17
   3   4  12    0.86    0.11
  -3   4 -12    1.04    0.08
   3   4  12    0.95    0.08
   3   4  12    1.00    0.11
   3  -4  12    0.93    0.08
   3   4  13    2.23    0.20
   3   4  13    2.01    0.16
   3   4  13    2.59    0.19
  -3   4 -13    2.58    0.15
   3  -4  13    2.09    0.15
   3   4  14    0.91    0.12
   3   4  14    0.97    0.09
  -3   4 -14    0.90    0.07
   3  -4  14    0.83    0.07
   3   4  15    2.26    0.18
  -3   4 -15    2.19    0.14
   3   4  15    2.89    0.19
   3  -4  15    2.14    0.18
  -3   5  14    0.09    0.04
  -3   5  13    0.63    0.09
  -3   5  12    1.17    0.13
   3   5 -12    1.43    0.11
  -3   5  12    1.58    0.12
  -3   5  11    6.12    0.47
   3   5 -11    6.41    0.43
  -3   5  11    6.45    0.43
  -3   5  10   -0.03    0.06
  -3   5  10   -0.03    0.05
   3   5 -10    0.06    0.05
  -3   5  10    0.04    0.07
   3   5  -9    1.87    0.14
  -3   5   9    1.70    0.15
  -3   5   9    1.73    0.13
  -3   5   9    1.51    0.17
   3   5  -9    1.87    0.12
  -3   5   9    1.74    0.14
  -3   5   9    2.10    0.17
   3   5  -9    1.90    0.14
  -3   5   9    1.78    0.15
   3   5  -8    2.74    0.16
  -3   5   8    2.67    0.20
  -3   5   8    2.53    0.17
  -3   5   8    2.66    0.21
  -3   5   8    2.60    0.19
   3   5  -8    2.37    0.18
   3   5  -8    2.68    0.19
  -3   5   8    2.28    0.20
  -3   5   8    2.37    0.19
   3   5  -7   30.24    1.91
  -3   5   7   29.37    1.95
   3   5  -7   31.83    1.72
  -3   5   7   27.25    1.87
  -3   5   7   29.76    1.93
   3   5  -7   29.26    1.85
  -3   5   7   30.68    1.93
  -3   5   7   31.19    1.86
  -3   5   7   28.43    1.79
   3   5  -7   28.98    1.85
  -3   5   7   26.31    2.09
   3   5  -7   27.74    2.02
   3   5  -6   10.20    0.58
   3   5  -6    9.92    0.63
   3   5  -6    9.80    0.65
   3   5  -6    9.75    0.63
  -3   5   6    9.91    0.67
  -3   5   6    9.65    0.67
  -3   5   6   10.33    0.61
  -3   5   6    9.25    0.72
  -3   5   6   11.05    0.64
  -3   5   6    9.48    0.66
   3   5  -6    9.03    0.64
  -3   5   6    9.56    0.64
   3   5  -6    9.87    0.74
   3   5  -5    0.24    0.04
   3   5  -5    0.04    0.12
  -3   5   5    0.29    0.06
  -3   5   5    0.18    0.05
  -3   5   5    0.22    0.09
  -3   5   5    0.28    0.04
   3   5  -5    0.35    0.05
  -3   5   5    0.26    0.07
   3   5  -5    0.15    0.10
   3   5  -5    0.25    0.03
   3   5  -5    0.20    0.07
   3   5  -5    0.27    0.05
  -3   5   5    0.28    0.06
   3   5  -5    0.22    0.08
   3   5  -4    4.00    0.37
  -3   5   4    4.02    0.31
   3   5  -4    4.43    0.29
  -3   5   4    4.12    0.29
   3   5  -4    4.43    0.30
  -3   5   4    4.60    0.32
   3   5  -4    4.47    0.29
   3   5  -4    4.31    0.31
   3   5  -4    4.31    0.31
  -3   5   4    4.71    0.28
   3   5  -4    4.34    0.34
  -3   5   4    4.62    0.30
   3   5  -4    4.24    0.30
  -3   5   4    4.36    0.37
  -3   5   3    5.78    0.37
   3   5  -3    5.12    0.34
  -3   5   3    4.84    0.33
   3   5  -3    5.05    0.36
   3   5  -3    4.86    0.38
   3   5  -3    5.01    0.34
   3   5  -3    4.97    0.33
  -3   5   3    4.77    0.43
   3   5  -3    5.28    0.35
   3   5  -3    5.67    0.35
  -3   5   3    5.27    0.37
  -3   5   3    5.38    0.35
   3   5  -3    5.08    0.36
  -3   5   3    5.87    0.35
   3   5  -3    5.30    0.35
  -3   5   3    5.64    0.34
   3   5  -2   12.44    0.74
   3   5  -2   12.17    0.78
  -3   5   2   13.16    0.80
   3   5  -2   12.64    0.80
   3   5  -2   12.18    0.76
  -3   5   2   10.92    0.83
  -3   5   2   12.31    0.83
  -3   5   2   13.69    0.77
   3   5  -2   10.87    0.82
  -3   5   2   12.15    0.78
   3   5  -2   11.56    0.79
   3   5  -2   12.61    0.77
  -3   5   2   11.96    0.89
   3   5  -2   13.07    0.81
   3   5  -2   13.24    0.79
  -3   5   2   12.44    0.79
   3   5  -1    8.92    0.67
   3   5  -1   10.49    0.66
  -3   5   1   10.45    0.64
  -3   5   1   10.34    0.62
   3   5  -1   10.63    0.65
   3   5  -1   10.92    0.65
  -3   5   1    8.84    0.68
  -3   5   1   10.87    0.68
   3   5  -1    9.81    0.64
   3   5  -1   10.07    0.62
   3   5  -1    9.73    0.62
   3   5  -1    9.87    0.61
  -3   5   1    9.22    0.74
   3   5  -1    9.83    0.64
  -3   5   1   10.09    0.65
   3   5   0    0.11    0.05
   3   5   0    0.07    0.04
  -3   5   0    0.07    0.02
  -3   5   0    0.11    0.04
  -3   5   0    0.06    0.03
  -3   5   0    0.07    0.03
  -3   5   0    0.19    0.13
   3   5   0    0.09    0.05
   3   5   0    0.07    0.04
   3   5   0    0.07    0.03
   3   5   0    0.06    0.04
  -3   5   0    0.13    0.05
  -3   5   0    0.06    0.05
   3   5   0    0.08    0.01
  -3   5   0    0.04    0.05
  -3   5   0    0.07    0.03
  -3   5  -1    0.72    0.07
   3   5   1    0.62    0.06
  -3   5  -1    0.67    0.08
  -3   5  -1    0.59    0.06
  -3   5  -1    0.73    0.07
   3   5   1    0.60    0.07
  -3   5  -1    0.65    0.08
  -3   5  -1    0.65    0.13
  -3   5  -1    0.63    0.07
   3   5   1    0.71    0.07
  -3   5  -1    0.62    0.09
   3   5   1    0.98    0.10
   3   5   1    0.76    0.09
  -3   5  -1    0.62    0.06
   3   5   2    0.28    0.04
  -3   5  -2    0.17    0.08
  -3   5  -2    0.25    0.07
  -3   5  -2    0.23    0.04
  -3   5  -2    0.23    0.04
   3   5   2    0.28    0.04
  -3   5  -2    0.20    0.06
  -3   5  -2    0.39    0.05
  -3   5  -2    0.34    0.11
   3   5   2    0.33    0.07
  -3   5  -2    0.26    0.06
  -3   5  -2    0.26    0.04
   3   5   2    0.23    0.05
   3   5   2    0.33    0.06
   3   5   3   19.60    1.21
  -3   5  -3   17.79    1.20
   3   5   3   19.42    1.20
  -3   5  -3   18.78    1.16
   3   5   3   19.90    1.37
   3   5   3   17.23    1.10
  -3   5  -3   18.10    1.25
  -3   5  -3   19.66    1.23
  -3   5  -3   18.20    1.17
  -3   5  -3   18.17    1.32
   3   5   3   18.02    1.16
  -3   5  -3   19.07    1.20
   3   5   3   18.72    1.18
  -3   5  -3   20.31    1.19
  -3   5  -4    0.44    0.05
   3   5   4    0.41    0.05
  -3   5  -4    0.34    0.08
   3   5   4    0.42    0.09
  -3   5  -4    0.45    0.10
   3   5   4    0.33    0.06
   3   5   4    0.28    0.08
  -3   5  -4    0.20    0.15
   3   5   4    0.32    0.05
  -3   5  -4    0.42    0.05
  -3   5  -4    0.39    0.12
   3   5   4    0.48    0.09
  -3   5  -4    0.37    0.05
   3   5   5    0.52    0.09
   3   5   5    0.52    0.08
  -3   5  -5    0.16    0.15
   3   5   5    0.45    0.05
  -3   5  -5    0.35    0.08
   3   5   5    0.42    0.05
  -3   5  -5    0.41    0.11
   3   5   5    0.47    0.05
  -3   5  -5    0.38    0.04
  -3   5  -5    0.39    0.06
   3   5   5    0.37    0.09
  -3   5  -5    0.40    0.06
   3   5   6    0.01    0.06
   3   5   6   -0.03    0.05
  -3   5  -6    0.14    0.15
   3   5   6    0.01    0.06
   3   5   6    0.01    0.04
   3   5   6   -0.04    0.04
  -3   5  -6    0.02    0.03
  -3   5  -6    0.00    0.07
  -3   5  -6    0.02    0.03
  -3   5  -6    0.04    0.05
  -3   5  -7   30.79    2.00
   3   5   7   30.89    2.16
  -3   5  -7   32.17    1.98
   3   5   7   29.18    1.85
   3   5   7   31.10    2.19
   3   5   7   29.81    1.94
  -3   5  -7   28.62    1.78
  -3   5  -7   29.87    1.91
  -3   5  -8    0.17    0.08
  -3   5  -8    0.04    0.06
   3   5   8    0.06    0.03
   3   5   8    0.16    0.06
   3   5   8    0.05    0.05
  -3   5  -8    0.08    0.04
   3   5   8    0.10    0.06
   3   5   9    9.90    0.68
   3   5   9    9.16    0.59
  -3   5  -9    8.77    0.61
   3   5   9    9.44    0.66
   3   5   9    8.48    0.56
  -3   5  -9    8.56    0.54
  -3   5  -9    9.35    0.62
  -3   5 -10    2.03    0.14
   3   5  10    2.08    0.16
  -3   5 -10    2.29    0.17
  -3   5 -10    2.20    0.18
   3   5  10    2.44    0.21
   3   5  10    2.37    0.20
   3   5  11    2.90    0.23
  -3   5 -11    2.97    0.22
  -3   5 -11    2.83    0.21
   3   5  11    2.76    0.20
   3   5  11    2.86    0.23
  -3   5 -11    2.69    0.18
  -3   5 -12    2.67    0.18
  -3   5 -12    2.33    0.15
   3   5  12    2.61    0.20
   3   5  12    2.21    0.17
  -3   5 -12    2.66    0.20
   3   5  12    2.38    0.20
  -3   5 -13   12.99    0.79
  -3   5 -13   11.79    0.70
  -3   5 -13   10.76    0.78
   3   6 -12    8.26    0.55
  -3   6  11    0.37    0.05
   3   6 -11    0.32    0.06
   3   6 -10    0.22    0.08
   3   6 -10    0.17    0.05
  -3   6  10    0.17    0.04
  -3   6  10    0.08    0.04
  -3   6   9    4.28    0.31
   3   6  -9    4.32    0.29
  -3   6   9    4.29    0.30
   3   6  -9    4.25    0.29
   3   6  -9    4.31    0.32
   3   6  -8    3.09    0.22
  -3   6   8    3.05    0.21
  -3   6   8    3.27    0.24
   3   6  -8    3.35    0.22
  -3   6   8    3.25    0.23
  -3   6   8    3.09    0.23
   3   6  -8    3.33    0.22
   3   6  -8    3.11    0.24
  -3   6   7    0.61    0.08
  -3   6   7    0.62    0.06
   3   6  -7    0.59    0.10
  -3   6   7    0.59    0.07
   3   6  -7    0.63    0.06
   3   6  -7    0.57    0.07
   3   6  -7    0.66    0.06
  -3   6   7    0.65    0.09
  -3   6   6    0.63    0.10
  -3   6   6    0.78    0.09
   3   6  -6    0.87    0.09
  -3   6   6    0.90    0.09
   3   6  -6    0.82    0.08
  -3   6   6    0.69    0.08
   3   6  -6    0.74    0.08
   3   6  -6    0.80    0.10
   3   6  -5    0.93    0.09
  -3   6   5    0.71    0.09
   3   6  -5    0.76    0.11
   3   6  -5    0.84    0.08
   3   6  -5    1.02    0.09
  -3   6   5    0.97    0.10
  -3   6   5    0.99    0.10
  -3   6   5    0.82    0.08
   3   6  -4    1.28    0.10
  -3   6   4    1.13    0.11
   3   6  -4    1.39    0.10
  -3   6   4    1.26    0.15
   3   6  -4    1.30    0.11
  -3   6   4    1.20    0.11
  -3   6   4    1.29    0.11
   3   6  -4    1.26    0.14
   3   6  -3    1.02    0.11
  -3   6   3    1.31    0.15
  -3   6   3    1.31    0.13
   3   6  -3    1.35    0.10
  -3   6   3    1.06    0.12
   3   6  -3    1.23    0.12
   3   6  -3    1.14    0.09
  -3   6   3    1.16    0.11
   3   6  -3    1.13    0.09
  -3   6   2    2.01    0.15
  -3   6   2    2.18    0.19
  -3   6   2    2.09    0.17
   3   6  -2    2.03    0.15
  -3   6   2    1.93    0.16
   3   6  -2    1.84    0.17
   3   6  -2    2.14    0.14
   3   6  -2    2.00    0.15
  -3   6   1    0.09    0.03
   3   6  -1    0.14    0.04
  -3   6   1    0.13    0.05
  -3   6   1    0.08    0.05
   3   6  -1    0.16    0.04
  -3   6   1    0.04    0.06
  -3   6   1   -0.20    0.14
   3   6  -1    0.13    0.06
   3   6  -1    0.08    0.04
  -3   6   0    0.74    0.09
  -3   6   0    0.74    0.08
  -3   6   0    0.56    0.06
   3   6   0    0.59    0.06
  -3   6   0    0.69    0.08
   3   6   0    0.59    0.07
   3   6   0    0.79    0.08
   3   6   0    0.70    0.08
   3   6   1    0.01    0.04
  -3   6  -1   -0.05    0.06
  -3   6  -1   -0.04    0.04
  -3   6  -1   -0.08    0.05
   3   6   1    0.03    0.04
  -3   6  -1    0.01    0.06
   3   6   1   -0.02    0.02
   3   6   1   -0.01    0.04
  -3   6  -2    0.30    0.07
  -3   6  -2    0.27    0.04
   3   6   2    0.23    0.06
  -3   6  -2    0.34    0.05
   3   6   2    0.23    0.06
   3   6   2    0.22    0.04
  -3   6  -2    0.35    0.10
   3   6   3    0.09    0.06
  -3   6  -3    0.17    0.07
   3   6   3    0.12    0.06
  -3   6  -3    0.17    0.06
   3   6   3    0.09    0.05
  -3   6  -3    0.09    0.04
  -3   6  -3    0.08    0.04
   3   6   4    0.08    0.05
   3   6   4    0.10    0.06
  -3   6  -4    0.11    0.06
   3   6   4    0.07    0.09
  -3   6  -4    0.11    0.04
   3   6   4    0.10    0.04
  -3   6  -4    0.07    0.04
  -3   6  -4    0.12    0.04
   3   6   5   -0.02    0.04
  -3   6  -5   -0.01    0.04
  -3   6  -5    0.02    0.06
   3   6   5   -0.06    0.06
   3   6   5   -0.01    0.05
  -3   6  -5   -0.01    0.04
   3   6   5    0.05    0.06
  -3   6  -6    1.97    0.17
   3   6   6    2.06    0.16
  -3   6  -6    2.41    0.16
   3   6   6    2.10    0.17
   3   6   6    2.24    0.21
  -3   6  -6    2.39    0.18
   3   6   6    2.35    0.16
  -3   6  -7    0.10    0.05
   3   6   7    0.00    0.09
   3   6   7    0.09    0.05
  -3   6  -7    0.02    0.04
  -3   6  -7    0.12    0.08
  -3   6  -8    0.62    0.09
  -3   6  -8    0.69    0.07
   3   6   8    0.59    0.06
   3   6   8    0.64    0.07
   3   6   8    0.49    0.10
  -3   6  -8    0.52    0.07
   3   6   9    0.02    0.03
   3   6   9   -0.04    0.05
  -3   6  -9    0.05    0.03
   3   6   9    0.09    0.06
  -3   6  -9   -0.05    0.07
  -3   6  -9    0.02    0.05
  -3   6 -10    0.83    0.08
   3   6  10    0.51    0.06
   3   6  10    0.41    0.09
  -3   6 -10    0.58    0.06
   3   6  11    0.37    0.06
  -3   6 -11    0.63    0.06
  -3   6 -11    0.48    0.06
   3   6  11    0.33    0.05
   3   7  -9    6.01    0.40
  -3   7   8    2.28    0.16
   3   7  -8    2.47    0.17
  -3   7   7   18.26    1.09
   3   7  -7   14.97    1.04
  -3   7   7   16.79    1.05
   3   7  -7   15.86    1.09
  -3   7   6    0.02    0.07
   3   7  -6   -0.03    0.03
  -3   7   6    0.05    0.05
   3   7  -6   -0.03    0.03
   3   7  -6    0.06    0.05
   3   7  -5    1.30    0.11
  -3   7   5    1.48    0.13
  -3   7   5    1.50    0.11
   3   7  -5    1.56    0.12
  -3   7   5    1.45    0.12
   3   7  -5    1.47    0.11
  -3   7   4    0.18    0.05
  -3   7   4   -0.03    0.07
   3   7  -4    0.09    0.04
   3   7  -4    0.08    0.03
   3   7  -4    0.09    0.06
  -3   7   4    0.05    0.06
  -3   7   3    0.71    0.08
  -3   7   3    0.63    0.07
  -3   7   3    0.61    0.08
   3   7  -3    0.49    0.06
   3   7  -3    0.58    0.06
   3   7  -3    0.50    0.07
  -3   7   2    1.32    0.11
   3   7  -2    1.33    0.09
  -3   7   2    1.23    0.13
   3   7  -2    1.34    0.10
  -3   7   2    1.30    0.11
   3   7  -2    1.17    0.11
  -3   7   1   12.35    0.81
  -3   7   1   11.64    0.75
  -3   7   1   11.16    0.77
   3   7  -1   13.03    0.78
   3   7  -1   12.22    0.76
  -3   7   0    0.29    0.07
   3   7   0    0.39    0.06
  -3   7   0    0.31    0.07
  -3   7  -1    2.16    0.17
   3   7   1    2.66    0.17
  -3   7  -1    2.15    0.15
  -3   7  -1    2.61    0.19
   3   7   2    2.84    0.19
   3   7   2    3.44    0.21
  -3   7  -2    3.05    0.23
  -3   7  -2    2.63    0.19
  -3   7  -2    2.90    0.20
   3   7   2    3.08    0.22
   3   7   3    8.97    0.56
   3   7   3    8.85    0.56
  -3   7  -3    9.39    0.59
  -3   7  -3    8.41    0.55
  -3   7  -3    7.60    0.55
  -3   7  -4    1.03    0.12
  -3   7  -4    1.14    0.09
   3   7   4    0.91    0.09
   3   7   4    1.00    0.09
  -3   7  -5    0.23    0.06
   3   7   5    0.12    0.04
  -3   7  -5    0.13    0.04
   3   7   5    0.09    0.05
   3   7   5    0.09    0.05
   3   7   6    0.02    0.05
  -3   7  -6    0.04    0.04
  -3   7  -6    0.01    0.06
   3   7   6    0.04    0.04
  -3   7  -7   16.25    1.02
   3   7   7   16.16    0.99
  -3   7  -8    0.23    0.05
   3   7   8    0.08    0.03
  -3   7  -8    0.12    0.03
   3   7   8    0.10    0.03
  -3   8   4    0.30    0.04
   3   8  -3    3.74    0.25
  -3   8   3    3.82    0.25
   3   8  -2    0.64    0.06
  -3   8   2    0.61    0.07
  -3   8   2    0.39    0.05
   3   8  -1    0.12    0.04
  -3   8   1    0.25    0.04
  -3   8   1    0.18    0.05
   3   8   0    0.10    0.04
  -3   8   0    0.09    0.04
   3   8   1    0.14    0.04
  -3   8  -2    0.91    0.09
   3   8   3    0.05    0.02
  -3   8  -3    0.14    0.04
  -4   0  18    3.01    0.23
  -4   0  17   -0.05    0.05
  -4   0  17    0.01    0.05
  -4   0  16    0.02    0.05
  -4   0  16   -0.01    0.06
  -4   0  16   -0.05    0.06
  -4   0  15    0.03    0.06
  -4   0  15   -0.02    0.04
  -4   0  15   -0.01    0.05
  -4   0  15   -0.04    0.08
  -4   0  14    1.82    0.15
  -4   0  14    1.78    0.18
  -4   0  14    2.01    0.17
  -4   0  14    1.92    0.14
  -4   0  13   -0.11    0.08
  -4   0  13    0.03    0.04
  -4   0  13   -0.02    0.04
  -4   0  13    0.03    0.05
  -4   0  13   -0.03    0.05
  -4   0  12   37.03    2.29
  -4   0  12   37.76    2.37
  -4   0  12   35.72    2.34
  -4   0  12   35.51    2.30
  -4   0  12   39.06    2.14
  -4   0  12   38.98    2.59
  -4   0  12   35.05    2.23
  -4   0  12   31.53    2.48
  -4   0  11   -0.01    0.04
  -4   0  11   -0.03    0.05
  -4   0  11    0.00    0.11
  -4   0  11   -0.05    0.08
  -4   0  11    0.03    0.04
  -4   0  11    0.04    0.09
  -4   0  11    0.03    0.02
  -4   0  11    0.01    0.11
  -4   0  10    2.54    0.19
  -4   0  10    2.68    0.21
  -4   0  10    2.94    0.22
  -4   0  10    2.89    0.25
  -4   0  10    2.40    0.18
  -4   0  10    2.65    0.19
  -4   0  10    2.80    0.16
  -4   0  10    2.75    0.23
  -4   0  10    2.92    0.27
  -4   0   9   -0.03    0.05
  -4   0   9   -0.12    0.09
  -4   0   9    0.06    0.08
  -4   0   9    0.02    0.07
  -4   0   8   74.54    4.60
  -4   0   8   72.63    4.51
  -4   0   8   70.86    4.40
  -4   0   7    0.06    0.06
  -4   0   7   -0.02    0.06
  -4   0   6   63.39    4.07
   4   0  -6   62.16    4.33
  -4   0   6   67.92    4.00
  -4   0   6   66.78    3.90
  -4   0   6   58.25    4.33
  -4   0   6   64.76    4.34
   4   0  -6   67.66    4.35
   4   0  -5   -0.09    0.08
   4   0  -5    0.04    0.08
  -4   0   5    0.06    0.06
  -4   0   5    0.13    0.09
  -4   0   5   -0.04    0.06
  -4   0   5   -0.01    0.05
  -4   0   5   -0.02    0.07
   4   0  -4    0.11    0.08
   4   0  -4    0.04    0.04
  -4   0   4    0.07    0.06
  -4   0   4    0.10    0.08
  -4   0   4    0.14    0.06
  -4   0   4    0.27    0.10
   4   0  -4   -0.01    0.07
  -4   0   4    0.10    0.08
   4   0  -4    0.00    0.09
  -4   0   3   -0.01    0.05
   4   0  -3    0.00    0.08
  -4   0   3    0.00    0.10
   4   0  -3   -0.05    0.11
  -4   0   3   -0.13    0.09
   4   0  -3   -0.01    0.05
  -4   0   3   -0.02    0.06
   4   0  -3   -0.05    0.04
   4   0  -2   15.55    1.18
   4   0  -2   16.66    1.08
   4   0  -2   17.13    1.18
  -4   0   2   16.97    1.18
  -4   0   2   17.20    1.05
   4   0  -2   16.89    1.05
  -4   0   2   18.63    1.08
  -4   0   2   18.37    1.19
  -4   0   2   17.17    1.16
  -4   0   1   -0.18    0.11
  -4   0   1   -0.09    0.10
   4   0  -1   -0.07    0.05
   4   0  -1    0.01    0.09
  -4   0   1   -0.10    0.06
  -4   0   1   -0.03    0.04
   4   0  -1    0.03    0.09
   4   0  -1    0.00    0.06
  -4   0   1   -0.13    0.06
  -4   0   0  145.79   10.34
   4   0   0  144.65    9.37
   4   0   0  166.81   10.38
  -4   0   0  142.88   10.37
  -4   0   0  151.92   10.37
   4   0   0  164.44    9.63
  -4   0   0  148.05    9.37
   4   0   0  173.43   10.38
  -4   0   0  160.33    9.62
   4   0   0  157.61   10.35
   4   0   1   -0.05    0.04
  -4   0  -1   -0.04    0.06
  -4   0  -1   -0.03    0.03
  -4   0  -1    0.01    0.06
   4   0   1   -0.01    0.08
   4   0   1   -0.05    0.06
   4   0   1   -0.02    0.06
  -4   0  -1   -0.03    0.10
  -4   0  -1    0.01    0.10
   4   0   1   -0.03    0.09
  -4   0  -2  173.11   13.18
   4   0   2  209.79   12.34
   4   0   2  200.24   12.03
  -4   0  -2  208.99   13.24
  -4   0  -2  201.30   11.96
   4   0   2  196.55   13.24
   4   0   2  184.35   13.24
   4   0   2  212.43   13.23
  -4   0  -2  189.02   12.26
  -4   0  -2  211.84   13.25
  -4   0  -3    0.04    0.06
   4   0   3   -0.02    0.06
  -4   0  -3    0.05    0.10
   4   0   3    0.00    0.07
   4   0   3   -0.05    0.06
  -4   0  -3   -0.04    0.05
   4   0   3   -0.01    0.09
   4   0   3   -0.05    0.06
  -4   0  -3    0.03    0.04
  -4   0  -3    0.01    0.10
   4   0   4    1.74    0.17
  -4   0  -4    1.40    0.16
  -4   0  -4    1.66    0.21
  -4   0  -4    1.45    0.20
   4   0   4    1.40    0.15
   4   0   4    1.51    0.18
   4   0   4    1.52    0.20
   4   0   4    1.49    0.15
  -4   0  -4    1.25    0.14
   4   0   5   -0.04    0.07
  -4   0  -5   -0.11    0.11
   4   0   5   -0.02    0.11
   4   0   5   -0.07    0.07
   4   0   5    0.00    0.07
  -4   0  -5   -0.09    0.11
   4   0   5    0.02    0.07
   4   0   6    2.29    0.18
   4   0   6    2.46    0.22
   4   0   6    2.36    0.21
   4   0   6    1.82    0.23
   4   0   7    0.10    0.09
   4   0   7   -0.01    0.07
   4   0   7   -0.03    0.06
   4   0   8   12.98    0.85
   4   0   8   13.62    0.92
   4   0   8   12.62    0.82
   4   0   9    0.01    0.04
   4   0   9    0.03    0.04
   4   0   9   -0.03    0.03
   4   0   9    0.02    0.02
   4   0   9    0.02    0.11
   4   0   9   -0.09    0.10
   4   0   9    0.09    0.07
   4   0  10    0.02    0.04
   4   0  10   -0.01    0.12
   4   0  10   -0.04    0.07
   4   0  10    0.03    0.04
   4   0  10    0.05    0.09
   4   0  10    0.00    0.04
   4   0  10    0.05    0.02
   4   0  11    0.00    0.10
   4   0  11    0.01    0.06
   4   0  11    0.00    0.02
   4   0  11    0.01    0.10
   4   0  11    0.05    0.05
   4   0  11   -0.04    0.04
   4   0  11   -0.02    0.13
   4   0  12    3.31    0.25
   4   0  12    3.39    0.25
   4   0  12    3.88    0.33
   4   0  12    3.51    0.28
   4   0  12    3.38    0.25
   4   0  12    3.80    0.21
   4   0  13    0.05    0.05
   4   0  13    0.03    0.05
   4   0  13   -0.04    0.07
   4   0  13    0.03    0.05
   4   0  14   16.27    1.05
   4   0  14   12.69    0.94
   4   0  14   14.12    0.93
   4   0  14   14.38    0.92
   4   0  15   -0.01    0.07
   4   0  15   -0.03    0.04
   4   0  15   -0.03    0.04
   4   0  16   14.76    0.94
   4   0  16   14.87    1.08
   4   0  17    0.03    0.04
   4   0  17    0.01    0.03
  -4   1  18    2.13    0.14
  -4  -1  18    1.45    0.14
  -4   1  17    0.92    0.09
  -4   1  17    0.94    0.11
  -4  -1  17    0.94    0.10
  -4   1  16    0.00    0.06
  -4   1  16   -0.03    0.04
  -4   1  16   -0.02    0.05
  -4  -1  16    0.02    0.04
  -4  -1  16    0.06    0.04
  -4  -1  16   -0.01    0.06
  -4   1  15   12.12    0.79
  -4   1  15   10.96    0.91
  -4   1  15   13.48    0.89
  -4  -1  15   11.55    0.89
  -4  -1  15   13.94    0.82
  -4  -1  15   12.16    0.91
  -4  -1  15   12.21    0.79
  -4   1  14   -0.01    0.08
  -4   1  14    0.02    0.04
  -4   1  14    0.05    0.07
  -4   1  14   -0.08    0.04
  -4   1  14    0.03    0.03
  -4  -1  14    0.02    0.06
  -4  -1  14    0.02    0.04
  -4  -1  14   -0.01    0.04
  -4  -1  14    0.00    0.03
  -4   1  13    0.52    0.13
  -4   1  13    0.68    0.09
  -4   1  13    0.75    0.07
  -4   1  13    0.72    0.08
  -4   1  13    0.77    0.09
  -4   1  13    0.77    0.09
  -4  -1  13    0.89    0.08
  -4  -1  13    0.42    0.17
  -4  -1  13    0.63    0.09
  -4  -1  13    0.80    0.08
  -4  -1  13    0.66    0.06
  -4   1  12    0.19    0.08
  -4   1  12    0.21    0.04
  -4   1  12    0.27    0.06
  -4   1  12    0.23    0.07
  -4   1  12    0.24    0.05
  -4   1  12    0.12    0.10
  -4   1  12    0.32    0.06
  -4   1  12    0.12    0.07
  -4   1  12    0.30    0.09
  -4  -1  12    0.23    0.05
  -4  -1  12    0.31    0.04
  -4  -1  12    0.13    0.11
  -4  -1  12    0.25    0.06
  -4  -1  12    0.27    0.05
  -4  -1  12    0.22    0.11
  -4  -1  12    0.29    0.11
  -4   1  11    1.88    0.16
  -4   1  11    2.07    0.14
  -4   1  11    2.00    0.17
  -4   1  11    1.90    0.16
  -4   1  11    1.94    0.17
  -4   1  11    1.73    0.17
  -4   1  11    2.12    0.19
  -4   1  11    2.13    0.14
  -4   1  11    2.24    0.21
  -4  -1  11    1.89    0.22
  -4  -1  11    1.77    0.15
  -4  -1  11    2.05    0.19
  -4  -1  11    1.96    0.16
  -4  -1  11    2.19    0.13
  -4  -1  11    1.90    0.16
  -4   1  10   -0.03    0.09
  -4   1  10   -0.02    0.04
  -4   1  10    0.10    0.08
  -4   1  10   -0.08    0.08
  -4   1  10    0.09    0.03
  -4   1  10    0.04    0.04
  -4   1  10    0.01    0.03
  -4   1  10    0.04    0.05
  -4   1  10    0.07    0.03
  -4   1  10    0.06    0.06
  -4  -1  10    0.06    0.05
  -4  -1  10   -0.08    0.06
  -4  -1  10    0.03    0.07
  -4  -1  10    0.09    0.10
  -4  -1  10    0.05    0.04
  -4   1   9   10.13    0.63
  -4   1   9   10.46    0.61
  -4   1   9    9.14    0.64
  -4   1   9   10.15    0.70
  -4   1   9    9.37    0.62
  -4   1   9    9.96    0.65
  -4   1   9    8.21    0.69
  -4  -1   9    9.21    0.64
  -4  -1   9   10.52    0.65
  -4  -1   9    9.96    0.62
  -4   1   8    0.70    0.11
  -4   1   8    1.07    0.12
  -4   1   8    1.03    0.10
  -4   1   8    1.13    0.12
  -4  -1   8    0.92    0.11
  -4  -1   8    1.10    0.13
  -4  -1   8    0.97    0.11
  -4   1   7   58.69    3.67
  -4   1   7   57.86    3.59
  -4  -1   7   57.71    3.67
  -4  -1   7   57.67    3.60
  -4   1   6    0.17    0.08
  -4   1   6    0.25    0.06
  -4   1   6    0.26    0.06
  -4   1   6    0.24    0.09
   4   1  -6    0.25    0.08
  -4   1   6    0.20    0.07
  -4   1   6    0.25    0.07
   4   1  -6    0.19    0.07
   4   1  -6    0.21    0.11
   4   1  -6    0.22    0.04
   4   1  -6    0.20    0.11
  -4  -1   6    0.20    0.08
  -4  -1   6    0.18    0.09
  -4  -1   6    0.38    0.08
  -4  -1   6    0.36    0.14
  -4  -1   6    0.25    0.06
   4   1  -5   20.33    1.13
  -4   1   5   21.90    1.25
  -4   1   5   19.88    1.37
  -4   1   5   18.86    1.36
  -4   1   5   20.61    1.21
  -4   1   5   19.49    1.28
  -4   1   5   21.77    1.35
  -4   1   5   18.31    1.24
   4   1  -5   20.18    1.39
   4   1  -5   19.36    1.22
   4   1  -5   19.52    1.38
   4   1  -5   19.53    1.25
  -4  -1   5   21.05    1.39
  -4  -1   5   19.93    1.25
   4  -1  -5   20.26    1.36
  -4  -1   5   19.81    1.27
   4  -1  -5   18.04    1.37
  -4  -1   5   19.30    1.38
  -4  -1   5   20.22    1.22
   4   1  -4   28.87    1.82
   4   1  -4   27.56    1.66
   4   1  -4   27.90    1.62
   4   1  -4   27.36    1.82
  -4   1   4   26.94    1.65
  -4   1   4   28.84    1.79
  -4   1   4   22.30    1.61
  -4   1   4   24.95    1.80
  -4   1   4   22.68    1.65
  -4   1   4   25.82    1.80
  -4   1   4   26.92    1.69
   4   1  -4   26.06    1.50
  -4   1   4   28.75    1.61
  -4  -1   4   27.21    1.82
   4  -1  -4   23.96    1.80
  -4  -1   4   25.11    1.81
  -4  -1   4   26.86    1.62
  -4  -1   4   27.84    1.69
  -4  -1   4   26.65    1.66
   4  -1  -4   28.36    1.80
  -4   1   3    1.13    0.11
   4   1  -3    1.58    0.17
   4   1  -3    1.36    0.17
  -4   1   3    1.52    0.13
  -4   1   3    1.48    0.12
  -4   1   3    1.52    0.18
  -4   1   3    1.18    0.15
  -4   1   3    1.55    0.15
   4   1  -3    1.37    0.13
   4   1  -3    1.37    0.12
  -4   1   3    1.39    0.13
  -4   1   3    1.19    0.11
   4  -1  -3    1.29    0.17
  -4  -1   3    1.21    0.13
  -4  -1   3    1.53    0.18
  -4  -1   3    1.36    0.17
   4  -1  -3    1.39    0.17
  -4  -1   3    1.36    0.13
   4   1  -2   34.41    2.07
  -4   1   2   33.63    2.25
  -4   1   2   32.03    2.23
  -4   1   2   34.21    2.02
  -4   1   2   34.91    2.07
  -4   1   2   29.81    2.25
   4   1  -2   32.94    2.26
  -4   1   2   28.77    2.07
   4   1  -2   36.92    2.26
   4   1  -2   34.35    2.02
  -4  -1   2   32.34    2.07
   4  -1  -2   35.97    2.25
   4  -1  -2   32.94    2.25
  -4  -1   2   32.68    2.26
  -4  -1   2   33.99    2.26
  -4  -1   2   33.36    2.02
  -4   1   1   18.44    1.14
  -4   1   1   19.17    1.26
   4   1  -1   18.24    1.29
   4   1  -1   19.42    1.17
   4   1  -1   19.03    1.29
  -4   1   1   17.19    1.28
  -4   1   1   20.28    1.17
  -4   1   1   16.00    1.17
   4   1  -1   19.73    1.14
   4  -1  -1   19.30    1.29
  -4  -1   1   20.30    1.17
  -4  -1   1   16.78    1.14
   4  -1  -1   18.57    1.17
  -4  -1   1   20.02    1.30
  -4  -1   1   19.96    1.29
   4  -1  -1   15.89    1.14
   4  -1  -1   19.20    1.29
  -4   1   0    0.39    0.07
  -4   1   0    0.25    0.07
   4   1   0    0.29    0.07
  -4   1   0    0.27    0.06
   4   1   0    0.27    0.06
   4   1   0    0.13    0.08
  -4   1   0    0.27    0.09
  -4   1   0    0.23    0.10
   4   1   0    0.31    0.07
   4   1   0    0.22    0.09
  -4  -1   0    0.36    0.06
   4  -1   0    0.19    0.03
   4  -1   0    0.29    0.06
  -4  -1   0    0.27    0.12
   4  -1   0    0.34    0.06
  -4  -1   0    0.38    0.11
   4  -1   0    0.28    0.10
  -4  -1   0    0.20    0.07
   4  -1   0    0.23    0.09
  -4   1  -1   39.79    2.42
  -4   1  -1   43.91    2.63
   4   1   1   40.57    2.35
   4   1   1   40.02    2.41
   4   1   1   34.54    2.41
   4   1   1   42.62    2.60
  -4   1  -1   37.17    2.59
  -4   1  -1   41.43    2.36
  -4   1  -1   41.85    2.63
   4   1   1   42.02    2.63
   4   1   1   41.49    2.62
  -4  -1  -1   35.86    2.35
   4  -1   1   40.28    2.63
   4  -1   1   37.78    2.42
  -4  -1  -1   35.31    2.62
   4  -1   1   35.59    2.63
   4  -1   1   36.87    2.58
  -4  -1  -1   41.44    2.63
   4  -1   1   34.63    2.36
  -4  -1  -1   35.25    2.41
  -4   1  -2   35.20    2.16
   4   1   2   31.54    1.93
  -4   1  -2   34.68    2.16
  -4   1  -2   32.70    1.93
   4   1   2   33.61    1.97
   4   1   2   30.70    2.12
  -4   1  -2   30.79    2.12
   4   1   2   34.65    2.16
  -4   1  -2   34.31    1.98
   4  -1   2   30.57    2.16
  -4  -1  -2   29.22    2.15
   4  -1   2   31.67    2.12
  -4  -1  -2   30.31    2.15
  -4  -1  -2   29.07    1.97
   4  -1   2   29.69    1.98
   4  -1   2   32.59    2.16
   4  -1   2   28.77    1.93
  -4   1  -3   48.88    3.07
  -4   1  -3   49.81    3.12
  -4   1  -3   46.94    2.79
   4   1   3   42.73    3.09
   4   1   3   43.28    3.10
  -4   1  -3   50.85    2.86
   4   1   3   44.39    2.85
   4   1   3   47.83    2.85
   4   1   3   45.91    3.07
   4   1   3   46.80    2.78
  -4   1  -3   44.62    3.11
   4   1   3   39.45    2.78
   4  -1   3   47.15    3.12
   4  -1   3   44.86    2.79
  -4  -1  -3   48.55    3.10
   4  -1   3   46.62    3.11
   4  -1   3   47.80    3.07
   4  -1   3   48.98    2.86
  -4  -1  -3   38.42    3.10
   4   1   4    4.94    0.41
   4   1   4    5.75    0.41
   4   1   4    5.51    0.37
   4   1   4    5.40    0.36
   4   1   4    4.64    0.42
  -4   1  -4    5.76    0.38
  -4   1  -4    5.39    0.44
  -4   1  -4    5.38    0.44
  -4   1  -4    5.40    0.36
   4  -1   4    5.55    0.37
   4  -1   4    5.58    0.43
  -4  -1  -4    4.31    0.43
  -4  -1  -4    5.61    0.44
   4  -1   4    5.65    0.40
   4  -1   4    5.64    0.45
   4  -1   4    5.96    0.38
   4   1   5   13.32    0.75
  -4   1  -5   10.93    0.73
   4   1   5   11.85    0.73
  -4   1  -5   11.38    0.76
  -4   1  -5   11.10    0.85
   4   1   5   12.08    0.81
  -4   1  -5   11.28    0.86
   4   1   5    9.70    0.83
   4   1   5   11.03    0.67
   4  -1   5   11.39    0.85
   4  -1   5   12.43    0.76
   4  -1   5   11.91    0.84
   4  -1   5   12.53    0.74
   4  -1   5   12.01    0.81
  -4   1  -6    4.24    0.41
   4   1   6    4.45    0.29
   4   1   6    5.14    0.33
   4   1   6    5.00    0.37
   4   1   6    4.58    0.32
   4  -1   6    5.05    0.37
   4  -1   6    5.33    0.33
   4  -1   6    4.51    0.41
   4  -1   6    4.74    0.35
   4   1   7  107.54    7.02
   4   1   7  103.16    6.36
   4   1   7  106.56    6.52
   4  -1   7  107.11    6.37
   4  -1   7  103.65    7.02
   4  -1   7  104.04    6.53
   4   1   8    4.95    0.38
   4   1   8    4.94    0.34
   4   1   8    4.75    0.30
   4   1   8    4.67    0.33
   4   1   8    5.29    0.35
   4   1   8    5.63    0.41
   4   1   8    5.51    0.36
   4   1   8    5.10    0.34
   4  -1   8    5.21    0.40
   4  -1   8    5.10    0.38
   4  -1   8    5.37    0.36
   4   1   9   45.39    2.75
   4   1   9   48.75    3.06
   4   1   9   45.30    2.89
   4   1   9   45.97    2.65
   4   1   9   41.35    2.84
   4   1   9   44.42    2.97
   4   1   9   44.84    2.94
   4   1   9   50.07    2.83
   4   1   9   46.15    3.25
   4   1   9   44.79    3.21
   4  -1   9   39.40    2.94
   4  -1   9   46.48    2.77
   4  -1   9   44.96    3.05
   4  -1   9   49.30    2.85
   4  -1   9   42.54    2.65
   4   1  10    0.03    0.09
   4   1  10    0.06    0.05
   4   1  10    0.00    0.04
   4   1  10    0.05    0.12
   4   1  10    0.00    0.03
   4   1  10    0.01    0.08
   4   1  10   -0.01    0.06
   4   1  10    0.04    0.04
   4  -1  10    0.05    0.05
   4  -1  10   -0.02    0.09
   4  -1  10    0.11    0.11
   4  -1  10    0.02    0.03
   4  -1  10   -0.01    0.08
   4   1  11    0.24    0.06
   4   1  11    0.15    0.04
   4   1  11    0.29    0.15
   4   1  11    0.19    0.05
   4   1  11    0.19    0.07
   4   1  11    0.21    0.05
   4   1  11    0.11    0.08
   4   1  11    0.32    0.10
   4  -1  11    0.23    0.05
   4  -1  11    0.18    0.12
   4  -1  11    0.24    0.04
   4  -1  11    0.07    0.14
   4  -1  11    0.08    0.09
   4  -1  11    0.15    0.05
   4   1  12    3.80    0.26
   4   1  12    3.66    0.30
   4   1  12    3.45    0.36
   4   1  12    3.62    0.25
   4   1  12    3.41    0.25
   4  -1  12    3.51    0.22
   4  -1  12    4.02    0.26
   4  -1  12    3.40    0.36
   4  -1  12    3.82    0.29
   4   1  13   13.96    0.98
   4   1  13   13.61    0.95
   4   1  13   15.86    0.97
   4   1  13   15.81    1.10
   4  -1  13   16.08    0.89
   4  -1  13   14.91    0.99
   4  -1  13   13.85    0.96
   4  -1  13   16.11    1.10
   4   1  14    3.55    0.26
   4   1  14    2.79    0.21
   4   1  14    2.86    0.20
   4   1  14    3.09    0.21
   4  -1  14    3.14    0.22
   4  -1  14    2.88    0.18
   4  -1  14    3.02    0.24
   4  -1  14    3.03    0.22
   4   1  15    6.67    0.47
   4   1  15    5.89    0.40
   4  -1  15    5.58    0.41
   4  -1  15    6.04    0.41
   4  -1  15    6.59    0.47
   4   1  16    0.06    0.03
   4   1  16   -0.01    0.05
   4  -1  16    0.10    0.05
   4  -1  16    0.06    0.03
   4  -1  16    0.08    0.04
   4   1  17    0.37    0.06
   4  -1  17    0.55    0.05
  -4   2  17    1.23    0.11
  -4  -2  17    1.10    0.11
  -4   2  16    3.56    0.26
  -4  -2  16    3.18    0.27
  -4   2  15    0.92    0.08
  -4   2  15    1.19    0.13
  -4   2  15    0.82    0.10
  -4  -2  15    1.18    0.11
  -4   2  14    1.07    0.10
  -4   2  14    1.17    0.09
  -4   2  14    1.27    0.14
  -4   2  14    1.16    0.14
  -4  -2  14    1.16    0.09
  -4  -2  14    1.23    0.12
  -4   2  13    0.07    0.06
  -4   2  13    0.06    0.07
  -4   2  13    0.03    0.07
  -4   2  13    0.10    0.04
  -4   2  13    0.09    0.04
  -4  -2  13    0.11    0.04
  -4  -2  13    0.09    0.05
  -4  -2  13    0.05    0.04
  -4   2  12   49.06    3.11
  -4   2  12   50.75    3.33
  -4   2  12   47.86    2.94
  -4   2  12   46.32    3.08
  -4   2  12   43.54    3.37
  -4   2  12   45.30    3.00
  -4  -2  12   45.17    3.05
  -4  -2  12   47.77    2.75
  -4  -2  12   45.52    3.32
  -4   2  11   17.56    1.18
  -4   2  11   17.32    1.23
  -4   2  11   19.84    1.25
  -4   2  11   19.29    1.24
  -4   2  11   18.57    1.34
  -4  -2  11   19.71    1.11
  -4   2  10    0.08    0.05
  -4   2  10    0.21    0.10
  -4   2  10    0.06    0.05
  -4   2  10    0.10    0.02
  -4   2  10    0.03    0.06
  -4   2  10    0.17    0.04
  -4   2  10    0.12    0.03
  -4   2  10    0.12    0.05
  -4   2  10    0.13    0.03
  -4   2  10    0.10    0.03
  -4  -2  10    0.12    0.04
  -4   2   9    4.66    0.33
  -4   2   9    4.50    0.30
  -4   2   9    4.73    0.28
  -4   2   9    4.16    0.29
  -4   2   9    4.58    0.28
  -4   2   9    3.89    0.29
  -4   2   9    4.26    0.31
  -4   2   9    4.61    0.34
  -4   2   9    4.40    0.30
  -4  -2   9    4.16    0.27
  -4   2   8   38.55    2.62
  -4   2   8   41.55    2.84
  -4   2   8   40.79    2.62
  -4   2   8   40.00    2.51
  -4   2   8   37.14    2.47
  -4   2   8   40.49    2.41
  -4   2   8   41.32    2.55
  -4   2   7    7.38    0.40
  -4   2   7    5.59    0.40
  -4   2   7    5.85    0.41
  -4   2   7    6.78    0.42
  -4   2   7    7.11    0.45
   4   2  -6   16.27    1.01
  -4   2   6   16.27    1.02
  -4   2   6   17.63    1.06
   4   2  -6   16.21    1.04
   4   2  -6   15.86    0.93
  -4   2   6   17.89    1.12
  -4  -2   6   15.60    1.04
  -4  -2   6   14.06    1.15
   4   2  -5    0.52    0.13
  -4   2   5    0.96    0.09
  -4   2   5    0.85    0.12
  -4   2   5    1.03    0.12
   4   2  -5    1.04    0.11
   4   2  -5    0.76    0.14
   4   2  -5    1.02    0.09
  -4   2   5    0.93    0.08
  -4   2   5    0.79    0.10
   4   2  -5    1.16    0.12
  -4   2   5    0.75    0.08
  -4   2   5    0.84    0.08
   4  -2  -5    0.89    0.10
  -4  -2   5    0.81    0.15
  -4  -2   5    1.08    0.11
  -4  -2   5    0.99    0.11
  -4  -2   5    0.88    0.09
  -4   2   4   21.82    1.49
  -4   2   4   21.64    1.40
   4   2  -4   22.48    1.25
  -4   2   4   24.45    1.49
   4   2  -4   21.03    1.51
  -4   2   4   20.25    1.48
   4   2  -4   21.22    1.52
   4   2  -4   22.68    1.34
   4   2  -4   24.24    1.38
  -4   2   4   23.41    1.33
  -4   2   4   20.70    1.36
  -4   2   4   21.90    1.33
  -4   2   4   23.32    1.37
  -4  -2   4   22.62    1.53
   4  -2  -4   21.68    1.48
  -4  -2   4   21.25    1.39
  -4  -2   4   21.13    1.38
  -4  -2   4   20.87    1.35
  -4  -2   4   19.68    1.52
  -4   2   3    0.15    0.04
  -4   2   3    0.08    0.08
  -4   2   3    0.06    0.03
  -4   2   3    0.12    0.06
   4   2  -3    0.21    0.10
  -4   2   3    0.05    0.06
   4   2  -3    0.10    0.06
  -4   2   3    0.06    0.04
  -4   2   3    0.13    0.06
   4   2  -3    0.07    0.07
   4   2  -3    0.03    0.10
  -4   2   3    0.15    0.05
   4   2  -3    0.12    0.05
   4  -2  -3    0.07    0.06
   4  -2  -3    0.08    0.06
  -4  -2   3    0.11    0.06
  -4  -2   3    0.09    0.10
  -4  -2   3    0.11    0.10
  -4   2   2    6.12    0.45
  -4   2   2    6.16    0.39
  -4   2   2    5.53    0.45
   4   2  -2    6.60    0.37
  -4   2   2    5.85    0.39
   4   2  -2    6.64    0.41
   4   2  -2    6.38    0.47
   4   2  -2    6.48    0.47
  -4   2   2    6.27    0.40
   4   2  -2    6.85    0.40
  -4   2   2    5.64    0.40
  -4   2   2    6.42    0.45
  -4   2   2    6.40    0.42
   4  -2  -2    6.02    0.46
   4  -2  -2    5.95    0.45
  -4  -2   2    6.21    0.48
  -4  -2   2    6.56    0.48
   4   2  -1    9.27    0.53
  -4   2   1    8.75    0.55
  -4   2   1    8.08    0.54
  -4   2   1    8.60    0.60
  -4   2   1    6.75    0.61
  -4   2   1    7.58    0.52
   4   2  -1    8.92    0.55
  -4   2   1    9.35    0.54
   4   2  -1    8.81    0.50
  -4   2   1    8.66    0.60
   4   2  -1    9.18    0.61
  -4   2   1    8.19    0.53
   4  -2  -1    7.65    0.61
  -4  -2   1    8.22    0.62
  -4  -2   1    9.14    0.62
   4  -2  -1    8.00    0.60
  -4   2   0    5.32    0.37
  -4   2   0    4.35    0.31
   4   2   0    4.21    0.37
   4   2   0    5.35    0.30
  -4   2   0    4.94    0.39
   4   2   0    4.27    0.33
  -4   2   0    4.45    0.33
  -4   2   0    5.35    0.38
   4   2   0    5.57    0.33
   4   2   0    5.51    0.36
   4   2   0    5.27    0.32
  -4   2   0    5.61    0.32
   4   2   0    5.16    0.38
   4   2   0    4.28    0.32
  -4  -2   0    5.05    0.39
   4  -2   0    4.17    0.39
   4  -2   0    5.46    0.38
  -4  -2   0    4.53    0.39
   4   2   1    0.30    0.08
  -4   2  -1    0.17    0.11
   4   2   1    0.30    0.06
   4   2   1    0.24    0.05
   4   2   1    0.30    0.08
  -4   2  -1    0.29    0.08
   4   2   1    0.36    0.06
   4   2   1    0.38    0.05
  -4   2  -1    0.37    0.07
  -4   2  -1    0.30    0.08
  -4   2  -1    0.35    0.07
   4   2   1    0.25    0.08
   4   2   1    0.23    0.05
   4  -2   1    0.32    0.09
   4  -2   1    0.15    0.11
  -4  -2  -1    0.19    0.10
  -4  -2  -1    0.31    0.10
  -4   2  -2    0.03    0.09
  -4   2  -2    0.00    0.06
  -4   2  -2    0.05    0.07
   4   2   2    0.01    0.04
   4   2   2    0.07    0.05
   4   2   2    0.09    0.05
   4   2   2    0.05    0.08
   4   2   2    0.00    0.03
   4   2   2    0.05    0.05
  -4   2  -2    0.02    0.07
   4   2   2    0.03    0.05
  -4   2  -2    0.00    0.05
   4   2   2   -0.10    0.07
   4  -2   2    0.04    0.09
  -4  -2  -2   -0.03    0.07
   4  -2   2    0.01    0.08
  -4  -2  -2    0.04    0.09
  -4   2  -3    2.59    0.26
   4   2   3    2.87    0.19
   4   2   3    3.05    0.19
   4   2   3    3.10    0.20
  -4   2  -3    3.05    0.23
  -4   2  -3    2.72    0.20
   4   2   3    2.36    0.18
  -4   2  -3    2.91    0.27
   4   2   3    2.33    0.19
   4   2   3    2.52    0.24
  -4   2  -3    2.97    0.22
   4   2   3    2.56    0.23
   4   2   3    3.10    0.24
   4  -2   3    2.54    0.27
  -4  -2  -3    2.65    0.26
   4  -2   3    2.79    0.26
   4   2   4   14.90    0.82
   4   2   4   12.29    0.86
  -4   2  -4   13.81    0.91
  -4   2  -4   15.26    0.97
   4   2   4   14.42    0.98
   4   2   4   14.35    0.87
  -4   2  -4   14.32    0.88
   4   2   4   14.08    0.89
  -4   2  -4   13.66    1.02
   4  -2   4   13.49    1.01
   4   2   5    1.18    0.15
   4   2   5    1.27    0.12
  -4   2  -5    1.08    0.12
  -4   2  -5    1.35    0.15
  -4   2  -5    1.28    0.15
  -4   2  -5    0.97    0.17
   4   2   5    1.25    0.10
   4   2   5    1.32    0.11
   4  -2   5    0.72    0.15
   4   2   6    0.10    0.05
  -4   2  -6    0.02    0.06
   4   2   6    0.10    0.04
  -4   2  -6    0.19    0.09
   4   2   6    0.13    0.05
  -4   2  -6    0.13    0.08
   4   2   6   -0.02    0.09
   4   2   7    0.71    0.07
   4   2   7    0.69    0.08
   4   2   7    0.69    0.08
   4   2   7    0.75    0.12
   4   2   7    0.81    0.08
   4   2   7    0.77    0.07
   4   2   7    0.77    0.09
   4   2   7    0.73    0.09
   4   2   7    0.77    0.08
   4  -2   7    0.89    0.13
   4   2   8    0.07    0.03
   4   2   8    0.15    0.04
   4   2   8    0.06    0.04
   4   2   8    0.04    0.03
   4   2   8    0.04    0.04
   4   2   8    0.02    0.06
   4   2   8    0.01    0.05
   4   2   8    0.07    0.05
   4   2   8    0.08    0.11
   4  -2   8    0.08    0.10
   4   2   9    0.63    0.07
   4   2   9    0.82    0.10
   4   2   9    0.75    0.09
   4   2   9    0.68    0.16
   4   2   9    0.71    0.07
   4   2   9    0.75    0.09
   4   2   9    0.79    0.07
   4   2   9    0.59    0.08
   4   2   9    0.70    0.07
   4  -2   9    0.79    0.07
   4  -2   9    0.76    0.15
   4   2  10    0.00    0.02
   4   2  10   -0.02    0.06
   4   2  10    0.03    0.03
   4   2  10    0.08    0.04
   4   2  10    0.02    0.04
   4   2  10   -0.05    0.05
   4   2  10    0.04    0.04
   4   2  10    0.25    0.07
   4   2  10    0.01    0.14
   4  -2  10   -0.04    0.08
   4  -2  10    0.05    0.04
   4   2  11    2.18    0.18
   4   2  11    2.40    0.17
   4   2  11    2.41    0.19
   4   2  11    2.12    0.15
   4   2  11    2.36    0.16
   4   2  11    1.98    0.26
   4  -2  11    2.22    0.15
   4  -2  11    1.67    0.25
   4   2  12    0.05    0.04
   4   2  12    0.02    0.07
   4   2  12    0.09    0.05
   4   2  12    0.05    0.04
   4  -2  12    0.06    0.04
   4  -2  12    0.09    0.06
   4   2  13    0.14    0.06
   4   2  13    0.13    0.07
   4   2  13    0.14    0.04
   4   2  13    0.10    0.04
   4  -2  13    0.11    0.08
   4  -2  13    0.05    0.06
   4  -2  13    0.12    0.04
   4   2  14    5.43    0.38
   4   2  14    6.15    0.37
   4   2  14    6.15    0.43
   4   2  14    5.96    0.42
   4  -2  14    5.00    0.39
   4  -2  14    5.30    0.43
   4  -2  14    5.83    0.34
   4   2  15    0.94    0.10
   4   2  15    1.01    0.08
   4  -2  15    0.94    0.10
   4  -2  15    0.90    0.06
   4  -2  15    0.95    0.12
   4  -2  16    1.63    0.15
   4  -2  16    2.06    0.14
  -4   3  17    0.42    0.05
  -4  -3  17    0.27    0.05
  -4   3  16    0.74    0.08
  -4   3  15    0.78    0.09
  -4  -3  15    0.68    0.08
  -4   3  14    1.42    0.13
  -4  -3  14    1.29    0.10
  -4   3  13    7.05    0.51
  -4   3  13    7.00    0.47
  -4   3  13    6.31    0.47
  -4  -3  13    6.92    0.41
  -4   3  12    2.92    0.24
  -4   3  12    3.03    0.22
  -4   3  12    2.82    0.19
  -4   3  12    3.11    0.23
  -4  -3  12    3.15    0.20
  -4   3  11   15.09    0.92
  -4   3  11   13.42    0.91
  -4   3  11   12.63    0.86
  -4   3  11   13.94    0.99
  -4   3  11   12.70    0.91
  -4  -3  11   13.97    0.81
  -4   3  10    0.20    0.05
  -4   3  10    0.19    0.05
  -4   3  10    0.22    0.06
  -4   3  10    0.37    0.11
  -4   3  10    0.20    0.07
  -4   3  10    0.23    0.03
  -4   3   9    3.12    0.22
  -4   3   9    3.91    0.24
  -4   3   9    3.35    0.28
  -4   3   9    3.91    0.24
  -4   3   9    3.51    0.24
  -4   3   9    3.67    0.27
   4   3  -9    2.97    0.21
  -4   3   9    2.88    0.23
  -4   3   8   40.42    2.52
  -4   3   8   39.97    2.64
  -4   3   8   39.27    2.55
  -4   3   8   39.29    2.50
  -4   3   8   40.84    2.62
   4   3  -8   37.68    2.34
  -4   3   8   39.01    2.62
  -4   3   8   42.26    2.83
  -4   3   7   47.17    2.98
   4   3  -7   43.82    2.74
  -4   3   7   48.59    3.15
  -4   3   7   43.42    2.95
  -4   3   7   48.41    3.10
  -4   3   7   46.48    3.32
   4   3  -7   48.01    2.93
   4   3  -7   47.74    2.85
  -4   3   7   48.18    3.07
  -4   3   7   45.21    2.93
  -4   3   7   48.04    3.07
  -4   3   6    1.96    0.20
   4   3  -6    1.75    0.13
   4   3  -6    1.92    0.19
  -4   3   6    1.57    0.14
   4   3  -6    1.67    0.15
  -4   3   6    1.55    0.13
  -4   3   6    1.76    0.16
  -4   3   5    6.92    0.50
   4   3  -5    6.39    0.44
   4   3  -5    7.00    0.41
   4   3  -5    6.89    0.47
  -4   3   5    6.55    0.46
   4   3  -4   37.50    2.31
  -4   3   4   37.62    2.41
   4   3  -4   39.42    2.37
  -4   3   4   37.19    2.56
   4   3  -4   38.15    2.16
  -4   3   3    3.38    0.22
  -4   3   3    3.16    0.24
  -4   3   3    3.16    0.21
  -4   3   3    3.21    0.21
  -4   3   3    3.10    0.24
  -4   3   3    3.39    0.28
   4   3  -3    3.51    0.22
   4   3  -3    3.54    0.23
  -4   3   3    3.15    0.21
   4   3  -3    3.62    0.25
  -4   3   2    0.37    0.04
  -4   3   2    0.43    0.06
  -4   3   2    0.40    0.06
  -4   3   2    0.38    0.10
  -4   3   2    0.35    0.07
  -4   3   2    0.36    0.05
   4   3  -2    0.43    0.07
   4   3  -2    0.51    0.07
   4   3  -2    0.36    0.09
   4   3  -1    1.37    0.13
  -4   3   1    1.58    0.13
   4   3  -1    1.46    0.15
   4   3  -1    1.39    0.13
  -4   3   1    2.23    0.19
  -4   3   1    1.46    0.12
   4   3  -1    1.55    0.13
  -4   3   1    1.50    0.13
  -4   3   0    7.80    0.51
   4   3   0    8.75    0.51
   4   3   0    7.83    0.47
  -4   3   0    7.95    0.57
  -4   3   0    8.35    0.50
   4   3   0    7.89    0.49
  -4   3   0    6.90    0.51
   4   3   1    1.01    0.10
   4   3   1    0.98    0.12
  -4   3  -1    1.11    0.12
  -4   3  -1    1.14    0.11
   4   3   1    1.02    0.09
  -4   3  -1    1.05    0.13
  -4   3  -2    6.40    0.50
  -4   3  -2    6.88    0.46
   4   3   2    7.33    0.50
   4   3   2    6.93    0.43
   4   3   2    6.45    0.44
   4   3   2    6.88    0.41
  -4   3  -2    7.12    0.44
  -4   3  -3   29.85    1.77
   4   3   3   31.27    1.97
   4   3   3   26.60    1.75
   4   3   3   25.67    1.80
   4   3   3   30.11    1.75
  -4   3  -3   31.06    1.82
   4   3   3   28.36    1.65
   4   3   3   29.42    1.80
  -4   3  -3   28.64    1.96
   4   3   4    2.13    0.15
  -4   3  -4    2.25    0.22
   4   3   4    2.12    0.14
   4   3   4    1.84    0.14
   4   3   4    2.56    0.23
  -4   3  -4    2.16    0.19
   4   3   4    1.91    0.14
   4   3   4    2.14    0.16
  -4   3  -4    2.23    0.20
   4   3   5    9.03    0.59
   4   3   5    7.12    0.50
   4   3   5    8.16    0.57
   4   3   5    7.98    0.48
   4   3   5    7.81    0.51
  -4   3  -5    8.05    0.52
   4   3   5    7.81    0.48
   4   3   5    7.89    0.47
   4   3   5    7.41    0.58
  -4   3  -5    8.59    0.59
   4   3   6    2.28    0.16
   4   3   6    2.56    0.21
   4   3   6    2.33    0.16
   4   3   6    2.37    0.17
   4   3   6    2.60    0.20
   4   3   6    2.52    0.18
  -4   3  -6    2.43    0.23
  -4   3  -6    2.40    0.21
  -4   3  -6    2.34    0.15
   4   3   6    2.45    0.26
  -4   3  -6    2.79    0.25
   4   3   6    2.47    0.18
   4   3   7   27.52    1.82
  -4   3  -7   29.32    1.89
   4   3   7   27.53    1.77
   4   3   7   24.48    1.69
   4   3   7   27.62    1.99
  -4   3  -7   26.72    1.62
   4   3   7   27.25    1.74
   4   3   7   29.56    1.89
   4   3   7   29.03    1.97
   4   3   8   14.03    0.92
  -4   3  -8   14.25    0.99
   4   3   8   13.03    0.87
   4   3   8   14.26    0.99
   4   3   8   13.92    0.90
   4   3   8   14.13    1.00
  -4   3  -8   13.51    0.82
   4   3   8   13.91    1.01
   4   3   9    2.29    0.17
   4   3   9    2.10    0.15
   4   3   9    2.26    0.19
   4   3   9    2.20    0.17
  -4   3  -9    2.10    0.14
   4   3   9    2.20    0.19
  -4   3  -9    2.44    0.23
   4   3   9    2.22    0.24
   4  -3   9    1.91    0.24
   4   3  10    6.51    0.51
   4   3  10    6.19    0.46
  -4   3 -10    5.46    0.48
   4   3  10    5.56    0.41
   4   3  10    6.40    0.40
  -4   3 -10    5.79    0.36
   4   3  10    6.00    0.39
   4   3  10    6.49    0.45
   4  -3  10    5.92    0.37
   4  -3  10    5.49    0.49
   4   3  11    0.57    0.08
   4   3  11    0.68    0.10
  -4   3 -11    0.44    0.06
   4   3  11    0.59    0.10
   4   3  11    0.61    0.06
   4  -3  11    0.56    0.06
   4   3  12    5.20    0.36
   4   3  12    5.94    0.43
   4   3  12    5.63    0.37
   4   3  12    5.78    0.42
   4  -3  12    5.49    0.34
   4   3  13    3.11    0.24
   4   3  13    2.98    0.20
   4   3  13    2.87    0.23
   4  -3  13    3.17    0.18
   4  -3  13    2.43    0.23
   4   3  14    6.85    0.52
   4   3  14    7.69    0.53
   4   3  14    6.48    0.46
   4  -3  14    7.02    0.42
   4  -3  14    7.53    0.53
   4   3  15    4.73    0.32
   4   3  15    4.75    0.33
   4  -3  15    4.11    0.26
   4  -3  15    4.01    0.30
   4  -3  15    3.85    0.32
  -4   4  16    7.37    0.53
  -4   4  15    0.28    0.07
  -4   4  14    0.24    0.08
  -4   4  13    1.77    0.16
   4   4 -13    1.79    0.12
  -4   4  13    1.77    0.16
  -4   4  12   57.58    3.73
  -4   4  12   56.65    4.00
  -4   4  12   55.31    3.70
  -4  -4  12   55.61    3.30
   4   4 -11    1.97    0.13
  -4   4  11    1.88    0.17
  -4   4  11    2.04    0.16
  -4   4  11    1.78    0.18
  -4   4  11    1.99    0.16
  -4   4  10   27.35    1.80
  -4   4  10   27.11    1.95
  -4   4  10   27.24    1.80
   4   4 -10   29.05    1.61
  -4   4  10   25.06    1.77
  -4   4  10   27.85    1.82
  -4   4   9    0.37    0.07
  -4   4   9    0.37    0.08
   4   4  -9    0.25    0.04
  -4   4   9    0.29    0.07
   4   4  -9    0.33    0.04
  -4   4   9    0.34    0.05
  -4   4   9    0.24    0.06
  -4   4   9    0.14    0.09
  -4   4   8   10.02    0.77
  -4   4   8   10.59    0.72
  -4   4   8   11.70    0.71
   4   4  -8   10.86    0.63
  -4   4   8   11.06    0.71
   4   4  -8   10.35    0.70
  -4   4   8    9.86    0.72
  -4   4   8   10.55    0.66
   4   4  -8    8.80    0.73
  -4   4   8   11.70    0.69
  -4   4   7    8.85    0.65
  -4   4   7    7.96    0.64
   4   4  -7    9.57    0.53
  -4   4   7    9.23    0.60
  -4   4   7    8.81    0.60
   4   4  -7    8.67    0.59
  -4   4   7    9.67    0.60
  -4   4   7    8.50    0.55
  -4   4   7    8.40    0.60
   4   4  -7    8.56    0.61
  -4   4   7    9.04    0.57
   4   4  -7    9.02    0.59
  -4   4   6    3.09    0.22
   4   4  -6    3.06    0.22
   4   4  -6    3.24    0.24
  -4   4   6    2.91    0.20
   4   4  -6    3.08    0.27
  -4   4   6    3.24    0.29
  -4   4   6    3.27    0.24
   4   4  -6    3.32    0.22
  -4   4   6    3.00    0.23
   4   4  -6    3.22    0.19
   4   4  -6    2.93    0.21
  -4   4   6    3.53    0.22
  -4   4   6    2.69    0.24
   4   4  -5    6.23    0.40
  -4   4   5    6.39    0.47
  -4   4   5    5.92    0.37
  -4   4   5    6.36    0.39
  -4   4   5    6.05    0.41
  -4   4   5    5.20    0.39
   4   4  -5    6.26    0.36
   4   4  -5    6.40    0.43
   4   4  -5    6.04    0.40
   4   4  -5    5.69    0.39
  -4   4   5    5.69    0.40
   4   4  -5    6.34    0.38
  -4   4   5    5.68    0.38
  -4   4   5    6.09    0.41
   4   4  -4    0.98    0.07
  -4   4   4    1.15    0.10
  -4   4   4    1.04    0.11
  -4   4   4    0.99    0.09
   4   4  -4    1.04    0.13
  -4   4   4    0.91    0.10
   4   4  -4    1.15    0.11
  -4   4   4    1.03    0.08
   4   4  -4    1.04    0.09
  -4   4   4    0.93    0.15
   4   4  -4    1.10    0.11
   4   4  -4    0.94    0.08
  -4   4   4    0.93    0.07
   4   4  -4    1.12    0.16
  -4   4   4    0.83    0.08
   4   4  -3    0.56    0.05
  -4   4   3    0.72    0.08
   4   4  -3    0.63    0.07
   4   4  -3    0.64    0.10
   4   4  -3    0.60    0.06
  -4   4   3    0.66    0.11
   4   4  -3    0.53    0.10
  -4   4   3    0.62    0.07
  -4   4   3    0.61    0.07
   4   4  -3    0.71    0.09
  -4   4   3    0.73    0.07
  -4   4   3    0.65    0.06
  -4   4   3    0.72    0.06
   4   4  -3    0.53    0.06
   4   4  -3    0.63    0.09
   4   4  -2    0.16    0.04
   4   4  -2    0.20    0.03
  -4   4   2    0.24    0.05
  -4   4   2    0.11    0.05
   4   4  -2    0.10    0.09
  -4   4   2    0.15    0.03
  -4   4   2    0.22    0.03
  -4   4   2    0.21    0.11
   4   4  -2    0.13    0.05
   4   4  -2    0.16    0.02
  -4   4   2    0.19    0.04
  -4   4   2    0.14    0.04
  -4   4   2    0.15    0.06
   4   4  -2    0.14    0.03
   4   4  -2    0.18    0.07
   4   4  -2    0.15    0.03
  -4   4   2    0.13    0.03
   4   4  -1   24.57    1.59
  -4   4   1   24.08    1.49
  -4   4   1   25.43    1.53
   4   4  -1   25.07    1.55
  -4   4   1   23.61    1.59
   4   4  -1   26.44    1.77
   4   4  -1   26.09    1.41
   4   4  -1   22.93    1.50
   4   4  -1   26.55    1.50
  -4   4   1   26.66    1.68
  -4   4   1   23.62    1.55
   4   4  -1   24.67    1.54
  -4   4   1   24.11    1.50
  -4   4   1   24.46    1.54
  -4   4   1   23.14    1.63
   4   4  -1   22.89    1.54
  -4   4   1   23.14    1.61
   4   4   0    1.93    0.17
  -4   4   0    1.70    0.12
   4   4   0    1.74    0.13
   4   4   0    1.70    0.12
   4   4   0    1.84    0.13
  -4   4   0    1.74    0.13
   4   4   0    2.06    0.14
  -4   4   0    1.63    0.14
  -4   4   0    1.86    0.16
  -4   4   0    2.02    0.15
   4   4   0    1.96    0.15
  -4   4   0    1.69    0.13
  -4   4   0    2.20    0.22
   4   4   0    1.71    0.13
   4   4   0    1.83    0.13
  -4   4   0    1.79    0.12
  -4   4   0    1.51    0.15
   4   4   0    1.92    0.16
  -4   4  -1    6.92    0.46
  -4   4  -1    7.68    0.46
  -4   4  -1    7.02    0.48
  -4   4  -1    6.70    0.44
  -4   4  -1    7.60    0.54
   4   4   1    6.88    0.47
  -4   4  -1    6.90    0.47
   4   4   1    7.04    0.44
  -4   4  -1    6.53    0.49
   4   4   1    7.17    0.45
   4   4   1    6.89    0.46
   4   4   1    7.89    0.53
   4   4   1    7.19    0.47
   4   4   1    7.34    0.44
   4   4   1    7.15    0.46
  -4   4  -1    7.12    0.46
   4   4   1    7.81    0.45
  -4   4  -1    6.97    0.48
  -4   4  -2    3.13    0.19
   4   4   2    2.86    0.20
   4   4   2    2.70    0.20
  -4   4  -2    3.27    0.23
   4   4   2    3.41    0.22
  -4   4  -2    2.90    0.29
   4   4   2    2.88    0.25
   4   4   2    3.09    0.20
  -4   4  -2    3.24    0.21
   4   4   2    3.45    0.21
  -4   4  -2    3.24    0.21
   4   4   2    3.06    0.20
   4   4   2    2.88    0.24
   4   4   2    3.11    0.21
  -4   4  -2    3.10    0.20
  -4   4  -2    2.98    0.25
  -4   4  -2    2.94    0.21
   4   4   2    3.15    0.20
  -4   4  -2    2.76    0.23
   4   4   2    3.10    0.20
   4   4   2    3.30    0.20
  -4   4  -3    0.15    0.03
   4   4   3    0.14    0.03
  -4   4  -3    0.14    0.03
   4   4   3    0.19    0.12
  -4   4  -3    0.13    0.11
  -4   4  -3    0.06    0.07
   4   4   3    0.17    0.05
  -4   4  -3    0.20    0.03
  -4   4  -3    0.25    0.09
   4   4   3    0.14    0.04
   4   4   3    0.24    0.05
  -4   4  -3    0.14    0.06
   4   4   3    0.16    0.06
   4   4   3    0.15    0.04
  -4   4  -3    0.16    0.04
   4   4   3    0.12    0.04
   4   4   4   33.34    2.16
   4   4   4   33.27    2.11
  -4   4  -4   33.97    2.27
   4   4   4   33.83    2.21
   4   4   4   36.01    2.49
  -4   4  -4   35.14    2.17
   4   4   4   31.60    2.17
   4   4   4   34.61    2.34
   4   4   4   35.71    1.97
  -4   4  -4   35.71    2.11
   4   4   4   36.80    2.45
  -4   4  -4   34.38    2.35
  -4   4  -4   34.39    2.17
  -4   4  -4   32.67    2.02
  -4   4  -4   36.04    2.25
  -4   4  -5    4.07    0.33
   4   4   5    3.90    0.26
   4   4   5    4.07    0.29
   4   4   5    3.70    0.29
  -4   4  -5    3.47    0.28
   4   4   5    3.88    0.25
  -4   4  -5    3.92    0.27
   4   4   5    3.95    0.35
   4   4   5    3.42    0.26
  -4   4  -5    3.86    0.23
   4   4   5    3.94    0.26
  -4   4  -5    3.82    0.35
   4   4   5    3.53    0.24
  -4   4  -5    3.89    0.25
  -4   4  -6   11.00    0.80
   4   4   6   10.36    0.69
   4   4   6   10.31    0.66
   4   4   6   11.32    0.81
  -4   4  -6   11.77    0.65
  -4   4  -6   10.18    0.71
   4   4   6   11.94    0.72
   4   4   6   11.13    0.68
   4   4   6   11.97    0.81
   4   4   6   10.58    0.80
   4   4   6   10.25    0.73
  -4   4  -6   12.01    0.73
  -4   4  -6   10.37    0.75
   4   4   7    2.16    0.16
   4   4   7    1.94    0.13
  -4   4  -7    1.38    0.18
   4   4   7    1.86    0.18
  -4   4  -7    1.71    0.23
  -4   4  -7    2.15    0.13
   4   4   7    1.93    0.15
   4   4   7    2.01    0.14
  -4   4  -7    1.97    0.16
   4   4   7    1.73    0.23
   4   4   7    2.26    0.18
  -4   4  -8    0.72    0.17
   4   4   8    0.86    0.10
  -4   4  -8    0.73    0.09
   4   4   8    0.66    0.17
   4   4   8    0.85    0.11
   4   4   8    0.67    0.06
   4   4   8    0.83    0.11
  -4   4  -8    0.76    0.07
   4   4   9    3.61    0.38
  -4   4  -9    4.12    0.24
   4   4   9    4.14    0.31
   4   4   9    3.93    0.27
   4   4   9    3.75    0.32
   4   4  10    7.12    0.52
   4   4  10    7.01    0.46
   4   4  10    6.33    0.51
  -4   4 -10    7.04    0.42
  -4   4 -11    6.62    0.38
   4   4  11    5.85    0.47
   4   4  11    6.12    0.48
   4   4  11    6.25    0.42
   4   4  12    6.14    0.44
   4   4  12    5.87    0.44
  -4   4 -12    5.95    0.35
   4   4  12    5.86    0.39
   4  -4  12    5.39    0.36
   4   4  13   -0.02    0.05
   4   4  13   -0.02    0.04
  -4   4 -13   -0.01    0.03
   4   4  13    0.03    0.07
  -4   4 -13    0.03    0.05
   4  -4  13   -0.01    0.03
   4  -4  13   -0.01    0.04
   4   4  14    0.91    0.11
   4   4  14    0.99    0.11
  -4   4 -14    1.09    0.07
   4  -4  14    0.95    0.08
  -4   4 -15    3.95    0.25
   4  -4  15    4.40    0.25
  -4   5  14    0.25    0.05
  -4   5  13   13.82    0.99
  -4   5  12    0.26    0.06
  -4   5  12    0.10    0.04
   4   5 -12    0.17    0.06
  -4   5  11   14.39    0.96
   4   5 -11   14.18    0.95
   4   5 -11   15.42    0.85
  -4   5  11   12.59    1.03
  -4   5  11   15.43    0.96
  -4   5  10    0.79    0.08
  -4   5  10    0.82    0.09
   4   5 -10    0.83    0.09
  -4   5  10    0.50    0.09
  -4   5   9    0.21    0.07
  -4   5   9    0.29    0.06
   4   5  -9    0.33    0.04
   4   5  -9    0.33    0.05
  -4   5   9    0.32    0.06
   4   5  -9    0.35    0.06
  -4   5   9    0.34    0.07
  -4   5   9    0.24    0.08
  -4   5   8    8.85    0.58
  -4   5   8    8.30    0.58
   4   5  -8    8.92    0.51
  -4   5   8    8.98    0.55
  -4   5   8    8.13    0.57
   4   5  -8    8.17    0.57
  -4   5   8    8.22    0.53
   4   5  -8    8.36    0.55
   4   5  -7    8.97    0.59
  -4   5   7    8.71    0.59
  -4   5   7    8.87    0.62
   4   5  -7    9.40    0.61
  -4   5   7    9.74    0.62
  -4   5   7    9.35    0.57
   4   5  -7    9.74    0.54
   4   5  -7    8.78    0.59
  -4   5   7    8.41    0.61
  -4   5   6    0.04    0.07
  -4   5   6    0.07    0.03
  -4   5   6    0.16    0.05
  -4   5   6    0.12    0.06
   4   5  -6    0.07    0.02
  -4   5   6    0.09    0.04
   4   5  -6    0.13    0.04
  -4   5   6    0.13    0.05
  -4   5   6    0.01    0.08
   4   5  -6    0.14    0.05
   4   5  -6    0.12    0.04
   4   5  -5    1.45    0.11
   4   5  -5    1.33    0.11
   4   5  -5    1.14    0.13
  -4   5   5    1.29    0.11
   4   5  -5    1.37    0.12
  -4   5   5    1.18    0.13
  -4   5   5    1.29    0.14
  -4   5   5    1.46    0.13
  -4   5   5    1.19    0.11
   4   5  -5    1.30    0.15
   4   5  -5    1.32    0.08
   4   5  -5    1.16    0.16
  -4   5   5    1.22    0.19
   4   5  -4    0.33    0.08
   4   5  -4    0.12    0.12
   4   5  -4    0.26    0.07
  -4   5   4    0.34    0.05
   4   5  -4    0.21    0.07
  -4   5   4    0.24    0.13
  -4   5   4    0.23    0.06
  -4   5   4    0.27    0.06
   4   5  -4    0.33    0.04
   4   5  -4    0.33    0.04
  -4   5   4    0.35    0.05
   4   5  -4    0.35    0.05
  -4   5   4    0.29    0.07
   4   5  -3   28.91    1.74
   4   5  -3   23.85    1.76
  -4   5   3   29.32    1.76
  -4   5   3   25.86    1.77
   4   5  -3   24.88    1.63
  -4   5   3   28.52    1.69
   4   5  -3   27.99    1.71
  -4   5   3   27.24    1.63
   4   5  -3   26.13    1.63
  -4   5   3   24.40    1.83
   4   5  -3   28.30    1.69
   4   5  -3   23.70    1.68
  -4   5   3   26.74    1.68
   4   5  -3   26.96    1.54
   4   5  -2    0.25    0.08
   4   5  -2    0.08    0.03
   4   5  -2    0.11    0.06
  -4   5   2   -0.08    0.13
   4   5  -2    0.06    0.05
  -4   5   2    0.10    0.04
  -4   5   2    0.04    0.03
   4   5  -2    0.18    0.08
  -4   5   2    0.01    0.05
  -4   5   2    0.08    0.05
  -4   5   2    0.09    0.05
   4   5  -2    0.13    0.05
   4   5  -2    0.07    0.03
   4   5  -1   11.13    0.69
  -4   5   1   10.34    0.67
  -4   5   1   10.20    0.66
  -4   5   1   10.23    0.78
  -4   5   1   11.35    0.68
   4   5  -1   10.03    0.68
  -4   5   1   11.40    0.72
   4   5  -1   10.33    0.66
   4   5  -1   10.09    0.66
   4   5  -1   10.95    0.67
   4   5  -1   10.97    0.69
   4   5  -1   11.16    0.68
  -4   5   1    9.97    0.72
   4   5  -1   10.09    0.64
   4   5   0    0.00    0.07
  -4   5   0   -0.03    0.04
   4   5   0    0.02    0.02
  -4   5   0    0.04    0.04
  -4   5   0    0.03    0.04
   4   5   0    0.09    0.04
   4   5   0    0.00    0.05
  -4   5   0    0.01    0.04
  -4   5   0    0.03    0.04
  -4   5   0   -0.01    0.04
   4   5   0    0.04    0.03
   4   5   0    0.07    0.04
  -4   5   0    0.09    0.13
  -4   5   0    0.02    0.02
   4   5   0    0.00    0.04
  -4   5   0    0.03    0.05
   4   5   0    0.05    0.04
   4   5   1    0.27    0.07
   4   5   1    0.34    0.05
  -4   5  -1    0.27    0.06
  -4   5  -1    0.29    0.05
  -4   5  -1    0.26    0.04
  -4   5  -1    0.47    0.15
  -4   5  -1    0.32    0.06
   4   5   1    0.24    0.05
   4   5   1    0.32    0.04
  -4   5  -1    0.29    0.07
  -4   5  -1    0.26    0.06
  -4   5  -1    0.26    0.06
   4   5   1    0.31    0.08
  -4   5  -1    0.31    0.04
   4   5   1    0.29    0.03
  -4   5  -2    0.78    0.17
   4   5   2    0.67    0.07
  -4   5  -2    0.53    0.06
   4   5   2    0.70    0.10
  -4   5  -2    0.58    0.06
  -4   5  -2    0.56    0.07
  -4   5  -2    0.55    0.09
  -4   5  -2    0.49    0.06
  -4   5  -2    0.69    0.10
  -4   5  -2    0.51    0.10
  -4   5  -2    0.43    0.07
   4   5   2    0.58    0.10
   4   5   2    0.65    0.05
   4   5   2    0.58    0.07
   4   5   2    0.53    0.06
   4   5   3    0.51    0.08
  -4   5  -3    0.46    0.09
  -4   5  -3    0.52    0.06
  -4   5  -3    0.61    0.12
  -4   5  -3    0.54    0.07
  -4   5  -3    0.55    0.07
   4   5   3    0.56    0.07
   4   5   3    0.53    0.06
   4   5   3    0.52    0.07
  -4   5  -3    0.55    0.16
   4   5   3    0.65    0.10
  -4   5  -3    0.56    0.06
  -4   5  -3    0.60    0.09
  -4   5  -4   -0.02    0.04
  -4   5  -4   -0.10    0.08
   4   5   4    0.01    0.03
   4   5   4    0.04    0.05
  -4   5  -4    0.01    0.14
  -4   5  -4   -0.03    0.05
   4   5   4   -0.01    0.05
   4   5   4   -0.01    0.05
  -4   5  -4    0.01    0.04
  -4   5  -4    0.00    0.06
   4   5   4    0.06    0.08
   4   5   5   12.19    0.85
  -4   5  -5   10.88    0.84
  -4   5  -5   11.33    0.67
   4   5   5   10.53    0.68
  -4   5  -5   11.75    0.77
  -4   5  -5   11.11    0.73
   4   5   5   11.08    0.73
  -4   5  -5   10.40    0.77
  -4   5  -5   12.50    0.76
   4   5   5   11.85    0.71
   4   5   5   11.10    0.83
   4   5   5   12.12    0.74
  -4   5  -6    0.92    0.07
   4   5   6    1.11    0.13
   4   5   6    1.16    0.11
   4   5   6    1.13    0.14
  -4   5  -6    0.87    0.10
  -4   5  -6    1.04    0.10
   4   5   6    1.00    0.09
  -4   5  -6    0.99    0.11
  -4   5  -6    0.82    0.18
   4   5   7    8.08    0.51
  -4   5  -7    7.05    0.46
   4   5   7    7.84    0.58
  -4   5  -7    8.02    0.52
  -4   5  -7    7.50    0.50
  -4   5  -7    7.93    0.53
   4   5   7    7.64    0.57
   4   5   7    8.03    0.49
  -4   5  -8    0.54    0.07
   4   5   8    0.60    0.09
  -4   5  -8    0.54    0.09
  -4   5  -8    0.58    0.06
   4   5   8    0.45    0.06
   4   5   8    0.45    0.07
   4   5   8    0.35    0.10
   4   5   9    0.03    0.04
   4   5   9    0.09    0.06
   4   5   9    0.06    0.04
  -4   5  -9    0.17    0.05
   4   5   9    0.07    0.06
  -4   5  -9    0.04    0.07
  -4   5  -9    0.07    0.03
   4   5  10    0.31    0.07
  -4   5 -10    0.24    0.04
  -4   5 -10    0.40    0.08
  -4   5 -10    0.29    0.06
   4   5  10    0.34    0.09
   4   5  10    0.33    0.05
  -4   5 -11    7.65    0.50
   4   5  11    7.75    0.55
  -4   5 -11    7.05    0.44
  -4   5 -11    7.73    0.50
   4   5  11    7.45    0.54
   4   5  11    6.87    0.48
  -4   5 -12   -0.01    0.02
  -4   5 -12   -0.01    0.05
  -4   5 -12   -0.01    0.04
   4   5  12   -0.03    0.05
   4   5  12   -0.04    0.03
   4   5  12    0.07    0.07
   4   5  13    0.02    0.04
  -4   5 -13    0.03    0.02
   4  -5  13    0.01    0.02
   4   6 -12   37.93    2.49
   4   6 -11    0.00    0.03
  -4   6  11    0.04    0.03
   4   6 -11    0.02    0.05
  -4   6  10    6.58    0.48
  -4   6  10    7.23    0.49
   4   6 -10    7.86    0.48
   4   6 -10    6.96    0.48
   4   6  -9    2.63    0.20
   4   6  -9    3.12    0.19
  -4   6   9    2.81    0.20
  -4   6   9    2.82    0.20
   4   6  -9    2.50    0.19
  -4   6   9    2.13    0.19
   4   6  -9    2.87    0.19
  -4   6   8    1.66    0.14
  -4   6   8    1.54    0.14
   4   6  -8    1.55    0.12
   4   6  -8    1.62    0.12
   4   6  -8    1.71    0.16
   4   6  -8    1.61    0.12
  -4   6   8    1.59    0.14
   4   6  -7    0.18    0.05
   4   6  -7    0.16    0.04
  -4   6   7    0.19    0.08
  -4   6   7    0.14    0.08
  -4   6   7    0.09    0.06
   4   6  -7    0.14    0.05
  -4   6   7    0.18    0.04
   4   6  -7    0.17    0.06
   4   6  -6    0.30    0.06
   4   6  -6    0.31    0.05
  -4   6   6    0.39    0.05
  -4   6   6    0.28    0.06
   4   6  -6    0.34    0.06
   4   6  -6    0.27    0.05
  -4   6   6    0.36    0.09
  -4   6   6    0.32    0.05
  -4   6   5    0.06    0.07
   4   6  -5    0.05    0.04
  -4   6   5    0.07    0.06
   4   6  -5    0.09    0.06
   4   6  -5    0.12    0.07
  -4   6   5    0.08    0.06
   4   6  -5    0.03    0.04
  -4   6   5    0.02    0.05
   4   6  -4    0.06    0.04
   4   6  -4    0.01    0.04
   4   6  -4    0.03    0.04
  -4   6   4    0.02    0.04
  -4   6   4    0.10    0.08
  -4   6   4    0.08    0.05
   4   6  -4   -0.06    0.06
  -4   6   4    0.09    0.06
   4   6  -3    3.72    0.23
  -4   6   3    3.06    0.25
   4   6  -3    3.32    0.23
  -4   6   3    3.53    0.24
   4   6  -3    3.34    0.23
  -4   6   3    3.46    0.25
   4   6  -3    3.59    0.25
  -4   6   3    3.64    0.27
   4   6  -2    1.93    0.14
   4   6  -2    1.79    0.13
   4   6  -2    1.96    0.14
  -4   6   2    1.85    0.16
  -4   6   2    2.00    0.14
  -4   6   2    2.08    0.16
   4   6  -2    1.80    0.13
  -4   6   2    1.75    0.12
  -4   6   2    1.75    0.16
  -4   6   1    0.09    0.06
   4   6  -1    0.07    0.03
   4   6  -1    0.06    0.04
  -4   6   1    0.09    0.06
  -4   6   1    0.04    0.03
   4   6  -1    0.06    0.03
  -4   6   1    0.03    0.05
  -4   6   1    0.06    0.06
   4   6  -1    0.12    0.04
  -4   6   0    0.37    0.07
  -4   6   0    0.70    0.06
   4   6   0    0.50    0.08
   4   6   0    0.59    0.06
  -4   6   0    0.41    0.05
   4   6   0    0.61    0.07
   4   6   0    0.55    0.06
  -4   6   0    0.53    0.08
  -4   6   0    0.65    0.08
  -4   6  -1    1.21    0.11
   4   6   1    1.53    0.13
  -4   6  -1    1.21    0.10
  -4   6  -1    1.55    0.13
   4   6   1    1.42    0.10
   4   6   1    1.52    0.12
  -4   6  -1    1.38    0.14
   4   6   1    1.34    0.12
  -4   6  -2    0.05    0.04
   4   6   2    0.06    0.04
   4   6   2    0.07    0.05
   4   6   2    0.05    0.01
  -4   6  -2    0.06    0.06
   4   6   2    0.08    0.04
  -4   6  -2    0.10    0.09
  -4   6  -3    0.26    0.04
   4   6   3    0.30    0.05
  -4   6  -3    0.27    0.06
  -4   6  -3    0.23    0.05
   4   6   3    0.20    0.06
  -4   6  -3    0.32    0.07
   4   6   3    0.31    0.05
   4   6   4   40.48    2.58
   4   6   4   43.45    2.95
   4   6   4   41.46    2.50
  -4   6  -4   40.89    2.69
  -4   6  -4   43.61    2.57
   4   6   4   40.90    2.62
  -4   6  -4   35.50    2.66
   4   6   5   -0.02    0.05
  -4   6  -5    0.07    0.05
   4   6   5    0.06    0.05
  -4   6  -5    0.06    0.06
   4   6   5    0.05    0.05
  -4   6  -5    0.07    0.04
   4   6   5   -0.07    0.09
   4   6   6   14.99    0.97
  -4   6  -6   15.61    1.00
  -4   6  -6   13.65    0.98
   4   6   6   15.53    0.93
   4   6   6   15.17    1.10
  -4   6  -6   15.15    0.96
   4   6   7    1.18    0.09
  -4   6  -7    1.23    0.12
  -4   6  -7    0.99    0.11
   4   6   7    1.15    0.12
   4   6   7    1.08    0.10
  -4   6  -7    1.10    0.10
  -4   6  -8    2.75    0.20
   4   6   8    3.08    0.23
  -4   6  -8    2.78    0.20
   4   6   8    2.66    0.20
   4   6   8    2.85    0.19
  -4   6  -8    3.07    0.21
  -4   6  -9    0.02    0.04
  -4   6  -9    0.03    0.05
   4   6   9   -0.02    0.05
   4   6   9    0.01    0.04
  -4   6  -9   -0.04    0.04
   4   6  10   10.55    0.68
  -4   6 -10   10.92    0.70
   4   6  10   10.43    0.76
  -4   6 -10   10.03    0.69
   4   6  11    1.32    0.10
   4   6  11    1.44    0.12
  -4   6 -11    1.39    0.11
  -4   6 -11    1.30    0.10
  -4   7   8    0.17    0.05
   4   7  -8    0.28    0.03
   4   7  -8    0.28    0.04
  -4   7   7    0.32    0.05
  -4   7   7    0.39    0.06
   4   7  -7    0.18    0.04
  -4   7   6    1.74    0.16
   4   7  -6    1.76    0.14
   4   7  -6    1.90    0.13
  -4   7   6    1.77    0.15
  -4   7   5    0.11    0.05
   4   7  -5    0.12    0.04
   4   7  -5    0.20    0.03
  -4   7   5    0.15    0.06
   4   7  -4    0.16    0.04
  -4   7   4    0.24    0.08
  -4   7   4    0.09    0.05
   4   7  -4    0.16    0.04
   4   7  -3    3.76    0.24
   4   7  -3    3.32    0.23
  -4   7   3    3.78    0.27
   4   7  -3    3.64    0.25
  -4   7   3    3.82    0.25
   4   7  -2    1.63    0.13
  -4   7   2    1.95    0.14
   4   7  -2    1.86    0.14
   4   7  -2    1.91    0.13
  -4   7   2    1.87    0.16
  -4   7   1    2.69    0.23
  -4   7   1    3.05    0.21
   4   7  -1    3.00    0.21
   4   7  -1    3.12    0.19
   4   7   0    0.02    0.05
  -4   7   0   -0.03    0.04
   4   7   0    0.01    0.04
  -4   7   0    0.03    0.08
  -4   7  -1    1.04    0.11
  -4   7  -1    0.69    0.08
   4   7   1    0.91    0.08
   4   7   1    0.84    0.08
  -4   7  -1    0.77    0.06
   4   7   1    0.80    0.09
   4   7   2    1.39    0.12
  -4   7  -2    1.51    0.16
  -4   7  -2    1.40    0.12
   4   7   2    1.40    0.11
  -4   7  -2    1.36    0.10
   4   7   2    1.51    0.11
   4   7   3    0.15    0.05
   4   7   3    0.17    0.04
  -4   7  -3    0.15    0.04
  -4   7  -3    0.20    0.08
   4   7   3    0.20    0.04
  -4   7  -4    0.02    0.04
  -4   7  -4   -0.09    0.08
   4   7   4    0.12    0.05
   4   7   4    0.06    0.05
   4   7   4   -0.02    0.04
   4   7   5    5.43    0.35
   4   7   5    5.69    0.36
  -4   7  -5    4.84    0.35
  -4   7  -5    6.01    0.38
   4   7   6    0.48    0.05
  -4   7  -6    0.36    0.08
  -4   7  -6    0.45    0.05
  -4   7  -7    1.04    0.09
  -4   7  -7    0.79    0.10
   4   7   7    1.24    0.09
  -4   7  -8    0.00    0.03
  -4   7  -8    0.01    0.04
   4   7   8    0.03    0.03
   4   8  -3    0.06    0.03
   4   8  -2    0.90    0.09
  -4   8   2    1.31    0.08
  -4   8   1    3.72    0.25
   4   8  -1    4.07    0.26
  -4   8   0    0.05    0.04
   4   8   0    0.01    0.03
   4   8   0    0.00    0.02
   4   8   1    0.51    0.05
   4   8   2    0.00    0.02
  -5   0  18    3.26    0.27
  -5   0  18    4.19    0.24
  -5   0  17    0.02    0.04
  -5   0  17    0.00    0.05
  -5   0  17    0.00    0.04
  -5   0  16   37.34    2.31
  -5   0  16   40.07    2.61
  -5   0  16   35.98    2.38
  -5   0  16   33.37    2.64
  -5   0  15   -0.03    0.04
  -5   0  15    0.01    0.05
  -5   0  15    0.02    0.04
  -5   0  15    0.04    0.05
  -5   0  14    0.42    0.08
  -5   0  14    0.38    0.06
  -5   0  14    0.34    0.09
  -5   0  14    0.30    0.05
  -5   0  13    0.04    0.06
  -5   0  13   -0.03    0.05
  -5   0  13   -0.02    0.04
  -5   0  13    0.00    0.09
  -5   0  13   -0.03    0.07
  -5   0  12  107.42    6.76
  -5   0  12  116.92    7.01
  -5   0  12  110.76    6.54
  -5   0  12  112.80    7.25
  -5   0  12  121.05    7.91
  -5   0  12  100.58    7.06
  -5   0  11    0.04    0.04
  -5   0  11   -0.02    0.02
  -5   0  11    0.10    0.11
  -5   0  11   -0.06    0.09
  -5   0  11   -0.03    0.05
  -5   0  11   -0.06    0.12
  -5   0  11    0.00    0.07
  -5   0  11   -0.01    0.04
  -5   0  10    0.06    0.04
  -5   0  10    0.07    0.04
  -5   0  10    0.04    0.09
  -5   0  10    0.09    0.02
  -5   0  10    0.07    0.08
  -5   0  10    0.09    0.10
  -5   0  10    0.09    0.07
  -5   0   9    0.01    0.06
  -5   0   9    0.24    0.11
  -5   0   9    0.04    0.04
  -5   0   9    0.01    0.02
  -5   0   9    0.03    0.08
  -5   0   8    3.86    0.28
  -5   0   8    3.65    0.29
  -5   0   7   -0.04    0.07
  -5   0   7   -0.08    0.06
  -5   0   7    0.16    0.08
  -5   0   6    3.19    0.32
  -5   0   6    3.33    0.25
  -5   0   6    3.59    0.25
  -5   0   6    3.25    0.25
  -5   0   5   -0.08    0.07
   5   0  -5   -0.09    0.09
  -5   0   5    0.01    0.06
  -5   0   5   -0.09    0.09
  -5   0   5    0.00    0.06
   5   0  -5   -0.07    0.08
  -5   0   5    0.04    0.08
  -5   0   4    7.93    0.48
   5   0  -4    8.05    0.55
  -5   0   4    6.83    0.54
   5   0  -4    6.48    0.48
   5   0  -4    6.37    0.46
  -5   0   4    7.10    0.55
   5   0  -4    6.87    0.55
  -5   0   4    7.96    0.47
  -5   0   4    7.71    0.49
  -5   0   3   -0.01    0.10
   5   0  -3    0.03    0.09
   5   0  -3   -0.01    0.06
  -5   0   3    0.03    0.06
  -5   0   3   -0.03    0.08
   5   0  -3    0.08    0.05
  -5   0   3    0.01    0.06
   5   0  -3   -0.01    0.10
   5   0  -2   15.17    1.21
  -5   0   2   16.93    1.21
   5   0  -2   17.37    1.21
  -5   0   2   19.08    1.22
  -5   0   2   18.22    1.07
  -5   0   2   17.75    1.10
   5   0  -2   17.40    1.07
   5   0  -2   17.09    1.10
  -5   0   2   17.77    1.18
   5   0  -1   -0.01    0.06
   5   0  -1   -0.08    0.10
  -5   0   1    0.05    0.10
  -5   0   1    0.03    0.05
   5   0  -1    0.01    0.09
  -5   0   1   -0.02    0.06
  -5   0   1    0.04    0.07
  -5   0   1    0.15    0.12
   5   0  -1    0.08    0.06
  -5   0   0    5.66    0.47
  -5   0   0    6.44    0.41
  -5   0   0    5.60    0.49
  -5   0   0    5.82    0.40
   5   0   0    6.37    0.42
   5   0   0    6.26    0.41
   5   0   0    6.99    0.47
  -5   0   0    6.05    0.42
   5   0   0    5.59    0.39
   5   0   0    6.24    0.48
   5   0   1   -0.19    0.10
   5   0   1   -0.12    0.06
   5   0   1   -0.12    0.04
  -5   0  -1   -0.08    0.11
  -5   0  -1    0.06    0.11
  -5   0  -1   -0.12    0.04
   5   0   1   -0.11    0.08
  -5   0  -1   -0.11    0.06
  -5   0  -1   -0.10    0.07
   5   0   1   -0.06    0.06
  -5   0  -2   67.57    4.53
  -5   0  -2   65.67    4.07
   5   0   2   63.45    4.53
   5   0   2   66.63    4.53
  -5   0  -2   63.25    4.53
   5   0   2   70.55    4.48
   5   0   2   69.99    4.08
  -5   0  -2   67.20    4.18
  -5   0  -2   65.99    4.48
   5   0   2   73.07    4.18
  -5   0  -3    0.02    0.06
   5   0   3    0.01    0.09
   5   0   3    0.01    0.06
   5   0   3    0.06    0.07
  -5   0  -3    0.01    0.11
  -5   0  -3   -0.01    0.03
  -5   0  -3   -0.05    0.12
   5   0   3    0.00    0.10
   5   0   3    0.01    0.06
  -5   0  -3   -0.01    0.06
  -5   0  -4   54.25    3.79
   5   0   4   48.80    3.84
   5   0   4   54.19    3.84
   5   0   4   58.49    3.45
   5   0   4   60.09    3.54
  -5   0  -4   58.38    3.85
   5   0   4   62.56    3.80
  -5   0  -4   58.03    3.85
   5   0   5   -0.03    0.08
   5   0   5    0.05    0.06
   5   0   5    0.00    0.07
   5   0   5   -0.08    0.10
   5   0   6   21.67    1.40
   5   0   6   23.18    1.44
   5   0   6   23.20    1.55
   5   0   7   -0.08    0.10
   5   0   7    0.03    0.07
   5   0   7   -0.18    0.08
   5   0   8   99.94    5.85
   5   0   8   82.25    6.11
   5   0   8   94.29    5.51
   5   0   8  102.58    6.29
   5   0   8   89.57    6.75
   5   0   8   97.17    5.71
   5   0   9    0.02    0.05
   5   0   9    0.04    0.04
   5   0   9   -0.02    0.04
   5   0   9   -0.10    0.11
   5   0   9    0.02    0.02
   5   0   9   -0.05    0.07
   5   0   9    0.02    0.10
   5   0  10   33.81    2.02
   5   0  10   34.34    2.17
   5   0  10   33.11    2.24
   5   0  10   36.53    2.18
   5   0  10   33.59    2.11
   5   0  10   32.80    2.48
   5   0  10   36.98    2.35
   5   0  11    0.07    0.09
   5   0  11    0.08    0.14
   5   0  11    0.02    0.02
   5   0  11    0.04    0.05
   5   0  11   -0.06    0.06
   5   0  11    0.00    0.03
   5   0  12   11.11    0.77
   5   0  12   10.88    0.70
   5   0  12   10.62    0.68
   5   0  12    9.54    0.77
   5   0  12   10.42    0.68
   5   0  12   10.02    0.62
   5   0  13   -0.02    0.05
   5   0  13   -0.06    0.05
   5   0  13   -0.02    0.07
   5   0  13    0.00    0.05
   5   0  14    6.44    0.48
   5   0  14    6.65    0.42
   5   0  14    6.11    0.42
   5   0  14    6.09    0.42
   5   0  15    0.03    0.07
   5   0  15    0.03    0.05
   5   0  15    0.01    0.03
   5   0  16    0.24    0.05
   5   0  16    0.21    0.05
   5   0  17    0.02    0.03
  -5   1  18    0.08    0.03
  -5   1  17    9.11    0.57
  -5   1  17    8.03    0.65
  -5  -1  17    9.77    0.58
  -5  -1  17    9.30    0.59
  -5   1  16    0.14    0.07
  -5   1  16    0.12    0.03
  -5  -1  16    0.12    0.06
  -5  -1  16    0.10    0.07
  -5  -1  16    0.13    0.06
  -5   1  15    0.24    0.08
  -5   1  15    0.14    0.07
  -5   1  15    0.30    0.05
  -5  -1  15    0.19    0.09
  -5  -1  15    0.30    0.07
  -5  -1  15    0.24    0.05
  -5  -1  15    0.32    0.06
  -5   1  14    2.16    0.17
  -5   1  14    2.77    0.21
  -5   1  14    2.24    0.21
  -5   1  14    2.42    0.17
  -5   1  14    2.18    0.18
  -5  -1  14    2.49    0.20
  -5  -1  14    2.35    0.19
  -5  -1  14    2.79    0.19
  -5  -1  14    2.52    0.15
  -5   1  13   11.36    0.71
  -5   1  13   11.70    0.79
  -5   1  13   10.09    0.80
  -5   1  13   11.25    0.70
  -5   1  13   10.17    0.73
  -5   1  13    9.71    0.75
  -5  -1  13   10.40    0.72
  -5  -1  13   11.41    0.79
  -5  -1  13   11.59    0.64
  -5  -1  13   10.64    0.70
  -5   1  12    2.21    0.25
  -5   1  12    2.22    0.19
  -5   1  12    2.49    0.18
  -5   1  12    2.66    0.19
  -5   1  12    2.67    0.18
  -5   1  12    2.57    0.19
  -5   1  12    2.40    0.22
  -5   1  12    2.59    0.20
  -5   1  12    2.07    0.21
  -5  -1  12    2.53    0.29
  -5  -1  12    2.50    0.16
  -5  -1  12    2.28    0.23
  -5  -1  12    2.38    0.25
  -5  -1  12    2.68    0.18
  -5  -1  12    2.35    0.18
  -5  -1  12    2.52    0.21
  -5   1  11   47.53    3.22
  -5   1  11   45.12    2.76
  -5   1  11   45.17    2.85
  -5   1  11   47.22    2.83
  -5   1  11   47.01    2.95
  -5   1  11   41.54    2.98
  -5   1  11   45.21    2.90
  -5   1  11   44.78    3.01
  -5  -1  11   42.69    2.95
  -5  -1  11   47.15    2.66
  -5  -1  11   44.86    2.85
  -5  -1  11   46.05    2.78
  -5   1  10   17.27    1.17
  -5   1  10   17.89    1.18
  -5   1  10   18.40    1.10
  -5   1  10   16.61    1.16
  -5   1  10   17.33    1.17
  -5   1  10   19.27    1.27
  -5   1  10   18.58    1.12
  -5   1  10   19.00    1.13
  -5  -1  10   17.23    1.12
  -5  -1  10   16.56    1.15
  -5  -1  10   17.34    1.16
  -5  -1  10   16.67    1.15
  -5  -1  10   18.47    1.05
  -5   1   9   51.40    3.35
  -5   1   9   44.69    3.39
  -5   1   9   55.36    3.21
  -5   1   9   53.11    3.13
  -5   1   9   50.35    3.24
  -5   1   9   54.66    3.29
  -5   1   9   53.37    3.66
  -5  -1   9   47.31    3.03
  -5  -1   9   53.12    3.28
  -5  -1   9   51.04    3.14
  -5  -1   9   54.35    3.23
  -5   1   8    1.79    0.14
  -5   1   8    1.94    0.17
  -5   1   8    1.93    0.18
  -5  -1   8    1.69    0.16
  -5  -1   8    1.78    0.19
  -5  -1   8    1.74    0.16
  -5   1   7   49.58    2.89
  -5   1   7   45.41    2.95
  -5   1   7   47.04    2.82
  -5  -1   7   46.17    2.95
  -5  -1   7   48.06    2.83
  -5  -1   7   42.47    3.17
  -5  -1   7   45.97    2.90
  -5   1   6    1.06    0.11
   5   1  -6    1.19    0.09
  -5   1   6    1.42    0.11
  -5   1   6    1.51    0.14
  -5   1   6    1.21    0.14
   5   1  -6    1.13    0.18
  -5  -1   6    1.37    0.13
  -5  -1   6    1.45    0.14
  -5  -1   6    1.45    0.19
  -5  -1   6    1.35    0.15
  -5   1   5   45.32    2.63
  -5   1   5   39.36    2.85
  -5   1   5   42.14    2.68
  -5   1   5   47.29    2.56
   5   1  -5   41.20    2.63
   5   1  -5   42.89    2.39
  -5   1   5   37.18    2.85
   5   1  -5   41.29    2.87
  -5   1   5   46.01    2.83
   5   1  -5   43.47    2.88
   5   1  -5   42.15    2.57
  -5  -1   5   41.21    2.63
  -5  -1   5   41.69    2.57
  -5  -1   5   40.83    2.88
  -5  -1   5   39.78    2.87
  -5  -1   5   43.58    2.68
   5   1  -4   15.50    0.91
  -5   1   4   15.83    1.00
   5   1  -4   15.97    1.04
  -5   1   4   13.42    1.02
  -5   1   4   15.41    0.90
   5   1  -4   13.73    0.84
   5   1  -4   14.25    1.04
   5   1  -4   14.51    0.93
  -5   1   4   14.47    0.93
  -5   1   4   14.94    0.95
  -5   1   4   12.74    1.02
  -5  -1   4   13.57    1.03
   5  -1  -4   13.22    1.02
   5  -1  -4   15.06    1.02
  -5  -1   4   14.53    0.93
  -5  -1   4   15.92    0.91
  -5  -1   4   14.99    0.94
  -5  -1   4   15.00    1.05
   5   1  -3   32.02    2.10
   5   1  -3   30.82    2.11
  -5   1   3   31.07    1.96
  -5   1   3   32.05    2.10
  -5   1   3   25.51    1.92
   5   1  -3   29.71    1.92
  -5   1   3   32.70    1.87
  -5   1   3   30.51    1.92
   5   1  -3   30.26    1.87
  -5   1   3   34.97    2.07
   5  -1  -3   29.24    2.09
  -5  -1   3   30.41    1.92
  -5  -1   3   32.11    1.88
   5  -1  -3   30.72    2.09
  -5  -1   3   29.46    2.11
  -5  -1   3   31.67    2.11
  -5   1   2   22.10    1.31
  -5   1   2   21.92    1.45
   5   1  -2   22.60    1.48
   5   1  -2   21.65    1.35
   5   1  -2   19.33    1.48
   5   1  -2   21.44    1.31
  -5   1   2   20.78    1.48
  -5   1   2   23.44    1.34
  -5  -1   2   20.84    1.49
   5  -1  -2   20.88    1.48
   5  -1  -2   18.63    1.34
   5  -1  -2   22.72    1.48
  -5  -1   2   22.75    1.35
  -5  -1   2   20.45    1.31
  -5  -1   2   22.07    1.49
   5   1  -1   40.57    2.27
   5   1  -1   37.40    2.54
  -5   1   1   40.21    2.33
   5   1  -1   40.28    2.33
  -5   1   1   36.41    2.54
  -5   1   1   37.22    2.50
  -5   1   1   38.38    2.27
   5   1  -1   33.10    2.54
  -5   1   1   35.48    2.54
   5  -1  -1   31.77    2.27
   5  -1  -1   41.72    2.54
   5  -1  -1   35.97    2.33
  -5  -1   1   37.31    2.54
  -5  -1   1   34.36    2.27
  -5  -1   1   40.49    2.55
   5  -1  -1   39.57    2.54
  -5  -1   1   36.92    2.33
   5   1   0    0.52    0.11
   5   1   0    0.78    0.09
  -5   1   0    0.72    0.09
  -5   1   0    0.66    0.12
   5   1   0    0.74    0.13
  -5   1   0    0.70    0.09
  -5   1   0    0.54    0.13
  -5   1   0    0.72    0.09
   5   1   0    0.71    0.10
   5   1   0    0.84    0.08
   5  -1   0    0.76    0.09
  -5  -1   0    0.68    0.10
   5  -1   0    0.51    0.13
  -5  -1   0    0.66    0.08
   5  -1   0    0.64    0.08
   5  -1   0    0.57    0.06
   5  -1   0    0.59    0.12
  -5  -1   0    0.57    0.13
  -5  -1   0    0.75    0.14
  -5   1  -1    1.04    0.11
   5   1   1    1.02    0.11
   5   1   1    0.72    0.12
   5   1   1    0.78    0.14
  -5   1  -1    0.89    0.15
   5   1   1    0.82    0.10
  -5   1  -1    0.90    0.11
  -5   1  -1    0.87    0.12
   5   1   1    0.98    0.10
  -5   1  -1    0.84    0.14
   5  -1   1    0.82    0.11
  -5  -1  -1    0.69    0.09
   5  -1   1    0.76    0.13
   5  -1   1    0.76    0.09
  -5  -1  -1    0.65    0.14
   5  -1   1    0.80    0.10
   5  -1   1    0.91    0.15
  -5  -1  -1    0.87    0.15
  -5  -1  -1    0.67    0.09
   5   1   2   11.26    0.77
   5   1   2   11.57    0.69
   5   1   2   10.60    0.76
  -5   1  -2   11.00    0.78
  -5   1  -2   10.36    0.73
  -5   1  -2   11.83    0.67
  -5   1  -2   11.44    0.78
   5   1   2   10.81    0.74
  -5   1  -2   11.17    0.69
   5   1   2   10.57    0.67
   5  -1   2   10.08    0.73
   5  -1   2   10.14    0.67
   5  -1   2   10.28    0.69
   5  -1   2   10.25    0.77
   5  -1   2    9.58    0.77
  -5  -1  -2   10.69    0.78
  -5  -1  -2   10.40    0.78
  -5   1  -3    2.73    0.18
   5   1   3    2.32    0.17
  -5   1  -3    2.17    0.19
   5   1   3    2.07    0.20
  -5   1  -3    1.97    0.23
  -5   1  -3    2.75    0.25
   5   1   3    2.10    0.17
   5   1   3    2.13    0.22
  -5   1  -3    1.88    0.18
   5  -1   3    2.24    0.24
   5  -1   3    1.91    0.18
   5  -1   3    1.90    0.21
   5  -1   3    2.29    0.18
  -5  -1  -3    1.98    0.23
   5  -1   3    2.11    0.19
  -5  -1  -3    1.90    0.23
  -5   1  -4    0.63    0.10
   5   1   4    0.42    0.09
  -5   1  -4    0.28    0.12
   5   1   4    0.52    0.08
  -5   1  -4    0.34    0.13
  -5   1  -4    0.46    0.08
  -5   1  -4    0.37    0.08
   5   1   4    0.52    0.09
   5   1   4    0.49    0.12
   5  -1   4    0.36    0.11
   5  -1   4    0.51    0.10
   5  -1   4    0.34    0.08
   5  -1   4    0.43    0.09
   5  -1   4    0.47    0.14
  -5   1  -5    6.37    0.44
   5   1   5    6.67    0.42
  -5   1  -5    5.34    0.50
   5   1   5    6.28    0.40
   5   1   5    6.69    0.46
   5  -1   5    5.31    0.50
   5  -1   5    6.47    0.43
   5  -1   5    6.04    0.45
   5  -1   5    5.74    0.41
  -5   1  -6    6.41    0.45
   5   1   6    6.22    0.42
   5   1   6    6.63    0.48
   5   1   6    5.86    0.38
   5   1   6    6.96    0.43
   5  -1   6    6.72    0.45
   5  -1   6    5.90    0.42
   5  -1   6    5.92    0.47
  -5   1  -7    0.04    0.07
   5   1   7    0.07    0.07
   5   1   7    0.05    0.09
   5   1   7    0.07    0.06
   5   1   7    0.00    0.02
   5  -1   7   -0.02    0.09
   5  -1   7    0.01    0.07
   5  -1   7    0.10    0.09
   5   1   8    2.40    0.20
   5   1   8    2.92    0.16
   5   1   8    2.80    0.27
   5   1   8    2.65    0.22
   5   1   8    2.33    0.18
   5   1   8    2.19    0.18
   5   1   8    2.48    0.21
   5   1   8    2.83    0.21
   5  -1   8    2.63    0.16
   5  -1   8    2.62    0.25
   5  -1   8    2.79    0.26
   5  -1   8    2.52    0.22
   5   1   9   -0.01    0.04
   5   1   9    0.03    0.02
   5   1   9    0.03    0.08
   5   1   9   -0.05    0.12
   5   1   9    0.16    0.04
   5   1   9    0.07    0.04
   5   1   9    0.08    0.06
   5   1   9    0.11    0.09
   5   1   9    0.04    0.03
   5  -1   9    0.09    0.12
   5  -1   9    0.06    0.03
   5  -1   9    0.10    0.09
   5  -1   9   -0.02    0.05
   5  -1   9    0.16    0.11
   5   1  10    1.78    0.14
   5   1  10    1.71    0.23
   5   1  10    2.07    0.15
   5   1  10    1.66    0.14
   5   1  10    1.79    0.17
   5   1  10    2.05    0.19
   5   1  10    1.85    0.19
   5  -1  10    1.74    0.22
   5  -1  10    1.62    0.20
   5  -1  10    1.96    0.15
   5  -1  10    1.92    0.17
   5  -1  10    2.01    0.13
   5  -1  10    1.78    0.20
   5   1  11   11.01    0.69
   5   1  11   10.19    0.77
   5   1  11   10.54    0.68
   5   1  11    9.15    0.67
   5   1  11   10.55    0.67
   5   1  11   10.56    0.78
   5  -1  11    9.96    0.70
   5  -1  11   10.66    0.62
   5  -1  11   11.21    0.77
   5  -1  11   10.73    0.77
   5   1  12    3.71    0.26
   5   1  12    3.84    0.26
   5   1  12    3.86    0.27
   5   1  12    4.07    0.31
   5  -1  12    3.96    0.31
   5  -1  12    3.72    0.27
   5  -1  12    3.97    0.24
   5   1  13    0.79    0.08
   5   1  13    0.73    0.07
   5   1  13    0.63    0.08
   5   1  13    0.83    0.11
   5  -1  13    0.64    0.06
   5  -1  13    0.56    0.08
   5  -1  13    0.89    0.10
   5  -1  13    0.94    0.10
   5   1  14    0.10    0.02
   5   1  14    0.10    0.04
   5   1  14    0.18    0.08
   5   1  14    0.13    0.04
   5  -1  14    0.05    0.07
   5  -1  14    0.12    0.06
   5  -1  14    0.09    0.04
   5  -1  14    0.08    0.05
   5   1  15    0.03    0.04
   5   1  15    0.07    0.05
   5  -1  15    0.07    0.05
   5  -1  15    0.02    0.05
   5  -1  15    0.05    0.03
   5   1  16    0.37    0.04
   5  -1  16    0.42    0.05
   5  -1  16    0.36    0.04
   5  -1  16    0.32    0.05
  -5   2  17    0.94    0.10
  -5  -2  17    1.14    0.10
  -5   2  16   14.52    0.94
  -5   2  16   11.94    0.82
  -5  -2  16   12.78    0.95
  -5   2  15    0.14    0.07
  -5   2  15    0.09    0.03
  -5  -2  15    0.05    0.06
  -5  -2  15    0.11    0.03
  -5   2  14    1.70    0.12
  -5   2  14    1.77    0.17
  -5   2  14    1.78    0.15
  -5  -2  14    1.54    0.15
  -5  -2  14    1.77    0.15
  -5  -2  14    1.77    0.12
  -5   2  13    0.00    0.07
  -5   2  13    0.06    0.06
  -5   2  13    0.05    0.03
  -5   2  13    0.04    0.06
  -5  -2  13    0.08    0.06
  -5  -2  13    0.00    0.04
  -5  -2  13    0.03    0.03
  -5   2  12   55.45    3.62
  -5   2  12   55.02    3.59
  -5   2  12   48.44    3.49
  -5   2  12   53.52    3.44
  -5   2  12   55.82    3.89
  -5  -2  12   54.27    3.88
  -5  -2  12   54.49    3.56
  -5  -2  12   60.17    3.21
  -5   2  11    3.36    0.26
  -5   2  11    3.16    0.24
  -5   2  11    3.21    0.29
  -5   2  11    3.44    0.24
  -5   2  11    3.33    0.22
  -5  -2  11    3.07    0.21
  -5   2  10    0.10    0.05
  -5   2  10    0.03    0.03
  -5   2  10    0.07    0.05
  -5   2  10    0.05    0.06
  -5   2  10    0.01    0.03
  -5   2  10    0.06    0.10
  -5   2  10    0.01    0.06
  -5   2  10    0.04    0.02
  -5   2  10    0.03    0.05
  -5  -2  10    0.08    0.04
  -5   2   9    0.02    0.04
  -5   2   9    0.02    0.02
  -5   2   9    0.04    0.05
  -5   2   9    0.00    0.04
  -5   2   9    0.02    0.02
  -5   2   9    0.06    0.05
  -5   2   9    0.08    0.05
  -5   2   9   -0.01    0.08
  -5   2   9   -0.03    0.05
  -5  -2   9    0.03    0.03
  -5   2   8    0.19    0.04
  -5   2   8    0.10    0.04
  -5   2   8    0.07    0.03
  -5   2   8    0.13    0.06
  -5   2   8    0.07    0.08
  -5   2   8    0.10    0.03
  -5   2   8    0.12    0.05
  -5   2   8    0.08    0.05
  -5   2   8    0.10    0.04
  -5   2   7    9.15    0.58
  -5   2   7    8.30    0.53
  -5   2   7    8.41    0.55
  -5   2   6    7.03    0.48
   5   2  -6    6.33    0.45
  -5   2   6    7.00    0.43
   5   2  -6    7.19    0.47
  -5   2   6    7.35    0.45
   5   2  -6    6.23    0.41
  -5   2   6    7.47    0.51
  -5   2   5    5.62    0.37
   5   2  -5    4.77    0.29
   5   2  -5    4.04    0.39
   5   2  -5    4.78    0.32
   5   2  -5    4.93    0.34
  -5   2   5    5.33    0.30
  -5   2   5    5.12    0.32
  -5   2   5    3.79    0.30
  -5   2   5    4.31    0.31
  -5   2   5    4.84    0.34
  -5  -2   5    4.62    0.32
  -5  -2   5    4.01    0.40
  -5   2   4   18.30    1.09
  -5   2   4   16.20    1.03
  -5   2   4   13.26    0.97
   5   2  -4   17.27    1.01
  -5   2   4   17.26    0.97
  -5   2   4   16.21    1.00
   5   2  -4   17.36    0.98
   5   2  -4   13.92    1.13
  -5   2   4   13.95    0.99
   5   2  -4   16.06    1.12
   5   2  -4   17.41    0.91
  -5   2   4   14.17    1.09
  -5  -2   4   15.83    1.02
  -5  -2   4   14.65    1.13
   5   2  -3   26.70    1.58
  -5   2   3   23.91    1.71
   5   2  -3   26.68    1.53
  -5   2   3   22.65    1.56
  -5   2   3   26.52    1.53
  -5   2   3   25.32    1.57
  -5   2   3   25.36    1.71
   5   2  -3   25.65    1.73
   5   2  -3   27.43    1.43
   5   2  -3   23.84    1.73
  -5   2   3   26.26    1.70
  -5   2   3   22.18    1.52
  -5   2   3   26.38    1.60
  -5  -2   3   24.87    1.74
   5  -2  -3   22.39    1.71
  -5   2   2   46.37    3.36
  -5   2   2   52.18    3.16
   5   2  -2   52.86    2.82
  -5   2   2   50.55    3.09
  -5   2   2   51.40    3.34
   5   2  -2   50.31    3.37
  -5   2   2   51.95    3.02
   5   2  -2   52.67    3.02
  -5   2   2   46.44    3.36
   5   2  -2   50.40    3.10
   5   2  -2   45.25    3.37
   5  -2  -2   48.72    3.36
  -5  -2   2   50.23    3.38
  -5  -2   2   47.72    3.38
  -5   2   1    1.04    0.12
  -5   2   1    0.83    0.09
   5   2  -1    1.01    0.10
   5   2  -1    0.86    0.14
  -5   2   1    0.87    0.09
   5   2  -1    0.86    0.08
  -5   2   1    0.79    0.12
   5   2  -1    0.68    0.12
  -5   2   1    0.71    0.13
   5   2  -1    0.91    0.10
  -5  -2   1    0.67    0.14
   5  -2  -1    0.69    0.11
   5  -2  -1    0.72    0.12
  -5  -2   1    0.93    0.16
   5   2   0    0.74    0.10
  -5   2   0    0.80    0.08
   5   2   0    0.86    0.08
   5   2   0    0.25    0.10
  -5   2   0    0.71    0.09
  -5   2   0    0.71    0.11
   5   2   0    0.67    0.13
   5   2   0    0.69    0.09
  -5   2   0    0.36    0.09
  -5   2   0    0.56    0.13
   5   2   0    0.59    0.08
  -5  -2   0    0.46    0.14
  -5  -2   0    0.51    0.14
   5  -2   0    0.59    0.11
   5  -2   0    0.40    0.11
  -5   2  -1    3.26    0.29
   5   2   1    3.29    0.24
  -5   2  -1    3.19    0.30
   5   2   1    3.45    0.22
  -5   2  -1    3.89    0.25
   5   2   1    2.79    0.27
   5   2   1    3.41    0.29
   5   2   1    3.45    0.27
  -5   2  -1    3.24    0.27
   5   2   1    3.34    0.23
  -5   2  -1    3.55    0.24
  -5  -2  -1    2.88    0.29
   5  -2   1    3.12    0.30
   5   2   2    8.97    0.52
   5   2   2    9.09    0.58
   5   2   2    7.26    0.60
  -5   2  -2    8.95    0.54
   5   2   2    7.93    0.53
  -5   2  -2    7.43    0.58
  -5   2  -2    7.96    0.62
   5   2   2    8.48    0.49
  -5   2  -2    8.54    0.52
  -5   2  -2    7.13    0.61
   5  -2   2    7.53    0.61
  -5   2  -3    9.83    0.73
   5   2   3   10.14    0.67
   5   2   3   10.67    0.65
  -5   2  -3   10.62    0.66
  -5   2  -3   10.71    0.68
  -5   2  -3    9.71    0.77
   5   2   3   11.17    0.61
   5   2   3   11.58    0.73
   5  -2   3    9.09    0.76
  -5   2  -4   23.45    1.53
  -5   2  -4   20.52    1.58
   5   2   4   23.62    1.29
   5   2   4   21.96    1.41
   5   2   4   23.79    1.38
  -5   2  -4   22.16    1.39
   5   2   4   24.59    1.54
  -5   2  -4   22.03    1.43
   5  -2   4   22.80    1.52
   5  -2   4   19.76    1.57
   5   2   5    0.54    0.08
   5   2   5    0.57    0.07
   5   2   5    0.61    0.08
  -5   2  -5    0.46    0.09
  -5   2  -5    0.59    0.10
  -5   2  -5    0.63    0.11
   5   2   5    0.58    0.12
   5  -2   5    0.54    0.10
   5   2   6   10.36    0.61
   5   2   6   10.86    0.65
   5   2   6   10.27    0.75
   5   2   6    9.44    0.68
   5   2   6   11.40    0.67
  -5   2  -6   11.33    0.74
   5   2   6    9.50    0.67
   5  -2   6   10.59    0.74
   5   2   7    2.40    0.17
  -5   2  -7    2.79    0.24
   5   2   7    2.66    0.20
   5   2   7    2.30    0.17
   5   2   7    2.65    0.20
   5   2   7    2.63    0.19
   5   2   7    2.15    0.17
   5   2   7    2.48    0.26
   5   2   7    2.26    0.19
   5  -2   7    2.48    0.24
   5   2   8    4.78    0.36
   5   2   8    5.01    0.32
   5   2   8    4.68    0.40
   5   2   8    4.82    0.33
   5   2   8    4.79    0.32
   5   2   8    4.55    0.32
  -5   2  -8    5.23    0.38
   5   2   8    4.18    0.31
   5   2   8    5.01    0.36
   5  -2   8    4.77    0.39
   5  -2   8    4.57    0.29
   5   2   9    3.89    0.35
   5   2   9    3.79    0.25
   5   2   9    3.80    0.28
   5   2   9    3.60    0.25
   5   2   9    3.84    0.27
   5   2   9    4.10    0.26
   5   2   9    3.72    0.29
   5   2   9    3.23    0.24
  -5   2  -9    3.64    0.31
   5  -2   9    3.46    0.31
   5  -2   9    3.36    0.23
   5   2  10    3.22    0.24
   5   2  10    3.46    0.24
   5   2  10    3.02    0.25
   5   2  10    3.92    0.25
   5   2  10    3.55    0.28
   5   2  10    3.37    0.35
   5   2  10    3.66    0.24
   5   2  10    3.85    0.27
   5  -2  10    3.23    0.34
   5  -2  10    3.38    0.22
   5   2  11    0.38    0.06
   5   2  11    0.43    0.06
   5   2  11    0.31    0.06
   5   2  11    0.42    0.08
   5   2  11    0.36    0.04
   5   2  11    0.27    0.15
   5  -2  11    0.27    0.14
   5  -2  11    0.35    0.05
   5   2  12    0.03    0.05
   5   2  12   -0.01    0.06
   5   2  12    0.03    0.07
   5   2  12   -0.02    0.04
   5  -2  12    0.04    0.07
   5  -2  12    0.08    0.06
   5  -2  12    0.01    0.04
   5   2  13    2.88    0.19
   5   2  13    2.44    0.22
   5   2  13    2.96    0.20
   5   2  13    2.97    0.24
   5  -2  13    2.70    0.17
   5  -2  13    2.79    0.23
   5  -2  13    2.58    0.21
   5   2  14    0.01    0.05
   5   2  14    0.03    0.05
   5   2  14    0.03    0.03
   5  -2  14    0.03    0.06
   5  -2  14    0.04    0.02
   5  -2  14    0.05    0.05
   5   2  15    1.14    0.11
   5   2  15    1.24    0.08
   5  -2  15    1.11    0.11
   5  -2  15    1.14    0.10
   5   2  16    2.03    0.14
   5  -2  16    1.52    0.13
  -5   3  17    0.75    0.08
  -5   3  16    1.04    0.12
  -5  -3  16    0.92    0.10
  -5  -3  16    1.11    0.07
  -5   3  15    2.48    0.20
  -5  -3  15    2.31    0.19
  -5   3  14    3.73    0.27
  -5  -3  14    3.28    0.22
  -5   3  13    4.20    0.33
  -5   3  13    4.09    0.30
  -5   3  13    4.15    0.29
  -5  -3  13    4.11    0.26
  -5   3  12    0.03    0.02
  -5   3  12    0.04    0.05
  -5   3  12   -0.02    0.06
  -5   3  12    0.02    0.07
  -5  -3  12    0.07    0.04
  -5   3  11    5.41    0.46
  -5   3  11    6.44    0.44
  -5   3  11    5.91    0.40
  -5   3  11    6.77    0.47
  -5   3  11    6.65    0.43
  -5  -3  11    6.15    0.38
  -5   3  10    7.82    0.52
  -5   3  10    6.75    0.54
  -5   3  10    8.23    0.56
  -5   3  10    8.19    0.52
  -5   3  10    7.45    0.52
  -5   3  10    7.13    0.48
  -5   3   9   14.34    0.98
  -5   3   9   13.09    0.91
  -5   3   9   13.46    0.91
  -5   3   9   12.76    0.86
   5   3  -9   13.36    0.81
  -5   3   9   14.70    0.91
  -5   3   9   13.57    0.91
  -5   3   8    2.85    0.21
  -5   3   8    2.85    0.22
   5   3  -8    2.78    0.18
  -5   3   8    2.72    0.21
  -5   3   8    3.02    0.19
  -5   3   8    3.11    0.21
  -5   3   8    2.93    0.22
  -5   3   8    2.70    0.24
   5   3  -7    0.59    0.06
  -5   3   7    0.75    0.08
  -5   3   7    0.74    0.06
  -5   3   7    0.83    0.08
  -5   3   7    0.66    0.11
  -5   3   7    0.75    0.08
  -5   3   7    0.62    0.13
  -5   3   7    0.63    0.08
  -5   3   7    0.59    0.07
  -5   3   7    0.74    0.08
   5   3  -7    0.63    0.13
   5   3  -7    0.65    0.10
   5   3  -6    0.20    0.07
  -5   3   6    0.16    0.05
  -5   3   6    0.24    0.10
   5   3  -6    0.09    0.09
   5   3  -6    0.16    0.03
  -5   3   6    0.17    0.05
  -5   3   6    0.17    0.04
  -5   3   6    0.17    0.03
  -5   3   6    0.15    0.04
   5   3  -6    0.04    0.04
  -5   3   6    0.11    0.08
   5   3  -5   50.63    3.18
   5   3  -5   48.41    2.89
   5   3  -5   50.38    3.10
  -5   3   5   51.65    3.24
  -5   3   5   54.27    3.43
  -5   3   4   17.33    1.19
  -5   3   4   19.04    1.24
  -5   3   4   20.10    1.32
   5   3  -4   19.95    1.23
  -5   3   4   19.34    1.19
  -5   3   4   20.07    1.16
  -5   3   4   19.38    1.16
   5   3  -4   19.17    1.11
   5   3  -4   18.68    1.18
   5   3  -3    7.78    0.51
  -5   3   3    7.39    0.47
   5   3  -3    7.69    0.48
  -5   3   3    7.77    0.47
   5   3  -3    7.44    0.45
  -5   3   3    8.04    0.48
  -5   3   3    7.10    0.55
  -5   3   3    6.75    0.50
  -5   3   2    0.67    0.08
  -5   3   2    0.63    0.09
   5   3  -2    0.82    0.12
   5   3  -2    0.96    0.09
   5   3  -2    0.89    0.09
  -5   3   2    0.74    0.12
  -5   3   2    0.85    0.10
  -5   3   1   17.93    1.13
   5   3  -1   19.43    1.16
   5   3  -1   18.98    1.13
   5   3  -1   18.84    1.06
  -5   3   1   18.02    1.26
  -5   3   1   17.14    1.18
  -5   3   1   18.33    1.16
   5   3   0   47.12    2.81
  -5   3   0   45.94    2.74
  -5   3   0   43.72    2.81
  -5   3   0   46.16    3.03
   5   3   0   44.32    2.56
  -5   3   0   41.51    2.86
   5   3   0   47.18    2.73
  -5   3  -1   39.95    2.37
   5   3   1   38.23    2.42
   5   3   1   37.91    2.62
   5   3   1   38.28    2.21
   5   3   1   40.64    2.36
  -5   3  -1   39.53    2.62
  -5   3  -1   37.58    2.43
  -5   3  -2    9.81    0.74
   5   3   2   10.67    0.67
  -5   3  -2   10.59    0.66
   5   3   2    9.98    0.62
   5   3   2   10.89    0.65
   5   3   2   10.84    0.75
  -5   3  -2   10.56    0.69
   5   3   3   12.96    0.76
   5   3   3   11.62    0.73
  -5   3  -3   12.37    0.87
   5   3   3   11.81    0.78
  -5   3  -3   12.21    0.78
   5   3   3   13.37    0.88
  -5   3  -3   12.38    0.81
   5   3   4    3.18    0.23
   5   3   4    3.30    0.23
   5   3   4    3.38    0.23
  -5   3  -4    3.35    0.25
   5   3   4    3.53    0.22
   5   3   4    3.30    0.22
   5   3   4    3.24    0.22
   5   3   4    3.88    0.31
  -5   3  -4    3.25    0.29
  -5   3  -4    3.53    0.28
   5   3   4    3.26    0.25
   5   3   5    0.10    0.05
   5   3   5    0.23    0.05
  -5   3  -5    0.24    0.11
   5   3   5    0.17    0.06
  -5   3  -5    0.18    0.03
   5   3   5    0.18    0.02
  -5   3  -5    0.21    0.08
   5   3   5    0.25    0.05
   5   3   5    0.11    0.03
   5   3   5    0.08    0.06
   5   3   5    0.26    0.11
   5   3   5    0.19    0.04
  -5   3  -5    0.29    0.11
   5   3   5    0.26    0.04
   5   3   6    7.43    0.51
  -5   3  -6    6.40    0.39
   5   3   6    6.56    0.42
   5   3   6    6.34    0.40
   5   3   6    5.94    0.48
   5   3   6    6.31    0.41
  -5   3  -6    6.48    0.44
   5   3   6    6.18    0.40
   5   3   6    6.53    0.42
   5   3   6    6.77    0.40
  -5   3  -6    6.75    0.50
   5   3   6    6.09    0.41
   5   3   6    6.36    0.48
   5   3   7    0.33    0.07
   5   3   7    0.32    0.13
   5   3   7    0.46    0.06
   5   3   7    0.42    0.05
  -5   3  -7    0.32    0.04
  -5   3  -7    0.46    0.13
   5   3   7    0.30    0.04
   5   3   7    0.34    0.04
   5  -3   7    0.18    0.10
  -5   3  -8    0.82    0.08
  -5   3  -8    0.86    0.15
   5   3   8    0.90    0.10
   5   3   8    0.87    0.17
   5   3   8    0.86    0.10
   5   3   8    0.91    0.08
   5   3   8    0.81    0.10
   5  -3   8    0.64    0.14
   5   3   9    2.98    0.19
   5   3   9    3.14    0.32
   5   3   9    3.18    0.20
   5   3   9    2.91    0.24
   5   3   9    2.95    0.24
  -5   3  -9    2.57    0.18
  -5   3  -9    2.58    0.28
   5  -3   9    1.92    0.27
   5   3  10    0.73    0.10
   5   3  10    0.58    0.17
  -5   3 -10    0.72    0.07
   5   3  10    0.69    0.10
   5   3  10    0.75    0.08
   5   3  10    0.75    0.07
   5  -3  10    0.65    0.07
   5   3  11   11.14    0.83
  -5   3 -11   11.58    0.68
   5   3  11   11.94    0.74
   5   3  11   10.87    0.72
   5   3  11   11.57    0.84
   5  -3  11   11.36    0.68
   5   3  12    2.00    0.20
  -5   3 -12    2.27    0.15
   5   3  12    2.19    0.17
   5   3  12    2.19    0.14
   5   3  12    2.06    0.19
   5  -3  12    1.85    0.18
   5  -3  12    2.30    0.14
   5   3  13    0.10    0.06
  -5   3 -13    0.04    0.04
   5   3  13   -0.02    0.05
   5   3  13   -0.01    0.08
   5  -3  13    0.04    0.04
   5  -3  13    0.00    0.06
   5   3  14    0.11    0.04
  -5   3 -14    0.20    0.04
   5   3  14    0.24    0.06
   5   3  14    0.13    0.05
   5  -3  14    0.08    0.06
   5  -3  14    0.23    0.03
   5   3  15    1.51    0.12
   5  -3  15    1.34    0.08
   5  -3  15    1.17    0.10
   5   4 -16    3.99    0.22
  -5  -4  16    3.23    0.21
  -5   4  15    0.08    0.05
  -5  -4  15    0.12    0.03
   5   4 -14    5.64    0.34
  -5   4  14    5.67    0.42
  -5   4  13    1.47    0.15
  -5   4  13    1.49    0.13
   5   4 -13    1.46    0.10
  -5  -4  13    1.58    0.11
  -5   4  12   29.28    1.90
  -5   4  12   27.09    2.04
   5   4 -12   30.41    1.68
  -5  -4  12   27.64    1.69
   5   4 -11    5.12    0.29
  -5   4  11    4.94    0.35
  -5   4  11    4.62    0.34
  -5   4  11    4.52    0.37
  -5   4  11    4.95    0.34
  -5   4  10    0.40    0.08
   5   4 -10    0.54    0.05
   5   4 -10    0.45    0.06
  -5   4  10    0.44    0.08
  -5   4  10    0.61    0.09
  -5   4  10    0.54    0.08
   5   4  -9    4.51    0.27
  -5   4   9    4.55    0.31
  -5   4   9    4.19    0.33
  -5   4   9    3.85    0.30
  -5   4   9    4.54    0.32
  -5   4   9    4.62    0.31
  -5   4   8    0.74    0.09
  -5   4   8    0.58    0.12
   5   4  -8    0.78    0.08
  -5   4   8    0.88    0.10
  -5   4   8    1.02    0.10
  -5   4   8    0.95    0.10
  -5   4   8    0.90    0.11
   5   4  -8    0.90    0.07
   5   4  -7   23.02    1.32
   5   4  -7   23.41    1.47
  -5   4   7   20.16    1.45
  -5   4   7   21.84    1.54
  -5   4   7   22.33    1.37
   5   4  -7   21.01    1.44
  -5   4   7   23.33    1.48
  -5   4   7   22.09    1.48
  -5   4   7   23.54    1.50
  -5   4   7   22.65    1.42
   5   4  -6   30.37    1.92
   5   4  -6   30.39    1.88
   5   4  -6   30.54    1.82
  -5   4   6   30.27    2.01
  -5   4   6   30.28    1.95
   5   4  -6   30.31    1.73
  -5   4   6   28.60    1.96
  -5   4   6   30.52    1.87
  -5   4   6   27.55    1.85
  -5   4   6   29.51    1.94
  -5   4   6   26.40    1.89
   5   4  -6   27.91    1.69
  -5   4   6   31.00    1.81
  -5   4   5    4.97    0.40
   5   4  -5    4.87    0.28
   5   4  -5    4.65    0.31
   5   4  -5    4.83    0.37
  -5   4   5    5.01    0.31
  -5   4   5    4.87    0.33
   5   4  -5    4.38    0.31
  -5   4   5    4.55    0.32
   5   4  -5    4.57    0.32
  -5   4   5    4.82    0.33
   5   4  -5    5.25    0.33
  -5   4   5    4.70    0.30
  -5   4   5    4.28    0.30
   5   4  -4    0.29    0.05
   5   4  -4    0.34    0.05
  -5   4   4    0.29    0.07
  -5   4   4    0.21    0.12
  -5   4   4    0.29    0.04
  -5   4   4    0.37    0.05
   5   4  -4    0.35    0.09
   5   4  -4    0.28    0.10
  -5   4   4    0.31    0.06
   5   4  -4    0.35    0.04
  -5   4   4    0.32    0.06
  -5   4   4    0.36    0.05
   5   4  -4    0.40    0.08
   5   4  -3    1.56    0.13
   5   4  -3    1.62    0.11
   5   4  -3    1.44    0.11
  -5   4   3    1.50    0.14
  -5   4   3    1.65    0.14
   5   4  -3    1.67    0.12
  -5   4   3    1.75    0.20
   5   4  -3    1.82    0.15
  -5   4   3    1.51    0.13
   5   4  -3    1.58    0.10
   5   4  -3    1.52    0.17
  -5   4   3    1.64    0.12
  -5   4   3    1.37    0.11
   5   4  -2    0.44    0.06
  -5   4   2    0.51    0.05
  -5   4   2    0.66    0.07
  -5   4   2    0.51    0.05
  -5   4   2    0.49    0.06
  -5   4   2    0.47    0.14
  -5   4   2    0.57    0.06
  -5   4   2    0.53    0.04
   5   4  -2    0.47    0.04
   5   4  -2    0.46    0.05
   5   4  -2    0.42    0.05
   5   4  -2    0.46    0.11
  -5   4   2    0.50    0.07
   5   4  -2    0.43    0.05
   5   4  -2    0.44    0.07
   5   4  -2    0.51    0.06
  -5   4   2    0.55    0.06
   5   4  -2    0.54    0.09
   5   4  -1   10.72    0.70
  -5   4   1   11.20    0.67
   5   4  -1   11.35    0.65
  -5   4   1   10.96    0.69
  -5   4   1   10.50    0.69
  -5   4   1    9.59    0.71
  -5   4   1   11.16    0.79
   5   4  -1   11.21    0.71
   5   4  -1   11.77    0.68
  -5   4   1   10.14    0.73
   5   4  -1   10.58    0.70
   5   4  -1   10.68    0.67
  -5   4   1   10.85    0.73
  -5   4   1   11.40    0.70
   5   4  -1   11.52    0.70
  -5   4   1   10.90    0.68
   5   4  -1   10.88    0.69
  -5   4   0   -0.02    0.05
  -5   4   0    0.02    0.04
   5   4   0   -0.08    0.06
  -5   4   0    0.04    0.04
   5   4   0    0.05    0.03
  -5   4   0    0.02    0.06
   5   4   0    0.03    0.07
  -5   4   0   -0.01    0.03
  -5   4   0    0.02    0.05
  -5   4   0    0.02    0.11
   5   4   0    0.06    0.05
  -5   4   0    0.05    0.03
   5   4   0    0.04    0.03
   5   4   0    0.03    0.04
   5   4   0    0.01    0.02
   5   4   0   -0.01    0.03
   5   4   0    0.00    0.03
  -5   4  -1    3.53    0.31
  -5   4  -1    3.49    0.24
  -5   4  -1    3.00    0.19
   5   4   1    3.35    0.22
  -5   4  -1    3.04    0.24
  -5   4  -1    3.20    0.23
   5   4   1    3.08    0.24
   5   4   1    3.13    0.22
   5   4   1    3.40    0.22
   5   4   1    3.59    0.27
   5   4   1    3.19    0.22
   5   4   1    3.43    0.23
  -5   4  -1    3.26    0.24
  -5   4  -1    3.24    0.22
   5   4   1    3.47    0.22
  -5   4  -1    3.30    0.22
  -5   4  -1    3.46    0.22
   5   4   1    3.42    0.23
   5   4   2   11.73    0.70
   5   4   2   11.79    0.76
   5   4   2   12.27    0.74
   5   4   2   11.97    0.85
  -5   4  -2   11.92    0.84
   5   4   2   11.03    0.74
   5   4   2   12.12    0.76
  -5   4  -2   10.90    0.74
  -5   4  -2   11.11    0.69
  -5   4  -2   10.82    0.78
   5   4   2   12.20    0.72
  -5   4  -2   12.02    0.74
   5   4   2   12.02    0.71
  -5   4  -2   11.05    0.77
  -5   4  -2   12.67    0.74
   5   4   2   11.27    0.74
  -5   4  -3    5.09    0.42
  -5   4  -3    4.95    0.31
   5   4   3    5.16    0.33
   5   4   3    4.71    0.34
   5   4   3    5.25    0.39
   5   4   3    5.39    0.34
  -5   4  -3    5.57    0.35
   5   4   3    5.34    0.33
   5   4   3    5.59    0.43
   5   4   3    5.07    0.34
  -5   4  -3    5.20    0.38
  -5   4  -3    5.85    0.37
   5   4   3    4.85    0.39
  -5   4  -3    5.18    0.34
  -5   4  -3    4.70    0.36
   5   4   4    0.26    0.03
   5   4   4    0.33    0.04
   5   4   4    0.32    0.05
  -5   4  -4    0.07    0.08
  -5   4  -4    0.30    0.05
  -5   4  -4    0.32    0.07
  -5   4  -4    0.20    0.05
  -5   4  -4    0.22    0.13
   5   4   4    0.26    0.07
   5   4   4    0.32    0.08
   5   4   4    0.46    0.11
   5   4   4    0.37    0.08
  -5   4  -4    0.14    0.10
  -5   4  -4    0.27    0.03
  -5   4  -5    2.06    0.18
   5   4   5    2.61    0.27
  -5   4  -5    2.03    0.14
   5   4   5    2.17    0.14
   5   4   5    2.33    0.18
   5   4   5    2.22    0.18
  -5   4  -5    2.02    0.20
  -5   4  -5    2.02    0.22
   5   4   5    2.19    0.16
  -5   4  -5    1.98    0.16
  -5   4  -5    1.83    0.22
  -5   4  -5    2.13    0.16
   5   4   5    2.24    0.20
   5   4   5    2.24    0.15
  -5   4  -6    1.05    0.10
   5   4   6    0.96    0.11
   5   4   6    1.02    0.08
  -5   4  -6    0.99    0.10
   5   4   6    0.98    0.18
   5   4   6    0.99    0.10
  -5   4  -6    0.82    0.13
  -5   4  -6    0.95    0.08
   5   4   6    1.08    0.09
  -5   4  -6    1.18    0.19
   5   4   6    1.27    0.14
  -5   4  -6    0.77    0.15
  -5   4  -7    3.00    0.31
   5   4   7    3.70    0.24
   5   4   7    3.36    0.32
  -5   4  -7    3.35    0.26
   5   4   7    4.20    0.29
  -5   4  -7    3.07    0.29
  -5   4  -7    3.20    0.34
   5   4   7    3.49    0.28
  -5   4  -7    3.46    0.26
   5   4   7    3.74    0.23
   5   4   7    4.05    0.26
  -5   4  -7    3.53    0.22
  -5   4  -8    1.10    0.12
   5   4   8    1.47    0.15
   5   4   8    1.27    0.11
   5   4   8    0.98    0.20
   5   4   8    1.23    0.10
   5   4   8    1.52    0.16
   5   4   8    1.22    0.09
  -5   4  -8    0.93    0.19
  -5   4  -8    1.42    0.10
   5   4   9   11.06    0.77
   5   4   9   10.82    0.69
   5   4   9   10.16    0.78
  -5   4  -9   10.21    0.63
   5   4  10   -0.03    0.04
   5   4  10    0.05    0.06
   5   4  10    0.02    0.06
  -5   4 -10    0.00    0.04
  -5   4 -10    0.04    0.04
  -5   4 -11    2.56    0.17
   5   4  11    3.02    0.21
  -5   4 -11    2.53    0.21
   5   4  11    2.81    0.24
   5   4  11    3.09    0.24
  -5   4 -12    1.43    0.10
   5   4  12    1.16    0.13
  -5   4 -12    1.45    0.12
   5   4  12    1.34    0.13
   5   4  12    1.44    0.11
   5  -4  12    1.51    0.11
   5   4  13    2.58    0.21
   5   4  13    2.31    0.20
  -5   4 -13    2.62    0.16
   5   4  13    2.51    0.17
   5  -4  13    2.49    0.16
   5   4  14    1.41    0.11
  -5   4 -14    1.05    0.08
   5  -4  14    1.20    0.08
   5   5 -14    0.30    0.03
  -5  -5  14    0.21    0.03
   5   5 -13    0.21    0.03
  -5   5  13    0.18    0.05
  -5   5  13    0.25    0.05
   5   5 -13    0.16    0.05
  -5  -5  13    0.28    0.04
   5   5 -12    0.54    0.06
  -5   5  12    0.27    0.05
  -5   5  12    0.20    0.07
   5   5 -12    0.38    0.04
   5   5 -11    0.14    0.03
  -5   5  11    0.16    0.05
  -5   5  11    0.12    0.07
   5   5 -11    0.24    0.05
  -5   5  11    0.20    0.06
   5   5 -10    2.14    0.17
   5   5 -10    2.03    0.15
  -5   5  10    2.04    0.16
   5   5 -10    2.01    0.13
  -5   5  10    2.13    0.17
  -5   5   9    0.58    0.08
  -5   5   9    0.57    0.10
  -5   5   9    0.67    0.10
   5   5  -9    0.60    0.06
  -5   5   9    0.56    0.08
   5   5  -9    0.66    0.08
   5   5  -9    0.59    0.07
  -5   5   8    0.11    0.06
  -5   5   8    0.08    0.05
  -5   5   8    0.14    0.08
  -5   5   8    0.15    0.08
   5   5  -8    0.10    0.05
   5   5  -8    0.08    0.03
   5   5  -8    0.07    0.04
  -5   5   7    0.09    0.05
   5   5  -7    0.01    0.05
   5   5  -7    0.06    0.05
  -5   5   7    0.04    0.04
  -5   5   7    0.09    0.08
  -5   5   7    0.07    0.05
   5   5  -7    0.06    0.03
   5   5  -7    0.05    0.04
  -5   5   7   -0.02    0.06
  -5   5   6    1.14    0.12
  -5   5   6    1.28    0.13
  -5   5   6    1.14    0.11
   5   5  -6    1.26    0.11
   5   5  -6    1.20    0.08
  -5   5   6    1.17    0.10
  -5   5   6    1.10    0.16
  -5   5   6    1.08    0.11
   5   5  -6    1.28    0.12
   5   5  -6    1.34    0.10
   5   5  -5   26.98    1.79
  -5   5   5   28.19    1.94
   5   5  -5   29.18    1.66
   5   5  -5   28.55    1.85
  -5   5   5   30.60    1.80
   5   5  -5   30.94    1.80
  -5   5   5   23.95    1.86
  -5   5   5   31.47    1.74
   5   5  -5   24.16    1.74
   5   5  -5   26.57    1.87
  -5   5   5   28.51    1.89
  -5   5   5   30.78    1.87
  -5   5   4    2.48    0.16
  -5   5   4    1.93    0.24
   5   5  -4    1.90    0.17
   5   5  -4    2.09    0.15
  -5   5   4    2.24    0.15
  -5   5   4    2.00    0.14
  -5   5   4    2.01    0.18
   5   5  -4    1.66    0.18
   5   5  -4    2.30    0.16
  -5   5   4    2.27    0.18
  -5   5   3    6.37    0.38
   5   5  -3    5.78    0.39
  -5   5   3    5.55    0.38
  -5   5   3    6.60    0.42
  -5   5   3    5.74    0.41
   5   5  -3    5.76    0.39
   5   5  -3    6.28    0.40
   5   5  -3    5.49    0.41
   5   5  -3    5.74    0.39
  -5   5   3    5.93    0.40
   5   5  -3    6.43    0.40
   5   5  -3    5.59    0.37
  -5   5   3    5.65    0.48
  -5   5   2    3.44    0.23
   5   5  -2    3.49    0.25
  -5   5   2    3.67    0.25
   5   5  -2    3.81    0.25
  -5   5   2    3.51    0.26
  -5   5   2    3.90    0.23
   5   5  -2    3.37    0.27
   5   5  -2    3.59    0.26
   5   5  -2    3.51    0.25
  -5   5   2    3.49    0.26
   5   5  -2    3.52    0.24
   5   5  -2    3.45    0.23
   5   5  -2    3.57    0.24
  -5   5   2    3.38    0.32
  -5   5   1    1.60    0.13
  -5   5   1    1.94    0.14
  -5   5   1    1.74    0.22
  -5   5   1    1.75    0.16
  -5   5   1    1.75    0.17
   5   5  -1    1.78    0.14
  -5   5   1    1.92    0.15
   5   5  -1    1.77    0.13
   5   5  -1    1.82    0.13
   5   5  -1    1.91    0.15
   5   5  -1    1.75    0.13
   5   5  -1    1.63    0.15
   5   5  -1    1.72    0.15
   5   5  -1    1.72    0.17
   5   5   0    1.28    0.11
  -5   5   0    1.30    0.14
  -5   5   0    1.20    0.11
   5   5   0    1.30    0.10
  -5   5   0    1.33    0.11
  -5   5   0    1.09    0.12
   5   5   0    1.25    0.09
   5   5   0    1.09    0.10
   5   5   0    1.24    0.10
  -5   5   0    1.26    0.09
  -5   5   0    0.99    0.13
  -5   5   0    1.28    0.12
   5   5   0    1.22    0.09
   5   5   0    1.13    0.11
  -5   5   0    1.17    0.20
   5   5   0    1.12    0.13
  -5   5   0    1.24    0.10
  -5   5  -1   32.87    2.26
   5   5   1   33.50    1.97
  -5   5  -1   32.86    2.14
   5   5   1   35.70    2.10
  -5   5  -1   34.82    2.35
  -5   5  -1   34.90    2.23
  -5   5  -1   35.70    2.17
  -5   5  -1   34.49    2.28
   5   5   1   36.12    2.17
  -5   5  -1   29.64    2.09
   5   5   1   37.64    2.48
  -5   5  -1   32.04    2.16
   5   5   1   32.56    2.15
   5   5   1   36.99    2.20
   5   5   2    0.30    0.06
  -5   5  -2    0.36    0.09
   5   5   2    0.41    0.09
  -5   5  -2    0.20    0.07
  -5   5  -2    0.41    0.08
  -5   5  -2    0.46    0.16
  -5   5  -2    0.29    0.05
  -5   5  -2    0.22    0.05
   5   5   2    0.30    0.06
   5   5   2    0.30    0.03
   5   5   2    0.32    0.05
  -5   5  -2    0.33    0.06
  -5   5  -2    0.21    0.08
   5   5   2    0.39    0.07
   5   5   3   10.00    0.64
  -5   5  -3   10.06    0.76
   5   5   3   10.24    0.66
  -5   5  -3   10.08    0.67
  -5   5  -3   10.20    0.68
  -5   5  -3    9.38    0.65
   5   5   3   10.23    0.65
  -5   5  -3   11.02    0.65
   5   5   3   11.16    0.75
   5   5   3    9.82    0.62
   5   5   3   10.58    0.63
  -5   5  -3    8.58    0.69
   5   5   4    0.28    0.03
   5   5   4    0.29    0.05
   5   5   4    0.38    0.09
  -5   5  -4    0.38    0.12
   5   5   4    0.38    0.05
  -5   5  -4    0.31    0.06
   5   5   4    0.24    0.04
  -5   5  -4    0.29    0.07
  -5   5  -4    0.31    0.05
  -5   5  -4    0.29    0.05
   5   5   4    0.09    0.08
  -5   5  -5    8.84    0.53
  -5   5  -5    7.85    0.62
  -5   5  -5    8.09    0.56
  -5   5  -5    7.41    0.48
  -5   5  -5    8.28    0.55
  -5   5  -5    7.73    0.56
   5   5   5    7.17    0.51
   5   5   5    8.71    0.52
   5   5   5    8.64    0.62
   5   5   5    8.82    0.54
  -5   5  -6    0.96    0.10
  -5   5  -6    0.98    0.11
   5   5   6    1.03    0.09
   5   5   6    0.97    0.12
  -5   5  -6    0.98    0.07
   5   5   6    1.01    0.09
  -5   5  -6    0.91    0.11
  -5   5  -7    8.87    0.58
   5   5   7   10.42    0.61
  -5   5  -7    9.34    0.66
   5   5   7    9.76    0.73
   5   5   7   10.43    0.64
   5   5   7    9.32    0.72
  -5   5  -7   10.12    0.63
  -5   5  -7   10.19    0.65
  -5   5  -8    0.12    0.07
  -5   5  -8    0.03    0.04
   5   5   8    0.06    0.04
   5   5   8    0.11    0.07
   5   5   8   -0.01    0.04
  -5   5  -8    0.06    0.03
   5   5   8    0.02    0.06
  -5   5  -9    0.20    0.06
  -5   5  -9    0.10    0.03
  -5   5  -9    0.21    0.07
   5   5   9    0.11    0.06
   5   5   9    0.13    0.04
   5   5   9    0.18    0.07
  -5   5 -10    1.13    0.11
  -5   5 -10    1.11    0.12
   5   5  10    1.43    0.12
  -5   5 -10    1.19    0.08
   5   5  10    1.30    0.12
  -5   5 -11    1.75    0.14
   5   5  11    1.90    0.13
  -5   5 -11    1.77    0.11
   5   5  11    1.85    0.15
  -5   5 -11    1.65    0.14
   5   5  12    0.14    0.03
  -5   5 -12    0.22    0.02
  -5   5 -12    0.20    0.04
  -5   5 -12    0.14    0.05
   5  -5  12    0.18    0.03
   5   5  13    3.34    0.25
   5   6 -12    4.10    0.27
   5   6 -11    0.12    0.04
  -5   6  11    0.04    0.03
   5   6 -11    0.22    0.03
   5   6 -10    2.36    0.19
   5   6 -10    2.88    0.18
  -5   6  10    2.64    0.19
  -5   6  10    2.47    0.19
  -5   6   9    0.48    0.07
   5   6  -9    0.33    0.05
  -5   6   9    0.36    0.06
   5   6  -9    0.28    0.06
   5   6  -9    0.33    0.05
   5   6  -9    0.32    0.06
   5   6  -8   10.97    0.76
  -5   6   8   12.13    0.78
   5   6  -8   11.77    0.74
  -5   6   8   12.12    0.78
  -5   6   8   10.73    0.74
   5   6  -8   10.70    0.77
   5   6  -8   12.30    0.74
   5   6  -7    0.00    0.04
   5   6  -7   -0.03    0.04
   5   6  -7   -0.04    0.04
  -5   6   7    0.03    0.05
  -5   6   7    0.05    0.08
   5   6  -7    0.05    0.05
  -5   6   7    0.00    0.05
   5   6  -6    9.93    0.61
  -5   6   6    8.92    0.64
   5   6  -6    9.84    0.60
   5   6  -6    8.92    0.62
  -5   6   6    9.73    0.63
  -5   6   6    9.01    0.61
  -5   6   5    0.43    0.08
  -5   6   5    0.49    0.10
   5   6  -5    0.52    0.05
   5   6  -5    0.39    0.05
   5   6  -5    0.43    0.07
  -5   6   5    0.45    0.08
   5   6  -4    1.93    0.14
  -5   6   4    1.80    0.16
  -5   6   4    1.76    0.14
  -5   6   4    1.91    0.16
  -5   6   4    1.82    0.14
   5   6  -4    1.86    0.14
   5   6  -4    1.73    0.13
  -5   6   3    0.13    0.04
  -5   6   3    0.13    0.05
   5   6  -3    0.09    0.03
  -5   6   3    0.14    0.07
  -5   6   3    0.20    0.06
   5   6  -3    0.13    0.06
   5   6  -3    0.11    0.03
   5   6  -3    0.14    0.03
   5   6  -2    0.19    0.05
  -5   6   2    0.24    0.03
   5   6  -2    0.34    0.06
  -5   6   2    0.30    0.06
   5   6  -2    0.33    0.07
  -5   6   2    0.24    0.05
  -5   6   2    0.18    0.07
   5   6  -2    0.23    0.04
  -5   6   2    0.26    0.07
  -5   6   1    2.85    0.21
   5   6  -1    3.26    0.23
  -5   6   1    3.24    0.22
  -5   6   1    3.52    0.24
   5   6  -1    3.21    0.22
   5   6  -1    3.27    0.23
   5   6  -1    3.46    0.21
  -5   6   1    2.90    0.23
   5   6   0    1.11    0.10
  -5   6   0    0.84    0.10
   5   6   0    1.06    0.09
  -5   6   0    0.99    0.10
  -5   6   0    0.89    0.09
  -5   6   0    0.95    0.10
   5   6   0    1.09    0.11
   5   6   0    1.06    0.08
   5   6   1    0.77    0.06
  -5   6  -1    0.53    0.06
  -5   6  -1    0.51    0.08
   5   6   1    0.74    0.07
  -5   6  -1    0.70    0.08
   5   6   1    0.86    0.10
   5   6   1    0.78    0.09
  -5   6  -1    0.84    0.11
  -5   6  -2    1.67    0.15
   5   6   2    1.92    0.16
  -5   6  -2    1.81    0.16
  -5   6  -2    1.91    0.14
   5   6   2    1.89    0.16
   5   6   2    2.01    0.13
   5   6   2    1.92    0.15
  -5   6  -2    2.09    0.17
   5   6   3    0.03    0.06
  -5   6  -3    0.01    0.08
   5   6   3    0.08    0.04
  -5   6  -3    0.10    0.04
   5   6   3   -0.03    0.06
  -5   6  -3    0.06    0.03
  -5   6  -3    0.01    0.04
  -5   6  -4    1.11    0.12
  -5   6  -4    1.15    0.10
   5   6   4    1.15    0.11
   5   6   4    1.01    0.11
   5   6   4    1.24    0.11
   5   6   4    1.20    0.12
  -5   6  -4    0.88    0.09
   5   6   5   -0.06    0.06
  -5   6  -5   -0.05    0.08
   5   6   5   -0.10    0.04
  -5   6  -5    0.05    0.04
   5   6   5   -0.04    0.05
  -5   6  -5    0.06    0.05
   5   6   6    0.55    0.07
  -5   6  -6    0.70    0.08
  -5   6  -6    0.84    0.09
   5   6   6    0.50    0.07
  -5   6  -6    0.65    0.07
   5   6   6    0.80    0.11
  -5   6  -7    0.01    0.04
   5   6   7    0.03    0.03
  -5   6  -7    0.05    0.04
   5   6   7   -0.01    0.05
   5   6   7   -0.02    0.06
  -5   6  -7    0.08    0.05
   5   6   8    1.45    0.11
   5   6   8    1.35    0.14
  -5   6  -8    1.30    0.12
  -5   6  -8    1.51    0.12
  -5   6  -8    1.27    0.10
   5   6   8    1.19    0.10
  -5   6  -9    0.05    0.04
   5   6   9    0.01    0.05
  -5   6  -9   -0.01    0.04
   5   6   9    0.04    0.03
  -5   6  -9    0.02    0.05
   5   6  10    0.10    0.03
  -5   6 -10    0.13    0.04
   5   6  10    0.08    0.05
  -5   6 -10    0.14    0.04
  -5   7   8    0.26    0.05
   5   7  -8    0.33    0.04
   5   7  -8    0.43    0.05
  -5   7   8    0.48    0.05
  -5   7   7    0.19    0.07
   5   7  -7    0.13    0.04
  -5   7   7    0.26    0.05
  -5   7   7    0.18    0.04
   5   7  -7    0.37    0.05
  -5   7   6    0.23    0.06
   5   7  -6    0.18    0.04
  -5   7   6    0.27    0.06
  -5   7   6    0.18    0.04
   5   7  -6    0.36    0.05
   5   7  -5   16.64    1.05
  -5   7   5   16.31    1.09
   5   7  -5   17.83    1.04
  -5   7   5   14.84    1.10
  -5   7   5   16.69    1.05
   5   7  -4    1.93    0.15
   5   7  -4    1.85    0.13
  -5   7   4    1.88    0.15
  -5   7   4    1.71    0.14
  -5   7   3    2.15    0.18
  -5   7   3    2.02    0.16
   5   7  -3    2.36    0.15
   5   7  -3    2.30    0.16
   5   7  -2   -0.01    0.03
   5   7  -2    0.04    0.02
   5   7  -2    0.04    0.06
  -5   7   2    0.13    0.06
  -5   7   2    0.04    0.05
   5   7  -1    5.09    0.33
   5   7  -1    5.26    0.34
  -5   7   1    5.24    0.35
  -5   7   1    5.41    0.37
   5   7  -1    5.60    0.36
   5   7   0    1.29    0.10
  -5   7   0    1.18    0.10
   5   7   0    1.25    0.11
  -5   7   0    1.40    0.15
   5   7   1   23.35    1.38
  -5   7  -1   20.61    1.41
  -5   7  -1   19.48    1.42
  -5   7  -1   25.01    1.49
   5   7   1   23.52    1.43
   5   7   1   23.20    1.44
   5   7   2    0.04    0.03
   5   7   2    0.02    0.04
  -5   7  -2    0.01    0.05
   5   7   2    0.01    0.04
  -5   7  -2    0.04    0.05
  -5   7  -2    0.02    0.02
  -5   7  -3    7.36    0.50
   5   7   3    7.46    0.48
  -5   7  -3    6.65    0.47
   5   7   3    8.12    0.46
   5   7   3    7.07    0.47
   5   7   4    0.06    0.04
   5   7   4    0.09    0.03
   5   7   4    0.04    0.03
  -5   7  -4    0.12    0.04
  -5   7  -4    0.12    0.05
  -5   7  -5    2.03    0.18
   5   7   5    2.48    0.17
  -5   7  -5    2.60    0.16
   5   7   6    1.12    0.08
   5   7   6    0.83    0.08
  -5   7  -6    0.90    0.08
  -5   7  -6    1.12    0.10
   5   7   7    9.66    0.54
   5   7   7    8.74    0.57
  -5   7  -7    8.95    0.56
  -5   7  -7    7.75    0.58
  -6   0  18    0.55    0.05
  -6   0  18    0.50    0.06
  -6   0  17   -0.04    0.04
  -6   0  17   -0.01    0.03
  -6   0  16    1.16    0.11
  -6   0  16    1.29    0.10
  -6   0  16    1.15    0.09
  -6   0  15   -0.02    0.04
  -6   0  15   -0.03    0.05
  -6   0  15    0.02    0.05
  -6   0  14   23.12    1.46
  -6   0  14   22.91    1.65
  -6   0  14   23.23    1.51
  -6   0  13   -0.09    0.07
  -6   0  13   -0.06    0.05
  -6   0  13    0.00    0.10
  -6   0  13   -0.01    0.06
  -6   0  13    0.02    0.05
  -6   0  12    3.52    0.32
  -6   0  12    3.56    0.32
  -6   0  12    3.25    0.32
  -6   0  12    4.28    0.28
  -6   0  12    4.57    0.31
  -6   0  12    3.83    0.31
  -6   0  12    4.07    0.24
  -6   0  12    4.35    0.27
  -6   0  11    0.00    0.04
  -6   0  11    0.02    0.07
  -6   0  11    0.07    0.04
  -6   0  11    0.02    0.05
  -6   0  11   -0.02    0.03
  -6   0  11   -0.04    0.10
  -6   0  11   -0.03    0.09
  -6   0  10   18.93    1.14
  -6   0  10   18.97    1.19
  -6   0  10   17.64    1.07
  -6   0  10   18.34    1.17
  -6   0  10   18.46    1.19
  -6   0  10   17.14    1.15
  -6   0   9    0.02    0.08
  -6   0   9    0.04    0.06
  -6   0   9    0.03    0.09
  -6   0   9    0.00    0.02
  -6   0   9    0.01    0.05
  -6   0   9    0.01    0.04
  -6   0   8   23.40    1.52
  -6   0   8   24.08    1.46
  -6   0   8   23.45    1.50
  -6   0   7    0.01    0.06
  -6   0   7   -0.05    0.07
  -6   0   7    0.01    0.08
  -6   0   6    5.93    0.40
  -6   0   6    6.30    0.42
  -6   0   6    5.95    0.42
  -6   0   5   -0.05    0.06
   6   0  -5    0.06    0.10
  -6   0   5   -0.02    0.09
  -6   0   5    0.09    0.11
  -6   0   5   -0.05    0.06
  -6   0   4    2.39    0.20
   6   0  -4    2.16    0.26
  -6   0   4    2.42    0.19
  -6   0   4    2.28    0.27
  -6   0   4    2.62    0.19
   6   0  -4    2.29    0.25
  -6   0   4    1.95    0.24
  -6   0   3    0.07    0.09
   6   0  -3   -0.02    0.08
   6   0  -3   -0.06    0.05
  -6   0   3    0.02    0.07
  -6   0   3    0.03    0.08
   6   0  -3   -0.11    0.09
   6   0  -3    0.09    0.10
  -6   0   3    0.08    0.11
  -6   0   2    8.69    0.60
  -6   0   2   10.43    0.70
   6   0  -2    8.83    0.60
   6   0  -2    9.53    0.59
  -6   0   2    9.80    0.64
   6   0  -2    8.15    0.68
   6   0  -2    9.25    0.69
  -6   0   2    9.58    0.59
  -6   0   2    8.21    0.68
   6   0  -1   -0.11    0.10
  -6   0   1    0.00    0.07
   6   0  -1    0.00    0.07
  -6   0   1   -0.05    0.11
  -6   0   1    0.01    0.04
  -6   0   1    0.01    0.07
  -6   0   1   -0.02    0.12
   6   0  -1    0.08    0.06
   6   0  -1    0.09    0.09
  -6   0   0    5.35    0.35
   6   0   0    5.14    0.41
  -6   0   0    4.99    0.34
  -6   0   0    5.08    0.35
  -6   0   0    4.94    0.43
   6   0   0    4.65    0.34
  -6   0   0    4.35    0.41
   6   0   0    5.18    0.41
   6   0   0    5.32    0.35
   6   0   0    5.18    0.35
  -6   0  -1   -0.01    0.10
  -6   0  -1    0.03    0.07
   6   0   1   -0.03    0.08
   6   0   1   -0.01    0.04
  -6   0  -1   -0.02    0.15
   6   0   1   -0.01    0.12
   6   0   1    0.10    0.08
  -6   0  -1    0.05    0.08
   6   0   1    0.08    0.07
  -6   0  -1   -0.02    0.04
   6   0   2  158.31   10.53
  -6   0  -2  166.49   10.61
  -6   0  -2  141.64   10.52
  -6   0  -2  157.05    9.80
  -6   0  -2  152.69    9.57
   6   0   2  159.74   10.61
   6   0   2  174.57    9.57
   6   0   2  155.15   10.60
   6   0   2  173.23    9.80
  -6   0  -2  147.66   10.61
   6   0   3    0.05    0.08
   6   0   3    0.02    0.11
  -6   0  -3    0.17    0.12
   6   0   3    0.04    0.07
  -6   0  -3    0.17    0.12
   6   0   3    0.04    0.07
   6   0   3    0.06    0.07
   6   0   4    2.78    0.21
   6   0   4    1.94    0.27
   6   0   4    2.96    0.23
   6   0   4    3.12    0.23
  -6   0  -4    2.33    0.28
   6   0   5    0.05    0.09
   6   0   5   -0.08    0.08
   6   0   5   -0.05    0.08
   6   0   6   10.86    0.75
   6   0   6   10.14    0.67
   6   0   6   10.51    0.69
   6   0   7    0.10    0.10
   6   0   7   -0.15    0.09
   6   0   7   -0.03    0.09
   6   0   7    0.00    0.03
   6   0   8   14.42    0.91
   6   0   8   14.58    0.81
   6   0   8   11.75    0.88
   6   0   8   14.30    0.91
   6   0   8   12.53    1.00
   6   0   8   14.73    0.88
   6   0   8   14.83    0.98
   6   0   9    0.03    0.03
   6   0   9    0.07    0.10
   6   0   9    0.06    0.09
   6   0   9    0.00    0.05
   6   0   9   -0.06    0.05
   6   0   9   -0.02    0.05
   6   0   9   -0.04    0.08
   6   0  10   18.66    1.33
   6   0  10   22.25    1.23
   6   0  10   21.29    1.37
   6   0  10   21.42    1.35
   6   0  10   21.54    1.52
   6   0  10   20.89    1.46
   6   0  10   20.36    1.31
   6   0  11   -0.01    0.05
   6   0  11   -0.05    0.04
   6   0  11    0.00    0.02
   6   0  11    0.02    0.10
   6   0  11    0.04    0.05
   6   0  12    3.18    0.20
   6   0  12    3.68    0.24
   6   0  12    3.53    0.28
   6   0  12    3.31    0.24
   6   0  12    3.49    0.24
   6   0  13    0.03    0.05
   6   0  13   -0.02    0.04
   6   0  13    0.03    0.05
   6   0  13    0.04    0.06
   6   0  14    0.22    0.06
   6   0  14    0.17    0.06
   6   0  14    0.15    0.04
   6   0  14    0.27    0.06
   6   0  15    0.02    0.03
   6   0  15   -0.01    0.03
   6   0  15   -0.02    0.04
   6   0  15   -0.05    0.05
   6   0  16    0.86    0.08
  -6   1  18    1.09    0.10
  -6  -1  18    1.19    0.09
  -6   1  17    0.80    0.10
  -6   1  17    0.84    0.07
  -6  -1  17    0.90    0.10
  -6  -1  17    0.89    0.07
  -6  -1  17    0.86    0.08
  -6   1  16    0.44    0.08
  -6   1  16    0.45    0.05
  -6  -1  16    0.37    0.07
  -6  -1  16    0.35    0.06
  -6  -1  16    0.57    0.06
  -6  -1  16    0.23    0.07
  -6   1  15    6.95    0.49
  -6   1  15    6.48    0.42
  -6  -1  15    5.94    0.49
  -6  -1  15    6.95    0.48
  -6  -1  15    6.64    0.44
  -6  -1  15    6.29    0.43
  -6   1  14    4.04    0.29
  -6   1  14    3.40    0.24
  -6   1  14    3.46    0.25
  -6   1  14    3.58    0.24
  -6  -1  14    3.55    0.22
  -6  -1  14    3.61    0.28
  -6  -1  14    3.73    0.26
  -6  -1  14    3.94    0.26
  -6   1  13    0.60    0.07
  -6   1  13    0.49    0.07
  -6   1  13    0.60    0.07
  -6   1  13    0.71    0.08
  -6  -1  13    0.63    0.08
  -6  -1  13    0.56    0.08
  -6  -1  13    0.57    0.06
  -6  -1  13    0.54    0.08
  -6   1  12    0.44    0.09
  -6   1  12    0.59    0.07
  -6   1  12    0.56    0.08
  -6   1  12    0.73    0.08
  -6   1  12    0.73    0.14
  -6   1  12    0.60    0.07
  -6   1  12    0.64    0.07
  -6  -1  12    0.66    0.09
  -6  -1  12    0.40    0.11
  -6  -1  12    0.65    0.07
  -6  -1  12    0.66    0.06
  -6  -1  12    0.67    0.08
  -6   1  11    8.91    0.64
  -6   1  11    8.79    0.61
  -6   1  11    8.63    0.61
  -6   1  11    9.33    0.60
  -6   1  11    8.96    0.60
  -6   1  11    9.08    0.58
  -6   1  11    9.88    0.66
  -6   1  11    9.24    0.58
  -6  -1  11    9.16    0.60
  -6  -1  11    8.15    0.64
  -6  -1  11    8.74    0.54
  -6  -1  11    9.55    0.61
  -6   1  10   19.00    1.16
  -6   1  10   20.32    1.30
  -6   1  10   18.65    1.20
  -6   1  10   17.22    1.21
  -6   1  10   17.25    1.15
  -6   1  10   18.70    1.19
  -6   1  10   19.20    1.13
  -6   1  10   17.12    1.20
  -6  -1  10   18.04    1.14
  -6  -1  10   17.63    1.18
  -6  -1  10   17.14    1.19
  -6  -1  10   19.10    1.07
  -6  -1  10   16.66    1.18
  -6   1   9    6.33    0.43
  -6   1   9    6.19    0.44
  -6   1   9    5.74    0.41
  -6   1   9    6.08    0.40
  -6   1   9    6.28    0.40
  -6   1   9    5.73    0.35
  -6   1   9    5.70    0.41
  -6   1   9    6.18    0.39
  -6   1   9    6.21    0.42
  -6  -1   9    5.87    0.36
  -6  -1   9    6.10    0.40
  -6  -1   9    5.93    0.44
  -6  -1   9    5.81    0.42
  -6  -1   9    6.02    0.42
  -6   1   8    2.22    0.21
  -6   1   8    2.22    0.18
  -6   1   8    2.60    0.15
  -6   1   8    2.64    0.21
  -6  -1   8    2.21    0.20
  -6  -1   8    2.33    0.23
  -6   1   7   19.52    1.23
  -6   1   7   21.00    1.27
  -6   1   7   19.83    1.30
  -6  -1   7   19.65    1.28
  -6  -1   7   19.61    1.29
  -6  -1   7   20.60    1.24
  -6   1   6    2.27    0.19
   6   1  -6    1.79    0.25
  -6   1   6    2.46    0.18
  -6   1   6    2.21    0.20
   6   1  -6    2.37    0.15
  -6  -1   6    2.19    0.27
  -6  -1   6    2.36    0.19
  -6  -1   6    2.41    0.21
  -6  -1   6    2.31    0.19
   6   1  -5   92.55    5.80
   6   1  -5   88.06    5.27
  -6   1   5   99.46    6.24
   6   1  -5   84.80    6.29
  -6   1   5   99.85    5.65
  -6   1   5   96.19    5.91
   6   1  -5   93.85    5.65
  -6   1   5   92.13    5.79
  -6  -1   5   86.35    6.29
  -6  -1   5   96.99    5.66
  -6  -1   5   88.58    6.29
  -6  -1   5   98.76    5.80
  -6  -1   5   97.94    5.91
   6   1  -4    0.84    0.14
   6   1  -4    0.51    0.10
  -6   1   4    0.83    0.10
   6   1  -4    0.72    0.09
   6   1  -4    0.63    0.13
  -6   1   4    0.72    0.11
  -6   1   4    0.76    0.10
  -6   1   4    0.69    0.10
  -6   1   4    0.44    0.14
  -6  -1   4    0.67    0.15
  -6  -1   4    0.68    0.10
  -6  -1   4    0.73    0.14
  -6  -1   4    0.70    0.09
  -6  -1   4    0.73    0.10
   6   1  -3    1.41    0.17
  -6   1   3    1.21    0.13
   6   1  -3    1.21    0.14
  -6   1   3    1.27    0.13
   6   1  -3    1.04    0.16
   6   1  -3    1.06    0.12
  -6   1   3    1.33    0.17
  -6   1   3    1.11    0.12
  -6   1   3    1.46    0.15
  -6  -1   3    1.27    0.14
  -6  -1   3    1.20    0.17
  -6  -1   3    1.55    0.20
  -6  -1   3    1.23    0.12
   6  -1  -3    1.23    0.16
   6  -1  -3    1.04    0.15
  -6   1   2   -0.01    0.07
  -6   1   2    0.00    0.07
   6   1  -2    0.07    0.10
  -6   1   2   -0.03    0.08
  -6   1   2    0.07    0.09
   6   1  -2    0.00    0.07
   6   1  -2   -0.08    0.08
   6   1  -2   -0.06    0.06
  -6   1   2    0.10    0.11
   6  -1  -2   -0.07    0.09
   6  -1  -2    0.03    0.09
  -6  -1   2   -0.07    0.07
  -6  -1   2   -0.08    0.10
  -6  -1   2   -0.02    0.12
  -6  -1   2   -0.09    0.07
   6   1  -1   32.95    2.61
  -6   1   1   35.33    2.62
   6   1  -1   41.57    2.34
   6   1  -1   37.51    2.62
  -6   1   1   37.42    2.62
  -6   1   1   44.69    2.40
   6   1  -1   41.40    2.40
  -6   1   1   40.99    2.34
  -6   1   1   37.74    2.58
   6  -1  -1   41.94    2.63
  -6  -1   1   34.31    2.62
  -6  -1   1   41.30    2.64
  -6  -1   1   35.77    2.34
   6  -1  -1   38.37    2.62
  -6  -1   1   36.17    2.40
  -6   1   0    2.20    0.25
  -6   1   0    2.21    0.18
  -6   1   0    2.32    0.20
   6   1   0    2.42    0.19
  -6   1   0    2.11    0.25
  -6   1   0    2.28    0.19
   6   1   0    2.47    0.24
   6   1   0    2.47    0.18
   6   1   0    2.18    0.22
   6   1   0    2.34    0.18
  -6  -1   0    2.24    0.26
   6  -1   0    2.03    0.18
  -6  -1   0    1.64    0.23
   6  -1   0    2.21    0.23
   6  -1   0    2.25    0.24
  -6  -1   0    2.13    0.18
   6  -1   0    2.10    0.20
  -6  -1   0    1.97    0.19
   6   1   1  107.44    6.00
   6   1   1  104.65    6.66
  -6   1  -1  106.35    6.00
   6   1   1  101.40    6.66
  -6   1  -1   92.12    6.66
  -6   1  -1   93.76    6.66
  -6   1  -1   98.00    6.15
  -6   1  -1  107.33    6.61
   6   1   1  104.01    6.15
   6   1   1  115.01    6.61
   6  -1   1   87.70    6.59
  -6  -1  -1  104.01    6.67
   6  -1   1   89.33    6.66
   6  -1   1   93.69    6.66
   6  -1   1   97.03    6.00
  -6  -1  -1   89.45    6.66
   6  -1   1   96.54    6.15
  -6   1  -2    1.26    0.13
  -6   1  -2    1.37    0.15
   6   1   2    1.25    0.17
   6   1   2    1.25    0.13
   6   1   2    1.14    0.15
  -6   1  -2    1.07    0.18
  -6   1  -2    1.28    0.14
  -6   1  -2    1.20    0.19
   6   1   2    1.38    0.13
   6   1   2    1.40    0.14
   6  -1   2    1.17    0.12
   6  -1   2    1.12    0.12
   6  -1   2    0.95    0.15
   6  -1   2    0.95    0.17
   6  -1   2    1.11    0.13
  -6  -1  -2    1.19    0.17
  -6   1  -3   34.62    2.43
  -6   1  -3   32.45    2.43
  -6   1  -3   38.85    2.22
  -6   1  -3   34.15    2.37
   6   1   3   35.51    2.38
   6   1   3   35.38    2.16
   6   1   3   38.53    2.21
  -6   1  -3   38.68    2.16
   6  -1   3   38.16    2.37
   6  -1   3   35.67    2.22
   6  -1   3   34.59    2.16
   6  -1   3   29.70    2.42
   6  -1   3   32.72    2.42
  -6   1  -4    3.59    0.25
  -6   1  -4    3.18    0.26
  -6   1  -4    3.50    0.27
   6   1   4    3.39    0.28
   6   1   4    3.58    0.25
  -6   1  -4    2.57    0.31
   6   1   4    3.38    0.25
   6  -1   4    3.54    0.26
   6  -1   4    3.52    0.27
   6  -1   4    3.47    0.27
   6   1   5    0.19    0.07
   6   1   5    0.21    0.07
  -6   1  -5    0.21    0.06
   6   1   5    0.13    0.08
   6  -1   5    0.24    0.09
   6  -1   5    0.08    0.07
   6  -1   5    0.27    0.10
   6   1   6    1.86    0.16
   6   1   6    2.35    0.20
   6   1   6    1.91    0.20
   6   1   6    2.09    0.18
   6  -1   6    2.09    0.20
   6  -1   6    2.00    0.20
   6  -1   6    1.94    0.19
   6   1   7    1.24    0.16
   6   1   7    1.03    0.13
   6   1   7    0.85    0.09
   6   1   7    1.15    0.14
   6   1   7    0.81    0.10
   6   1   7    1.04    0.09
   6   1   7    1.00    0.07
   6  -1   7    0.84    0.12
   6  -1   7    0.89    0.14
   6  -1   7    0.72    0.13
   6  -1   7    0.86    0.08
   6   1   8   -0.05    0.11
   6   1   8    0.05    0.04
   6   1   8    0.04    0.05
   6   1   8    0.06    0.11
   6   1   8    0.04    0.04
   6   1   8    0.00    0.02
   6   1   8    0.14    0.09
   6  -1   8    0.07    0.03
   6  -1   8   -0.02    0.10
   6  -1   8   -0.02    0.08
   6  -1   8    0.03    0.10
   6   1   9   15.73    0.88
   6   1   9   15.42    0.98
   6   1   9   15.65    0.98
   6   1   9   15.18    0.95
   6   1   9   14.39    1.09
   6   1   9   14.95    1.07
   6   1   9   16.79    0.97
   6   1   9   15.21    0.94
   6  -1   9   15.59    1.09
   6  -1   9   12.58    0.99
   6  -1   9   13.91    0.99
   6  -1   9   13.91    0.96
   6  -1   9   14.27    0.89
   6  -1   9   15.93    1.07
   6   1  10    3.02    0.26
   6   1  10    2.99    0.21
   6   1  10    2.91    0.25
   6   1  10    3.44    0.22
   6   1  10    2.75    0.31
   6   1  10    3.04    0.21
   6  -1  10    3.45    0.32
   6  -1  10    2.68    0.22
   6  -1  10    2.85    0.24
   6  -1  10    3.06    0.19
   6  -1  10    2.64    0.26
   6   1  11    0.22    0.07
   6   1  11    0.15    0.05
   6   1  11    0.09    0.11
   6   1  11    0.16    0.05
   6   1  11    0.17    0.06
   6  -1  11    0.15    0.06
   6  -1  11    0.18    0.05
   6  -1  11    0.25    0.04
   6  -1  11    0.11    0.14
   6   1  12    1.27    0.14
   6   1  12    1.00    0.11
   6   1  12    1.01    0.10
   6   1  12    1.17    0.11
   6  -1  12    1.01    0.11
   6  -1  12    1.10    0.08
   6  -1  12    1.04    0.11
   6   1  13    8.50    0.51
   6   1  13    7.40    0.50
   6   1  13    6.95    0.49
   6   1  13    8.08    0.57
   6  -1  13    7.74    0.45
   6  -1  13    7.21    0.52
   6  -1  13    7.88    0.57
   6   1  14    0.42    0.06
   6   1  14    0.47    0.09
   6   1  14    0.57    0.06
   6  -1  14    0.46    0.06
   6  -1  14    0.61    0.07
   6  -1  14    0.54    0.07
   6  -1  14    0.51    0.06
   6   1  15   10.08    0.61
   6   1  15    8.27    0.62
   6   1  15   10.78    0.70
   6  -1  15    8.77    0.62
   6  -1  15   10.14    0.63
   6  -1  15    9.56    0.70
   6   1  16    1.20    0.12
   6   1  16    1.62    0.10
   6  -1  16    1.39    0.10
   6  -1  16    1.36    0.10
  -6   2  17    0.26    0.05
  -6  -2  17    0.33    0.04
  -6  -2  17    0.25    0.04
  -6   2  16    2.02    0.14
  -6   2  16    2.65    0.18
  -6  -2  16    2.31    0.17
  -6  -2  16    2.06    0.18
  -6   2  15    5.20    0.39
  -6   2  15    5.44    0.33
  -6  -2  15    4.95    0.38
  -6  -2  15    5.05    0.31
  -6  -2  15    5.16    0.35
  -6   2  14   10.21    0.65
  -6   2  14   10.08    0.68
  -6   2  14   11.15    0.75
  -6  -2  14   10.16    0.60
  -6  -2  14    9.43    0.73
  -6  -2  14   10.00    0.68
  -6   2  13    0.06    0.04
  -6   2  13    0.06    0.04
  -6   2  13    0.05    0.03
  -6   2  13    0.07    0.07
  -6  -2  13    0.03    0.04
  -6  -2  13    0.05    0.06
  -6  -2  13    0.08    0.06
  -6   2  12   22.24    1.50
  -6   2  12   21.66    1.42
  -6   2  12   22.67    1.48
  -6   2  12   23.11    1.61
  -6  -2  12   21.38    1.47
  -6  -2  12   23.70    1.32
  -6   2  11   11.96    0.83
  -6   2  11   13.91    0.90
  -6   2  11   12.51    0.84
  -6   2  11   11.37    0.84
  -6   2  11   11.82    0.79
  -6  -2  11   12.75    0.74
  -6   2  10    8.57    0.55
  -6   2  10    8.46    0.56
  -6   2  10    8.76    0.58
  -6   2  10    8.62    0.60
  -6   2  10    8.13    0.53
  -6   2  10    9.07    0.58
  -6   2  10    9.39    0.63
  -6   2  10    7.89    0.55
  -6  -2  10    8.28    0.51
  -6   2   9    3.81    0.29
  -6   2   9    3.84    0.31
  -6   2   9    3.74    0.27
  -6   2   9    4.24    0.25
  -6   2   9    3.97    0.25
  -6   2   9    3.73    0.25
  -6   2   9    3.45    0.27
  -6   2   9    3.69    0.27
  -6   2   9    3.93    0.27
  -6  -2   9    3.75    0.24
  -6   2   8    1.16    0.11
  -6   2   8    1.24    0.09
  -6   2   8    1.17    0.12
  -6   2   8    1.22    0.12
  -6   2   8    1.15    0.14
  -6   2   8    1.28    0.13
  -6   2   8    1.14    0.11
  -6   2   8    1.14    0.09
  -6   2   8    1.15    0.10
  -6   2   7    1.18    0.12
  -6   2   7    1.31    0.12
  -6   2   7    1.32    0.10
  -6   2   7    1.03    0.11
  -6   2   7    1.33    0.15
  -6   2   7    1.40    0.11
  -6   2   7    1.15    0.09
  -6   2   6    6.58    0.45
   6   2  -6    6.05    0.43
   6   2  -6    6.33    0.39
   6   2  -6    5.78    0.45
  -6   2   6    7.01    0.43
  -6   2   6    6.56    0.41
  -6   2   6    7.12    0.49
   6   2  -5    4.01    0.31
  -6   2   5    4.24    0.31
   6   2  -5    4.21    0.29
   6   2  -5    4.16    0.27
  -6   2   5    4.29    0.33
  -6   2   5    4.59    0.28
  -6   2   5    4.32    0.29
  -6  -2   5    3.97    0.30
  -6   2   4    1.44    0.15
   6   2  -4    1.43    0.18
   6   2  -4    1.15    0.14
   6   2  -4    1.51    0.14
  -6   2   4    1.54    0.17
   6   2  -4    1.54    0.12
  -6   2   4    1.40    0.14
  -6   2   4    1.31    0.12
  -6  -2   4    1.18    0.21
  -6  -2   4    1.40    0.13
   6   2  -3   42.33    2.68
   6   2  -3   45.60    2.61
   6   2  -3   44.87    2.44
  -6   2   3   43.67    2.88
  -6   2   3   40.98    2.67
  -6   2   3   44.68    2.73
  -6   2   3   45.10    2.61
   6   2  -3   39.94    2.92
  -6  -2   3   38.67    2.93
   6   2  -2   12.82    0.73
  -6   2   2   12.47    0.87
   6   2  -2   12.09    0.90
  -6   2   2   12.97    0.78
   6   2  -2   12.86    0.78
  -6   2   2   13.22    0.82
   6   2  -2   12.88    0.81
  -6   2   2   11.88    0.80
  -6  -2   2   10.90    0.92
   6   2  -1    0.28    0.07
   6   2  -1    0.23    0.06
  -6   2   1    0.03    0.08
  -6   2   1    0.14    0.08
  -6   2   1    0.19    0.07
   6   2  -1    0.24    0.09
   6   2  -1    0.25    0.10
   6   2   0    2.35    0.25
   6   2   0    2.55    0.19
   6   2   0    2.88    0.22
  -6   2   0    2.54    0.21
  -6   2   0    2.57    0.20
   6   2   0    2.82    0.22
  -6   2   0    2.69    0.23
  -6   2   0    2.01    0.26
   6   2   0    2.65    0.19
  -6   2  -1   18.39    1.15
   6   2   1   19.01    1.27
   6   2   1   17.81    1.07
  -6   2  -1   18.67    1.27
  -6   2  -1   19.02    1.18
   6   2   1   18.94    1.14
   6   2   1   18.22    1.17
   6   2   2   46.20    2.89
  -6   2  -2   36.77    2.93
   6   2   2   44.54    2.61
  -6   2  -2   43.86    2.68
   6   2   2   43.26    2.44
  -6   2  -2   44.13    2.62
  -6   2  -2   41.65    2.88
   6   2   2   42.82    2.67
  -6   2  -3    5.39    0.37
   6   2   3    5.33    0.37
  -6   2  -3    5.55    0.39
  -6   2  -3    4.79    0.40
   6   2   3    6.01    0.42
   6   2   3    5.52    0.34
   6   2   3    5.52    0.36
   6   2   4    0.09    0.09
  -6   2  -4    0.04    0.07
   6   2   4    0.07    0.06
   6   2   4    0.16    0.08
  -6   2  -4    0.01    0.09
  -6   2  -4    0.14    0.08
   6   2   4    0.00    0.05
   6  -2   4    0.02    0.07
   6   2   5    1.12    0.12
   6   2   5    1.10    0.11
   6   2   5    0.96    0.09
   6   2   5    1.18    0.12
   6   2   5    1.33    0.15
   6   2   5    1.21    0.09
  -6   2  -5    1.02    0.13
  -6   2  -5    1.00    0.15
  -6   2  -5    0.98    0.12
   6  -2   5    0.81    0.12
   6   2   6    8.09    0.50
   6   2   6    7.66    0.55
   6   2   6    7.25    0.47
   6   2   6    7.49    0.49
   6   2   6    7.04    0.55
   6   2   6    7.05    0.49
  -6   2  -6    7.62    0.54
   6   2   6    6.81    0.54
   6   2   6    7.42    0.45
   6   2   6    8.34    0.48
   6  -2   6    6.98    0.54
  -6   2  -7    3.43    0.29
   6   2   7    3.37    0.24
   6   2   7    3.53    0.32
   6   2   7    3.37    0.27
   6   2   7    3.65    0.27
   6   2   7    3.56    0.24
   6   2   7    3.64    0.25
   6   2   7    3.44    0.27
   6   2   7    3.49    0.23
   6  -2   7    3.06    0.30
   6   2   8    0.83    0.08
   6   2   8    0.85    0.11
   6   2   8    0.88    0.08
   6   2   8    0.75    0.11
   6   2   8    0.90    0.11
   6   2   8    0.95    0.10
   6   2   8    0.82    0.14
   6   2   8    0.83    0.10
   6  -2   8    0.86    0.08
   6  -2   8    0.70    0.14
   6   2   9    0.92    0.11
   6   2   9    0.89    0.10
   6   2   9    1.07    0.11
   6   2   9    1.09    0.09
   6   2   9    0.95    0.12
   6   2   9    0.91    0.09
   6   2   9    1.11    0.16
   6   2   9    0.83    0.12
   6  -2   9    0.89    0.07
   6  -2   9    0.98    0.16
   6   2  10    0.12    0.07
   6   2  10    0.14    0.04
   6   2  10    0.18    0.15
   6   2  10    0.10    0.06
   6   2  10    0.14    0.07
   6   2  10    0.13    0.03
   6  -2  10    0.08    0.12
   6  -2  10    0.12    0.04
   6   2  11    0.70    0.08
   6   2  11    0.64    0.07
   6   2  11    0.61    0.05
   6   2  11    0.68    0.09
   6   2  11    0.68    0.10
   6  -2  11    0.59    0.09
   6  -2  11    0.56    0.06
   6   2  12    0.19    0.06
   6   2  12    0.12    0.07
   6   2  12    0.10    0.06
   6   2  12    0.10    0.04
   6  -2  12    0.06    0.04
   6  -2  12    0.05    0.06
   6  -2  12    0.10    0.06
   6   2  13    0.94    0.09
   6   2  13    1.16    0.09
   6   2  13    1.26    0.13
   6  -2  13    1.00    0.10
   6  -2  13    0.97    0.12
   6  -2  13    0.92    0.08
   6   2  14    6.32    0.47
   6   2  14    6.89    0.40
   6  -2  14    5.41    0.42
   6  -2  14    6.47    0.37
   6   2  15    0.69    0.05
   6   2  15    0.59    0.07
   6   2  15    0.42    0.05
   6  -2  15    0.62    0.06
   6  -2  16    0.02    0.02
  -6   3  16    1.40    0.12
  -6  -3  16    1.25    0.13
  -6  -3  16    1.27    0.08
  -6  -3  16    1.35    0.11
  -6   3  15    1.43    0.15
  -6   3  15    1.58    0.13
  -6  -3  15    1.49    0.10
  -6  -3  15    1.35    0.13
  -6   3  14    0.58    0.08
  -6   3  14    0.79    0.08
  -6   3  14    0.53    0.10
  -6  -3  14    0.78    0.07
  -6   3  13    0.30    0.08
  -6   3  13    0.31    0.06
  -6  -3  13    0.22    0.05
  -6  -3  13    0.20    0.05
  -6   3  12    6.32    0.43
  -6   3  12    6.17    0.39
  -6   3  12    5.86    0.42
  -6   3  12    6.24    0.47
  -6  -3  12    6.31    0.38
  -6   3  11    0.51    0.13
  -6   3  11    0.73    0.08
  -6   3  11    0.51    0.05
  -6   3  11    0.65    0.08
  -6   3  11    0.64    0.07
  -6  -3  11    0.64    0.07
  -6   3  10    3.90    0.28
  -6   3  10    3.40    0.23
   6   3 -10    3.41    0.22
  -6   3  10    3.55    0.26
  -6   3  10    3.88    0.26
  -6   3  10    3.37    0.26
  -6   3  10    3.53    0.31
  -6   3   9    3.77    0.27
  -6   3   9    3.96    0.27
  -6   3   9    3.64    0.25
   6   3  -9    3.70    0.24
  -6   3   9    3.66    0.31
  -6   3   9    4.30    0.28
  -6   3   9    3.77    0.29
  -6   3   8    3.72    0.32
  -6   3   8    4.87    0.34
   6   3  -8    4.21    0.26
  -6   3   8    4.44    0.30
  -6   3   8    4.08    0.27
  -6   3   8    4.16    0.30
  -6   3   8    4.52    0.30
  -6   3   8    4.01    0.29
  -6   3   7    0.03    0.06
  -6   3   7    0.07    0.05
  -6   3   7    0.00    0.04
  -6   3   7    0.10    0.03
   6   3  -7    0.07    0.03
  -6   3   7   -0.07    0.10
  -6   3   7   -0.01    0.06
  -6   3   7    0.04    0.05
  -6   3   7   -0.01    0.08
   6   3  -6    2.76    0.25
  -6   3   6    2.88    0.24
  -6   3   6    3.09    0.21
  -6   3   6    2.96    0.19
   6   3  -6    2.67    0.22
   6   3  -6    2.85    0.18
   6   3  -6    2.70    0.20
  -6   3   6    2.73    0.21
  -6   3   6    3.02    0.27
  -6   3   6    2.94    0.21
  -6   3   6    2.87    0.21
  -6   3   5   29.17    2.04
  -6   3   5   33.59    1.95
  -6   3   5   29.72    2.09
   6   3  -5   30.34    1.79
  -6   3   5   32.06    1.90
   6   3  -5   32.01    1.84
  -6   3   5   32.07    1.98
  -6   3   5   33.08    2.02
   6   3  -5   31.12    1.98
   6   3  -5   30.33    1.92
  -6   3   5   27.78    2.07
  -6   3   5   32.33    2.07
  -6   3   5   35.20    2.14
  -6   3   5   31.63    1.99
  -6   3   4    2.77    0.19
   6   3  -4    2.76    0.22
  -6   3   4    3.15    0.21
  -6   3   4    2.92    0.20
  -6   3   4    3.02    0.20
   6   3  -4    3.00    0.21
   6   3  -4    2.81    0.25
  -6   3   4    2.74    0.23
  -6   3   4    3.03    0.27
   6   3  -3   15.06    0.93
  -6   3   3   14.57    1.04
  -6   3   3   14.07    0.97
  -6   3   3   14.48    0.92
   6   3  -3   14.95    0.96
  -6   3   3   16.47    0.94
   6   3  -3   14.66    0.87
  -6   3   2    0.36    0.08
  -6   3   2    0.37    0.08
   6   3  -2    0.36    0.07
  -6   3   2    0.30    0.11
   6   3  -2    0.46    0.08
   6   3  -2    0.34    0.09
  -6   3   2    0.39    0.07
   6   3  -1   32.68    1.87
   6   3  -1   30.32    1.75
  -6   3   1   30.78    2.07
  -6   3   1   27.95    1.86
  -6   3   1   31.64    1.91
  -6   3   1   28.85    1.95
   6   3  -1   31.89    1.92
  -6   3   0   38.73    2.65
  -6   3   0   36.61    2.39
   6   3   0   42.26    2.39
  -6   3   0   40.76    2.46
  -6   3   0   37.89    2.50
   6   3   0   38.63    2.24
   6   3   0   40.47    2.46
   6   3   1   67.38    4.48
   6   3   1   69.56    4.05
   6   3   1   65.84    4.15
   6   3   1   64.93    3.79
  -6   3  -1   64.58    4.06
  -6   3  -1   67.84    4.16
  -6   3  -1   68.46    4.48
  -6   3  -2    1.85    0.21
   6   3   2    2.11    0.16
  -6   3  -2    1.98    0.21
   6   3   2    1.99    0.22
   6   3   2    1.94    0.16
  -6   3  -2    1.92    0.18
   6   3   2    2.18    0.18
  -6   3  -3    6.26    0.48
   6   3   3    7.00    0.48
  -6   3  -3    6.30    0.44
  -6   3  -3    6.26    0.38
   6   3   3    5.86    0.46
   6   3   3    6.28    0.42
   6   3   3    6.32    0.41
   6   3   3    6.64    0.40
   6   3   3    6.14    0.41
   6   3   3    5.98    0.40
   6   3   3    6.34    0.39
  -6   3  -3    6.48    0.43
   6   3   3    6.57    0.40
   6   3   3    5.89    0.46
   6   3   4   13.52    0.92
  -6   3  -4   14.30    0.89
  -6   3  -4   13.32    0.83
  -6   3  -4   13.98    0.92
   6   3   4   13.97    0.91
   6   3   4   13.45    1.02
   6   3   4   14.82    1.01
   6   3   4   13.70    0.89
   6   3   4   16.33    1.00
   6   3   4   14.59    0.87
   6   3   4   14.84    0.83
   6   3   4   14.33    0.87
   6   3   4   13.14    0.89
  -6   3  -4   13.42    0.99
  -6   3  -4   13.83    0.92
   6   3   5    0.89    0.11
   6   3   5    1.05    0.16
   6   3   5    0.96    0.12
  -6   3  -5    0.89    0.15
  -6   3  -5    1.35    0.17
   6   3   5    1.11    0.12
   6   3   5    1.11    0.09
  -6   3  -5    0.92    0.13
   6   3   5    1.04    0.09
  -6   3  -5    0.84    0.10
  -6   3  -5    0.86    0.08
   6   3   5    1.00    0.10
   6   3   5    0.93    0.10
   6   3   5    1.01    0.08
   6   3   5    1.05    0.09
  -6   3  -5    0.86    0.10
   6   3   6    4.41    0.29
  -6   3  -6    4.29    0.37
   6   3   6    4.28    0.29
   6   3   6    4.44    0.34
   6   3   6    4.36    0.29
   6   3   6    4.19    0.28
   6   3   6    4.21    0.29
  -6   3  -6    4.41    0.27
   6   3   6    4.84    0.38
   6   3   6    4.44    0.28
   6   3   6    4.36    0.34
   6   3   6    4.36    0.30
  -6   3  -7    0.37    0.13
  -6   3  -7    0.29    0.04
   6   3   7    0.19    0.04
   6   3   7    0.21    0.04
   6   3   7    0.34    0.11
   6   3   7    0.28    0.04
   6   3   7    0.25    0.04
   6   3   7    0.41    0.06
   6   3   7    0.26    0.03
   6   3   7    0.23    0.07
   6   3   7    0.26    0.06
  -6   3  -8    3.30    0.34
   6   3   8    3.68    0.30
   6   3   8    4.23    0.27
   6   3   8    3.62    0.25
   6   3   8    4.21    0.37
   6   3   8    3.89    0.30
  -6   3  -8    3.86    0.24
   6   3   9    0.03    0.05
   6   3   9    0.08    0.05
   6   3   9    0.26    0.15
   6   3   9    0.06    0.06
   6   3   9    0.02    0.04
  -6   3  -9    0.05    0.04
   6   3  10    8.35    0.52
   6   3  10    8.28    0.58
   6   3  10    7.61    0.58
   6   3  10    7.41    0.50
  -6   3 -10    7.46    0.47
   6  -3  10    7.61    0.47
   6   3  11    1.66    0.16
  -6   3 -11    1.41    0.11
   6   3  11    1.62    0.11
   6   3  11    1.57    0.13
   6   3  11    1.51    0.14
   6  -3  11    1.48    0.12
   6   3  12    0.01    0.07
   6   3  12    0.00    0.07
   6   3  12    0.02    0.03
   6   3  12    0.03    0.06
  -6   3 -12    0.02    0.03
   6  -3  12    0.03    0.03
   6   3  13    1.09    0.10
   6   3  13    0.83    0.09
   6   3  13    1.03    0.12
  -6   3 -13    0.95    0.09
   6  -3  13    1.03    0.08
   6   3  14    0.69    0.06
   6   3  14    0.73    0.08
  -6   3 -14    0.71    0.07
   6  -3  14    0.50    0.06
   6  -3  14    0.57    0.05
   6   3  15    2.16    0.17
   6   4 -15    2.38    0.14
  -6  -4  15    2.27    0.14
  -6   4  14    0.06    0.05
   6   4 -14    0.15    0.03
  -6  -4  14    0.14    0.04
   6   4 -13    6.71    0.37
  -6   4  13    5.58    0.45
  -6   4  13    5.89    0.42
  -6  -4  13    6.23    0.37
  -6   4  12   17.77    1.12
  -6   4  12   14.97    1.20
   6   4 -12   17.31    0.98
  -6  -4  12   16.56    0.99
  -6   4  11    0.11    0.07
  -6   4  11    0.00    0.04
  -6   4  11    0.07    0.05
   6   4 -11    0.04    0.03
  -6   4  11   -0.03    0.07
   6   4 -11    0.04    0.04
  -6   4  10    2.69    0.20
   6   4 -10    2.54    0.16
  -6   4  10    2.27    0.20
  -6   4  10    2.40    0.19
  -6   4  10    2.50    0.19
  -6   4   9    3.01    0.23
  -6   4   9    2.50    0.24
  -6   4   9    2.40    0.24
  -6   4   9    3.40    0.24
   6   4  -9    3.27    0.19
  -6   4   9    2.98    0.22
  -6   4   8    0.04    0.06
  -6   4   8    0.09    0.04
   6   4  -8    0.15    0.05
  -6   4   8    0.15    0.09
  -6   4   8    0.11    0.06
  -6   4   8    0.11    0.07
   6   4  -8    0.11    0.03
   6   4  -7    4.73    0.42
   6   4  -7    5.02    0.39
  -6   4   7    6.21    0.37
   6   4  -7    5.49    0.33
  -6   4   7    5.71    0.45
  -6   4   7    5.63    0.38
   6   4  -7    5.48    0.37
  -6   4   7    5.17    0.35
  -6   4   7    5.63    0.38
  -6   4   7    4.67    0.40
  -6   4   7    6.01    0.39
   6   4  -6    4.01    0.29
  -6   4   6    4.29    0.27
  -6   4   6    4.31    0.29
  -6   4   6    4.45    0.28
   6   4  -6    4.01    0.36
  -6   4   6    4.28    0.30
   6   4  -6    4.34    0.25
   6   4  -6    4.10    0.32
   6   4  -6    3.94    0.28
  -6   4   6    3.48    0.31
  -6   4   6    4.14    0.30
  -6   4   6    4.26    0.37
  -6   4   5    0.51    0.05
  -6   4   5    0.55    0.06
  -6   4   5    0.48    0.06
   6   4  -5    0.48    0.05
   6   4  -5    0.61    0.06
  -6   4   5    0.55    0.08
  -6   4   5    0.51    0.07
  -6   4   5    0.51    0.08
   6   4  -5    0.62    0.13
   6   4  -5    0.61    0.09
   6   4  -5    0.42    0.09
  -6   4   5    0.65    0.15
   6   4  -5    0.52    0.06
  -6   4   4    1.86    0.16
   6   4  -4    2.25    0.18
  -6   4   4    2.28    0.18
  -6   4   4    2.16    0.15
  -6   4   4    2.38    0.25
  -6   4   4    2.23    0.17
   6   4  -4    1.73    0.14
  -6   4   4    2.38    0.17
   6   4  -4    2.08    0.20
   6   4  -4    2.24    0.22
   6   4  -4    2.16    0.16
   6   4  -4    2.14    0.13
   6   4  -4    2.03    0.15
  -6   4   4    2.31    0.15
   6   4  -3    2.35    0.14
  -6   4   3    2.19    0.25
  -6   4   3    2.14    0.15
   6   4  -3    2.31    0.19
   6   4  -3    2.30    0.16
  -6   4   3    2.57    0.17
  -6   4   3    2.33    0.16
  -6   4   3    2.23    0.15
  -6   4   3    2.23    0.18
   6   4  -3    2.40    0.18
   6   4  -3    2.18    0.15
   6   4  -3    2.30    0.23
   6   4  -3    2.42    0.16
  -6   4   3    2.17    0.14
  -6   4   3    2.13    0.17
  -6   4   3    2.41    0.17
  -6   4   3    2.31    0.16
   6   4  -2   53.75    3.27
  -6   4   2   50.93    3.30
  -6   4   2   53.20    3.54
  -6   4   2   53.99    3.41
  -6   4   2   49.73    3.44
  -6   4   2   49.77    3.48
   6   4  -2   54.40    3.19
   6   4  -2   51.90    3.20
  -6   4   2   55.47    3.31
   6   4  -2   52.86    3.41
  -6   4   2   51.88    3.20
   6   4  -2   49.48    3.30
   6   4  -2   53.01    2.99
  -6   4   2   54.22    3.18
   6   4  -2   53.40    3.07
  -6   4   1    0.05    0.06
  -6   4   1    0.04    0.12
   6   4  -1    0.07    0.04
  -6   4   1    0.03    0.05
   6   4  -1   -0.07    0.07
  -6   4   1    0.08    0.03
  -6   4   1   -0.01    0.06
   6   4  -1    0.05    0.01
   6   4  -1    0.10    0.04
   6   4  -1    0.06    0.03
  -6   4   1    0.05    0.06
   6   4  -1    0.05    0.07
  -6   4   1    0.06    0.03
   6   4  -1    0.04    0.03
   6   4  -1    0.08    0.05
   6   4  -1    0.04    0.03
   6   4   0    0.08    0.04
  -6   4   0    0.08    0.12
   6   4   0   -0.02    0.04
   6   4   0    0.08    0.03
  -6   4   0    0.02    0.03
   6   4   0    0.11    0.06
  -6   4   0    0.06    0.03
   6   4   0    0.10    0.06
   6   4   0    0.05    0.03
  -6   4   0   -0.02    0.06
  -6   4   0    0.05    0.04
  -6   4   0   -0.03    0.07
   6   4   0    0.01    0.08
   6   4   0    0.05    0.07
  -6   4   0    0.11    0.06
   6   4   0    0.03    0.02
   6   4   1    8.55    0.59
  -6   4  -1    7.90    0.47
  -6   4  -1    7.43    0.53
  -6   4  -1    8.72    0.61
   6   4   1    8.21    0.50
   6   4   1    8.20    0.51
  -6   4  -1    7.99    0.51
  -6   4  -1    8.11    0.52
  -6   4  -1    7.05    0.51
   6   4   1    7.93    0.50
   6   4   1    7.93    0.52
   6   4   1    8.10    0.53
   6   4   1    8.44    0.52
   6   4   1    8.32    0.52
  -6   4  -1    7.98    0.55
   6   4   1    7.97    0.50
  -6   4  -1    7.42    0.54
   6   4   2    0.03    0.02
   6   4   2    0.05    0.03
  -6   4  -2    0.06    0.02
   6   4   2    0.07    0.04
   6   4   2    0.00    0.04
   6   4   2    0.07    0.08
  -6   4  -2    0.04    0.04
   6   4   2    0.07    0.04
  -6   4  -2    0.06    0.05
  -6   4  -2   -0.06    0.09
  -6   4  -2    0.13    0.06
  -6   4  -2    0.02    0.12
   6   4   2    0.02    0.04
   6   4   2    0.08    0.05
   6   4   2    0.18    0.06
   6   4   3    5.58    0.36
   6   4   3    5.20    0.36
  -6   4  -3    5.33    0.38
   6   4   3    6.18    0.47
   6   4   3    5.03    0.37
   6   4   3    5.62    0.42
  -6   4  -3    6.04    0.34
  -6   4  -3    5.20    0.37
   6   4   3    5.82    0.35
   6   4   3    5.77    0.38
  -6   4  -3    5.12    0.39
   6   4   3    6.33    0.36
   6   4   3    5.84    0.37
   6   4   3    5.95    0.36
  -6   4  -3    5.90    0.46
  -6   4  -3    5.49    0.40
   6   4   4    1.82    0.16
  -6   4  -4    2.12    0.25
  -6   4  -4    1.91    0.16
   6   4   4    2.14    0.16
  -6   4  -4    1.90    0.13
   6   4   4    2.31    0.27
  -6   4  -4    1.86    0.16
   6   4   4    2.17    0.19
   6   4   4    2.31    0.19
  -6   4  -4    1.91    0.15
  -6   4  -4    1.87    0.20
  -6   4  -4    1.68    0.20
   6   4   4    2.17    0.14
   6   4   4    2.00    0.14
  -6   4  -5    0.57    0.07
  -6   4  -5    0.48    0.15
   6   4   5    0.63    0.08
   6   4   5    0.65    0.10
   6   4   5    0.53    0.10
  -6   4  -5    0.48    0.05
  -6   4  -5    0.61    0.08
   6   4   5    0.62    0.06
   6   4   5    0.54    0.07
  -6   4  -5    0.61    0.12
  -6   4  -5    0.35    0.15
   6   4   5    0.54    0.16
  -6   4  -5    0.58    0.07
   6   4   5    0.65    0.06
   6   4   6    0.05    0.05
  -6   4  -6    0.06    0.10
   6   4   6   -0.08    0.08
   6   4   6    0.09    0.03
  -6   4  -6    0.09    0.05
  -6   4  -6    0.06    0.03
   6   4   6    0.01    0.05
  -6   4  -6    0.06    0.06
   6   4   6   -0.03    0.14
   6   4   6   -0.01    0.04
  -6   4  -6    0.07    0.11
  -6   4  -6    0.19    0.14
   6   4   7    7.84    0.63
   6   4   7    8.39    0.60
   6   4   7    8.67    0.54
   6   4   7    8.09    0.52
  -6   4  -7    7.14    0.62
   6   4   7    8.51    0.51
   6   4   7    7.89    0.61
  -6   4  -7    8.26    0.49
  -6   4  -7    8.08    0.56
  -6   4  -7    8.40    0.55
   6   4   8   13.14    0.92
  -6   4  -8   12.32    0.85
   6   4   8   12.47    0.94
  -6   4  -8   13.36    0.76
   6   4   8   12.07    0.79
   6   4   8   13.18    0.83
   6   4   8   12.88    0.80
  -6   4  -8   12.37    0.85
   6   4   9    4.09    0.31
   6   4   9    4.13    0.28
  -6   4  -9    4.11    0.29
   6   4   9    3.99    0.32
  -6   4  -9    4.07    0.25
   6   4   9    3.82    0.25
  -6   4 -10    0.08    0.03
   6   4  10    0.20    0.09
  -6   4 -10    0.06    0.06
   6   4  10    0.01    0.04
   6   4  10    0.04    0.08
   6   4  11    0.39    0.06
   6   4  11    0.52    0.07
   6   4  11    0.38    0.07
  -6   4 -11    0.38    0.05
   6  -4  11    0.42    0.05
   6   4  12    8.66    0.58
   6   4  12    9.54    0.65
  -6   4 -12    8.82    0.53
   6  -4  12    8.35    0.53
   6   4  13    0.55    0.07
  -6   4 -13    0.49    0.06
   6   4  13    0.61    0.06
   6  -4  13    0.61    0.05
  -6   4 -14    7.95    0.44
   6   4  14    7.40    0.55
   6  -4  14    7.18    0.44
   6   5 -14    0.12    0.02
  -6   5  14    0.09    0.04
  -6  -5  14    0.14    0.02
  -6   5  13    0.91    0.08
  -6   5  13    0.75    0.08
   6   5 -13    0.60    0.07
   6   5 -13    0.73    0.05
  -6  -5  13    0.65    0.06
  -6   5  12    2.63    0.19
   6   5 -12    2.71    0.19
   6   5 -12    2.50    0.16
  -6   5  11    5.54    0.37
   6   5 -11    4.69    0.34
   6   5 -11    5.36    0.36
  -6   5  11    5.56    0.37
   6   5 -11    5.28    0.32
   6   5 -10    0.07    0.04
  -6   5  10    0.11    0.07
  -6   5  10    0.05    0.07
   6   5 -10    0.05    0.04
  -6   5  10   -0.07    0.06
   6   5 -10    0.03    0.03
  -6   5   9   10.34    0.68
   6   5  -9   10.28    0.66
   6   5  -9    9.91    0.64
  -6   5   9   10.46    0.68
   6   5  -9    9.58    0.59
  -6   5   9    9.24    0.67
  -6   5   8    3.55    0.26
  -6   5   8    3.65    0.27
  -6   5   8    3.73    0.27
   6   5  -8    3.65    0.23
   6   5  -8    4.02    0.26
   6   5  -8    4.04    0.26
  -6   5   8    3.71    0.27
  -6   5   7    2.71    0.20
   6   5  -7    2.71    0.17
  -6   5   7    2.55    0.20
   6   5  -7    2.71    0.19
   6   5  -7    2.85    0.20
  -6   5   7    3.09    0.23
  -6   5   7    2.93    0.22
   6   5  -7    2.77    0.20
   6   5  -6    1.84    0.14
  -6   5   6    1.72    0.14
   6   5  -6    1.72    0.13
  -6   5   6    1.59    0.14
  -6   5   6    1.15    0.21
  -6   5   6    1.71    0.14
  -6   5   6    1.62    0.17
   6   5  -6    1.76    0.14
   6   5  -6    1.72    0.11
  -6   5   5    8.33    0.53
   6   5  -5    7.34    0.46
   6   5  -5    8.72    0.51
   6   5  -5    7.74    0.52
  -6   5   5    7.69    0.51
   6   5  -5    6.80    0.48
  -6   5   5    7.29    0.60
  -6   5   5    8.40    0.53
  -6   5   5    6.99    0.52
  -6   5   4    0.09    0.03
  -6   5   4   -0.01    0.09
  -6   5   4    0.07    0.07
   6   5  -4    0.04    0.04
   6   5  -4    0.01    0.07
  -6   5   4    0.12    0.05
  -6   5   4    0.07    0.05
   6   5  -4    0.11    0.04
   6   5  -4    0.07    0.04
   6   5  -4    0.13    0.04
  -6   5   3   24.02    1.62
   6   5  -3   24.93    1.49
  -6   5   3   25.49    1.71
  -6   5   3   23.34    1.77
  -6   5   3   26.23    1.70
  -6   5   3   27.81    1.63
   6   5  -3   27.70    1.63
   6   5  -3   26.56    1.62
   6   5  -3   26.16    1.67
   6   5  -3   24.30    1.57
   6   5  -2    8.05    0.50
   6   5  -2    7.53    0.51
   6   5  -2    7.75    0.52
   6   5  -2    7.84    0.50
   6   5  -2    7.73    0.51
  -6   5   2    6.92    0.60
  -6   5   2    8.09    0.55
   6   5  -2    8.46    0.53
  -6   5   2    7.17    0.51
  -6   5   2    8.43    0.54
  -6   5   2    8.70    0.52
   6   5  -2    8.69    0.52
   6   5  -1    1.56    0.18
  -6   5   1    2.04    0.14
   6   5  -1    1.94    0.14
  -6   5   1    2.21    0.16
   6   5  -1    2.14    0.16
   6   5  -1    2.09    0.14
   6   5  -1    1.82    0.14
   6   5  -1    1.88    0.15
   6   5  -1    1.83    0.16
   6   5  -1    1.97    0.18
  -6   5   1    1.81    0.16
  -6   5   1    1.70    0.23
  -6   5   1    1.86    0.16
   6   5   0    5.63    0.35
   6   5   0    5.11    0.34
  -6   5   0    5.26    0.38
  -6   5   0    5.25    0.35
   6   5   0    5.68    0.35
  -6   5   0    5.45    0.36
   6   5   0    5.74    0.35
   6   5   0    6.00    0.36
  -6   5   0    5.06    0.46
   6   5   0    5.63    0.36
   6   5   0    5.30    0.36
  -6   5   0    4.74    0.35
  -6   5   0    5.71    0.37
  -6   5   0    5.00    0.36
   6   5   0    4.76    0.36
  -6   5   0    5.12    0.35
  -6   5  -1   18.89    1.28
  -6   5  -1   18.74    1.41
   6   5   1   21.09    1.28
  -6   5  -1   20.27    1.34
  -6   5  -1   20.37    1.28
   6   5   1   18.97    1.18
   6   5   1   21.33    1.27
   6   5   1   22.42    1.47
   6   5   1   21.01    1.30
  -6   5  -1   20.58    1.35
  -6   5  -1   18.26    1.24
   6   5   1   20.48    1.24
  -6   5  -1   19.06    1.31
  -6   5  -2    0.13    0.05
   6   5   2    0.21    0.09
  -6   5  -2    0.12    0.05
  -6   5  -2    0.21    0.09
   6   5   2    0.05    0.05
   6   5   2    0.14    0.04
   6   5   2    0.04    0.05
   6   5   2    0.14    0.04
  -6   5  -2    0.07    0.04
  -6   5  -2    0.10    0.04
  -6   5  -2   -0.04    0.14
  -6   5  -2    0.13    0.07
   6   5   2    0.21    0.09
   6   5   3    8.24    0.47
  -6   5  -3    6.94    0.52
   6   5   3    7.03    0.48
  -6   5  -3    7.52    0.49
  -6   5  -3    7.45    0.58
   6   5   3    7.84    0.48
  -6   5  -3    7.30    0.51
   6   5   3    7.86    0.56
   6   5   3    7.11    0.49
  -6   5  -3    7.33    0.50
   6   5   3    7.90    0.50
   6   5   4    0.20    0.08
  -6   5  -4    0.14    0.08
  -6   5  -4    0.08    0.11
   6   5   4    0.13    0.05
  -6   5  -4    0.13    0.05
  -6   5  -4    0.16    0.05
   6   5   4    0.16    0.09
  -6   5  -4    0.14    0.08
   6   5   4    0.15    0.03
   6   5   4    0.06    0.06
  -6   5  -5   27.84    1.98
   6   5   5   32.72    2.15
  -6   5  -5   26.95    1.88
   6   5   5   30.98    1.91
   6   5   5   32.28    1.82
  -6   5  -5   30.84    1.96
   6   5   5   29.28    1.86
  -6   5  -5   27.02    1.74
  -6   5  -5   29.67    1.94
  -6   5  -6    0.11    0.03
   6   5   6    0.15    0.04
   6   5   6    0.14    0.05
  -6   5  -6    0.13    0.06
   6   5   6    0.19    0.09
  -6   5  -6    0.16    0.05
  -6   5  -6    0.10    0.06
  -6   5  -7    5.20    0.36
   6   5   7    5.44    0.42
  -6   5  -7    4.92    0.37
  -6   5  -7    4.88    0.32
   6   5   7    5.85    0.36
   6   5   7    5.80    0.35
  -6   5  -7    5.62    0.37
   6   5   8    0.10    0.03
  -6   5  -8    0.10    0.06
  -6   5  -8    0.06    0.07
  -6   5  -8    0.08    0.03
   6   5   8    0.03    0.08
   6   5   8    0.03    0.04
  -6   5  -9    4.26    0.30
  -6   5  -9    4.20    0.26
   6   5   9    4.32    0.34
  -6   5  -9    4.11    0.30
   6   5   9    4.41    0.29
   6   5  10    1.07    0.10
  -6   5 -10    1.09    0.09
   6   5  10    1.06    0.13
  -6   5 -10    1.04    0.10
  -6   5 -10    1.01    0.07
  -6   5 -11    2.09    0.14
  -6   5 -11    2.37    0.17
   6   5  11    2.36    0.16
   6   5  11    2.32    0.18
   6   5  12    0.11    0.04
  -6   5 -12    0.09    0.03
   6   5  12    0.13    0.03
   6  -5  12    0.13    0.03
  -6   6  12   19.08    1.11
   6   6 -12   14.48    1.09
  -6   6  11    0.65    0.08
   6   6 -11    0.87    0.07
  -6   6  11    0.71    0.07
  -6   6  10    4.12    0.29
  -6   6  10    4.47    0.30
   6   6 -10    3.68    0.27
   6   6 -10    4.18    0.28
  -6   6  10    4.37    0.29
  -6   6   9    1.11    0.11
  -6   6   9    1.46    0.14
   6   6  -9    1.26    0.10
   6   6  -9    1.27    0.10
   6   6  -9    1.24    0.10
  -6   6   9    1.21    0.10
  -6   6   8    5.29    0.37
   6   6  -8    5.30    0.35
  -6   6   8    5.38    0.37
   6   6  -8    5.03    0.36
   6   6  -8    5.69    0.35
   6   6  -7    0.08    0.04
   6   6  -7    0.12    0.04
  -6   6   7    0.10    0.05
   6   6  -7    0.19    0.05
  -6   6   7    0.24    0.06
  -6   6   7    0.05    0.08
   6   6  -6    6.39    0.44
  -6   6   6    6.82    0.45
  -6   6   6    6.78    0.47
   6   6  -6    7.26    0.45
  -6   6   6    6.41    0.47
   6   6  -6    7.20    0.45
  -6   6   5    0.40    0.08
  -6   6   5    0.29    0.09
   6   6  -5    0.31    0.06
  -6   6   5    0.34    0.09
   6   6  -5    0.51    0.06
   6   6  -5    0.52    0.06
   6   6  -4    7.29    0.44
  -6   6   4    6.15    0.44
   6   6  -4    6.79    0.45
  -6   6   4    6.32    0.47
   6   6  -4    7.07    0.45
  -6   6   4    6.83    0.47
  -6   6   3    1.17    0.12
  -6   6   3    1.16    0.13
  -6   6   3    1.04    0.10
   6   6  -3    1.06    0.08
   6   6  -3    0.93    0.09
   6   6  -3    1.08    0.10
   6   6  -3    1.17    0.10
   6   6  -2   14.78    1.02
  -6   6   2   15.83    1.01
  -6   6   2   15.50    0.99
   6   6  -2   15.75    0.97
   6   6  -2   16.49    1.00
  -6   6   2   14.87    1.05
   6   6  -2   16.67    1.01
  -6   6   2   16.49    1.06
  -6   6   1    2.29    0.16
  -6   6   1    2.34    0.18
   6   6  -1    2.12    0.17
  -6   6   1    2.04    0.19
   6   6  -1    2.50    0.16
   6   6  -1    2.23    0.16
  -6   6   1    2.37    0.18
   6   6  -1    2.39    0.17
  -6   6   0    0.12    0.05
   6   6   0    0.10    0.03
  -6   6   0    0.07    0.08
  -6   6   0    0.03    0.07
   6   6   0    0.13    0.06
   6   6   0    0.11    0.06
  -6   6   0    0.07    0.04
   6   6   0    0.12    0.04
   6   6   1    0.13    0.03
   6   6   1    0.18    0.06
  -6   6  -1    0.13    0.08
  -6   6  -1    0.15    0.05
  -6   6  -1    0.12    0.04
  -6   6  -1    0.23    0.06
   6   6   1    0.21    0.06
   6   6   1    0.20    0.05
  -6   6  -2    1.18    0.11
   6   6   2    1.15    0.12
   6   6   2    1.27    0.10
  -6   6  -2    1.06    0.10
   6   6   2    1.17    0.11
  -6   6  -2    1.07    0.13
  -6   6  -2    1.32    0.15
   6   6   2    1.27    0.08
  -6   6  -3    0.27    0.05
   6   6   3    0.13    0.04
  -6   6  -3    0.29    0.06
  -6   6  -3    0.19    0.07
   6   6   3    0.19    0.04
  -6   6  -3    0.20    0.03
   6   6   3    0.27    0.05
   6   6   4    0.09    0.04
  -6   6  -4    0.04    0.07
   6   6   4    0.09    0.05
  -6   6  -4    0.02    0.05
  -6   6  -4    0.10    0.04
  -6   6  -4    0.11    0.06
  -6   6  -5    0.03    0.05
   6   6   5    0.14    0.07
   6   6   5    0.07    0.05
   6   6   5    0.08    0.06
  -6   6  -5    0.06    0.04
  -6   6  -5    0.08    0.08
  -6   6  -5    0.09    0.04
   6   6   6    0.03    0.03
   6   6   6    0.06    0.06
   6   6   6    0.03    0.05
  -6   6  -6    0.07    0.05
  -6   6  -6    0.05    0.04
  -6   6  -6    0.06    0.05
   6   6   7    0.10    0.05
   6   6   7    0.06    0.04
  -6   6  -7    0.08    0.03
  -6   6  -7    0.10    0.05
   6   6   7    0.06    0.06
  -6   6  -7    0.04    0.06
  -6   6  -8    5.38    0.38
   6   6   8    6.26    0.38
  -6   6  -8    5.73    0.40
  -6   6  -8    5.56    0.39
   6   6   8    6.16    0.36
  -6   6  -9    0.05    0.04
  -6   6  -9    0.01    0.03
  -6   6  -9   -0.04    0.04
   6   6   9    0.02    0.03
   6   6   9   -0.04    0.04
   6   6  10    0.28    0.04
  -6   6 -10    0.24    0.03
   6   7  -8    0.82    0.07
  -6   7   8    0.89    0.08
   6   7  -8    0.96    0.07
   6   7  -7    2.06    0.13
  -6   7   7    1.83    0.14
  -6   7   7    1.95    0.14
   6   7  -7    1.64    0.13
  -6   7   6    5.65    0.42
  -6   7   6    6.71    0.43
  -6   7   6    5.35    0.41
   6   7  -6    7.11    0.40
   6   7  -6    6.53    0.41
  -6   7   5    3.45    0.26
  -6   7   5    3.95    0.26
  -6   7   5    3.46    0.26
   6   7  -5    3.96    0.25
   6   7  -5    3.78    0.25
  -6   7   4   -0.08    0.05
  -6   7   4    0.06    0.05
   6   7  -4    0.02    0.02
   6   7  -4    0.00    0.04
  -6   7   4    0.01    0.04
  -6   7   3    2.94    0.23
  -6   7   3    3.05    0.22
   6   7  -3    3.76    0.23
   6   7  -3    3.05    0.21
  -6   7   3    3.49    0.24
   6   7  -2    0.91    0.07
  -6   7   2    0.96    0.10
  -6   7   2    0.88    0.10
   6   7  -2    0.87    0.09
   6   7  -2    0.81    0.08
  -6   7   1    0.07    0.05
   6   7  -1    0.02    0.04
   6   7  -1    0.01    0.03
  -6   7   1   -0.01    0.05
   6   7  -1    0.00    0.02
  -6   7   0    0.26    0.05
  -6   7   0    0.19    0.06
   6   7   0    0.25    0.06
   6   7   0    0.21    0.05
   6   7   1    2.08    0.15
  -6   7  -1    2.07    0.13
  -6   7  -1    1.79    0.15
   6   7   1    2.07    0.15
  -6   7  -1    2.11    0.18
   6   7   1    2.08    0.14
   6   7   2    0.27    0.04
   6   7   2    0.13    0.06
  -6   7  -2    0.20    0.03
  -6   7  -2    0.16    0.06
   6   7   2    0.20    0.04
   6   7   3    2.70    0.17
  -6   7  -3    2.34    0.16
   6   7   3    2.41    0.17
   6   7   3    2.39    0.17
  -6   7  -3    2.38    0.18
   6   7   4    1.16    0.09
   6   7   4    1.27    0.09
  -6   7  -4    1.07    0.09
  -6   7  -5   11.53    0.78
  -6   7  -5   10.94    0.74
   6   7   5   11.89    0.75
   6   7   5   12.50    0.72
  -6   7  -6    0.03    0.04
   6   7   6    0.00    0.02
   6   7   6    0.03    0.03
  -6   7  -6   -0.02    0.02
  -7   0  18    0.04    0.02
  -7   0  17    0.00    0.03
  -7   0  17    0.01    0.04
  -7   0  16    2.65    0.21
  -7   0  16    2.52    0.18
  -7   0  16    3.05    0.20
  -7   0  15    0.00    0.05
  -7   0  15    0.01    0.04
  -7   0  15   -0.02    0.04
  -7   0  14    7.30    0.58
  -7   0  14    8.29    0.52
  -7   0  14    7.78    0.51
  -7   0  13   -0.02    0.05
  -7   0  13   -0.01    0.05
  -7   0  13   -0.03    0.07
  -7   0  12   10.13    0.68
  -7   0  12   10.06    0.66
  -7   0  12   10.58    0.61
  -7   0  12   11.16    0.75
  -7   0  12    9.20    0.70
  -7   0  11   -0.02    0.05
  -7   0  11   -0.01    0.05
  -7   0  11    0.04    0.06
  -7   0  11   -0.03    0.10
  -7   0  11   -0.02    0.02
  -7   0  11   -0.09    0.07
  -7   0  11   -0.15    0.10
  -7   0  10   26.83    2.07
  -7   0  10   31.29    1.94
  -7   0  10   27.87    1.99
  -7   0  10   33.22    2.04
  -7   0  10   34.22    1.85
  -7   0  10   33.53    2.06
  -7   0  10   34.56    2.00
  -7   0   9    0.01    0.04
  -7   0   9    0.00    0.09
  -7   0   9   -0.07    0.08
  -7   0   9   -0.03    0.04
  -7   0   9    0.00    0.02
  -7   0   8   29.60    1.76
  -7   0   8   28.52    1.84
  -7   0   8   31.64    1.81
  -7   0   8   27.53    1.68
  -7   0   8   26.31    1.86
  -7   0   7   -0.02    0.09
  -7   0   7   -0.06    0.08
  -7   0   7   -0.05    0.07
  -7   0   6    5.17    0.37
  -7   0   6    5.14    0.37
  -7   0   6    5.14    0.35
  -7   0   5    0.08    0.08
  -7   0   5    0.07    0.09
  -7   0   5    0.04    0.07
   7   0  -4    0.19    0.11
  -7   0   4    0.51    0.09
  -7   0   4    0.29    0.09
  -7   0   4    0.36    0.10
  -7   0   4    0.31    0.14
  -7   0   3   -0.07    0.14
  -7   0   3    0.02    0.10
  -7   0   3    0.13    0.10
   7   0  -3   -0.03    0.10
  -7   0   3    0.00    0.09
   7   0  -2   27.09    1.73
  -7   0   2   29.64    1.69
  -7   0   2   29.25    1.92
  -7   0   2   27.43    1.73
   7   0  -2   25.53    1.90
   7   0  -2   27.79    1.69
   7   0  -2   25.99    1.90
   7   0  -1   -0.10    0.10
   7   0  -1    0.04    0.06
   7   0  -1    0.02    0.11
  -7   0   1   -0.06    0.12
  -7   0   1    0.03    0.04
  -7   0   1   -0.08    0.11
   7   0  -1   -0.04    0.07
  -7   0   1    0.02    0.07
  -7   0   1    0.01    0.07
   7   0   0    7.65    0.48
   7   0   0    6.81    0.55
  -7   0   0    7.54    0.59
  -7   0   0    6.89    0.49
  -7   0   0    7.46    0.48
   7   0   0    7.11    0.49
  -7   0   0    6.35    0.56
   7   0   0    7.11    0.57
   7   0   0    7.15    0.47
  -7   0   0    7.46    0.48
   7   0   1   -0.06    0.07
   7   0   1    0.03    0.05
   7   0   1    0.00    0.14
  -7   0  -1   -0.10    0.09
   7   0   1    0.02    0.08
  -7   0  -1   -0.17    0.12
  -7   0  -1   -0.03    0.08
   7   0   1   -0.04    0.08
  -7   0  -1    0.07    0.09
   7   0   2   12.71    0.78
   7   0   2   12.09    0.91
   7   0   2   12.90    0.90
   7   0   2   11.94    0.85
   7   0   3   -0.01    0.06
   7   0   3   -0.05    0.08
   7   0   3    0.01    0.07
  -7   0  -3    0.04    0.12
   7   0   3   -0.05    0.11
   7   0   4    0.67    0.11
   7   0   4    0.53    0.10
   7   0   4    0.54    0.10
   7   0   5    0.09    0.10
   7   0   5    0.01    0.08
   7   0   5   -0.03    0.09
   7   0   6   40.29    2.41
   7   0   6   39.93    2.65
   7   0   6   36.57    2.31
   7   0   6   40.93    2.47
   7   0   7    0.08    0.10
   7   0   7    0.04    0.10
   7   0   7   -0.01    0.04
   7   0   7    0.02    0.12
   7   0   7    0.00    0.04
   7   0   7    0.01    0.03
   7   0   8   34.02    2.55
   7   0   8   41.36    2.66
   7   0   8   35.78    2.47
   7   0   8   40.21    2.41
   7   0   8   43.85    2.30
   7   0   8   40.20    2.47
   7   0   9   -0.05    0.05
   7   0   9    0.03    0.05
   7   0   9    0.02    0.11
   7   0   9    0.03    0.12
   7   0   9    0.05    0.10
   7   0   9   -0.04    0.03
   7   0   9    0.01    0.04
   7   0  10    2.09    0.19
   7   0  10    2.28    0.14
   7   0  10    2.21    0.27
   7   0  10    1.97    0.17
   7   0  10    2.25    0.17
   7   0  11    0.01    0.05
   7   0  11   -0.02    0.05
   7   0  11    0.02    0.06
   7   0  11    0.04    0.02
   7   0  12    3.27    0.25
   7   0  12    3.36    0.27
   7   0  12    3.40    0.24
   7   0  12    3.84    0.25
   7   0  13   -0.03    0.06
   7   0  13   -0.04    0.05
   7   0  13    0.01    0.07
   7   0  13    0.04    0.04
   7   0  14    4.69    0.32
   7   0  14    5.15    0.33
   7   0  14    4.63    0.37
   7   0  14    5.02    0.33
   7   0  15   -0.01    0.02
   7   0  15    0.03    0.03
   7   0  15    0.04    0.04
   7   0  15    0.03    0.03
   7   0  16    4.49    0.29
  -7   1  17   16.01    0.96
  -7  -1  17   14.69    0.97
  -7  -1  17   15.81    1.09
  -7  -1  17   14.66    1.00
  -7   1  16    0.22    0.06
  -7   1  16    0.28    0.05
  -7  -1  16    0.25    0.07
  -7  -1  16    0.23    0.05
  -7  -1  16    0.34    0.05
  -7   1  15    2.17    0.18
  -7   1  15    2.07    0.16
  -7  -1  15    2.25    0.18
  -7  -1  15    1.98    0.17
  -7  -1  15    2.28    0.16
  -7   1  14    0.06    0.05
  -7   1  14    0.17    0.07
  -7   1  14    0.05    0.05
  -7   1  14    0.11    0.03
  -7  -1  14    0.11    0.05
  -7  -1  14    0.09    0.02
  -7  -1  14    0.16    0.06
  -7  -1  14    0.09    0.06
  -7   1  13   18.18    1.25
  -7   1  13   16.62    1.15
  -7   1  13   18.44    1.13
  -7   1  13   18.10    1.10
  -7  -1  13   17.93    1.14
  -7  -1  13   16.63    1.02
  -7  -1  13   15.34    1.10
  -7  -1  13   17.50    1.25
  -7   1  12    1.95    0.16
  -7   1  12    1.76    0.20
  -7   1  12    1.83    0.16
  -7   1  12    2.20    0.19
  -7   1  12    1.95    0.15
  -7   1  12    2.24    0.15
  -7  -1  12    2.14    0.13
  -7  -1  12    1.97    0.16
  -7   1  11   13.50    0.95
  -7   1  11   13.88    0.94
  -7   1  11   14.90    0.90
  -7   1  11   14.05    0.88
  -7   1  11   16.04    1.02
  -7   1  11   13.28    0.94
  -7   1  11   11.98    0.91
  -7   1  11   13.94    0.92
  -7  -1  11   13.63    0.94
  -7  -1  11   14.55    0.83
  -7  -1  11   14.61    0.93
  -7   1  10    0.29    0.06
  -7   1  10    0.26    0.08
  -7   1  10    0.21    0.06
  -7   1  10    0.13    0.11
  -7   1  10    0.28    0.05
  -7   1  10    0.24    0.05
  -7   1  10    0.21    0.05
  -7   1  10    0.29    0.11
  -7  -1  10    0.39    0.07
  -7  -1  10    0.21    0.09
  -7  -1  10    0.35    0.13
  -7  -1  10    0.17    0.09
  -7  -1  10    0.25    0.04
  -7   1   9   26.51    1.53
  -7   1   9   24.24    1.73
  -7   1   9   24.96    1.64
  -7   1   9   26.02    1.72
  -7   1   9   28.14    1.86
  -7   1   9   26.14    1.65
  -7   1   9   27.26    1.69
  -7  -1   9   24.61    1.66
  -7  -1   9   26.63    1.53
  -7  -1   9   25.97    1.68
  -7   1   8    1.08    0.14
  -7   1   8    0.96    0.13
  -7   1   8    0.93    0.11
  -7   1   8    0.89    0.08
  -7   1   8    0.90    0.10
  -7   1   8    0.90    0.06
  -7   1   8    0.96    0.09
  -7  -1   8    0.93    0.12
  -7  -1   8    1.05    0.14
  -7  -1   8    1.02    0.13
  -7  -1   8    0.89    0.08
  -7   1   7    0.05    0.02
  -7   1   7    0.01    0.08
  -7   1   7    0.02    0.06
  -7   1   7    0.07    0.09
  -7  -1   7   -0.02    0.09
  -7  -1   7    0.05    0.09
  -7  -1   7   -0.04    0.07
  -7   1   6    4.16    0.28
   7   1  -6    3.66    0.25
  -7   1   6    3.64    0.28
  -7   1   6    3.79    0.29
  -7  -1   6    3.84    0.28
  -7  -1   6    4.12    0.29
  -7  -1   6    3.99    0.30
  -7   1   5   50.32    3.17
   7   1  -5   42.19    2.68
  -7   1   5   48.54    3.01
  -7   1   5   44.42    2.95
  -7   1   5   49.55    2.87
  -7  -1   5   48.13    2.95
  -7  -1   5   48.33    3.01
  -7  -1   5   47.28    2.88
   7   1  -4    0.81    0.16
   7   1  -4    1.55    0.16
  -7   1   4    1.47    0.17
  -7   1   4    1.56    0.16
  -7   1   4    1.40    0.14
   7   1  -4    1.40    0.14
  -7   1   4    1.62    0.15
  -7  -1   4    1.53    0.15
  -7  -1   4    0.91    0.17
  -7  -1   4    1.50    0.16
  -7   1   3   99.69    5.94
  -7   1   3   83.15    5.99
   7   1  -3   91.34    5.52
  -7   1   3   90.46    5.39
   7   1  -3   88.34    5.39
  -7   1   3   95.81    5.52
  -7  -1   3   89.21    5.52
  -7  -1   3   81.23    6.00
  -7  -1   3   90.72    5.39
  -7  -1   3   79.83    5.99
  -7   1   2   23.90    1.34
  -7   1   2   21.68    1.53
  -7   1   2   24.88    1.48
  -7   1   2   23.82    1.38
   7   1  -2   21.17    1.34
   7   1  -2   22.65    1.38
   7   1  -2   20.58    1.52
  -7  -1   2   20.59    1.38
  -7  -1   2   19.89    1.34
  -7  -1   2   18.39    1.52
  -7  -1   2   20.17    1.53
   7  -1  -2   22.95    1.53
   7   1  -1   -0.03    0.13
   7   1  -1   -0.01    0.09
  -7   1   1    0.09    0.12
   7   1  -1    0.00    0.08
  -7   1   1   -0.01    0.08
  -7   1   1    0.08    0.08
  -7   1   1    0.14    0.07
   7   1  -1    0.04    0.08
  -7  -1   1    0.20    0.13
   7  -1  -1   -0.01    0.10
  -7   1   0    3.31    0.33
  -7   1   0    3.82    0.27
   7   1   0    3.98    0.27
  -7   1   0    3.75    0.28
   7   1   0    3.59    0.35
  -7   1   0    3.84    0.28
   7   1   0    3.40    0.32
   7   1   0    4.11    0.28
  -7   1   0    3.06    0.35
   7   1   0    4.05    0.28
   7  -1   0    3.46    0.33
  -7  -1   0    3.21    0.35
  -7   1  -1   66.68    4.20
  -7   1  -1   54.67    4.26
  -7   1  -1   64.71    3.91
   7   1   1   59.57    4.25
   7   1   1   68.47    3.91
   7   1   1   67.50    3.81
  -7   1  -1   62.78    3.82
  -7   1  -1   60.69    4.26
   7   1   1   72.12    4.20
   7  -1   1   55.37    4.25
  -7  -1  -1   57.62    4.26
   7   1   2   15.65    0.93
  -7   1  -2   14.19    0.91
   7   1   2   13.48    1.04
  -7   1  -2   12.20    1.05
  -7   1  -2   14.98    0.99
   7   1   2   15.06    0.90
   7   1   2   16.06    0.99
  -7   1  -2   14.57    0.94
   7  -1   2   13.40    0.95
   7  -1   2   14.10    0.92
  -7   1  -3    0.07    0.07
   7   1   3    0.20    0.09
   7   1   3   -0.01    0.07
   7   1   3    0.13    0.07
  -7   1  -3    0.09    0.08
  -7   1  -3    0.08    0.09
   7  -1   3    0.12    0.08
   7  -1   3    0.01    0.06
   7  -1   3    0.06    0.07
   7   1   4   14.53    0.99
   7   1   4   14.01    0.89
   7   1   4   14.43    0.92
   7  -1   4   14.35    0.93
   7  -1   4   13.83    0.90
   7  -1   4   14.30    0.98
   7   1   5    8.87    0.58
   7   1   5    8.23    0.56
   7   1   5    8.63    0.63
   7  -1   5    8.14    0.57
   7  -1   5    8.96    0.59
   7  -1   5    9.13    0.62
   7   1   6    0.27    0.09
   7   1   6    0.23    0.06
   7   1   6    0.23    0.07
   7   1   6    0.33    0.11
   7   1   6    0.32    0.10
   7   1   6    0.22    0.05
   7   1   6    0.35    0.04
   7  -1   6    0.19    0.10
   7  -1   6    0.26    0.09
   7  -1   6    0.30    0.09
   7   1   7    0.21    0.05
   7   1   7    0.20    0.05
   7   1   7    0.22    0.03
   7   1   7    0.24    0.08
   7   1   7    0.17    0.05
   7   1   7    0.25    0.09
   7   1   7    0.14    0.10
   7  -1   7    0.38    0.04
   7  -1   7    0.25    0.10
   7  -1   7    0.20    0.10
   7  -1   7    0.34    0.14
   7   1   8    3.57    0.24
   7   1   8    2.99    0.23
   7   1   8    3.19    0.24
   7   1   8    3.49    0.26
   7   1   8    3.50    0.20
   7   1   8    3.37    0.27
   7   1   8    3.65    0.28
   7   1   8    3.35    0.32
   7  -1   8    3.48    0.21
   7  -1   8    2.84    0.30
   7  -1   8    3.40    0.31
   7   1   9   28.75    2.05
   7   1   9   31.43    2.16
   7   1   9   28.05    1.89
   7   1   9   28.00    1.90
   7   1   9   33.32    1.93
   7   1   9   30.81    1.76
   7   1   9   29.47    1.85
   7   1   9   28.38    1.95
   7  -1   9   28.45    1.96
   7  -1   9   32.26    1.76
   7  -1   9   30.38    2.05
   7   1  10    0.33    0.15
   7   1  10    0.49    0.07
   7   1  10    0.49    0.07
   7   1  10    0.48    0.06
   7   1  10    0.35    0.06
   7  -1  10    0.53    0.15
   7  -1  10    0.56    0.06
   7  -1  10    0.50    0.07
   7   1  11    0.48    0.07
   7   1  11    0.61    0.08
   7   1  11    0.66    0.07
   7   1  11    0.69    0.07
   7  -1  11    0.72    0.06
   7  -1  11    0.53    0.08
   7   1  12    0.01    0.04
   7   1  12    0.01    0.04
   7   1  12   -0.02    0.05
   7   1  12    0.00    0.05
   7  -1  12    0.08    0.06
   7  -1  12    0.01    0.03
   7   1  13    0.75    0.10
   7   1  13    0.89    0.08
   7   1  13    0.75    0.07
   7   1  13    0.85    0.08
   7  -1  13    0.58    0.08
   7  -1  13    0.76    0.08
   7  -1  13    0.78    0.05
   7   1  14    1.13    0.09
   7   1  14    1.34    0.11
   7   1  14    1.18    0.09
   7  -1  14    1.21    0.09
   7  -1  14    1.26    0.10
   7  -1  14    1.01    0.10
   7   1  15    1.05    0.08
   7   1  15    0.89    0.10
   7  -1  15    1.01    0.08
   7  -1  15    0.84    0.07
   7  -1  15    1.09    0.09
  -7  -2  17    1.38    0.11
  -7   2  16    0.10    0.03
  -7   2  16    0.08    0.07
  -7  -2  16    0.07    0.04
  -7  -2  16    0.07    0.05
  -7   2  15    5.40    0.35
  -7   2  15    5.89    0.41
  -7   2  15    5.28    0.37
  -7  -2  15    5.07    0.32
  -7  -2  15    5.86    0.37
  -7  -2  15    5.35    0.41
  -7   2  14    2.88    0.21
  -7   2  14    2.48    0.20
  -7   2  14    2.37    0.17
  -7  -2  14    2.43    0.20
  -7  -2  14    2.71    0.16
  -7  -2  14    2.56    0.20
  -7   2  13   -0.01    0.04
  -7   2  13   -0.04    0.05
  -7   2  13   -0.02    0.06
  -7   2  13    0.13    0.06
  -7  -2  13    0.05    0.04
  -7  -2  13    0.05    0.06
  -7  -2  13   -0.06    0.06
  -7   2  12    2.86    0.22
  -7   2  12    3.05    0.24
  -7   2  12    2.97    0.20
  -7   2  12    2.92    0.22
  -7  -2  12    2.74    0.22
  -7  -2  12    2.97    0.19
  -7   2  11   20.22    1.22
  -7   2  11   18.00    1.29
  -7   2  11   17.51    1.27
  -7   2  11   21.10    1.39
  -7   2  11   18.90    1.28
  -7   2  11   18.25    1.25
  -7  -2  11   20.72    1.14
  -7   2  10   17.62    1.25
  -7   2  10   19.87    1.32
  -7   2  10   21.24    1.43
  -7   2  10   20.28    1.31
  -7   2  10   20.77    1.33
  -7   2  10   19.64    1.22
  -7   2  10   21.23    1.30
  -7   2  10   19.69    1.26
  -7  -2  10   18.95    1.18
  -7   2   9    4.57    0.32
  -7   2   9    4.88    0.31
  -7   2   9    4.68    0.36
  -7   2   9    4.24    0.32
  -7   2   9    4.72    0.30
  -7   2   9    4.73    0.32
  -7   2   9    4.48    0.30
  -7   2   9    4.29    0.32
  -7   2   9    4.65    0.35
  -7  -2   9    4.57    0.28
  -7   2   8    6.25    0.43
  -7   2   8    6.37    0.46
  -7   2   8    6.32    0.43
  -7   2   8    6.34    0.42
  -7   2   8    6.50    0.46
  -7   2   8    6.26    0.40
  -7   2   8    6.37    0.43
  -7  -2   8    5.83    0.38
  -7   2   7    0.53    0.07
  -7   2   7    0.51    0.08
  -7   2   7    0.59    0.05
  -7   2   7    0.47    0.06
  -7   2   7    0.50    0.07
  -7   2   7    0.62    0.10
  -7   2   7    0.51    0.06
  -7   2   7    0.44    0.09
  -7   2   7    0.57    0.07
  -7   2   6    1.97    0.21
  -7   2   6    1.78    0.15
   7   2  -6    1.72    0.14
  -7   2   6    1.79    0.18
  -7   2   6    2.09    0.17
  -7   2   6    1.93    0.13
  -7   2   6    1.97    0.16
  -7   2   6    1.82    0.13
  -7   2   5    0.02    0.09
   7   2  -5    0.05    0.05
   7   2  -5    0.12    0.07
  -7   2   5    0.13    0.08
  -7   2   5    0.15    0.05
   7   2  -5    0.09    0.11
  -7   2   5    0.18    0.08
  -7  -2   5    0.07    0.07
   7   2  -4   12.95    0.83
   7   2  -4   13.99    0.77
  -7   2   4   13.32    0.84
  -7   2   4   12.72    0.82
   7   2  -4   12.40    0.85
  -7   2   4   13.61    0.87
  -7   2   4   14.49    0.92
  -7  -2   4   11.96    0.86
   7   2  -3   10.58    0.72
   7   2  -3   11.29    0.65
  -7   2   3   10.63    0.71
  -7   2   3   10.89    0.77
  -7   2   3   10.99    0.69
   7   2  -3   10.66    0.69
  -7   2   3   11.43    0.73
  -7   2   2    3.80    0.27
  -7   2   2    3.94    0.29
   7   2  -2    3.70    0.26
  -7   2   2    3.52    0.29
   7   2  -2    4.21    0.29
   7   2  -2    3.94    0.28
  -7   2   2    3.90    0.31
  -7   2   1    0.39    0.08
  -7   2   1    0.42    0.10
   7   2  -1    0.45    0.08
   7   2  -1    0.42    0.09
   7   2  -1    0.42    0.10
  -7   2   1    0.40    0.09
   7   2   0   -0.02    0.06
  -7   2   0    0.14    0.09
   7   2   0    0.02    0.07
   7   2   0    0.06    0.06
  -7   2   0    0.18    0.10
   7   2   0    0.03    0.08
  -7   2   0    0.09    0.09
   7   2   1   14.37    0.95
  -7   2  -1   15.25    1.03
   7   2   1   14.87    0.87
   7   2   1   15.36    0.93
  -7   2  -1   15.04    0.96
  -7   2  -1   13.74    0.93
   7   2   1   15.25    1.02
   7   2   2   12.48    0.78
  -7   2  -2   11.93    0.84
  -7   2  -2   12.27    0.80
   7   2   2   12.19    0.76
   7   2   2   11.80    0.71
   7   2   2   12.14    0.85
  -7   2  -2   11.84    0.77
   7   2   3    0.34    0.10
   7   2   3    0.37    0.09
  -7   2  -3    0.26    0.10
  -7   2  -3    0.28    0.09
   7   2   3    0.26    0.10
  -7   2  -3    0.20    0.08
   7   2   3    0.32    0.08
  -7   2  -4    2.57    0.23
   7   2   4    2.22    0.17
   7   2   4    3.02    0.25
   7   2   4    2.31    0.17
   7   2   4    2.92    0.19
  -7   2  -4    2.31    0.22
   7   2   4    2.39    0.21
   7   2   4    2.68    0.19
  -7   2  -4    2.30    0.21
   7   2   4    2.31    0.15
   7   2   5    5.95    0.50
   7   2   5    7.11    0.44
   7   2   5    6.40    0.43
   7   2   5    8.10    0.52
   7   2   5    6.46    0.46
   7   2   5    7.16    0.45
   7   2   5    6.36    0.44
   7   2   5    7.27    0.42
   7   2   5    6.72    0.40
  -7   2  -5    6.52    0.50
   7   2   5    6.87    0.50
   7   2   6   16.55    1.10
   7   2   6   17.55    1.15
   7   2   6   18.58    1.28
   7   2   6   15.62    1.13
   7   2   6   16.85    1.30
   7   2   6   18.47    1.14
   7   2   6   18.51    1.04
   7   2   6   19.03    1.11
   7   2   6   19.60    1.25
   7   2   6   18.98    1.17
   7   2   7    1.34    0.16
   7   2   7    1.06    0.14
   7   2   7    1.08    0.11
   7   2   7    1.06    0.10
   7   2   7    1.21    0.10
   7   2   7    1.14    0.09
   7   2   7    1.15    0.11
   7   2   7    1.22    0.13
   7   2   7    1.25    0.12
   7   2   8   40.00    2.76
   7   2   8   43.69    2.67
   7   2   8   47.76    2.81
   7   2   8   44.47    3.16
   7   2   8   46.16    3.12
   7   2   8   39.84    2.74
   7   2   8   48.10    2.85
   7   2   8   43.92    2.97
   7  -2   8   40.55    2.58
   7   2   9    2.46    0.29
   7   2   9    2.85    0.19
   7   2   9    2.31    0.19
   7   2   9    2.29    0.18
   7   2   9    2.58    0.17
   7   2   9    2.44    0.21
   7   2   9    2.53    0.21
   7  -2   9    2.17    0.16
   7   2  10    7.11    0.50
   7   2  10    6.39    0.44
   7   2  10    7.21    0.45
   7   2  10    6.58    0.45
   7   2  10    7.02    0.51
   7  -2  10    6.25    0.41
   7   2  11    0.68    0.08
   7   2  11    0.77    0.09
   7   2  11    0.66    0.09
   7   2  11    0.71    0.10
   7   2  11    0.68    0.06
   7  -2  11    0.80    0.07
   7   2  12    6.85    0.42
   7   2  12    6.64    0.41
   7   2  12    6.72    0.47
   7  -2  12    5.13    0.42
   7  -2  12    5.93    0.38
   7   2  13    0.01    0.03
   7   2  13    0.08    0.07
   7   2  13    0.02    0.04
   7  -2  13    0.03    0.04
   7  -2  13    0.00    0.02
   7   2  14    3.50    0.24
   7   2  14    3.27    0.27
   7   2  14    3.91    0.23
   7  -2  14    3.38    0.24
   7  -2  14    3.44    0.21
   7  -2  14    3.95    0.25
   7   2  15   -0.01    0.02
   7   2  15   -0.02    0.03
   7  -2  15    0.04    0.03
  -7   3  16    0.67    0.08
  -7   3  16    0.92    0.07
  -7  -3  16    1.03    0.08
  -7  -3  16    0.70    0.08
  -7   3  15    3.78    0.27
  -7   3  15    3.78    0.29
  -7  -3  15    4.03    0.23
  -7  -3  15    3.40    0.27
  -7   3  14    8.54    0.56
  -7   3  14    8.33    0.57
  -7   3  14    8.17    0.61
  -7  -3  14    8.16    0.50
  -7   3  13    0.27    0.08
  -7   3  13    0.23    0.07
  -7   3  13    0.19    0.07
  -7  -3  13    0.25    0.05
  -7  -3  13    0.20    0.07
  -7   3  12    1.24    0.12
  -7   3  12    1.19    0.11
  -7   3  12    1.13    0.08
  -7   3  12    1.36    0.13
  -7  -3  12    1.10    0.10
  -7   3  11    5.52    0.40
  -7   3  11    5.98    0.37
  -7   3  11    5.70    0.44
  -7   3  11    5.85    0.41
   7   3 -11    5.65    0.35
  -7  -3  11    5.78    0.35
   7   3 -10    1.03    0.09
  -7   3  10    0.85    0.15
  -7   3  10    0.89    0.11
  -7   3  10    0.87    0.11
  -7   3  10    1.07    0.12
  -7   3  10    0.94    0.10
  -7   3  10    1.07    0.08
  -7  -3  10    0.83    0.08
  -7   3   9    1.58    0.18
  -7   3   9    1.31    0.14
   7   3  -9    1.35    0.11
  -7   3   9    1.46    0.13
  -7   3   9    1.43    0.13
  -7   3   9    1.51    0.11
  -7   3   9    1.39    0.14
   7   3  -8    5.83    0.35
  -7   3   8    5.93    0.43
  -7   3   8    5.85    0.40
  -7   3   8    6.26    0.37
  -7   3   8    6.18    0.41
  -7   3   8    5.62    0.40
  -7   3   8    5.03    0.43
  -7   3   7    1.76    0.14
  -7   3   7    2.07    0.20
  -7   3   7    1.73    0.16
  -7   3   7    1.84    0.21
   7   3  -7    1.89    0.12
  -7   3   7    1.97    0.16
  -7   3   7    1.65    0.15
  -7   3   7    1.84    0.13
  -7   3   6    8.26    0.55
   7   3  -6    7.50    0.49
  -7   3   6    7.94    0.53
   7   3  -6    7.74    0.58
  -7   3   6    8.04    0.55
  -7   3   6    8.13    0.52
  -7   3   6    9.09    0.61
   7   3  -6    7.71    0.54
  -7   3   6    7.98    0.55
  -7   3   6    8.16    0.53
   7   3  -6    8.40    0.49
  -7   3   6    8.29    0.57
  -7   3   6    8.63    0.52
   7   3  -5   20.61    1.46
  -7   3   5   22.94    1.41
  -7   3   5   24.63    1.54
   7   3  -5   21.20    1.29
  -7   3   5   21.80    1.47
   7   3  -5   22.15    1.31
   7   3  -5   21.73    1.38
  -7   3   5   21.71    1.47
  -7   3   5   21.55    1.45
  -7   3   5   23.90    1.42
   7   3  -5   21.59    1.43
  -7   3   5   21.38    1.49
  -7   3   5   22.90    1.45
  -7   3   5   22.14    1.39
  -7   3   5   24.26    1.36
   7   3  -4    2.16    0.25
  -7   3   4    2.32    0.19
   7   3  -4    2.40    0.19
   7   3  -4    2.42    0.20
  -7   3   4    2.47    0.18
  -7   3   4    2.32    0.19
  -7   3   4    2.34    0.18
  -7   3   4    2.29    0.22
   7   3  -4    2.20    0.18
   7   3  -4    2.44    0.15
  -7   3   4    2.52    0.20
  -7   3   4    2.49    0.17
  -7   3   4    2.34    0.17
  -7   3   4    2.68    0.18
  -7   3   4    2.87    0.25
   7   3  -3   20.04    1.23
  -7   3   3   18.44    1.21
   7   3  -3   20.24    1.12
  -7   3   3   17.11    1.27
   7   3  -3   20.86    1.19
  -7   3   3   19.39    1.32
  -7   3   3   17.88    1.28
  -7   3   3   18.04    1.25
  -7   3   3   19.75    1.18
  -7   3   3   20.78    1.21
   7   3  -3   20.00    1.13
  -7   3   3   18.86    1.22
  -7   3   3   18.86    1.25
  -7   3   2    7.11    0.53
  -7   3   2    8.46    0.57
   7   3  -2    8.31    0.49
  -7   3   2    7.19    0.56
   7   3  -2    9.11    0.54
  -7   3   2    9.13    0.53
  -7   3   2    7.90    0.55
   7   3  -2    8.71    0.51
  -7   3   2    8.46    0.55
   7   3  -2    9.39    0.56
  -7   3   2    8.42    0.61
   7   3  -1    0.01    0.02
   7   3  -1    0.02    0.02
   7   3  -1    0.01    0.06
  -7   3   1    0.12    0.04
  -7   3   1    0.00    0.07
  -7   3   1    0.05    0.02
  -7   3   1   -0.02    0.04
   7   3  -1    0.02    0.10
  -7   3   1   -0.04    0.09
   7   3  -1   -0.06    0.07
  -7   3   1    0.19    0.08
  -7   3   1    0.00    0.10
  -7   3   1    0.06    0.05
   7   3   0    2.92    0.20
  -7   3   0    2.50    0.16
  -7   3   0    2.58    0.22
   7   3   0    2.89    0.19
   7   3   0    2.53    0.17
  -7   3   0    2.60    0.19
   7   3   0    2.79    0.23
  -7   3   0    2.19    0.19
   7   3   0    2.85    0.21
  -7   3   0    2.67    0.22
  -7   3   0    2.86    0.22
  -7   3   0    2.80    0.26
   7   3   0    2.66    0.16
   7   3   1    2.65    0.18
   7   3   1    2.33    0.17
   7   3   1    2.62    0.15
   7   3   1    2.60    0.19
  -7   3  -1    2.02    0.18
  -7   3  -1    2.69    0.22
  -7   3  -1    2.37    0.24
   7   3   1    2.75    0.22
  -7   3  -1    2.86    0.25
  -7   3  -1    2.52    0.19
   7   3   1    2.85    0.20
   7   3   1    2.58    0.17
  -7   3  -1    2.56    0.16
   7   3   2    2.33    0.19
   7   3   2    2.74    0.20
   7   3   2    2.72    0.26
  -7   3  -2    2.82    0.25
  -7   3  -2    2.57    0.21
   7   3   2    2.42    0.17
   7   3   2    2.81    0.21
   7   3   2    2.39    0.15
   7   3   2    2.35    0.17
  -7   3  -2    2.54    0.23
  -7   3  -2    2.54    0.16
   7   3   2    2.29    0.17
   7   3   2    2.52    0.17
   7   3   2    2.36    0.19
  -7   3  -2    2.33    0.18
  -7   3  -3    0.53    0.05
  -7   3  -3    0.45    0.06
   7   3   3    0.33    0.12
   7   3   3    0.48    0.05
   7   3   3    0.46    0.06
   7   3   3    0.49    0.07
   7   3   3    0.46    0.08
  -7   3  -3    0.42    0.10
   7   3   3    0.46    0.05
   7   3   3    0.28    0.08
   7   3   3    0.48    0.05
  -7   3  -3    0.35    0.05
  -7   3  -3    0.21    0.11
  -7   3  -3    0.28    0.05
   7   3   3    0.43    0.10
  -7   3  -3    0.30    0.11
  -7   3  -4   13.65    0.83
   7   3   4   14.12    0.80
  -7   3  -4   13.08    0.86
  -7   3  -4   13.14    0.92
   7   3   4   12.40    0.94
   7   3   4   13.07    0.84
   7   3   4   11.63    0.83
  -7   3  -4   11.34    0.85
   7   3   4   13.53    0.85
   7   3   4   14.14    0.77
   7   3   4   12.76    0.93
  -7   3  -4   12.02    0.76
   7   3   4   12.29    0.82
   7   3   4   14.19    0.93
   7   3   4   13.35    0.81
   7   3   5    6.73    0.42
  -7   3  -5    6.11    0.45
  -7   3  -5    5.26    0.43
   7   3   5    7.08    0.50
   7   3   5    6.13    0.47
   7   3   5    6.51    0.43
   7   3   5    6.36    0.42
  -7   3  -5    6.11    0.47
  -7   3  -5    6.42    0.38
   7   3   5    6.51    0.48
   7   3   5    6.36    0.41
  -7   3  -5    5.93    0.49
   7   3   5    6.73    0.41
   7   3   5    6.26    0.41
   7   3   5    6.78    0.40
   7   3   6    0.90    0.10
   7   3   6    0.62    0.10
   7   3   6    0.75    0.06
   7   3   6    0.71    0.08
   7   3   6    0.81    0.08
   7   3   6    0.68    0.08
  -7   3  -6    0.49    0.13
  -7   3  -6    0.82    0.07
   7   3   6    0.83    0.14
   7   3   6    0.69    0.07
   7   3   6    0.77    0.09
   7   3   6    0.48    0.09
   7   3   7    4.37    0.28
   7   3   7    4.56    0.29
   7   3   7    3.77    0.29
  -7   3  -7    3.77    0.37
   7   3   7    4.66    0.34
   7   3   7    4.66    0.34
   7   3   7    4.61    0.40
   7   3   7    4.19    0.28
   7   3   7    4.56    0.30
   7   3   7    4.49    0.29
  -7   3  -7    4.31    0.27
   7   3   8   19.19    1.35
   7   3   8   19.27    1.22
  -7   3  -8   18.76    1.14
   7   3   8   20.34    1.24
   7   3   8   19.61    1.40
   7   3   8   19.90    1.38
   7   3   8   17.71    1.18
   7   3   9    0.12    0.06
  -7   3  -9    0.23    0.05
   7   3   9    0.17    0.08
   7   3   9    0.17    0.05
   7   3   9    0.21    0.05
   7   3  10    3.49    0.23
  -7   3 -10    3.13    0.21
   7   3  10    3.36    0.22
   7   3  10    3.49    0.26
   7   3  10    3.41    0.27
   7  -3  10    2.76    0.20
   7   3  11    2.14    0.16
  -7   3 -11    2.05    0.14
   7   3  11    2.34    0.19
   7   3  11    1.74    0.18
   7   3  11    2.08    0.14
   7  -3  11    1.89    0.14
   7   3  12    0.35    0.07
  -7   3 -12    0.38    0.05
   7   3  12    0.44    0.06
   7   3  12    0.38    0.04
   7  -3  12    0.49    0.05
   7   3  13    2.79    0.18
  -7   3 -13    2.34    0.17
   7   3  13    2.69    0.21
   7  -3  13    2.63    0.16
   7   3  14    1.80    0.16
  -7   3 -14    2.18    0.14
   7  -3  14    2.28    0.15
   7  -3  14    2.11    0.13
   7   4 -15    1.87    0.12
  -7   4  15    2.08    0.15
  -7   4  15    1.79    0.14
  -7  -4  15    2.05    0.12
  -7   4  14    0.87    0.10
   7   4 -14    1.07    0.08
  -7   4  14    0.93    0.09
  -7   4  14    1.14    0.10
  -7  -4  14    1.09    0.07
  -7   4  13    0.15    0.05
   7   4 -13    0.27    0.03
  -7   4  13    0.15    0.05
  -7   4  13    0.23    0.06
  -7  -4  13    0.22    0.05
  -7   4  12    3.37    0.31
  -7   4  12    4.07    0.28
  -7   4  12    4.37    0.30
   7   4 -12    3.90    0.27
   7   4 -12    4.31    0.25
  -7  -4  12    4.17    0.25
  -7   4  11    0.61    0.07
   7   4 -11    0.66    0.06
  -7   4  11    0.67    0.09
  -7   4  11    0.49    0.09
  -7   4  11    0.65    0.09
  -7   4  10    3.04    0.22
  -7   4  10    3.03    0.22
   7   4 -10    3.03    0.19
  -7   4  10    2.94    0.23
  -7   4  10    2.45    0.22
  -7   4   9    0.03    0.06
  -7   4   9    0.00    0.05
   7   4  -9    0.03    0.04
  -7   4   9    0.08    0.05
   7   4  -8    1.09    0.08
  -7   4   8    1.17    0.12
  -7   4   8    1.05    0.11
  -7   4   8    0.99    0.07
   7   4  -8    1.19    0.11
  -7   4   8    1.01    0.12
   7   4  -7    0.15    0.05
  -7   4   7    0.19    0.07
   7   4  -7    0.18    0.10
  -7   4   7    0.15    0.07
  -7   4   7    0.06    0.08
  -7   4   7    0.13    0.03
  -7   4   7    0.15    0.05
   7   4  -7    0.18    0.04
   7   4  -7    0.22    0.13
  -7   4   7    0.01    0.13
  -7   4   7    0.18    0.09
   7   4  -6    9.11    0.50
  -7   4   6    7.92    0.53
  -7   4   6    7.79    0.56
  -7   4   6    9.02    0.63
  -7   4   6    7.96    0.56
   7   4  -6    8.75    0.56
  -7   4   6    8.48    0.57
   7   4  -6    7.53    0.59
  -7   4   6    8.83    0.54
   7   4  -6    7.47    0.55
  -7   4   5    0.88    0.08
   7   4  -5    0.89    0.07
   7   4  -5    0.96    0.10
  -7   4   5    1.12    0.17
   7   4  -5    0.77    0.14
   7   4  -5    0.69    0.09
  -7   4   5    0.96    0.10
  -7   4   5    0.96    0.10
   7   4  -5    0.71    0.13
   7   4  -5    0.79    0.08
  -7   4   5    0.84    0.10
  -7   4   5    0.78    0.10
  -7   4   4    6.10    0.38
   7   4  -4    5.67    0.44
   7   4  -4    5.59    0.38
   7   4  -4    5.73    0.39
   7   4  -4    6.29    0.35
   7   4  -4    5.70    0.38
  -7   4   4    5.86    0.40
  -7   4   4    6.01    0.40
  -7   4   4    6.16    0.48
   7   4  -4    5.63    0.40
   7   4  -4    5.31    0.37
  -7   4   4    5.74    0.39
  -7   4   4    5.78    0.40
  -7   4   3    5.17    0.36
  -7   4   3    5.22    0.34
   7   4  -3    5.06    0.35
  -7   4   3    5.42    0.36
  -7   4   3    5.26    0.42
  -7   4   3    5.40    0.37
   7   4  -3    5.39    0.36
   7   4  -3    5.70    0.32
   7   4  -3    5.38    0.40
   7   4  -3    5.47    0.35
   7   4  -3    5.58    0.37
   7   4  -3    5.23    0.33
  -7   4   3    5.15    0.35
  -7   4   3    5.22    0.34
  -7   4   3    5.17    0.37
   7   4  -2    4.10    0.28
  -7   4   2    4.27    0.29
   7   4  -2    4.20    0.30
  -7   4   2    3.71    0.27
   7   4  -2    4.30    0.25
  -7   4   2    4.34    0.29
   7   4  -2    4.30    0.28
   7   4  -2    4.39    0.28
   7   4  -2    3.98    0.27
  -7   4   2    4.27    0.28
  -7   4   2    4.32    0.29
  -7   4   2    3.93    0.37
  -7   4   2    3.95    0.30
  -7   4   2    4.12    0.30
   7   4  -2    4.29    0.33
   7   4  -1    4.38    0.32
  -7   4   1    4.77    0.32
   7   4  -1    4.93    0.32
  -7   4   1    5.00    0.35
  -7   4   1    5.17    0.32
   7   4  -1    4.75    0.28
   7   4  -1    4.80    0.31
   7   4  -1    4.66    0.30
   7   4  -1    4.67    0.35
  -7   4   1    5.02    0.33
   7   4  -1    4.34    0.32
  -7   4   1    4.41    0.33
   7   4  -1    4.66    0.33
  -7   4   1    4.69    0.33
  -7   4   1    4.88    0.41
   7   4  -1    4.84    0.31
  -7   4   1    4.62    0.31
  -7   4   0    0.29    0.07
  -7   4   0    0.23    0.05
   7   4   0    0.37    0.06
  -7   4   0    0.46    0.14
  -7   4   0    0.27    0.05
   7   4   0    0.39    0.05
   7   4   0    0.32    0.05
  -7   4   0    0.27    0.07
   7   4   0    0.27    0.08
  -7   4   0    0.27    0.09
  -7   4   0    0.32    0.06
   7   4   0    0.29    0.05
   7   4   0    0.29    0.04
   7   4   0    0.34    0.05
   7   4   0    0.35    0.07
   7   4   0    0.27    0.08
  -7   4   0    0.25    0.09
   7   4   1   29.36    1.84
  -7   4  -1   28.26    1.76
   7   4   1   30.18    1.92
   7   4   1   28.81    1.90
   7   4   1   31.51    1.95
   7   4   1   30.72    2.17
  -7   4  -1   32.35    1.90
  -7   4  -1   28.46    1.97
  -7   4  -1   30.68    1.96
  -7   4  -1   28.14    1.84
   7   4   1   29.91    1.73
  -7   4  -1   30.83    2.05
   7   4   1   31.26    1.89
  -7   4  -1   29.54    1.89
  -7   4  -1   30.37    2.00
   7   4   1   31.16    1.88
   7   4   1   28.78    1.83
  -7   4  -2   28.27    1.71
  -7   4  -2   28.29    1.70
   7   4   2   23.64    1.70
   7   4   2   27.79    1.65
   7   4   2   25.99    1.64
  -7   4  -2   24.71    1.77
  -7   4  -2   28.49    1.85
   7   4   2   27.17    1.56
   7   4   2   26.97    1.69
  -7   4  -2   27.14    1.58
   7   4   2   29.39    1.94
   7   4   2   26.78    1.72
   7   4   2   25.72    1.68
  -7   4  -2   25.72    1.66
  -7   4  -2   24.43    1.75
   7   4   2   29.38    1.75
   7   4   3    2.06    0.13
   7   4   3    2.06    0.14
  -7   4  -3    1.84    0.15
   7   4   3    1.97    0.17
   7   4   3    2.03    0.15
   7   4   3    1.83    0.14
   7   4   3    1.86    0.14
  -7   4  -3    1.84    0.22
  -7   4  -3    1.80    0.15
   7   4   3    1.54    0.15
  -7   4  -3    1.92    0.13
   7   4   3    1.94    0.18
  -7   4  -3    1.94    0.15
  -7   4  -3    2.10    0.22
   7   4   4    1.08    0.19
  -7   4  -4    1.04    0.18
  -7   4  -4    1.07    0.08
  -7   4  -4    0.91    0.10
   7   4   4    1.07    0.09
  -7   4  -4    0.97    0.11
   7   4   4    0.95    0.12
  -7   4  -4    0.71    0.13
   7   4   4    1.16    0.11
   7   4   4    1.10    0.09
   7   4   4    0.95    0.11
  -7   4  -4    0.94    0.12
   7   4   5    6.93    0.55
  -7   4  -5    6.78    0.54
   7   4   5    7.12    0.45
   7   4   5    7.14    0.51
   7   4   5    6.48    0.43
   7   4   5    7.31    0.43
  -7   4  -5    6.64    0.41
  -7   4  -5    6.44    0.44
  -7   4  -5    6.10    0.46
  -7   4  -5    6.21    0.46
   7   4   5    7.19    0.44
   7   4   6    0.12    0.15
   7   4   6    0.11    0.05
   7   4   6    0.09    0.07
   7   4   6    0.12    0.03
  -7   4  -6    0.13    0.06
   7   4   6    0.11    0.06
  -7   4  -6    0.08    0.13
  -7   4  -6    0.20    0.06
  -7   4  -6    0.06    0.04
   7   4   7    6.61    0.40
   7   4   7    6.53    0.40
  -7   4  -7    5.81    0.43
  -7   4  -7    6.11    0.38
   7   4   7    6.74    0.43
  -7   4  -7    5.80    0.43
   7   4   7    6.72    0.48
   7   4   8   22.31    1.37
   7   4   8   23.21    1.41
  -7   4  -8   21.29    1.29
   7   4   8   22.05    1.34
  -7   4  -8   19.37    1.43
   7   4   8   22.04    1.57
   7   4   8   22.46    1.58
   7   4   9    0.92    0.07
   7   4   9    0.98    0.11
   7   4   9    1.04    0.10
  -7   4  -9    0.95    0.08
   7   4  10    0.02    0.04
   7   4  10    0.01    0.08
  -7   4 -10    0.01    0.03
  -7   4 -11    0.67    0.06
   7   4  11    0.83    0.09
   7   4  11    0.44    0.07
   7  -4  11    0.70    0.06
  -7   4 -12    0.28    0.04
   7   4  12    0.34    0.06
   7   4  12    0.42    0.05
   7  -4  12    0.43    0.04
   7   4  13    0.11    0.04
  -7   4 -13    0.16    0.02
   7   4  13    0.08    0.03
   7  -4  13    0.12    0.02
   7   5 -13    1.47    0.10
  -7   5  13    1.59    0.12
  -7   5  13    1.61    0.12
   7   5 -13    1.64    0.12
  -7  -5  13    1.40    0.11
   7   5 -12    0.06    0.03
  -7   5  12    0.09    0.05
   7   5 -12    0.09    0.04
  -7   5  12    0.05    0.06
  -7   5  11    8.16    0.52
   7   5 -11    7.60    0.45
  -7   5  11    7.90    0.52
   7   5 -11    7.11    0.49
   7   5 -11    7.32    0.51
  -7   5  10    2.66    0.20
  -7   5  10    2.37    0.19
   7   5 -10    2.27    0.15
   7   5 -10    2.46    0.18
  -7   5  10    2.42    0.19
   7   5 -10    2.73    0.18
  -7   5   9    0.19    0.06
   7   5  -9    0.24    0.05
  -7   5   9    0.20    0.08
   7   5  -9    0.30    0.06
   7   5  -9    0.19    0.03
  -7   5   9    0.33    0.06
   7   5  -8    0.98    0.07
  -7   5   8    1.08    0.12
   7   5  -8    1.11    0.11
   7   5  -8    1.13    0.11
  -7   5   8    0.93    0.11
  -7   5   8    0.89    0.11
   7   5  -7    6.43    0.42
  -7   5   7    6.22    0.42
  -7   5   7    6.37    0.43
  -7   5   7    5.84    0.41
  -7   5   7    6.48    0.43
   7   5  -7    6.27    0.41
   7   5  -7    5.96    0.37
   7   5  -7    5.72    0.40
  -7   5   6    1.91    0.18
  -7   5   6    2.04    0.18
   7   5  -6    1.93    0.13
   7   5  -6    2.07    0.15
   7   5  -6    2.19    0.15
  -7   5   6    2.21    0.17
   7   5  -6    2.01    0.16
  -7   5   6    1.81    0.16
  -7   5   5   25.16    1.64
   7   5  -5   26.12    1.62
  -7   5   5   25.90    1.65
   7   5  -5   25.87    1.57
  -7   5   5   27.35    1.58
   7   5  -5   22.52    1.45
  -7   5   5   24.69    1.56
  -7   5   5   20.92    1.63
   7   5  -4    0.31    0.05
   7   5  -4    0.45    0.06
   7   5  -4    0.38    0.10
  -7   5   4    0.36    0.08
  -7   5   4    0.51    0.07
  -7   5   4    0.46    0.09
   7   5  -4    0.36    0.07
   7   5  -4    0.45    0.06
  -7   5   4    0.46    0.05
  -7   5   4    0.35    0.12
  -7   5   3    0.10    0.14
   7   5  -3    0.05    0.04
  -7   5   3    0.06    0.04
   7   5  -3    0.09    0.06
  -7   5   3    0.19    0.07
   7   5  -3    0.22    0.09
  -7   5   3    0.08    0.05
   7   5  -3    0.16    0.04
   7   5  -3    0.07    0.04
  -7   5   3   -0.04    0.07
  -7   5   2    2.92    0.22
   7   5  -2    2.60    0.19
  -7   5   2    3.01    0.23
  -7   5   2    2.85    0.31
  -7   5   2    2.58    0.20
   7   5  -2    2.91    0.21
  -7   5   2    2.85    0.19
   7   5  -2    2.72    0.19
   7   5  -2    2.88    0.19
   7   5  -2    2.63    0.23
  -7   5   1   15.36    0.98
   7   5  -1   15.72    0.93
   7   5  -1   15.32    0.94
  -7   5   1   14.03    0.99
   7   5  -1   16.43    0.96
   7   5  -1   13.78    0.88
  -7   5   1   13.16    1.05
  -7   5   1   13.09    0.93
   7   5  -1   14.04    0.95
  -7   5   1   15.10    0.94
   7   5  -1   14.81    0.91
   7   5   0    1.58    0.13
   7   5   0    1.57    0.11
  -7   5   0    1.35    0.15
  -7   5   0    1.46    0.15
   7   5   0    1.58    0.11
  -7   5   0    1.48    0.12
  -7   5   0    1.44    0.12
  -7   5   0    1.24    0.21
   7   5   0    1.36    0.15
   7   5   0    1.53    0.12
   7   5   0    1.38    0.12
  -7   5   0    1.37    0.11
   7   5   1    3.53    0.24
  -7   5  -1    3.27    0.23
  -7   5  -1    2.84    0.23
  -7   5  -1    3.44    0.25
  -7   5  -1    3.54    0.26
   7   5   1    3.28    0.26
   7   5   1    3.55    0.23
   7   5   1    3.42    0.22
   7   5   1    3.47    0.24
  -7   5  -1    3.18    0.23
   7   5   2    1.35    0.16
   7   5   2    1.44    0.12
  -7   5  -2    1.25    0.12
  -7   5  -2    1.53    0.16
   7   5   2    1.50    0.17
  -7   5  -2    1.39    0.22
   7   5   2    1.51    0.11
   7   5   2    1.55    0.12
  -7   5  -2    1.60    0.15
  -7   5  -2    1.46    0.12
   7   5   2    1.58    0.13
   7   5   3    4.40    0.31
  -7   5  -3    4.80    0.31
  -7   5  -3    4.56    0.34
   7   5   3    4.56    0.30
  -7   5  -3    4.46    0.33
   7   5   3    4.91    0.30
  -7   5  -3    4.53    0.32
   7   5   3    4.65    0.32
   7   5   3    4.90    0.36
   7   5   4    0.49    0.05
  -7   5  -4    0.46    0.07
   7   5   4    0.57    0.10
  -7   5  -4    0.43    0.09
   7   5   4    0.50    0.07
   7   5   4    0.50    0.06
  -7   5  -4    0.34    0.07
  -7   5  -4    0.45    0.07
   7   5   5    0.41    0.09
  -7   5  -5    0.42    0.07
  -7   5  -5    0.44    0.07
   7   5   5    0.42    0.06
  -7   5  -5    0.37    0.07
   7   5   5    0.40    0.04
   7   5   5    0.51    0.05
  -7   5  -5    0.29    0.03
  -7   5  -5    0.33    0.09
   7   5   6    4.34    0.33
  -7   5  -6    3.99    0.28
   7   5   6    4.51    0.27
  -7   5  -6    4.11    0.30
   7   5   6    4.18    0.28
  -7   5  -6    4.04    0.29
  -7   5  -6    3.59    0.24
  -7   5  -6    3.79    0.28
  -7   5  -7    0.99    0.07
  -7   5  -7    1.19    0.11
   7   5   7    1.13    0.10
  -7   5  -7    1.10    0.10
   7   5   7    1.11    0.09
  -7   5  -7    0.99    0.11
   7   5   7    1.13    0.12
   7   5   8    2.59    0.20
  -7   5  -8    2.26    0.18
  -7   5  -8    2.24    0.19
   7   5   8    2.45    0.16
   7   5   8    2.63    0.17
  -7   5  -8    2.14    0.15
   7   5   9    0.82    0.09
  -7   5  -9    0.79    0.08
  -7   5  -9    0.70    0.05
   7   5   9    0.74    0.08
  -7   5 -10    1.05    0.10
  -7   5 -10    1.00    0.07
   7   5  10    0.99    0.09
   7   5  10    1.14    0.10
  -7   5 -10    0.95    0.09
   7   5  11    1.17    0.09
  -7   5 -11    1.02    0.09
   7   5  11    1.17    0.10
  -7   6  11   -0.04    0.05
   7   6 -11    0.00    0.02
  -7   6  10    2.15    0.15
   7   6 -10    1.82    0.13
   7   6 -10    1.77    0.14
  -7   6  10    1.72    0.13
  -7   6  10    2.01    0.15
  -7   6   9    0.04    0.04
  -7   6   9    0.05    0.05
   7   6  -9    0.03    0.03
   7   6  -9   -0.05    0.05
   7   6  -9    0.02    0.04
   7   6  -8    1.48    0.13
  -7   6   8    1.82    0.15
   7   6  -8    1.34    0.12
  -7   6   8    1.64    0.13
   7   6  -8    1.44    0.12
  -7   6   7    1.35    0.14
  -7   6   7    1.49    0.13
   7   6  -7    1.47    0.12
   7   6  -7    1.58    0.12
   7   6  -7    1.55    0.13
  -7   6   6   11.20    0.73
   7   6  -6   10.86    0.71
  -7   6   6    9.62    0.69
   7   6  -6   11.13    0.70
  -7   6   6   11.33    0.73
   7   6  -6   10.73    0.69
   7   6  -5    0.42    0.07
  -7   6   5    0.43    0.09
  -7   6   5    0.49    0.07
   7   6  -5    0.36    0.06
   7   6  -5    0.45    0.05
  -7   6   5    0.39    0.09
  -7   6   4    5.94    0.44
   7   6  -4    6.45    0.41
  -7   6   4    6.46    0.42
  -7   6   4    6.07    0.43
   7   6  -4    6.70    0.41
   7   6  -4    6.15    0.42
   7   6  -3   -0.01    0.04
  -7   6   3    0.00    0.06
   7   6  -3    0.00    0.04
  -7   6   3   -0.06    0.07
  -7   6   3    0.06    0.05
   7   6  -3    0.02    0.02
   7   6  -3    0.05    0.06
  -7   6   2    8.18    0.56
  -7   6   2    8.53    0.58
   7   6  -2    9.13    0.57
  -7   6   2    8.11    0.60
   7   6  -2    9.68    0.58
   7   6  -2    9.07    0.55
  -7   6   2    9.46    0.61
   7   6  -1   -0.03    0.03
  -7   6   1    0.01    0.03
  -7   6   1   -0.08    0.07
  -7   6   1    0.15    0.08
  -7   6   1   -0.08    0.05
   7   6  -1   -0.01    0.05
   7   6  -1   -0.05    0.05
   7   6  -1   -0.02    0.04
  -7   6   0    5.05    0.33
   7   6   0    4.84    0.32
  -7   6   0    4.66    0.34
   7   6   0    5.00    0.30
   7   6   0    4.66    0.31
  -7   6   0    4.70    0.31
  -7   6   0    4.17    0.31
   7   6   0    4.73    0.32
  -7   6  -1    0.07    0.08
  -7   6  -1    0.08    0.04
  -7   6  -1   -0.04    0.05
   7   6   1    0.03    0.02
  -7   6  -1    0.04    0.06
   7   6   1    0.03    0.06
   7   6   1    0.03    0.04
   7   6   1    0.05    0.06
  -7   6  -2   10.67    0.68
   7   6   2   10.28    0.69
   7   6   2   10.47    0.69
  -7   6  -2   10.27    0.73
  -7   6  -2   10.19    0.72
   7   6   2   11.22    0.67
   7   6   2   11.56    0.67
  -7   6  -3    0.45    0.07
   7   6   3    0.43    0.06
   7   6   3    0.51    0.06
  -7   6  -3    0.41    0.04
  -7   6  -3    0.41    0.06
   7   6   3    0.46    0.06
  -7   6  -3    0.42    0.08
   7   6   4    2.44    0.18
  -7   6  -4    2.32    0.20
  -7   6  -4    2.56    0.18
   7   6   4    2.89    0.18
  -7   6  -4    2.60    0.19
  -7   6  -4    2.55    0.20
  -7   6  -5    0.02    0.05
   7   6   5    0.07    0.04
   7   6   5    0.11    0.04
  -7   6  -5    0.11    0.07
  -7   6  -5    0.11    0.04
  -7   6  -5    0.08    0.04
  -7   6  -6    2.03    0.14
   7   6   6    2.18    0.15
   7   6   6    2.06    0.14
  -7   6  -6    1.79    0.14
  -7   6  -6    1.48    0.14
  -7   6  -6    2.16    0.16
   7   6   7    1.50    0.11
  -7   6  -7    1.46    0.13
   7   6   7    1.67    0.13
  -7   6  -7    1.55    0.13
  -7   6  -7    1.50    0.11
   7   6   7    1.38    0.11
  -7   6  -8   13.83    1.01
   7   6   8   16.57    1.00
  -7   6  -8   15.45    1.03
  -7   6  -8   15.36    0.99
   7   6   8   16.63    1.13
  -7   6  -9    0.47    0.05
   7   6   9    0.54    0.05
   7   7  -7    7.14    0.44
  -7   7   7    6.20    0.46
  -7   7   7    7.28    0.46
   7   7  -6    3.26    0.20
   7   7  -6    3.06    0.20
  -7   7   6    2.69    0.22
   7   7  -5   15.01    0.91
  -7   7   5   15.23    0.96
   7   7  -5   13.08    0.92
   7   7  -4    0.00    0.03
  -7   7   4    0.08    0.05
  -7   7   4    0.06    0.05
  -7   7   4    0.04    0.04
   7   7  -4    0.04    0.04
   7   7  -3    3.18    0.21
   7   7  -3    3.07    0.19
  -7   7   3    2.45    0.20
  -7   7   3    2.95    0.22
  -7   7   3    3.12    0.22
   7   7  -2    0.77    0.06
   7   7  -2    0.81    0.06
  -7   7   2    0.74    0.08
  -7   7   2    0.76    0.08
  -7   7   2    0.63    0.07
   7   7  -2    0.73    0.08
  -7   7   1    2.73    0.21
   7   7  -1    2.78    0.18
  -7   7   1    2.84    0.21
  -7   7   1    2.67    0.19
   7   7  -1    2.99    0.20
  -7   7   0    0.03    0.04
   7   7   0    0.07    0.03
  -7   7   0    0.09    0.05
   7   7   0   -0.02    0.04
  -7   7  -1    9.28    0.60
   7   7   1    8.22    0.57
   7   7   1    9.29    0.55
   7   7   2    0.88    0.07
   7   7   2    0.83    0.07
  -7   7  -2    0.87    0.07
   7   7   2    1.00    0.07
  -7   7  -2    0.83    0.09
  -7   7  -3    1.47    0.13
   7   7   3    1.80    0.11
   7   7   3    1.29    0.11
  -7   7  -3    1.58    0.11
   7   7   4    0.07    0.03
   7   7   4    0.09    0.03
  -7   7  -4    0.10    0.02
  -7   7  -4    0.10    0.04
   7   7   5    0.81    0.07
  -7   7  -5    0.86    0.07
  -8   0  17    0.07    0.03
  -8   0  17    0.00    0.04
  -8   0  16    8.35    0.58
  -8   0  16    9.99    0.58
  -8   0  16    8.71    0.65
  -8   0  15    0.09    0.07
  -8   0  15   -0.03    0.05
  -8   0  15   -0.03    0.04
  -8   0  14    0.15    0.05
  -8   0  14    0.02    0.06
  -8   0  14    0.12    0.05
  -8   0  13    0.00    0.07
  -8   0  13    0.02    0.05
  -8   0  13    0.04    0.04
  -8   0  12   26.09    1.70
  -8   0  12   25.85    1.65
  -8   0  12   27.68    1.87
  -8   0  12   24.85    1.53
  -8   0  11   -0.02    0.05
  -8   0  11    0.00    0.11
  -8   0  11   -0.02    0.03
  -8   0  11    0.03    0.10
  -8   0  11   -0.01    0.05
  -8   0  11    0.04    0.08
  -8   0  10    0.69    0.06
  -8   0  10    0.69    0.13
  -8   0  10    0.48    0.07
  -8   0  10    0.86    0.08
  -8   0  10    0.43    0.10
  -8   0  10    0.66    0.07
  -8   0  10    0.49    0.13
  -8   0   9   -0.01    0.08
  -8   0   9    0.01    0.09
  -8   0   9   -0.01    0.04
  -8   0   9    0.02    0.03
  -8   0   9   -0.01    0.04
  -8   0   9    0.06    0.10
  -8   0   9   -0.01    0.04
  -8   0   8   17.06    1.07
  -8   0   8   15.47    1.07
  -8   0   8   14.94    1.07
  -8   0   8   17.34    0.96
  -8   0   8   16.14    1.02
  -8   0   8   15.53    1.03
  -8   0   8   17.22    1.05
  -8   0   7   -0.07    0.08
  -8   0   7    0.02    0.08
  -8   0   7    0.00    0.04
  -8   0   7    0.05    0.09
  -8   0   6   26.62    1.75
  -8   0   6   28.22    1.67
  -8   0   6   26.60    1.72
  -8   0   5   -0.12    0.07
  -8   0   5    0.06    0.09
  -8   0   5   -0.04    0.08
  -8   0   4   26.70    1.57
  -8   0   4   24.15    1.60
  -8   0   3    0.04    0.09
   8   0  -3   -0.07    0.10
  -8   0   3    0.24    0.14
  -8   0   3   -0.07    0.07
   8   0  -2   39.11    2.86
  -8   0   2   43.70    2.55
  -8   0   2   44.38    2.62
  -8   0   2   39.82    2.87
  -8   0   1    0.00    0.08
   8   0  -1   -0.05    0.08
   8   0  -1    0.01    0.07
  -8   0   1    0.04    0.08
   8   0  -1   -0.06    0.06
  -8   0   1   -0.01    0.14
   8   0   0    4.96    0.34
  -8   0   0    3.82    0.42
   8   0   0    4.53    0.41
   8   0   0    5.52    0.35
  -8   0   0    5.44    0.36
  -8   0   0    4.87    0.34
  -8   0  -1   -0.11    0.10
   8   0   1    0.00    0.08
   8   0   1    0.05    0.07
   8   0   2   35.19    2.06
   8   0   2   30.11    2.01
   8   0   2   33.07    2.20
   8   0   3   -0.03    0.09
   8   0   3   -0.04    0.06
   8   0   3    0.07    0.09
   8   0   4    2.10    0.20
   8   0   4    1.84    0.20
   8   0   4    2.30    0.20
   8   0   5   -0.11    0.07
   8   0   5    0.07    0.03
   8   0   5   -0.03    0.08
   8   0   5   -0.11    0.11
   8   0   6    0.02    0.03
   8   0   6    0.21    0.10
   8   0   6    0.12    0.09
   8   0   6   -0.04    0.08
   8   0   6    0.04    0.05
   8   0   7    0.02    0.03
   8   0   7    0.02    0.05
   8   0   7    0.04    0.09
   8   0   7   -0.07    0.10
   8   0   7    0.17    0.11
   8   0   8  162.96    9.03
   8   0   8  155.75    8.75
   8   0   8  158.58    9.68
   8   0   8  140.82    9.25
   8   0   8  128.38    9.36
   8   0   9   -0.02    0.05
   8   0   9   -0.02    0.03
   8   0   9   -0.08    0.09
   8   0   9    0.08    0.12
   8   0   9   -0.02    0.04
   8   0  10   22.76    1.34
   8   0  10   21.16    1.20
   8   0  10   17.41    1.30
   8   0  11    0.04    0.06
   8   0  11   -0.01    0.02
   8   0  11   -0.06    0.04
   8   0  11   -0.02    0.05
   8   0  12    1.03    0.12
   8   0  12    1.14    0.10
   8   0  12    1.16    0.11
   8   0  13    0.03    0.04
   8   0  13   -0.07    0.06
   8   0  13   -0.01    0.05
   8   0  14    7.66    0.49
   8   0  14    7.75    0.49
   8   0  14    7.08    0.49
   8   0  15    0.00    0.02
   8   0  15    0.00    0.03
  -8   1  17   -0.02    0.03
  -8   1  17   -0.07    0.06
  -8  -1  17    0.02    0.02
  -8  -1  17   -0.01    0.03
  -8  -1  17   -0.04    0.03
  -8   1  16    0.08    0.04
  -8   1  16    0.11    0.07
  -8  -1  16    0.04    0.04
  -8  -1  16   -0.01    0.04
  -8  -1  16    0.08    0.04
  -8   1  15    5.99    0.40
  -8   1  15    5.85    0.46
  -8  -1  15    6.13    0.41
  -8  -1  15    5.98    0.46
  -8  -1  15    6.69    0.42
  -8   1  14    3.36    0.22
  -8   1  14    3.37    0.22
  -8   1  14    2.87    0.24
  -8   1  14    3.57    0.26
  -8  -1  14    3.29    0.24
  -8  -1  14    3.30    0.24
  -8  -1  14    3.10    0.20
  -8  -1  14    3.62    0.27
  -8   1  13    0.20    0.05
  -8   1  13    0.16    0.06
  -8   1  13    0.14    0.04
  -8   1  13    0.13    0.05
  -8  -1  13    0.10    0.06
  -8  -1  13    0.14    0.06
  -8  -1  13    0.13    0.04
  -8  -1  13    0.17    0.07
  -8   1  12    2.21    0.16
  -8   1  12    2.19    0.15
  -8   1  12    1.63    0.22
  -8   1  12    2.17    0.20
  -8   1  12    1.96    0.17
  -8  -1  12    2.16    0.17
  -8  -1  12    1.97    0.14
  -8   1  11    6.13    0.48
  -8   1  11    6.93    0.44
  -8   1  11    6.23    0.45
  -8   1  11    6.47    0.43
  -8   1  11    7.13    0.50
  -8  -1  11    6.13    0.45
  -8  -1  11    6.91    0.40
  -8   1  10    7.90    0.56
  -8   1  10    6.39    0.52
  -8   1  10    7.21    0.50
  -8   1  10    8.04    0.49
  -8   1  10    7.19    0.51
  -8   1  10    7.89    0.50
  -8   1  10    7.47    0.53
  -8  -1  10    8.26    0.51
  -8  -1  10    7.83    0.45
  -8  -1  10    6.69    0.52
  -8  -1  10    6.91    0.54
  -8  -1  10    6.70    0.51
  -8   1   9   -0.02    0.06
  -8   1   9    0.02    0.04
  -8   1   9   -0.01    0.04
  -8   1   9    0.03    0.11
  -8   1   9    0.11    0.10
  -8   1   9    0.02    0.02
  -8  -1   9    0.04    0.03
  -8  -1   9   -0.09    0.08
  -8  -1   9   -0.02    0.11
  -8   1   8    0.41    0.09
  -8   1   8    0.34    0.03
  -8   1   8    0.32    0.05
  -8   1   8    0.25    0.11
  -8   1   8    0.30    0.06
  -8   1   8    0.36    0.11
  -8   1   8    0.35    0.05
  -8  -1   8    0.22    0.09
  -8  -1   8    0.42    0.05
  -8  -1   8    0.34    0.12
  -8  -1   8    0.10    0.11
  -8   1   7    7.79    0.43
  -8   1   7    6.82    0.48
  -8   1   7    6.66    0.49
  -8   1   7    6.71    0.48
  -8   1   7    7.58    0.46
  -8   1   7    7.07    0.48
  -8   1   7    7.25    0.50
  -8   1   7    7.96    0.48
  -8  -1   7    7.56    0.51
  -8  -1   7    6.58    0.43
  -8  -1   7    6.86    0.49
  -8  -1   7    7.21    0.50
  -8   1   6    1.33    0.09
  -8   1   6    1.11    0.11
  -8   1   6    1.58    0.17
   8   1  -6    1.23    0.12
  -8   1   6    1.57    0.16
  -8   1   6    1.66    0.16
  -8  -1   6    1.20    0.14
  -8  -1   6    1.12    0.15
  -8  -1   6    1.31    0.14
  -8   1   5    3.96    0.29
  -8   1   5    3.69    0.28
  -8   1   5    3.71    0.27
  -8  -1   5    3.51    0.28
  -8  -1   5    3.72    0.29
  -8  -1   5    3.67    0.29
  -8   1   4    0.34    0.09
  -8   1   4    0.34    0.09
  -8   1   4    0.31    0.08
  -8   1   4    0.38    0.10
  -8  -1   4    0.40    0.09
  -8  -1   4    0.36    0.10
   8   1  -3    5.27    0.40
   8   1  -3    5.68    0.42
  -8   1   3    6.58    0.41
  -8   1   3    6.35    0.44
  -8   1   3    6.51    0.42
  -8   1   2   26.69    1.73
  -8   1   2   26.66    1.58
   8   1  -2   25.03    1.62
  -8   1   2   25.84    1.62
   8   1  -2   24.00    1.57
  -8   1   1    0.64    0.11
   8   1  -1    0.65    0.09
  -8   1   1    0.52    0.09
  -8   1   1    0.52    0.10
   8   1  -1    0.58    0.10
   8   1  -1    0.43    0.14
  -8  -1   1    0.28    0.13
  -8   1   0    3.75    0.28
   8   1   0    3.58    0.27
   8   1   0    3.33    0.34
  -8   1   0    2.82    0.38
  -8   1   0    3.77    0.28
  -8   1   0    3.43    0.28
   8   1   0    3.86    0.26
   8   1   0    3.50    0.27
   8   1   1    0.00    0.07
   8   1   1   -0.02    0.08
  -8   1  -1    0.01    0.09
  -8   1  -1    0.04    0.07
  -8   1  -1    0.09    0.08
   8   1   1    0.07    0.08
   8   1   2   12.27    0.77
   8   1   2   12.73    0.84
  -8   1  -2   11.58    0.80
   8   1   2   13.25    0.80
  -8   1  -2   10.87    0.77
   8   1   3   51.33    3.31
   8   1   3   47.17    3.00
   8   1   3   49.57    3.08
   8   1   4    7.67    0.50
   8   1   4    7.04    0.44
   8   1   4    7.39    0.51
   8   1   4    8.12    0.55
   8   1   5    0.77    0.11
   8   1   5    0.85    0.12
   8   1   5    0.80    0.12
   8   1   5    0.67    0.08
   8   1   5    0.69    0.06
   8   1   5    0.57    0.07
   8   1   6    2.47    0.18
   8   1   6    2.72    0.24
   8   1   6    2.38    0.16
   8   1   6    2.65    0.19
   8   1   6    2.36    0.21
   8   1   6    2.39    0.17
   8   1   6    2.58    0.23
   8  -1   6    2.49    0.16
   8   1   7   20.98    1.15
   8   1   7   19.22    1.24
   8   1   7   19.09    1.36
   8   1   7   19.18    1.28
   8   1   7   19.00    1.23
   8   1   7   19.71    1.27
   8  -1   7   19.89    1.16
   8   1   8    2.45    0.14
   8   1   8    2.22    0.17
   8   1   8    2.45    0.18
   8   1   8    2.40    0.25
   8   1   8    2.32    0.17
   8   1   8    1.98    0.21
   8   1   8    2.28    0.26
   8  -1   8    2.29    0.15
   8   1   9    0.42    0.06
   8   1   9    0.41    0.05
   8   1   9    0.16    0.13
   8   1   9    0.39    0.07
   8   1   9    0.39    0.03
   8   1   9    0.28    0.07
   8  -1   9    0.26    0.07
   8  -1   9    0.33    0.05
   8   1  10    0.43    0.06
   8   1  10    0.25    0.06
   8   1  10    0.34    0.06
   8   1  10    0.38    0.06
   8  -1  10    0.29    0.06
   8  -1  10    0.42    0.05
   8   1  11    9.13    0.56
   8   1  11    8.71    0.64
   8   1  11    9.16    0.57
   8   1  11    7.66    0.57
   8  -1  11    9.26    0.51
   8  -1  11    7.96    0.58
   8   1  12    0.93    0.10
   8   1  12    0.99    0.10
   8   1  12    0.94    0.11
   8   1  12    0.81    0.08
   8  -1  12    0.84    0.06
   8  -1  12    0.61    0.09
   8   1  13    0.72    0.07
   8   1  13    0.62    0.05
   8   1  13    0.68    0.07
   8   1  13    0.59    0.08
   8  -1  13    0.61    0.07
   8  -1  13    0.42    0.07
   8   1  14    0.72    0.07
   8   1  14    0.55    0.07
   8  -1  14    0.58    0.06
   8  -1  14    0.50    0.06
   8  -1  14    0.61    0.07
   8   1  15    2.30    0.14
   8   1  15    1.99    0.14
   8  -1  15    1.87    0.14
   8  -1  15    1.96    0.14
  -8   2  17    4.02    0.30
  -8   2  16    2.05    0.13
  -8   2  16    1.59    0.15
  -8  -2  16    1.80    0.15
  -8   2  15    0.08    0.03
  -8   2  15    0.11    0.04
  -8   2  15   -0.01    0.05
  -8  -2  15    0.07    0.02
  -8  -2  15    0.11    0.04
  -8  -2  15    0.08    0.04
  -8   2  14    0.35    0.09
  -8   2  14    0.26    0.04
  -8   2  14    0.31    0.07
  -8  -2  14    0.36    0.07
  -8  -2  14    0.35    0.08
  -8  -2  14    0.33    0.04
  -8   2  13    1.10    0.12
  -8   2  13    0.83    0.12
  -8   2  13    1.08    0.12
  -8   2  13    1.14    0.09
  -8  -2  13    1.22    0.12
  -8  -2  13    1.08    0.11
  -8  -2  13    1.23    0.09
  -8   2  12   15.44    1.03
  -8   2  12   16.80    1.12
  -8   2  12   15.64    0.98
  -8   2  12   15.32    1.04
  -8  -2  12   14.37    1.02
  -8  -2  12   15.12    0.91
  -8   2  11    2.05    0.14
  -8   2  11    1.31    0.20
  -8   2  11    2.01    0.17
  -8   2  11    2.28    0.18
  -8   2  11    1.79    0.17
  -8   2  11    2.17    0.15
  -8  -2  11    2.15    0.14
  -8   2  10    1.01    0.08
  -8   2  10    0.99    0.14
  -8   2  10    1.02    0.09
  -8   2  10    0.83    0.09
  -8   2  10    0.75    0.09
  -8   2  10    0.77    0.09
  -8   2  10    0.76    0.10
  -8  -2  10    1.01    0.09
  -8   2   9    0.45    0.12
  -8   2   9    0.35    0.07
  -8   2   9    0.42    0.07
  -8   2   9    0.41    0.06
  -8   2   9    0.40    0.07
  -8   2   9    0.46    0.05
  -8   2   9    0.38    0.07
  -8   2   9    0.42    0.05
  -8   2   9    0.34    0.09
  -8  -2   9    0.39    0.05
  -8   2   8   11.31    0.75
  -8   2   8   12.05    0.73
  -8   2   8   11.54    0.77
  -8   2   8   11.87    0.76
  -8   2   8   11.74    0.79
  -8   2   8   11.53    0.74
  -8   2   8   11.55    0.78
  -8   2   8   11.50    0.84
  -8   2   8   11.81    0.78
  -8  -2   8   11.08    0.69
  -8   2   7    3.78    0.28
  -8   2   7    3.78    0.26
  -8   2   7    3.64    0.25
  -8   2   7    3.31    0.25
  -8   2   7    3.62    0.30
  -8   2   7    3.43    0.28
  -8   2   7    3.47    0.26
  -8   2   7    3.89    0.24
  -8   2   7    3.69    0.25
   8   2  -6   19.33    1.17
  -8   2   6   20.80    1.40
  -8   2   6   21.09    1.32
  -8   2   6   21.41    1.28
  -8   2   6   18.67    1.34
  -8   2   6   20.63    1.29
  -8   2   6   22.25    1.25
  -8   2   6   20.69    1.33
  -8   2   6   19.54    1.34
  -8   2   6   18.93    1.35
  -8   2   5    0.03    0.05
  -8   2   5    0.08    0.07
  -8   2   5    0.01    0.03
  -8   2   5    0.02    0.02
  -8   2   5   -0.02    0.08
   8   2  -5    0.06    0.06
  -8   2   5    0.02    0.03
  -8   2   5   -0.06    0.07
  -8   2   5    0.01    0.07
  -8   2   5    0.02    0.04
  -8  -2   5    0.05    0.06
   8   2  -4    6.34    0.43
  -8   2   4    6.71    0.48
   8   2  -4    6.33    0.46
   8   2  -4    6.66    0.40
  -8   2   4    6.40    0.45
  -8   2   4    6.13    0.42
  -8   2   4    6.02    0.42
  -8   2   4    6.25    0.38
  -8   2   4    6.52    0.44
  -8   2   3    8.34    0.55
   8   2  -3    7.38    0.51
  -8   2   3    7.60    0.54
  -8   2   3    8.14    0.52
   8   2  -3    7.67    0.55
   8   2  -3    7.80    0.48
  -8   2   3    8.31    0.58
  -8   2   2   55.20    3.52
   8   2  -2   55.17    3.14
  -8   2   2   56.07    3.71
   8   2  -2   56.25    3.45
  -8   2   2   57.86    3.36
  -8   2   2   53.68    3.45
   8   2  -2   53.13    3.36
  -8   2   1    6.51    0.47
   8   2  -1    6.77    0.44
  -8   2   1    6.46    0.49
  -8   2   1    7.01    0.44
   8   2  -1    6.57    0.46
   8   2  -1    6.13    0.41
  -8   2   0    3.56    0.30
  -8   2   0    3.40    0.28
   8   2   0    3.24    0.23
   8   2   0    3.35    0.29
  -8   2   0    3.44    0.26
   8   2   0    3.48    0.26
  -8   2  -1    1.01    0.14
  -8   2  -1    1.13    0.14
   8   2   1    0.97    0.13
   8   2   1    1.20    0.12
   8   2   1    1.23    0.14
   8   2   1    1.34    0.14
  -8   2  -1    0.97    0.13
  -8   2  -2    4.03    0.32
  -8   2  -2    3.80    0.30
   8   2   2    3.87    0.25
   8   2   2    4.18    0.28
   8   2   2    4.46    0.31
   8   2   2    4.51    0.34
   8   2   2    4.55    0.30
  -8   2  -2    4.12    0.33
  -8   2  -3   11.05    0.76
  -8   2  -3   11.64    0.80
   8   2   3   10.77    0.73
   8   2   3   12.29    0.68
   8   2   3   10.90    0.67
   8   2   3   12.69    0.75
   8   2   3   12.50    0.73
  -8   2  -3   10.98    0.73
   8   2   3   12.43    0.80
   8   2   3   11.01    0.75
   8   2   3   10.54    0.72
  -8   2  -3   10.47    0.67
  -8   2  -4    0.84    0.12
   8   2   4    0.93    0.07
   8   2   4    1.06    0.12
  -8   2  -4    0.88    0.08
   8   2   4    0.91    0.14
   8   2   4    1.01    0.09
   8   2   4    0.92    0.14
   8   2   4    0.86    0.09
   8   2   4    1.00    0.09
   8   2   4    1.18    0.12
   8   2   5    9.04    0.69
   8   2   5   10.46    0.70
   8   2   5    9.83    0.61
   8   2   5    9.33    0.62
   8   2   5    9.11    0.62
   8   2   5    9.80    0.58
   8   2   5    9.51    0.56
   8   2   5    9.62    0.61
   8   2   5    9.40    0.63
  -8   2  -5    8.92    0.56
   8   2   6    5.14    0.35
   8   2   6    4.92    0.40
   8   2   6    5.44    0.39
   8   2   6    5.34    0.34
   8   2   6    5.46    0.36
   8   2   6    4.87    0.40
   8   2   6    5.62    0.37
   8   2   6    4.94    0.31
   8   2   6    6.27    0.44
   8   2   6    5.83    0.36
   8   2   6    5.65    0.35
   8   2   7    2.02    0.20
   8   2   7    2.53    0.18
   8   2   7    2.15    0.20
   8   2   7    2.17    0.16
   8   2   7    2.60    0.17
   8   2   7    2.51    0.21
   8   2   7    2.37    0.17
   8   2   7    2.54    0.27
   8   2   7    2.04    0.21
   8   2   8   72.17    5.45
   8   2   8   85.25    4.92
   8   2   8   77.97    4.83
   8   2   8   80.63    5.17
   8   2   8   73.48    5.52
   8  -2   8   72.50    4.51
   8   2   9    5.32    0.36
   8   2   9    5.48    0.44
   8   2   9    6.02    0.37
   8   2   9    5.32    0.41
   8   2   9    5.46    0.36
   8   2   9    4.96    0.41
   8  -2   9    5.34    0.33
   8   2  10    0.45    0.08
   8   2  10    0.36    0.04
   8   2  10    0.24    0.07
   8   2  10    0.30    0.06
   8  -2  10    0.31    0.05
   8   2  11    0.33    0.05
   8   2  11    0.50    0.06
   8   2  11    0.43    0.07
   8  -2  11    0.34    0.05
   8   2  12   -0.01    0.04
   8   2  12    0.03    0.05
   8   2  12    0.04    0.04
   8  -2  12    0.03    0.04
   8  -2  12    0.03    0.02
   8   2  13    0.12    0.06
   8   2  13    0.09    0.03
   8   2  13    0.12    0.04
   8  -2  13    0.09    0.04
   8  -2  13    0.14    0.02
   8   2  14    0.88    0.06
   8   2  14    0.50    0.07
   8  -2  14    0.67    0.07
   8  -2  14    0.76    0.06
  -8   3  16    0.41    0.05
  -8   3  16    0.44    0.06
  -8  -3  16    0.36    0.06
  -8   3  15    0.08    0.04
  -8   3  15    0.02    0.05
  -8  -3  15    0.09    0.02
  -8  -3  15    0.10    0.04
  -8   3  14    8.21    0.62
  -8   3  14    8.66    0.58
  -8   3  14    8.74    0.58
  -8  -3  14    8.64    0.51
  -8   3  13    4.92    0.33
  -8   3  13    4.53    0.33
  -8   3  13    4.13    0.35
  -8  -3  13    5.08    0.29
  -8  -3  13    4.56    0.35
  -8   3  12   -0.03    0.05
  -8   3  12    0.00    0.03
  -8   3  12    0.00    0.05
   8   3 -12    0.03    0.04
  -8   3  12    0.00    0.07
  -8  -3  12    0.05    0.05
  -8   3  11   12.38    0.85
  -8   3  11   12.56    0.80
  -8   3  11   12.45    0.92
   8   3 -11   12.96    0.75
  -8   3  11   12.35    0.85
  -8  -3  11   13.26    0.75
  -8   3  10    4.83    0.32
   8   3 -10    5.15    0.30
  -8   3  10    5.09    0.34
  -8   3  10    4.59    0.38
  -8   3  10    5.11    0.35
  -8   3  10    5.09    0.35
  -8  -3  10    4.66    0.30
  -8   3   9   19.43    1.20
  -8   3   9   16.83    1.37
  -8   3   9   18.96    1.27
  -8   3   9   19.60    1.28
  -8   3   9   19.52    1.27
  -8   3   9   20.15    1.26
   8   3  -9   19.07    1.13
  -8   3   8    2.23    0.23
  -8   3   8    2.25    0.17
   8   3  -8    2.13    0.15
  -8   3   8    2.21    0.15
  -8   3   8    1.71    0.18
  -8   3   8    2.31    0.18
  -8   3   8    2.35    0.18
  -8   3   7    3.67    0.27
  -8   3   7    3.56    0.31
  -8   3   7    3.94    0.33
  -8   3   7    4.03    0.25
   8   3  -7    3.99    0.23
  -8   3   7    3.70    0.28
  -8   3   7    4.03    0.27
  -8   3   7    3.16    0.25
  -8   3   6    0.93    0.11
  -8   3   6    1.15    0.09
  -8   3   6    0.81    0.10
   8   3  -6    0.98    0.08
  -8   3   6    0.85    0.14
  -8   3   6    1.06    0.12
  -8   3   6    1.03    0.17
  -8   3   6    1.08    0.08
  -8   3   6    0.89    0.10
  -8   3   6    1.15    0.12
   8   3  -6    1.18    0.12
  -8   3   5   23.62    1.62
  -8   3   5   24.90    1.65
  -8   3   5   28.13    1.59
   8   3  -5   24.54    1.69
  -8   3   5   25.59    1.68
   8   3  -5   24.03    1.65
  -8   3   5   25.94    1.73
   8   3  -5   25.80    1.50
  -8   3   5   28.67    1.78
  -8   3   5   24.48    1.71
  -8   3   5   25.89    1.69
  -8   3   5   27.58    1.64
   8   3  -5   25.62    1.61
  -8   3   5   27.42    1.71
   8   3  -5   26.96    1.53
  -8   3   4    3.42    0.23
  -8   3   4    3.71    0.25
  -8   3   4    3.71    0.29
   8   3  -4    3.28    0.24
   8   3  -4    3.05    0.22
   8   3  -4    3.14    0.31
   8   3  -4    3.76    0.21
  -8   3   4    3.51    0.25
  -8   3   4    3.53    0.25
  -8   3   4    3.26    0.25
  -8   3   4    3.55    0.27
  -8   3   4    3.93    0.32
  -8   3   4    3.32    0.24
   8   3  -4    3.47    0.27
  -8   3   4    3.39    0.24
   8   3  -4    3.49    0.25
   8   3  -3   13.38    0.80
   8   3  -3   13.67    0.75
  -8   3   3   12.26    0.81
   8   3  -3   13.16    0.74
  -8   3   3   12.44    0.85
  -8   3   3   13.13    0.79
   8   3  -3   11.69    0.77
   8   3  -3   10.75    0.80
  -8   3   3   13.02    0.84
   8   3  -3   13.72    0.83
  -8   3   3   12.49    0.82
  -8   3   3   12.17    0.84
  -8   3   3   13.08    0.89
  -8   3   3   12.01    0.84
  -8   3   3   11.63    0.80
   8   3  -3   13.06    0.83
  -8   3   3   13.09    0.81
   8   3  -2   10.04    0.67
   8   3  -2   11.24    0.72
  -8   3   2   10.74    0.69
  -8   3   2   10.87    0.63
  -8   3   2   10.72    0.72
   8   3  -2   10.84    0.65
  -8   3   2   10.90    0.73
   8   3  -2   10.33    0.69
  -8   3   2    9.69    0.72
  -8   3   2   10.55    0.69
  -8   3   2    9.81    0.73
  -8   3   2   10.82    0.71
  -8   3   2   11.06    0.77
   8   3  -2   12.18    0.70
  -8   3   2   10.95    0.71
   8   3  -2   10.89    0.71
   8   3  -2   11.32    0.64
  -8   3   2   11.84    0.69
   8   3  -1    0.79    0.06
  -8   3   1    0.88    0.10
  -8   3   1    0.74    0.12
   8   3  -1    0.84    0.08
  -8   3   1    0.91    0.09
  -8   3   1    0.81    0.09
   8   3  -1    1.00    0.13
  -8   3   1    1.02    0.06
   8   3  -1    0.89    0.08
   8   3  -1    0.86    0.11
  -8   3   1    0.93    0.09
   8   3  -1    0.98    0.13
  -8   3   1    0.85    0.12
   8   3  -1    0.76    0.08
  -8   3   1    0.67    0.09
  -8   3   1    0.89    0.15
  -8   3   1    0.95    0.12
  -8   3   0    5.19    0.42
  -8   3   0    4.40    0.36
  -8   3   0    5.08    0.35
   8   3   0    4.62    0.39
  -8   3   0    5.29    0.40
   8   3   0    5.42    0.35
   8   3   0    5.10    0.39
  -8   3   0    5.12    0.34
   8   3   0    5.73    0.36
  -8   3   0    5.51    0.31
   8   3   0    5.35    0.34
   8   3   0    5.28    0.31
   8   3   0    5.60    0.35
   8   3   0    5.38    0.33
  -8   3   0    5.78    0.37
  -8   3   0    5.11    0.38
  -8   3  -1   14.88    1.07
   8   3   1   16.45    1.22
  -8   3  -1   16.80    1.17
   8   3   1   17.39    0.99
   8   3   1   16.96    0.99
   8   3   1   15.21    1.08
  -8   3  -1   17.70    0.99
  -8   3  -1   16.62    1.09
   8   3   1   17.49    1.05
  -8   3  -1   16.99    1.10
   8   3   1   16.49    1.06
   8   3   1   17.61    1.10
   8   3   1   18.59    1.08
  -8   3  -1   16.27    1.06
   8   3   1   17.05    1.04
   8   3   2   17.96    1.12
   8   3   2   18.70    1.04
   8   3   2   17.92    1.16
  -8   3  -2   17.55    1.15
   8   3   2   18.65    1.10
   8   3   2   16.67    1.14
  -8   3  -2   18.83    1.23
   8   3   2   19.53    1.13
   8   3   2   18.38    1.04
   8   3   2   15.84    1.28
  -8   3  -2   17.14    1.11
   8   3   2   18.02    1.09
  -8   3  -2   17.04    1.04
  -8   3  -2   15.29    1.16
   8   3   2   18.85    1.24
  -8   3  -3    7.68    0.43
   8   3   3    6.98    0.54
  -8   3  -3    6.59    0.49
  -8   3  -3    7.26    0.55
   8   3   3    7.54    0.56
   8   3   3    7.20    0.48
   8   3   3    6.99    0.48
   8   3   3    7.53    0.49
   8   3   3    7.87    0.46
   8   3   3    7.26    0.45
  -8   3  -3    6.59    0.53
   8   3   3    7.32    0.47
  -8   3  -3    6.76    0.50
   8   3   3    7.55    0.47
   8   3   4    0.22    0.06
   8   3   4    0.25    0.05
   8   3   4    0.26    0.05
   8   3   4    0.25    0.09
   8   3   4    0.24    0.05
   8   3   4    0.15    0.09
   8   3   4    0.35    0.10
  -8   3  -4    0.19    0.11
  -8   3  -4    0.27    0.13
  -8   3  -4    0.13    0.10
   8   3   4    0.26    0.05
  -8   3  -4    0.22    0.04
   8   3   4    0.28    0.08
  -8   3  -4    0.26    0.06
   8   3   5    0.67    0.07
  -8   3  -5    0.45    0.13
   8   3   5    0.63    0.07
   8   3   5    0.53    0.09
   8   3   5    0.55    0.06
   8   3   5    0.64    0.07
  -8   3  -5    0.64    0.07
  -8   3  -5    0.57    0.07
   8   3   5    0.67    0.15
   8   3   5    0.67    0.08
   8   3   5    0.54    0.10
   8   3   5    0.52    0.10
   8   3   6    7.87    0.54
   8   3   6    8.67    0.65
  -8   3  -6    8.21    0.51
   8   3   6    8.74    0.53
   8   3   6    7.57    0.56
   8   3   6    8.92    0.55
   8   3   6    8.73    0.56
   8   3   6    9.40    0.56
   8   3   6    8.23    0.63
   8   3   7   12.53    0.76
   8   3   7   11.35    0.72
   8   3   7   11.24    0.75
   8   3   7   11.92    0.74
  -8   3  -7   10.96    0.69
   8   3   7   11.46    0.84
   8   3   7   11.56    0.85
   8   3   8    4.03    0.32
  -8   3  -8    4.03    0.26
   8   3   8    4.23    0.28
   8   3   8    3.97    0.27
   8   3   8    4.53    0.29
   8   3   9    4.40    0.28
   8   3   9    4.76    0.30
   8   3   9    4.22    0.32
  -8   3  -9    4.07    0.26
   8  -3   9    3.50    0.26
   8   3  10    0.07    0.06
   8   3  10    0.17    0.04
   8   3  10    0.09    0.05
  -8   3 -10    0.05    0.05
   8  -3  10    0.12    0.03
  -8   3 -11    1.28    0.10
   8   3  11    1.49    0.13
   8   3  11    1.21    0.14
   8   3  11    1.33    0.10
   8  -3  11    1.36    0.10
   8   3  12    0.35    0.04
  -8   3 -12    0.33    0.04
   8   3  12    0.16    0.05
   8   3  12    0.19    0.06
   8  -3  12    0.36    0.04
   8   3  13    0.11    0.05
  -8   3 -13    0.15    0.04
   8   3  13    0.18    0.04
   8  -3  13    0.17    0.03
  -8   4  15    0.03    0.03
   8   4 -15    0.04    0.02
  -8  -4  15    0.02    0.02
  -8   4  14    1.07    0.10
  -8   4  14    1.33    0.10
  -8   4  14    0.99    0.10
   8   4 -14    1.37    0.08
  -8  -4  14    1.11    0.09
  -8   4  13    3.07    0.29
  -8   4  13    3.78    0.27
  -8   4  13    4.28    0.27
   8   4 -13    4.11    0.23
  -8  -4  13    3.62    0.24
  -8   4  12    4.98    0.34
  -8   4  12    4.12    0.35
   8   4 -12    4.95    0.29
  -8   4  12    5.52    0.34
   8   4 -12    4.12    0.31
  -8  -4  12    5.06    0.30
  -8   4  11    1.34    0.13
   8   4 -11    1.66    0.11
  -8   4  11    1.50    0.15
  -8   4  11    1.63    0.13
  -8   4  10    2.35    0.20
  -8   4  10    2.48    0.20
  -8   4  10    2.25    0.20
   8   4 -10    2.48    0.16
  -8   4   9    0.47    0.07
   8   4  -9    0.52    0.05
  -8   4   9    0.47    0.08
  -8   4   9    0.45    0.03
  -8   4   9    0.41    0.08
  -8   4   8    9.91    0.68
  -8   4   8   10.13    0.68
  -8   4   8   10.73    0.68
  -8   4   8   10.02    0.64
   8   4  -8    9.25    0.67
   8   4  -8   10.42    0.60
  -8   4   7    4.13    0.41
  -8   4   7    4.90    0.34
  -8   4   7    4.46    0.34
   8   4  -7    5.13    0.29
  -8   4   7    5.04    0.33
  -8   4   7    4.60    0.31
   8   4  -7    4.75    0.33
  -8   4   6    0.21    0.07
  -8   4   6    0.18    0.07
  -8   4   6    0.29    0.08
   8   4  -6    0.29    0.04
  -8   4   6    0.20    0.03
  -8   4   6    0.19    0.14
   8   4  -6    0.15    0.10
  -8   4   6    0.25    0.08
   8   4  -6    0.22    0.06
   8   4  -5    5.48    0.44
  -8   4   5    6.37    0.40
   8   4  -5    5.55    0.39
  -8   4   5    5.87    0.41
  -8   4   5    5.73    0.42
  -8   4   5    5.77    0.39
   8   4  -5    6.71    0.36
   8   4  -5    5.49    0.38
  -8   4   5    6.16    0.41
   8   4  -5    6.17    0.41
   8   4  -5    5.70    0.43
  -8   4   5    6.44    0.49
  -8   4   4    1.99    0.24
   8   4  -4    1.78    0.18
   8   4  -4    2.06    0.19
  -8   4   4    2.08    0.15
   8   4  -4    1.92    0.15
  -8   4   4    2.28    0.16
   8   4  -4    2.12    0.13
   8   4  -4    1.78    0.15
  -8   4   4    1.99    0.16
  -8   4   4    1.94    0.17
   8   4  -4    1.74    0.14
   8   4  -4    2.18    0.22
  -8   4   4    1.95    0.14
   8   4  -3    0.81    0.10
  -8   4   3    0.55    0.08
  -8   4   3    0.63    0.08
  -8   4   3    0.76    0.08
  -8   4   3    0.68    0.09
  -8   4   3    0.62    0.07
  -8   4   3    0.68    0.16
  -8   4   3    0.76    0.09
   8   4  -3    0.76    0.07
   8   4  -3    0.65    0.06
   8   4  -3    0.66    0.07
   8   4  -3    0.76    0.06
  -8   4   3    0.57    0.09
   8   4  -3    0.78    0.15
   8   4  -3    0.78    0.12
  -8   4   3    0.67    0.06
   8   4  -2    0.05    0.02
  -8   4   2    0.07    0.04
  -8   4   2   -0.01    0.13
   8   4  -2    0.04    0.03
  -8   4   2    0.07    0.04
   8   4  -2    0.06    0.10
   8   4  -2   -0.04    0.07
  -8   4   2    0.06    0.08
   8   4  -2   -0.08    0.07
  -8   4   2    0.01    0.07
  -8   4   2   -0.01    0.04
   8   4  -2    0.02    0.04
  -8   4   2    0.13    0.06
  -8   4   2    0.05    0.07
   8   4  -2    0.02    0.04
   8   4  -1    8.34    0.53
   8   4  -1    7.65    0.52
   8   4  -1    7.40    0.55
  -8   4   1    7.98    0.52
   8   4  -1    8.17    0.51
  -8   4   1    7.75    0.53
   8   4  -1    7.78    0.50
   8   4  -1    7.87    0.47
  -8   4   1    8.48    0.55
   8   4  -1    7.67    0.50
  -8   4   1    8.35    0.54
  -8   4   1    7.31    0.51
  -8   4   1    8.52    0.52
   8   4  -1    8.24    0.52
  -8   4   1    8.23    0.54
  -8   4   1    7.38    0.61
  -8   4   0    0.44    0.12
  -8   4   0    0.56    0.07
  -8   4   0    0.89    0.12
  -8   4   0    0.63    0.08
   8   4   0    0.52    0.06
   8   4   0    0.60    0.07
   8   4   0    0.60    0.07
   8   4   0    0.55    0.11
   8   4   0    0.54    0.06
   8   4   0    0.60    0.06
   8   4   0    0.67    0.10
  -8   4   0    0.63    0.07
  -8   4   0    0.62    0.16
  -8   4   0    0.52    0.08
   8   4   0    0.47    0.12
  -8   4   0    0.59    0.08
  -8   4  -1   15.57    1.03
   8   4   1   16.31    1.02
   8   4   1   14.98    0.93
  -8   4  -1   15.48    1.02
  -8   4  -1   14.32    0.98
  -8   4  -1   14.74    0.99
  -8   4  -1   15.69    1.11
  -8   4  -1   15.91    1.05
   8   4   1   15.14    1.13
   8   4   1   16.49    1.00
  -8   4  -1   15.02    1.01
   8   4   1   15.95    1.00
   8   4   1   15.02    0.99
  -8   4  -1   15.33    0.91
   8   4   1   16.22    0.96
   8   4   1   15.45    0.97
   8   4   1   16.43    0.99
   8   4   2    9.14    0.56
   8   4   2    8.37    0.57
   8   4   2    8.62    0.59
  -8   4  -2    9.31    0.53
   8   4   2    9.01    0.56
   8   4   2    9.37    0.66
  -8   4  -2    8.29    0.59
  -8   4  -2    7.73    0.58
   8   4   2    8.73    0.58
   8   4   2    9.22    0.59
  -8   4  -2    9.45    0.60
  -8   4  -2    9.14    0.60
   8   4   2    9.03    0.57
  -8   4  -2    9.44    0.62
  -8   4  -2    8.57    0.67
  -8   4  -3    0.30    0.04
  -8   4  -3    0.34    0.15
   8   4   3    0.17    0.08
   8   4   3    0.15    0.06
   8   4   3    0.26    0.05
  -8   4  -3    0.29    0.06
   8   4   3    0.38    0.04
   8   4   3    0.22    0.10
  -8   4  -3    0.02    0.13
  -8   4  -3    0.27    0.06
   8   4   3    0.29    0.05
   8   4   3    0.40    0.06
   8   4   3    0.33    0.06
  -8   4  -3    0.18    0.10
  -8   4  -3    0.37    0.07
  -8   4  -4    3.11    0.26
   8   4   4    3.28    0.23
  -8   4  -4    3.54    0.22
   8   4   4    3.69    0.29
  -8   4  -4    3.65    0.26
   8   4   4    3.92    0.25
  -8   4  -4    3.10    0.25
   8   4   4    3.60    0.27
   8   4   4    3.75    0.24
   8   4   4    4.16    0.24
   8   4   4    3.68    0.24
  -8   4  -4    3.44    0.34
  -8   4  -4    3.27    0.29
  -8   4  -5    8.28    0.60
   8   4   5    8.46    0.66
   8   4   5    8.24    0.56
  -8   4  -5    8.29    0.53
   8   4   5   10.20    0.56
   8   4   5    9.55    0.59
   8   4   5    9.75    0.57
   8   4   5    8.14    0.68
  -8   4  -6   23.39    1.37
   8   4   6   22.38    1.69
   8   4   6   23.40    1.43
   8   4   6   24.04    1.47
   8   4   6   23.85    1.50
  -8   4  -6   22.90    1.53
   8   4   7    1.48    0.11
   8   4   7    1.49    0.14
   8   4   7    1.51    0.16
  -8   4  -7    1.53    0.11
  -8   4  -7    1.48    0.13
   8   4   7    1.32    0.11
   8   4   8   57.05    3.57
   8   4   8   53.63    3.40
   8   4   8   55.98    3.50
  -8   4  -8   57.89    3.27
   8   4   8   56.65    4.01
  -8   4  -8   53.53    3.63
  -8   4  -9    4.15    0.24
  -8   4  -9    3.04    0.27
   8   4   9    4.08    0.27
   8   4   9    3.76    0.24
   8   4   9    3.92    0.30
   8   4  10    5.48    0.42
  -8   4 -10    5.58    0.34
   8   4  10    5.71    0.38
   8   4  11    0.66    0.08
  -8   4 -11    0.78    0.06
   8   4  11    0.73    0.07
   8  -4  11    0.75    0.06
   8   4  12    1.13    0.10
   8   4  12    1.04    0.09
  -8   4 -12    1.26    0.08
   8  -4  12    1.23    0.08
  -8   5  13    5.59    0.34
   8   5 -13    4.86    0.29
  -8   5  13    5.52    0.34
  -8  -5  13    3.99    0.30
   8   5 -12    0.72    0.05
  -8   5  12    0.68    0.08
   8   5 -12    0.67    0.08
  -8   5  12    0.58    0.08
  -8  -5  12    0.71    0.06
  -8   5  11   11.66    0.75
   8   5 -11   10.76    0.71
   8   5 -11   10.75    0.66
   8   5 -11   10.68    0.74
  -8   5  11   11.87    0.74
  -8   5  10    0.75    0.08
  -8   5  10    0.79    0.09
   8   5 -10    0.62    0.05
  -8   5  10    0.68    0.09
   8   5 -10    0.70    0.08
   8   5 -10    0.64    0.07
  -8   5   9   34.88    2.26
   8   5  -9   31.95    2.02
  -8   5   9   33.51    2.27
  -8   5   9   34.84    2.29
   8   5  -9   35.36    2.18
   8   5  -9   35.97    2.24
  -8   5   8    0.04    0.06
   8   5  -8    0.05    0.03
  -8   5   8    0.08    0.05
   8   5  -8    0.05    0.04
  -8   5   8    0.04    0.08
   8   5  -8    0.07    0.04
   8   5  -7    0.30    0.06
  -8   5   7    0.31    0.08
   8   5  -7    0.33    0.04
  -8   5   7    0.41    0.06
   8   5  -7    0.39    0.06
  -8   5   7    0.39    0.09
   8   5  -7    0.34    0.05
  -8   5   6    0.10    0.09
   8   5  -6    0.03    0.06
  -8   5   6    0.03    0.06
   8   5  -6    0.08    0.05
   8   5  -6    0.04    0.02
  -8   5   6    0.11    0.05
  -8   5   6    0.01    0.05
  -8   5   5   20.87    1.51
   8   5  -5   24.18    1.45
  -8   5   5   22.43    1.52
   8   5  -5   24.12    1.46
   8   5  -5   26.13    1.50
  -8   5   5   24.48    1.53
  -8   5   5   22.87    1.46
   8   5  -5   19.32    1.34
  -8   5   5   22.24    1.44
  -8   5   4    0.72    0.08
   8   5  -4    0.68    0.08
   8   5  -4    0.61    0.07
   8   5  -4    0.67    0.07
  -8   5   4    0.70    0.07
  -8   5   4    0.70    0.10
   8   5  -4    0.68    0.08
  -8   5   4    0.64    0.10
   8   5  -3   21.51    1.31
  -8   5   3   21.73    1.31
   8   5  -3   19.82    1.30
   8   5  -3   19.74    1.26
  -8   5   3   19.86    1.29
  -8   5   3   20.02    1.37
   8   5  -3   20.91    1.34
  -8   5   3   20.68    1.36
  -8   5   2    0.27    0.08
   8   5  -2    0.17    0.05
   8   5  -2    0.10    0.06
  -8   5   2    0.28    0.08
   8   5  -2    0.13    0.04
  -8   5   2    0.06    0.04
  -8   5   2    0.08    0.07
   8   5  -2    0.13    0.03
   8   5  -1    2.79    0.18
   8   5  -1    2.43    0.18
   8   5  -1    2.20    0.20
  -8   5   1    2.50    0.21
  -8   5   1    2.58    0.27
  -8   5   1    2.48    0.20
  -8   5   1    2.58    0.18
  -8   5   1    2.52    0.19
   8   5  -1    2.60    0.18
   8   5  -1    2.58    0.17
  -8   5   1    2.22    0.16
  -8   5   0    0.41    0.08
   8   5   0    0.32    0.06
   8   5   0    0.41    0.05
   8   5   0    0.38    0.05
  -8   5   0    0.44    0.05
  -8   5   0    0.32    0.06
   8   5   0    0.40    0.06
  -8   5   0    0.45    0.07
  -8   5   0    0.40    0.08
   8   5   0    0.43    0.06
   8   5   1   14.40    0.90
   8   5   1   14.08    0.90
  -8   5  -1   14.66    0.93
   8   5   1   14.72    0.92
   8   5   1   14.48    0.88
   8   5   1   12.05    0.92
  -8   5  -1   13.65    0.94
  -8   5  -1   15.57    0.96
  -8   5  -1   13.92    0.90
  -8   5  -2    3.49    0.24
   8   5   2    3.54    0.23
  -8   5  -2    3.44    0.24
   8   5   2    3.14    0.24
   8   5   2    3.61    0.23
  -8   5  -2    3.58    0.26
  -8   5  -2    3.61    0.27
   8   5   2    3.52    0.24
   8   5   3    0.18    0.06
  -8   5  -3    0.15    0.06
   8   5   3    0.14    0.04
   8   5   3    0.24    0.09
  -8   5  -3    0.22    0.07
  -8   5  -3    0.24    0.06
   8   5   3    0.14    0.04
  -8   5  -3    0.09    0.08
   8   5   4   -0.02    0.04
   8   5   4   -0.03    0.05
   8   5   4    0.03    0.06
  -8   5  -4    0.05    0.06
  -8   5  -4    0.05    0.07
  -8   5  -4    0.00    0.05
  -8   5  -4   -0.08    0.06
   8   5   4   -0.03    0.03
   8   5   5    3.86    0.23
  -8   5  -5    2.74    0.24
   8   5   5    3.42    0.24
   8   5   5    3.25    0.22
   8   5   5    3.42    0.27
  -8   5  -5    3.43    0.26
  -8   5  -5    3.39    0.24
  -8   5  -5    3.38    0.24
   8   5   6    7.93    0.48
  -8   5  -6    6.82    0.49
  -8   5  -6    7.37    0.50
   8   5   6    7.77    0.54
   8   5   6    7.90    0.46
  -8   5  -6    6.26    0.48
  -8   5  -6    7.13    0.49
   8   5   6    6.88    0.46
  -8   5  -7    0.85    0.10
   8   5   7    0.92    0.08
  -8   5  -7    0.78    0.10
   8   5   7    0.84    0.07
   8   5   7    1.02    0.10
  -8   5  -7    0.74    0.05
   8   5   8    0.16    0.06
   8   5   8    0.14    0.08
  -8   5  -8    0.14    0.06
  -8   5  -8    0.20    0.07
   8   5   8    0.13    0.03
  -8   5  -8    0.13    0.02
   8   5   9    4.63    0.30
  -8   5  -9    4.30    0.31
  -8   5  -9    4.35    0.30
   8   5  10    1.04    0.08
  -8   5 -10    0.99    0.09
   8   5  10    0.84    0.09
  -8   5 -10    1.18    0.09
   8   5  11    3.08    0.23
   8   6 -11    0.05    0.03
   8   6 -10    0.41    0.05
  -8   6  10    0.38    0.05
   8   6 -10    0.37    0.05
  -8   6   9    0.10    0.06
   8   6  -9    0.14    0.04
   8   6  -9    0.07    0.04
  -8   6   9    0.09    0.05
   8   6  -9    0.09    0.04
   8   6  -8    0.34    0.05
   8   6  -8    0.32    0.05
  -8   6   8    0.23    0.05
   8   6  -8    0.29    0.04
  -8   6   8    0.39    0.06
  -8   6   7    1.51    0.15
   8   6  -7    1.55    0.11
   8   6  -7    1.41    0.12
   8   6  -7    1.60    0.13
  -8   6   7    1.50    0.13
  -8   6   6    0.57    0.08
   8   6  -6    0.46    0.06
   8   6  -6    0.74    0.07
   8   6  -6    0.82    0.09
  -8   6   6    0.73    0.08
  -8   6   5    0.13    0.06
  -8   6   5    0.10    0.06
  -8   6   5    0.03    0.08
   8   6  -5    0.12    0.06
   8   6  -5    0.06    0.03
   8   6  -5    0.07    0.05
   8   6  -4    1.38    0.11
   8   6  -4    1.31    0.10
   8   6  -4    1.27    0.11
  -8   6   4    1.17    0.11
  -8   6   4    1.30    0.14
  -8   6   4    1.20    0.15
   8   6  -3    0.06    0.02
   8   6  -3    0.07    0.03
  -8   6   3   -0.01    0.05
   8   6  -3    0.05    0.06
   8   6  -3    0.01    0.04
  -8   6   3    0.08    0.08
  -8   6   3    0.12    0.08
  -8   6   2    1.05    0.11
   8   6  -2    0.99    0.08
  -8   6   2    1.08    0.11
   8   6  -2    0.93    0.09
  -8   6   2    0.95    0.11
  -8   6   2    1.04    0.08
   8   6  -2    1.08    0.11
   8   6  -1    1.81    0.13
  -8   6   1    1.82    0.15
  -8   6   1    1.75    0.15
  -8   6   1    1.78    0.13
  -8   6   1    1.67    0.15
   8   6  -1    1.73    0.13
   8   6  -1    1.91    0.14
  -8   6   0    1.19    0.12
  -8   6   0    1.36    0.15
   8   6   0    1.26    0.10
  -8   6   0    1.33    0.10
  -8   6   0    1.26    0.14
   8   6   0    1.32    0.11
   8   6   0    1.37    0.12
   8   6   1    0.43    0.06
   8   6   1    0.48    0.07
  -8   6  -1    0.41    0.06
  -8   6  -1    0.46    0.08
   8   6   1    0.48    0.05
  -8   6  -1    0.53    0.07
   8   6   1    0.48    0.06
  -8   6  -2    3.25    0.23
   8   6   2    3.19    0.22
   8   6   2    2.97    0.21
  -8   6  -2    3.03    0.22
   8   6   2    3.30    0.20
   8   6   2    3.33    0.22
  -8   6  -2    2.97    0.23
  -8   6  -3    0.01    0.07
  -8   6  -3   -0.03    0.05
  -8   6  -3    0.01    0.05
   8   6   3    0.04    0.05
   8   6   3    0.00    0.04
  -8   6  -4    6.89    0.50
   8   6   4    7.76    0.51
   8   6   4    8.09    0.48
  -8   6  -4    7.43    0.52
  -8   6  -4    7.83    0.52
  -8   6  -4    8.36    0.50
   8   6   5    0.16    0.04
  -8   6  -5    0.17    0.06
  -8   6  -5    0.09    0.07
   8   6   5    0.14    0.04
  -8   6  -5    0.21    0.03
  -8   6  -5    0.25    0.05
  -8   6  -6   18.66    1.27
  -8   6  -6   18.61    1.28
  -8   6  -6   19.59    1.25
   8   6   6   20.99    1.23
  -8   6  -6   19.98    1.22
   8   6   6   17.38    1.18
   8   6   7    0.20    0.03
   8   6   7    0.20    0.04
  -8   6  -7    0.17    0.06
  -8   6  -7    0.25    0.04
  -8   6  -7    0.17    0.05
  -8   6  -8   26.08    1.63
   8   6   8   23.89    1.53
   8   6   8   25.30    1.61
   8   7  -6    0.07    0.03
  -8   7   6    0.04    0.05
  -8   7   6    0.20    0.04
   8   7  -6    0.14    0.04
   8   7  -5   11.30    0.70
  -8   7   5   10.27    0.73
   8   7  -5   11.16    0.69
  -8   7   4    0.58    0.06
   8   7  -4    0.70    0.06
  -8   7   4    0.46    0.08
   8   7  -4    0.47    0.05
   8   7  -3    7.96    0.47
   8   7  -3    6.70    0.47
   8   7  -2    0.22    0.04
  -8   7   2    0.34    0.06
   8   7  -2    0.36    0.04
   8   7  -2    0.31    0.03
   8   7  -1    0.21    0.04
   8   7  -1    0.20    0.04
   8   7   0    1.36    0.12
  -8   7   0    1.67    0.13
   8   7   0    1.62    0.11
  -8   7  -1    7.52    0.51
  -8   7  -2    1.02    0.09
  -8   7  -2    1.01    0.07
   8   7   2    0.95    0.08
   8   7   3    0.13    0.03
   8   7   3    0.11    0.03
  -8   7  -3    0.08    0.04
  -8   7  -3    0.14    0.02
   8   7   4    0.00    0.02
  -8   7  -4    0.01    0.02
   8   7   4    0.03    0.02
  -9   0  17    0.04    0.03
  -9   0  17    0.02    0.04
  -9   0  16    0.13    0.05
  -9   0  16    0.11    0.04
  -9   0  15   -0.02    0.04
  -9   0  15    0.01    0.03
  -9   0  15   -0.05    0.05
  -9   0  14    0.12    0.07
  -9   0  14    0.08    0.04
  -9   0  14    0.06    0.06
  -9   0  13    0.02    0.04
  -9   0  13   -0.02    0.05
  -9   0  13   -0.04    0.05
  -9   0  12    1.07    0.07
  -9   0  12    1.03    0.12
  -9   0  12    1.32    0.14
  -9   0  12    1.35    0.11
  -9   0  11   -0.01    0.03
  -9   0  11   -0.02    0.11
  -9   0  11    0.05    0.05
  -9   0  11    0.00    0.06
  -9   0  10   13.10    0.96
  -9   0  10   14.98    0.93
  -9   0  10   16.67    0.96
  -9   0  10   13.59    0.97
  -9   0  10   14.26    0.98
  -9   0  10   14.61    0.86
  -9   0   9    0.02    0.10
  -9   0   9    0.00    0.05
  -9   0   9   -0.02    0.04
  -9   0   9    0.01    0.11
  -9   0   9   -0.01    0.05
  -9   0   9    0.01    0.09
  -9   0   9   -0.02    0.05
  -9   0   8    2.05    0.18
  -9   0   8    2.53    0.15
  -9   0   8    2.56    0.24
  -9   0   8    2.28    0.23
  -9   0   8    2.14    0.22
  -9   0   8    2.46    0.18
  -9   0   8    2.33    0.17
  -9   0   7    0.03    0.03
  -9   0   7   -0.09    0.09
  -9   0   7   -0.01    0.05
  -9   0   7    0.06    0.05
  -9   0   7   -0.01    0.05
  -9   0   7    0.03    0.10
  -9   0   7    0.02    0.10
  -9   0   6    0.64    0.11
  -9   0   6    0.59    0.05
  -9   0   6    0.58    0.12
  -9   0   6    0.70    0.15
  -9   0   5    0.05    0.10
  -9   0   5   -0.03    0.06
  -9   0   5   -0.04    0.08
  -9   0   4    5.97    0.44
  -9   0   4    5.92    0.41
  -9   0   3    0.16    0.09
  -9   0   3   -0.12    0.09
  -9   0   2    3.50    0.27
  -9   0   2    3.62    0.28
  -9   0   1   -0.07    0.08
  -9   0   1    0.04    0.11
   9   0   1    0.02    0.08
   9   0   1   -0.03    0.07
   9   0   2    7.53    0.52
   9   0   2    8.18    0.54
   9   0   3    0.13    0.11
   9   0   3    0.04    0.08
   9   0   4    3.89    0.29
   9   0   4    4.05    0.31
   9   0   4    3.62    0.23
   9   0   5    0.01    0.10
   9   0   5    0.07    0.09
   9   0   5   -0.02    0.05
   9   0   5    0.00    0.03
   9   0   6    4.31    0.33
   9   0   6    5.42    0.37
   9   0   6    4.81    0.38
   9   0   6    5.01    0.29
   9   0   7   -0.03    0.05
   9   0   7   -0.03    0.09
   9   0   7    0.02    0.11
   9   0   7   -0.01    0.03
   9   0   8   28.27    1.60
   9   0   8   26.07    1.78
   9   0   9   -0.01    0.05
   9   0   9   -0.04    0.04
   9   0   9   -0.02    0.03
   9   0  10   26.51    1.72
   9   0  10   26.73    1.59
   9   0  10   28.22    1.78
   9   0  11   -0.07    0.05
   9   0  11   -0.02    0.04
   9   0  11    0.01    0.01
   9   0  11    0.03    0.06
   9   0  12    1.69    0.14
   9   0  12    1.80    0.13
   9   0  12    1.55    0.14
   9   0  13   -0.02    0.04
   9   0  13   -0.01    0.04
   9   0  13    0.03    0.04
   9   0  14   15.57    1.02
   9   0  14   17.61    1.01
   9   0  14   14.78    1.04
  -9   1  17   17.15    1.08
  -9   1  16    0.57    0.06
  -9   1  16    0.55    0.07
  -9  -1  16    0.53    0.07
  -9  -1  16    0.55    0.06
  -9  -1  16    0.38    0.07
  -9   1  15    9.82    0.79
  -9   1  15   12.12    0.70
  -9  -1  15   10.51    0.79
  -9  -1  15   10.92    0.70
  -9  -1  15   11.03    0.72
  -9   1  14    2.16    0.16
  -9   1  14    2.02    0.15
  -9   1  14    2.39    0.19
  -9   1  14    2.07    0.17
  -9  -1  14    2.20    0.17
  -9  -1  14    2.10    0.18
  -9  -1  14    2.51    0.19
  -9   1  13    3.96    0.30
  -9   1  13    3.54    0.25
  -9   1  13    3.60    0.26
  -9   1  13    3.71    0.25
  -9  -1  13    3.78    0.29
  -9  -1  13    3.21    0.22
  -9  -1  13    4.03    0.26
  -9   1  12    0.04    0.05
  -9   1  12    0.04    0.07
  -9   1  12    0.02    0.05
  -9   1  12    0.07    0.06
  -9  -1  12   -0.01    0.03
  -9  -1  12    0.06    0.07
  -9   1  11   26.79    1.63
  -9   1  11   23.70    1.65
  -9   1  11   23.28    1.63
  -9   1  11   27.02    1.79
  -9   1  11   23.38    1.58
  -9  -1  11   26.22    1.47
  -9  -1  11   23.95    1.63
  -9   1  10    9.39    0.69
  -9   1  10    8.79    0.64
  -9   1  10    9.94    0.63
  -9   1  10    9.54    0.72
  -9   1  10   11.10    0.65
  -9   1  10    9.51    0.66
  -9  -1  10    9.96    0.66
  -9  -1  10    9.91    0.59
  -9   1   9   69.99    3.78
  -9   1   9   65.73    4.11
  -9   1   9   61.74    4.23
  -9   1   9   71.22    4.58
  -9   1   9   67.14    4.19
  -9   1   9   68.83    4.06
  -9   1   9   56.08    4.01
  -9  -1   9   63.87    4.20
  -9  -1   9   58.18    4.03
  -9  -1   9   63.16    4.10
  -9  -1   9   65.91    3.78
  -9  -1   9   61.21    3.94
  -9   1   8    2.25    0.24
  -9   1   8    2.56    0.15
  -9   1   8    2.22    0.17
  -9   1   8    2.38    0.18
  -9   1   8    2.53    0.18
  -9   1   8    2.10    0.22
  -9   1   8    2.33    0.21
  -9  -1   8    2.14    0.25
  -9  -1   8    1.98    0.22
  -9  -1   8    2.45    0.16
  -9  -1   8    2.26    0.22
  -9   1   7    0.35    0.06
  -9   1   7    0.31    0.03
  -9   1   7    0.19    0.11
  -9   1   7    0.28    0.05
  -9   1   7    0.29    0.10
  -9   1   7    0.27    0.06
  -9   1   7    0.31    0.09
  -9  -1   7    0.03    0.11
  -9  -1   7    0.34    0.11
  -9  -1   7    0.47    0.11
  -9  -1   7    0.34    0.05
  -9   1   6    0.04    0.09
  -9   1   6    0.06    0.05
   9   1  -6   -0.01    0.05
  -9   1   6    0.14    0.08
  -9   1   6    0.02    0.09
  -9   1   6   -0.01    0.05
  -9   1   6    0.06    0.03
  -9  -1   6    0.03    0.04
  -9  -1   6    0.08    0.09
  -9   1   5   16.47    0.98
  -9   1   5   16.89    1.04
  -9   1   5   17.20    1.10
  -9   1   5   16.86    1.07
  -9   1   5   15.92    1.09
  -9  -1   5   16.59    1.09
  -9   1   4   -0.03    0.08
  -9   1   4   -0.02    0.09
  -9   1   4   -0.02    0.03
  -9   1   4   -0.03    0.09
  -9   1   3    0.45    0.09
  -9   1   3    0.57    0.11
  -9   1   3    0.60    0.12
  -9   1   2    2.29    0.21
   9   1  -2    2.39    0.23
  -9   1   2    2.38    0.21
  -9   1   2    2.50    0.22
   9   1  -2    2.28    0.20
   9   1  -1   22.90    1.57
  -9   1   1   25.06    1.68
  -9   1   1   24.62    1.58
  -9   1   1   26.14    1.54
   9   1  -1   25.33    1.53
   9   1   0    0.04    0.09
   9   1   0    0.10    0.08
  -9   1   0    0.00    0.10
  -9   1   0    0.10    0.06
  -9   1   0    0.07    0.09
  -9   1  -1   28.20    1.80
   9   1   1   28.97    1.97
  -9   1  -1   27.16    1.85
   9   1   1   30.38    1.80
   9   1   1   31.56    1.85
   9   1   2    1.21    0.14
   9   1   2    1.19    0.15
   9   1   2    1.21    0.13
   9   1   3    2.97    0.23
   9   1   3    3.35    0.20
   9   1   3    3.33    0.27
   9   1   3    3.57    0.26
   9   1   3    3.32    0.28
   9   1   4    0.26    0.09
   9   1   4    0.20    0.04
   9   1   4    0.23    0.03
   9   1   4    0.18    0.05
   9   1   4    0.14    0.08
   9   1   4    0.13    0.10
   9   1   5   28.26    1.57
   9   1   5   25.10    1.75
   9   1   5   29.16    1.71
   9   1   5   25.77    1.65
   9   1   5   31.04    1.83
   9   1   5   24.46    1.69
   9  -1   5   24.50    1.58
   9   1   6    3.50    0.19
   9   1   6    2.92    0.23
   9   1   6    3.01    0.22
   9   1   6    3.11    0.29
   9   1   6    3.17    0.28
   9   1   6    3.11    0.21
   9   1   6    2.66    0.21
   9  -1   6    2.92    0.19
   9   1   7    0.10    0.03
   9   1   7    0.08    0.05
   9   1   7    0.13    0.05
   9   1   7    0.15    0.13
   9   1   7    0.15    0.09
   9   1   7    0.12    0.05
   9   1   7    0.02    0.11
   9  -1   7    0.15    0.04
   9   1   8    0.37    0.06
   9   1   8    0.13    0.09
   9   1   8    0.21    0.06
   9   1   8    0.32    0.03
   9   1   8    0.30    0.06
   9  -1   8    0.34    0.05
   9   1   9    3.38    0.25
   9   1   9    3.69    0.26
   9   1   9    3.63    0.26
   9  -1   9    3.51    0.27
   9  -1   9    4.11    0.23
   9   1  10    1.71    0.15
   9   1  10    1.96    0.15
   9   1  10    1.98    0.16
   9  -1  10    2.13    0.13
   9  -1  10    1.94    0.15
   9   1  11    1.50    0.13
   9   1  11    1.51    0.12
   9   1  11    1.70    0.12
   9  -1  11    1.46    0.10
   9  -1  11    1.45    0.13
   9   1  12    2.63    0.18
   9   1  12    2.69    0.19
   9   1  12    2.73    0.19
   9  -1  12    2.80    0.19
   9  -1  12    2.40    0.16
   9   1  13    2.76    0.19
   9   1  13    2.87    0.19
   9  -1  13    2.50    0.19
   9   1  14    0.04    0.03
   9   1  14   -0.01    0.02
   9  -1  14   -0.01    0.02
   9  -1  14    0.06    0.03
  -9   2  16    0.04    0.04
  -9  -2  16    0.00    0.04
  -9  -2  16    0.01    0.03
  -9   2  15    3.13    0.25
  -9   2  15    4.22    0.24
  -9   2  15    3.95    0.28
  -9  -2  15    3.54    0.26
  -9  -2  15    3.62    0.28
  -9   2  14    0.04    0.07
  -9   2  14    0.07    0.03
  -9   2  14    0.09    0.05
  -9  -2  14    0.10    0.04
  -9  -2  14    0.11    0.05
  -9  -2  14    0.11    0.03
  -9   2  13    4.67    0.29
  -9   2  13    4.72    0.31
  -9   2  13    4.16    0.31
  -9   2  13    4.42    0.35
  -9  -2  13    4.21    0.34
  -9  -2  13    4.13    0.32
  -9  -2  13    4.84    0.27
  -9   2  12   11.72    0.74
  -9   2  12   12.41    0.85
  -9   2  12   11.11    0.78
  -9   2  12   11.43    0.78
  -9  -2  12   10.93    0.77
  -9  -2  12   12.08    0.69
  -9   2  11    6.27    0.43
  -9   2  11    6.88    0.45
  -9   2  11    6.12    0.45
  -9   2  11    7.01    0.49
  -9   2  11    6.41    0.42
  -9  -2  11    6.60    0.40
  -9   2  10   12.66    0.97
  -9   2  10   14.28    0.87
  -9   2  10   13.97    0.85
  -9   2  10   12.95    0.89
  -9   2  10   12.96    0.90
  -9   2  10   12.92    0.91
  -9  -2  10   13.49    0.79
  -9   2   9    3.79    0.28
  -9   2   9    4.31    0.29
  -9   2   9    3.45    0.28
  -9   2   9    3.86    0.34
  -9   2   9    3.73    0.30
  -9   2   9    4.26    0.27
  -9   2   9    4.57    0.27
  -9   2   9    3.25    0.29
  -9  -2   9    3.96    0.25
  -9   2   8    1.26    0.18
  -9   2   8    1.33    0.13
  -9   2   8    1.35    0.15
  -9   2   8    1.43    0.11
  -9   2   8    1.35    0.13
  -9   2   8    1.41    0.13
  -9   2   8    1.31    0.14
  -9   2   8    1.36    0.15
  -9   2   8    1.48    0.12
  -9  -2   8    1.52    0.11
  -9   2   7    2.77    0.20
  -9   2   7    2.43    0.21
  -9   2   7    2.70    0.19
  -9   2   7    2.36    0.21
  -9   2   7    2.43    0.19
  -9   2   7    2.65    0.26
  -9   2   7    2.73    0.20
  -9   2   7    2.71    0.23
  -9   2   7    2.68    0.18
  -9   2   6    0.11    0.04
   9   2  -6    0.06    0.06
  -9   2   6    0.00    0.10
  -9   2   6    0.07    0.04
  -9   2   6    0.10    0.05
  -9   2   6    0.08    0.09
  -9   2   6   -0.03    0.10
  -9   2   6    0.08    0.06
  -9   2   6    0.11    0.01
  -9   2   6    0.06    0.04
  -9   2   5    0.04    0.10
  -9   2   5    0.03    0.07
   9   2  -5    0.06    0.07
   9   2  -5    0.01    0.02
  -9   2   5    0.05    0.10
  -9   2   5    0.02    0.04
  -9   2   5    0.04    0.05
  -9   2   5    0.04    0.05
  -9   2   5    0.01    0.04
  -9   2   5    0.09    0.10
  -9   2   5    0.06    0.04
  -9   2   5    0.05    0.02
  -9  -2   5    0.06    0.08
   9   2  -4    1.01    0.13
  -9   2   4    0.91    0.11
   9   2  -4    1.19    0.13
   9   2  -4    1.08    0.08
   9   2  -4    1.09    0.17
  -9   2   4    1.39    0.15
  -9   2   4    1.13    0.10
  -9   2   4    1.18    0.15
  -9   2   4    1.20    0.10
  -9   2   4    1.26    0.08
  -9   2   4    1.22    0.16
  -9   2   4    1.24    0.14
   9   2  -3   22.88    1.49
  -9   2   3   24.70    1.44
  -9   2   3   21.68    1.52
  -9   2   3   24.77    1.52
   9   2  -3   23.44    1.44
  -9   2   3   25.64    1.59
  -9   2   3   24.42    1.37
   9   2  -3   24.26    1.35
   9   2  -3   21.00    1.37
  -9   2   3   21.63    1.55
  -9   2   3   22.34    1.47
  -9   2   3   23.71    1.48
   9   2  -2    1.18    0.15
   9   2  -2    1.42    0.15
  -9   2   2    1.31    0.16
   9   2  -2    1.35    0.14
   9   2  -2    1.22    0.09
  -9   2   2    1.43    0.16
  -9   2   2    1.30    0.11
  -9   2   2    1.44    0.14
  -9   2   2    1.19    0.12
  -9   2   2    1.11    0.10
  -9   2   2    1.31    0.15
  -9   2   2    1.44    0.09
   9   2  -1   10.95    0.65
  -9   2   1    9.71    0.72
   9   2  -1   10.73    0.69
  -9   2   1   10.99    0.76
  -9   2   1   10.62    0.71
  -9   2   1   11.76    0.69
   9   2  -1   10.55    0.71
   9   2  -1   10.52    0.63
  -9   2   1   10.64    0.71
  -9   2   1   10.72    0.63
  -9   2   0    2.85    0.25
   9   2   0    2.97    0.18
  -9   2   0    2.78    0.24
   9   2   0    2.77    0.20
   9   2   0    2.96    0.21
  -9   2   0    2.72    0.18
  -9   2   0    3.26    0.26
   9   2   0    3.09    0.25
  -9   2   0    2.49    0.21
   9   2   0    3.07    0.23
  -9   2  -1    2.18    0.20
   9   2   1    2.16    0.21
  -9   2  -1    2.02    0.22
   9   2   1    1.79    0.15
   9   2   1    2.11    0.20
   9   2   1    1.96    0.18
   9   2   1    2.32    0.20
  -9   2  -1    2.17    0.21
  -9   2  -1    1.73    0.16
   9   2   1    1.74    0.15
  -9   2  -1    2.21    0.13
   9   2   1    2.09    0.13
  -9   2  -2    0.78    0.12
   9   2   2    1.00    0.07
   9   2   2    0.85    0.08
   9   2   2    1.02    0.09
   9   2   2    1.10    0.12
   9   2   2    0.85    0.09
   9   2   2    1.05    0.12
  -9   2  -2    1.09    0.14
  -9   2  -2    0.96    0.11
   9   2   2    0.93    0.14
  -9   2  -2    0.75    0.08
   9   2   2    0.94    0.14
  -9   2  -2    0.81    0.14
   9   2   3   16.42    1.11
   9   2   3   17.94    1.13
  -9   2  -3   17.39    1.02
  -9   2  -3   16.12    1.13
   9   2   3   17.61    1.10
   9   2   3   18.76    1.09
   9   2   3   16.76    1.02
   9   2   3   18.14    1.20
  -9   2  -3   14.25    1.09
   9   2   3   18.61    1.12
   9   2   3   18.07    1.02
   9   2   4    0.78    0.12
   9   2   4    0.87    0.09
   9   2   4    0.81    0.13
   9   2   4    0.93    0.06
   9   2   4    0.81    0.14
  -9   2  -4    0.74    0.08
   9   2   4    0.76    0.09
   9   2   4    0.88    0.15
   9   2   4    0.81    0.09
   9   2   5    0.72    0.07
   9   2   5    0.82    0.11
  -9   2  -5    0.57    0.06
   9   2   5    0.63    0.08
   9   2   5    0.77    0.12
   9   2   5    0.65    0.10
   9   2   5    0.67    0.14
   9   2   5    0.66    0.07
   9   2   5    0.78    0.05
   9   2   6    0.53    0.07
   9   2   6    0.68    0.13
   9   2   6    0.62    0.07
   9   2   6    0.42    0.06
   9   2   6    0.55    0.07
   9   2   6    0.56    0.10
   9   2   6    0.54    0.04
   9   2   6    0.48    0.11
   9   2   6    0.66    0.12
  -9   2  -6    0.52    0.06
   9   2   7    4.97    0.32
   9   2   7    4.81    0.33
   9   2   7    4.33    0.31
   9   2   7    5.15    0.35
   9   2   7    5.03    0.42
   9   2   7    4.98    0.33
   9  -2   7    4.81    0.30
   9   2   8   57.30    3.46
   9   2   8   51.87    3.72
   9   2   8   54.16    3.58
   9   2   8   59.12    3.52
   9  -2   8   52.48    3.23
   9   2   9    2.19    0.17
   9   2   9    1.98    0.15
   9   2   9    2.11    0.15
   9   2   9    2.03    0.17
   9  -2   9    1.88    0.13
   9   2  10    0.08    0.05
   9   2  10    0.10    0.03
   9   2  10    0.17    0.06
   9   2  10    0.10    0.06
   9  -2  10    0.09    0.04
   9   2  11   -0.05    0.04
   9   2  11    0.02    0.04
   9   2  11    0.03    0.04
   9  -2  11    0.00    0.03
   9   2  12    0.71    0.06
   9   2  12    0.59    0.07
   9  -2  12    0.53    0.05
   9  -2  12    0.57    0.07
   9   2  13    0.99    0.08
   9   2  13    1.05    0.07
   9  -2  13    0.82    0.06
   9  -2  13    0.86    0.08
   9  -2  13    0.92    0.08
   9   2  14    2.52    0.15
   9   2  14    2.65    0.16
   9  -2  14    1.93    0.15
   9  -2  14    1.97    0.16
  -9   3  15    0.73    0.08
   9   3 -15    0.88    0.06
  -9   3  15    0.60    0.08
  -9  -3  15    0.95    0.06
  -9  -3  15    0.67    0.08
  -9  -3  15    0.59    0.07
   9   3 -14    0.29    0.04
  -9   3  14    0.25    0.05
  -9   3  14    0.24    0.05
  -9   3  14    0.16    0.07
  -9  -3  14    0.21    0.04
  -9  -3  14    0.17    0.06
  -9  -3  14    0.23    0.05
   9   3 -13    1.62    0.12
  -9   3  13    1.57    0.14
  -9   3  13    1.62    0.13
  -9   3  13    1.61    0.15
  -9  -3  13    1.69    0.12
  -9   3  12    1.02    0.12
  -9   3  12    0.90    0.10
  -9   3  12    0.92    0.10
   9   3 -12    0.87    0.07
  -9   3  12    0.95    0.07
  -9  -3  12    0.76    0.09
  -9   3  11   12.30    0.77
  -9   3  11   11.72    0.82
   9   3 -11   12.80    0.73
  -9   3  11   11.62    0.88
  -9   3  11   12.30    0.82
  -9  -3  11   12.47    0.73
  -9   3  10    4.86    0.32
  -9   3  10    5.19    0.34
  -9   3  10    5.18    0.34
   9   3 -10    4.96    0.30
  -9   3  10    4.43    0.37
  -9  -3  10    4.47    0.30
  -9   3   9   25.92    1.70
  -9   3   9   25.64    1.64
  -9   3   9   27.02    1.72
   9   3  -9   27.17    1.54
  -9   3   9   26.94    1.73
  -9   3   9   22.71    1.86
  -9   3   9   26.89    1.72
  -9   3   8   -0.01    0.11
  -9   3   8    0.09    0.07
  -9   3   8    0.05    0.04
  -9   3   8    0.01    0.07
   9   3  -8   -0.01    0.04
  -9   3   8    0.03    0.04
  -9   3   7    4.15    0.27
  -9   3   7    3.93    0.29
   9   3  -7    4.11    0.25
  -9   3   7    3.73    0.29
  -9   3   7    3.97    0.29
  -9   3   7    4.03    0.34
   9   3  -6    1.86    0.18
  -9   3   6    2.39    0.18
  -9   3   6    1.96    0.19
   9   3  -6    2.41    0.15
  -9   3   6    2.51    0.27
  -9   3   6    2.46    0.19
  -9   3   6    2.38    0.18
  -9   3   6    2.63    0.17
  -9   3   6    2.21    0.17
  -9   3   6    2.22    0.24
  -9   3   6    2.29    0.16
  -9   3   5    0.56    0.14
  -9   3   5    0.47    0.06
   9   3  -5    0.28    0.08
  -9   3   5    0.38    0.07
   9   3  -5    0.40    0.10
   9   3  -5    0.53    0.05
   9   3  -5    0.24    0.13
  -9   3   5    0.27    0.11
  -9   3   5    0.30    0.04
  -9   3   5    0.34    0.08
  -9   3   5    0.37    0.07
  -9   3   5    0.32    0.09
  -9   3   5    0.38    0.06
   9   3  -5    0.27    0.06
   9   3  -4    3.29    0.25
   9   3  -4    3.70    0.25
   9   3  -4    3.93    0.21
  -9   3   4    3.37    0.24
  -9   3   4    3.84    0.32
   9   3  -4    3.07    0.22
  -9   3   4    3.29    0.26
   9   3  -4    2.91    0.32
  -9   3   4    3.54    0.26
   9   3  -4    3.66    0.28
  -9   3   4    3.41    0.25
  -9   3   4    3.72    0.30
  -9   3   4    3.58    0.26
  -9   3   4    3.12    0.23
  -9   3   4    3.23    0.25
   9   3  -3    1.12    0.08
   9   3  -3    1.03    0.10
  -9   3   3    1.07    0.17
  -9   3   3    1.02    0.09
  -9   3   3    1.09    0.12
   9   3  -3    1.02    0.17
  -9   3   3    1.09    0.10
  -9   3   3    0.97    0.12
   9   3  -3    1.07    0.12
   9   3  -3    0.96    0.08
  -9   3   3    1.20    0.17
  -9   3   3    1.04    0.09
   9   3  -3    1.10    0.13
  -9   3   3    0.88    0.14
  -9   3   3    1.15    0.12
  -9   3   2    1.57    0.10
  -9   3   2    1.16    0.16
  -9   3   2    1.47    0.13
   9   3  -2    1.46    0.12
  -9   3   2    1.64    0.19
   9   3  -2    1.68    0.15
  -9   3   2    1.46    0.13
  -9   3   2    1.38    0.12
   9   3  -2    1.51    0.13
  -9   3   2    1.87    0.17
  -9   3   2    1.48    0.17
   9   3  -2    1.36    0.17
   9   3  -2    1.53    0.10
   9   3  -2    1.88    0.18
  -9   3   2    1.50    0.13
  -9   3   2    1.67    0.12
   9   3  -2    1.56    0.12
   9   3  -1    1.22    0.09
  -9   3   1    1.22    0.11
  -9   3   1    0.89    0.14
  -9   3   1    1.31    0.13
   9   3  -1    1.01    0.11
  -9   3   1    1.34    0.18
  -9   3   1    1.25    0.14
   9   3  -1    1.31    0.14
  -9   3   1    0.83    0.14
  -9   3   1    1.37    0.08
   9   3  -1    0.79    0.14
  -9   3   1    1.22    0.10
   9   3  -1    1.30    0.14
  -9   3   1    1.02    0.11
   9   3  -1    1.24    0.11
   9   3  -1    1.27    0.09
   9   3   0   18.46    1.14
   9   3   0   18.10    1.07
   9   3   0   19.03    1.20
  -9   3   0   16.10    1.16
  -9   3   0   17.40    1.18
   9   3   0   18.75    1.12
  -9   3   0   19.12    1.07
  -9   3   0   17.88    1.27
  -9   3   0   17.86    1.14
   9   3   0   19.03    1.16
   9   3   0   18.26    1.17
  -9   3   0   17.37    1.20
  -9   3   0   17.79    1.20
  -9   3   0   18.59    1.22
   9   3   0   19.93    1.08
   9   3   1   14.06    0.81
  -9   3  -1   13.40    0.86
   9   3   1   12.64    0.87
   9   3   1   13.20    0.85
   9   3   1   13.58    0.79
  -9   3  -1   13.45    0.95
  -9   3  -1   12.62    0.86
  -9   3  -1   13.36    0.89
   9   3   1   14.45    0.88
   9   3   1   13.84    0.85
   9   3   1   13.80    0.88
  -9   3  -1   13.27    0.79
   9   3   1   14.11    0.83
  -9   3  -1   12.23    0.89
   9   3   2   19.67    1.16
   9   3   2   19.98    1.17
  -9   3  -2   17.33    1.19
   9   3   2   18.09    1.19
  -9   3  -2   17.26    1.23
   9   3   2   19.45    1.23
   9   3   2   17.91    1.21
   9   3   2   20.17    1.21
  -9   3  -2   19.89    1.11
  -9   3  -2   17.57    1.30
   9   3   2   19.34    1.10
  -9   3  -2   18.61    1.24
   9   3   2   19.37    1.11
   9   3   3    6.61    0.43
  -9   3  -3    6.31    0.38
   9   3   3    6.76    0.42
   9   3   3    6.61    0.40
  -9   3  -3    5.91    0.45
   9   3   3    6.36    0.42
   9   3   3    6.34    0.43
  -9   3  -3    6.26    0.49
  -9   3  -3    5.82    0.43
   9   3   3    6.65    0.50
   9   3   3    6.35    0.44
   9   3   3    6.98    0.42
  -9   3  -3    5.04    0.47
   9   3   4    7.11    0.53
  -9   3  -4    6.47    0.53
   9   3   4    8.16    0.51
   9   3   4    8.45    0.50
   9   3   4    7.73    0.51
   9   3   4    7.37    0.57
   9   3   4    8.12    0.49
  -9   3  -4    8.04    0.47
   9   3   4    7.93    0.60
   9   3   4    8.25    0.51
   9   3   4    7.76    0.50
  -9   3  -4    6.92    0.52
   9   3   5   13.15    0.97
   9   3   5   12.86    0.83
   9   3   5   13.10    0.85
   9   3   5   13.14    0.96
   9   3   5   13.51    0.87
   9   3   5   13.92    0.83
   9   3   5   13.62    0.87
  -9   3  -5   14.09    0.79
   9   3   5   12.06    0.80
   9   3   6    9.85    0.62
   9   3   6    9.22    0.71
   9   3   6    9.05    0.62
   9   3   6    9.19    0.60
   9   3   6    9.43    0.59
   9   3   6    9.32    0.69
  -9   3  -6    9.67    0.56
   9   3   7    0.15    0.05
   9   3   7    0.18    0.03
   9   3   7    0.19    0.05
   9   3   7    0.27    0.05
  -9   3  -7    0.20    0.04
   9   3   7    0.11    0.05
   9   3   8    0.54    0.06
   9   3   8    0.59    0.06
  -9   3  -8    0.49    0.06
   9   3   8    0.57    0.08
   9   3   8    0.69    0.09
   9   3   9   18.01    1.34
   9   3   9   18.16    1.17
  -9   3  -9   19.37    1.09
   9   3   9   19.61    1.19
   9  -3   9   17.27    1.09
   9   3  10    1.44    0.13
  -9   3 -10    1.67    0.12
   9   3  10    1.60    0.11
   9   3  10    1.58    0.13
   9  -3  10    1.50    0.11
   9   3  11    0.99    0.08
   9   3  11    0.85    0.11
   9   3  11    0.90    0.10
  -9   3 -11    1.06    0.08
   9  -3  11    0.98    0.07
   9   3  12    0.99    0.06
   9   3  12    0.84    0.09
  -9   3 -12    0.96    0.08
   9  -3  12    0.84    0.07
  -9   3 -13    4.49    0.27
   9  -3  13    4.54    0.27
  -9   4  14    1.26    0.11
   9   4 -14    1.58    0.09
  -9  -4  14    1.25    0.09
  -9   4  13    4.69    0.30
  -9   4  13    4.07    0.30
   9   4 -13    4.48    0.26
  -9  -4  13    3.97    0.26
   9   4 -12   12.09    0.73
  -9   4  12   11.78    0.82
   9   4 -12   12.02    0.79
  -9   4  12   13.26    0.83
  -9  -4  12   12.73    0.74
   9   4 -11   -0.05    0.04
  -9   4  11    0.01    0.07
  -9   4  11    0.01    0.07
  -9  -4  11    0.01    0.03
   9   4 -10    5.41    0.32
  -9   4  10    5.27    0.38
  -9   4  10    5.04    0.37
  -9   4  10    5.35    0.37
  -9   4   9    0.27    0.08
  -9   4   9    0.30    0.06
   9   4  -9    0.28    0.05
   9   4  -9    0.25    0.07
  -9   4   9    0.25    0.06
  -9   4   9    0.22    0.03
   9   4  -8    5.19    0.39
  -9   4   8    5.85    0.39
   9   4  -8    5.58    0.34
  -9   4   8    5.38    0.36
  -9   4   8    5.90    0.40
  -9   4   8    5.97    0.39
  -9   4   7    3.05    0.25
   9   4  -7    3.59    0.20
  -9   4   7    3.13    0.25
  -9   4   7    3.15    0.21
   9   4  -7    3.27    0.24
  -9   4   7    3.13    0.24
  -9   4   6    6.54    0.44
  -9   4   6    6.62    0.45
  -9   4   6    5.57    0.49
  -9   4   6    6.14    0.44
  -9   4   6    6.01    0.41
   9   4  -6    6.97    0.38
   9   4  -6    6.42    0.43
  -9   4   5    4.96    0.35
   9   4  -5    4.46    0.33
   9   4  -5    4.87    0.33
  -9   4   5    5.14    0.35
   9   4  -5    4.78    0.34
  -9   4   5    5.02    0.32
   9   4  -5    4.82    0.30
  -9   4   5    4.96    0.35
  -9   4   5    4.92    0.42
   9   4  -4    0.62    0.06
   9   4  -4    0.40    0.10
  -9   4   4    0.59    0.07
  -9   4   4    0.50    0.08
  -9   4   4    0.59    0.05
  -9   4   4    0.69    0.08
  -9   4   4    0.67    0.06
  -9   4   4    0.65    0.09
  -9   4   4    0.40    0.15
   9   4  -4    0.68    0.07
   9   4  -4    0.37    0.10
   9   4  -4    0.66    0.07
   9   4  -4    0.54    0.07
  -9   4   4    0.60    0.08
   9   4  -3    0.13    0.05
   9   4  -3    0.07    0.08
  -9   4   3    0.11    0.05
   9   4  -3    0.08    0.04
  -9   4   3    0.05    0.14
  -9   4   3    0.13    0.06
  -9   4   3    0.15    0.07
  -9   4   3    0.14    0.06
  -9   4   3    0.10    0.07
   9   4  -3    0.15    0.05
  -9   4   3    0.14    0.06
   9   4  -3    0.13    0.09
   9   4  -3    0.12    0.03
  -9   4   3    0.13    0.03
   9   4  -2   18.63    1.08
   9   4  -2   16.08    1.01
   9   4  -2   16.04    0.98
   9   4  -2   15.97    1.03
  -9   4   2   15.35    1.09
  -9   4   2   15.46    1.04
   9   4  -2   17.31    0.96
  -9   4   2   15.95    1.05
  -9   4   2   17.36    1.11
  -9   4   2   14.93    1.09
   9   4  -2   17.78    1.04
  -9   4   2   16.61    1.07
  -9   4   2   15.88    1.15
  -9   4   2   15.96    1.02
  -9   4   1    2.16    0.17
   9   4  -1    2.36    0.15
   9   4  -1    2.14    0.20
   9   4  -1    2.09    0.16
   9   4  -1    2.16    0.16
   9   4  -1    2.12    0.21
  -9   4   1    2.34    0.18
   9   4  -1    2.16    0.13
  -9   4   1    2.15    0.20
  -9   4   1    2.16    0.18
  -9   4   1    2.01    0.23
  -9   4   1    2.31    0.16
   9   4  -1    2.34    0.17
  -9   4   1    1.90    0.21
  -9   4   1    2.13    0.17
   9   4   0    0.16    0.05
  -9   4   0    0.14    0.08
  -9   4   0    0.15    0.13
  -9   4   0    0.17    0.05
  -9   4   0    0.11    0.08
  -9   4   0    0.12    0.05
   9   4   0    0.16    0.07
   9   4   0    0.15    0.04
   9   4   0    0.08    0.04
  -9   4   0    0.20    0.06
   9   4   0    0.10    0.03
   9   4   0    0.06    0.07
   9   4   1    0.02    0.06
  -9   4  -1    0.08    0.06
  -9   4  -1    0.08    0.05
   9   4   1    0.02    0.04
  -9   4  -1   -0.11    0.13
  -9   4  -1    0.09    0.05
   9   4   1    0.07    0.03
  -9   4  -1   -0.03    0.09
   9   4   1    0.04    0.05
  -9   4  -1    0.05    0.02
   9   4   1    0.00    0.08
   9   4   1    0.02    0.04
  -9   4  -1    0.16    0.06
   9   4   1    0.07    0.04
   9   4   2   15.24    0.92
  -9   4  -2   15.70    1.00
   9   4   2   14.21    0.89
  -9   4  -2   15.04    0.95
   9   4   2   15.16    0.97
  -9   4  -2   15.16    0.98
  -9   4  -2   13.57    1.05
  -9   4  -2   15.09    0.87
   9   4   2   13.12    0.92
   9   4   2   15.00    0.94
   9   4   2   14.78    0.96
   9   4   2   14.73    1.08
  -9   4  -3    6.00    0.52
   9   4   3    6.75    0.41
  -9   4  -3    6.09    0.43
  -9   4  -3    6.28    0.39
   9   4   3    6.47    0.43
   9   4   3    6.33    0.42
   9   4   3    6.53    0.43
  -9   4  -3    7.20    0.45
   9   4   3    6.79    0.43
   9   4   3    6.40    0.49
   9   4   4    1.47    0.10
   9   4   4    1.45    0.11
   9   4   4    1.50    0.11
   9   4   4    1.52    0.15
   9   4   4    1.43    0.12
  -9   4  -4    1.45    0.14
   9   4   4    1.23    0.16
  -9   4  -4    1.37    0.13
  -9   4  -4    1.32    0.10
  -9   4  -5    0.05    0.06
   9   4   5    0.10    0.04
   9   4   5    0.06    0.05
   9   4   5    0.11    0.06
   9   4   5    0.07    0.05
  -9   4  -5    0.08    0.03
   9   4   6    2.26    0.16
   9   4   6    2.22    0.15
   9   4   6    2.24    0.15
   9   4   6    1.94    0.19
  -9   4  -6    2.07    0.17
  -9   4  -6    2.07    0.14
   9   4   7    6.49    0.50
  -9   4  -7    6.52    0.40
  -9   4  -7    6.23    0.46
   9   4   7    7.12    0.44
   9   4   7    6.56    0.42
   9   4   7    7.19    0.43
   9   4   8   48.59    3.59
  -9   4  -8   49.99    2.93
   9   4   8   55.26    3.20
  -9   4  -8   46.14    3.25
   9   4   8   49.48    3.05
   9   4   8   50.21    3.13
   9   4   9    3.48    0.28
   9   4   9    3.78    0.23
   9   4   9    3.59    0.24
  -9   4  -9    3.03    0.26
  -9   4  -9    3.52    0.22
   9   4  10    3.25    0.23
  -9   4 -10    2.91    0.19
   9  -4  10    2.90    0.19
  -9   4 -11    0.80    0.06
   9   4  11    0.89    0.07
   9   4  11    0.80    0.08
   9  -4  11    0.86    0.06
  -9   4 -12    1.19    0.08
   9   4  12    1.16    0.09
   9  -4  12    1.31    0.08
  -9   5  12    2.85    0.17
   9   5 -12    2.51    0.17
  -9   5  12    2.37    0.17
   9   5 -12    2.29    0.14
  -9  -5  12    1.96    0.15
   9   5 -11    1.40    0.09
  -9   5  11    1.59    0.13
  -9   5  11    1.52    0.14
   9   5 -11    1.40    0.11
   9   5 -11    1.41    0.11
   9   5 -10    0.91    0.08
  -9   5  10    0.66    0.09
  -9   5  10    0.68    0.09
  -9   5  10    0.84    0.09
   9   5 -10    0.69    0.05
   9   5 -10    0.88    0.08
   9   5  -9    2.36    0.17
  -9   5   9    2.33    0.19
  -9   5   9    2.45    0.18
   9   5  -9    2.03    0.14
  -9   5   9    2.35    0.19
   9   5  -9    2.49    0.17
   9   5  -8    0.70    0.08
   9   5  -8    0.60    0.05
  -9   5   8    0.77    0.08
   9   5  -8    0.67    0.08
  -9   5   8    0.79    0.09
  -9   5   8    0.51    0.08
   9   5  -7    1.89    0.12
   9   5  -7    1.79    0.15
  -9   5   7    1.90    0.17
  -9   5   7    2.17    0.18
   9   5  -7    2.09    0.15
   9   5  -7    2.15    0.16
  -9   5   7    2.04    0.18
   9   5  -6    2.18    0.15
   9   5  -6    1.74    0.11
  -9   5   6    2.02    0.16
  -9   5   6    1.82    0.14
   9   5  -6    2.07    0.15
  -9   5   6    1.51    0.11
  -9   5   6    2.13    0.17
   9   5  -5    7.70    0.50
  -9   5   5    8.05    0.53
  -9   5   5    7.36    0.52
   9   5  -5    7.97    0.51
  -9   5   5    7.38    0.48
   9   5  -5    8.04    0.50
  -9   5   5    6.74    0.51
  -9   5   4    1.03    0.08
  -9   5   4    1.08    0.11
   9   5  -4    1.10    0.11
   9   5  -4    1.17    0.10
   9   5  -4    0.90    0.08
  -9   5   4    0.93    0.12
  -9   5   4    0.89    0.10
   9   5  -4    0.91    0.10
  -9   5   3    0.27    0.05
   9   5  -3    0.22    0.04
   9   5  -3    0.21    0.05
   9   5  -3    0.27    0.06
  -9   5   3    0.28    0.09
   9   5  -3    0.27    0.05
  -9   5   3    0.33    0.07
  -9   5   3    0.27    0.06
   9   5  -2    1.30    0.13
  -9   5   2    1.33    0.14
   9   5  -2    1.30    0.11
   9   5  -2    1.46    0.12
   9   5  -2    1.29    0.11
  -9   5   2    1.42    0.11
  -9   5   2    1.54    0.13
  -9   5   2    1.17    0.11
   9   5  -1    0.31    0.06
   9   5  -1    0.36    0.06
  -9   5   1    0.30    0.07
  -9   5   1    0.31    0.06
  -9   5   1    0.29    0.08
   9   5  -1    0.27    0.05
   9   5  -1    0.39    0.05
  -9   5   1    0.32    0.03
  -9   5   1    0.36    0.07
  -9   5   0    8.04    0.53
  -9   5   0    7.69    0.49
   9   5   0    7.69    0.48
   9   5   0    7.43    0.49
   9   5   0    7.76    0.50
   9   5   0    7.64    0.48
  -9   5   0    7.30    0.51
  -9   5   0    6.84    0.50
   9   5   1    2.61    0.19
   9   5   1    2.73    0.19
  -9   5  -1    2.72    0.22
   9   5   1    2.57    0.19
  -9   5  -1    2.78    0.21
  -9   5  -1    2.73    0.19
  -9   5  -1    2.45    0.19
   9   5   1    2.57    0.19
  -9   5  -2    2.87    0.24
   9   5   2    3.23    0.23
  -9   5  -2    3.55    0.24
  -9   5  -2    3.21    0.25
   9   5   2    3.44    0.23
   9   5   2    3.45    0.23
  -9   5  -2    3.55    0.27
  -9   5  -3    4.40    0.34
   9   5   3    4.97    0.31
  -9   5  -3    4.91    0.32
  -9   5  -3    4.35    0.33
   9   5   3    4.90    0.32
  -9   5  -3    4.58    0.32
   9   5   3    4.97    0.31
   9   5   4    1.27    0.12
  -9   5  -4    1.21    0.13
  -9   5  -4    1.24    0.13
   9   5   4    1.40    0.13
  -9   5  -4    1.21    0.13
  -9   5  -4    1.20    0.11
   9   5   4    1.35    0.11
   9   5   4    1.33    0.10
  -9   5  -5    0.35    0.08
   9   5   5    0.23    0.03
   9   5   5    0.28    0.06
  -9   5  -5    0.25    0.07
   9   5   5    0.27    0.07
  -9   5  -5    0.22    0.06
   9   5   5    0.27    0.05
  -9   5  -6    0.89    0.10
   9   5   6    0.90    0.06
  -9   5  -6    0.85    0.09
  -9   5  -6    0.83    0.10
   9   5   6    0.98    0.12
   9   5   6    0.89    0.10
   9   5   6    1.02    0.08
   9   5   7    7.64    0.49
  -9   5  -7    7.26    0.50
  -9   5  -7    7.32    0.51
   9   5   7    7.49    0.46
   9   5   7    7.38    0.55
   9   5   8   -0.02    0.03
   9   5   8   -0.01    0.03
   9   5   8    0.03    0.05
  -9   5  -8   -0.03    0.04
  -9   5  -8   -0.02    0.05
   9   5   9    9.98    0.56
   9   5   9    7.48    0.63
  -9   5  -9    8.95    0.57
  -9   5  -9    8.14    0.58
   9   5  10   -0.02    0.03
   9   5  10   -0.04    0.03
  -9   5 -10    0.03    0.03
   9   6 -10    2.40    0.16
  -9   6   9    0.00    0.04
   9   6  -9    0.02    0.02
   9   6  -9    0.01    0.03
  -9   6   9   -0.01    0.04
   9   6  -9    0.06    0.03
  -9   6   8   13.02    0.87
   9   6  -8   13.05    0.83
   9   6  -8   12.10    0.85
  -9   6   8   13.96    0.88
   9   6  -8   13.27    0.83
  -9   6   7    0.02    0.04
   9   6  -7   -0.02    0.05
   9   6  -7   -0.03    0.05
   9   6  -7    0.03    0.03
  -9   6   7    0.01    0.07
   9   6  -6    3.91    0.25
  -9   6   6    3.67    0.28
   9   6  -6    3.55    0.25
   9   6  -6    3.99    0.26
  -9   6   6    3.89    0.27
  -9   6   5    0.28    0.06
   9   6  -5    0.19    0.06
  -9   6   5    0.23    0.07
   9   6  -5    0.22    0.03
   9   6  -5    0.25    0.05
  -9   6   4    1.75    0.14
   9   6  -4    1.58    0.12
   9   6  -4    1.78    0.13
  -9   6   4    1.82    0.16
   9   6  -4    1.67    0.12
  -9   6   3    0.86    0.09
  -9   6   3    0.45    0.09
   9   6  -3    0.61    0.07
   9   6  -3    0.76    0.08
   9   6  -3    0.69    0.07
   9   6  -2   10.78    0.71
   9   6  -2   11.47    0.73
  -9   6   2   11.08    0.77
   9   6  -2   11.87    0.74
  -9   6   2   12.58    0.78
  -9   6   2   11.47    0.73
   9   6  -1    1.06    0.10
  -9   6   1    0.86    0.11
  -9   6   1    0.87    0.08
  -9   6   1    1.25    0.13
   9   6  -1    0.93    0.09
   9   6   0    0.34    0.05
   9   6   0    0.46    0.06
  -9   6   0    0.45    0.07
  -9   6   0    0.34    0.05
  -9   6   0    0.34    0.06
   9   6   1    2.21    0.15
   9   6   1    2.05    0.14
   9   6   1    2.07    0.15
  -9   6  -1    2.00    0.15
  -9   6  -1    1.98    0.16
   9   6   2    6.83    0.46
  -9   6  -2    7.79    0.49
   9   6   2    7.19    0.45
  -9   6  -2    7.57    0.46
   9   6   2    6.79    0.45
  -9   6  -2    6.39    0.48
   9   6   3    0.97    0.08
  -9   6  -3    0.91    0.10
  -9   6  -3    1.01    0.09
  -9   6  -3    0.71    0.10
   9   6   3    0.81    0.08
   9   6   4    0.01    0.03
  -9   6  -4    0.02    0.04
  -9   6  -4    0.03    0.05
   9   6   4    0.02    0.05
  -9   6  -4    0.02    0.05
  -9   6  -5    0.79    0.07
  -9   6  -5    0.57    0.07
   9   6   5    0.75    0.07
   9   6   5    0.79    0.07
  -9   6  -5    0.66    0.05
  -9   6  -6    1.85    0.16
  -9   6  -6    2.46    0.16
   9   6   6    2.36    0.15
  -9   6  -6    2.05    0.14
  -9   6  -7    0.33    0.03
   9   6   7    0.31    0.04
   9   6   7    0.37    0.04
  -9   6  -7    0.36    0.05
   9   7  -5    2.10    0.17
   9   7  -5    2.82    0.16
   9   7  -4   -0.02    0.02
   9   7  -4   -0.01    0.03
  -9   7   4    0.02    0.05
  -9   7   4    0.01    0.03
   9   7  -3    0.77    0.05
  -9   7   3    0.55    0.06
   9   7  -3    0.50    0.06
   9   7  -2    0.06    0.03
   9   7  -1    0.77    0.06
   9   7  -1    0.98    0.07
  -9   7   0    0.03    0.05
   9   7   0    0.10    0.03
   9   7   0    0.10    0.03
  -9   7   0    0.06    0.03
   9   7   1    0.42    0.04
  -9   7  -1    0.25    0.04
   9   7   2   -0.01    0.02
 -10   0  16    0.25    0.04
 -10   0  16    0.21    0.05
 -10   0  15    0.04    0.06
 -10   0  15    0.04    0.03
 -10   0  15   -0.03    0.05
 -10   0  14    0.43    0.06
 -10   0  14    0.34    0.08
 -10   0  14    0.36    0.05
 -10   0  13    0.03    0.05
 -10   0  13   -0.01    0.06
 -10   0  13    0.01    0.05
 -10   0  12   15.34    1.15
 -10   0  12   16.40    1.05
 -10   0  12   16.23    1.02
 -10   0  11    0.02    0.05
 -10   0  11    0.04    0.04
 -10   0  11    0.00    0.03
 -10   0  11   -0.10    0.06
 -10   0  10   12.84    0.90
 -10   0  10   13.65    0.78
 -10   0  10   13.60    0.85
 -10   0  10   12.61    0.88
 -10   0   9    0.06    0.10
 -10   0   9    0.09    0.11
 -10   0   9    0.00    0.12
 -10   0   9   -0.04    0.03
 -10   0   9    0.05    0.05
 -10   0   9   -0.02    0.05
 -10   0   9   -0.02    0.04
 -10   0   8   44.13    2.63
 -10   0   8   43.84    2.37
 -10   0   8   40.98    2.54
 -10   0   8   36.29    2.54
 -10   0   8   38.48    2.59
 -10   0   8   38.33    2.65
 -10   0   8   39.71    2.48
 -10   0   7    0.03    0.12
 -10   0   7   -0.02    0.03
 -10   0   7    0.11    0.11
 -10   0   7   -0.04    0.10
 -10   0   7    0.02    0.06
 -10   0   6    4.72    0.38
 -10   0   6    4.72    0.34
 -10   0   6    5.11    0.37
 -10   0   6    5.14    0.39
 -10   0   6    4.85    0.30
 -10   0   5    0.00    0.05
 -10   0   5   -0.04    0.13
 -10   0   5    0.01    0.09
 -10   0   5   -0.02    0.03
 -10   0   5   -0.11    0.10
 -10   0   4   40.75    2.38
 -10   0   4   42.11    2.61
 -10   0   4   40.00    2.55
 -10   0   4   39.62    2.49
 -10   0   3    0.08    0.10
 -10   0   3    0.09    0.09
  10   0   2   75.32    4.41
  10   0   3   -0.02    0.03
  10   0   4    3.36    0.32
  10   0   4    3.86    0.23
  10   0   5   -0.05    0.09
  10   0   5   -0.01    0.03
  10   0   5   -0.02    0.05
  10   0   5    0.12    0.11
  10   0   6    7.96    0.62
  10   0   6    8.81    0.62
  10   0   6    8.48    0.64
  10   0   6   10.66    0.55
  10   0   7    0.07    0.06
  10   0   7   -0.01    0.03
  10   0   7   -0.04    0.10
  10   0   8   35.51    2.12
  10   0   8   36.67    2.36
  10   0   9    0.03    0.03
  10   0   9   -0.02    0.04
  10   0  10   10.94    0.68
  10   0  10   11.98    0.75
  10   0  10   13.00    0.77
  10   0  10   10.46    0.74
  10   0  11    0.08    0.04
  10   0  11    0.01    0.05
  10   0  11    0.06    0.06
  10   0  12    0.03    0.04
  10   0  12   -0.01    0.04
  10   0  12    0.11    0.06
  10   0  13    0.05    0.05
  10   0  13    0.03    0.03
  10   0  13   -0.01    0.03
  10   0  14    0.21    0.03
 -10   1  16    0.63    0.05
 -10  -1  16    0.64    0.06
 -10  -1  16    0.58    0.06
 -10   1  15    4.33    0.37
 -10   1  15    5.46    0.33
 -10  -1  15    5.05    0.34
 -10  -1  15    4.97    0.37
 -10  -1  15    5.24    0.34
 -10   1  14   -0.05    0.05
 -10   1  14   -0.04    0.05
 -10  -1  14   -0.03    0.04
 -10  -1  14    0.04    0.06
 -10  -1  14    0.03    0.05
 -10   1  13   10.36    0.61
 -10   1  13    8.89    0.64
 -10   1  13    9.16    0.62
 -10   1  13   10.47    0.70
 -10  -1  13    8.67    0.56
 -10  -1  13    9.46    0.63
 -10  -1  13    9.62    0.70
 -10   1  12    0.67    0.10
 -10   1  12    0.78    0.08
 -10   1  12    0.85    0.08
 -10   1  12    0.75    0.09
 -10  -1  12    0.78    0.07
 -10  -1  12    0.82    0.08
 -10   1  11    1.79    0.17
 -10   1  11    1.96    0.15
 -10   1  11    2.24    0.19
 -10   1  11    2.06    0.15
 -10  -1  11    1.96    0.13
 -10  -1  11    1.89    0.17
 -10   1  10    0.25    0.13
 -10   1  10    0.20    0.07
 -10   1  10    0.21    0.07
 -10   1  10    0.41    0.06
 -10   1  10    0.28    0.06
 -10  -1  10    0.37    0.08
 -10  -1  10    0.29    0.05
 -10   1   9   19.42    1.33
 -10   1   9   19.14    1.26
 -10   1   9   20.89    1.27
 -10   1   9   20.72    1.32
 -10   1   9   20.71    1.18
 -10   1   9   22.10    1.44
 -10   1   9   19.58    1.33
 -10  -1   9   17.79    1.32
 -10  -1   9   19.91    1.19
 -10  -1   9   19.90    1.32
 -10   1   8    0.56    0.12
 -10   1   8    0.93    0.15
 -10   1   8    1.01    0.11
 -10   1   8    0.86    0.10
 -10   1   8    0.89    0.11
 -10   1   8    0.73    0.15
 -10   1   8    0.88    0.07
 -10  -1   8    0.83    0.14
 -10  -1   8    0.89    0.07
 -10   1   7   12.89    0.91
 -10   1   7   13.46    0.87
 -10   1   7   13.15    0.90
 -10   1   7   14.47    0.87
 -10   1   7   14.17    0.90
 -10   1   7   13.25    0.92
 -10   1   7   13.70    0.80
 -10  -1   7   12.79    0.91
 -10  -1   7   14.07    0.81
 -10   1   6    1.31    0.12
  10   1  -6    0.93    0.12
 -10   1   6    1.12    0.12
 -10   1   6    1.32    0.16
 -10   1   6    1.32    0.09
 -10   1   6    1.57    0.16
 -10   1   6    1.56    0.17
 -10  -1   6    1.79    0.18
 -10  -1   6    1.18    0.09
 -10   1   5   21.08    1.37
 -10   1   5   21.90    1.23
 -10   1   5   21.64    1.34
 -10   1   5   20.19    1.32
 -10   1   5   21.04    1.30
 -10   1   5   21.76    1.37
  10   1  -5   19.45    1.21
 -10  -1   5   19.51    1.23
 -10  -1   5   21.64    1.37
 -10   1   4    0.20    0.04
 -10   1   4    0.22    0.10
 -10   1   4    0.15    0.06
 -10   1   4    0.18    0.10
 -10   1   4    0.18    0.05
 -10   1   4    0.22    0.11
 -10   1   3    3.27    0.28
 -10   1   3    3.63    0.29
 -10   1   3    3.25    0.24
 -10   1   3    3.20    0.20
 -10   1   2    5.82    0.34
 -10   1   2    5.31    0.41
 -10   1   2    5.66    0.41
 -10   1   2    5.28    0.41
 -10   1   1   13.30    0.81
  10   1  -1   11.82    0.83
 -10   1   1   11.82    0.74
 -10   1   1   12.62    0.83
  10   1  -1   13.05    0.74
  10   1   0    2.21    0.22
 -10   1   0    2.15    0.14
  10   1   0    2.03    0.14
  10   1   0    2.30    0.21
 -10   1   0    2.19    0.21
 -10   1   0    2.11    0.23
  10   1   1    8.23    0.52
  10   1   1    9.63    0.60
 -10   1  -1    8.31    0.52
  10   1   1    9.51    0.58
  10   1   2    1.27    0.12
  10   1   2    1.22    0.14
  10   1   2    1.28    0.16
  10   1   2    1.37    0.09
  10   1   2    1.21    0.10
 -10   1  -2    1.34    0.10
  10   1   3    0.67    0.13
  10   1   3    0.57    0.06
  10   1   3    0.57    0.11
  10   1   3    0.71    0.06
  10   1   3    0.64    0.07
  10   1   4    6.72    0.50
  10   1   4    7.53    0.42
  10   1   4    6.84    0.48
  10   1   4    6.77    0.47
  10   1   4    6.67    0.46
  10   1   5   19.31    1.34
  10   1   5   20.38    1.32
  10   1   5   20.48    1.30
  10   1   5   21.51    1.37
  10   1   5   22.54    1.23
  10   1   5   20.73    1.34
  10   1   5   19.26    1.21
  10  -1   5   21.70    1.23
  10   1   6    1.97    0.16
  10   1   6    1.99    0.13
  10   1   6    2.05    0.16
  10   1   6    1.99    0.16
  10   1   6    1.91    0.20
  10   1   6    1.71    0.22
  10  -1   6    2.08    0.14
  10   1   7    4.32    0.30
  10   1   7    4.30    0.30
  10   1   7    4.30    0.29
  10   1   7    4.19    0.26
  10  -1   7    4.60    0.27
  10   1   8    0.05    0.02
  10   1   8    0.08    0.05
  10   1   8    0.02    0.04
  10   1   8    0.00    0.06
  10  -1   8    0.08    0.04
  10   1   9   23.69    1.48
  10   1   9   22.67    1.46
  10   1   9   23.51    1.44
  10  -1   9   20.09    1.48
  10  -1   9   23.18    1.33
  10   1  10    2.38    0.18
  10   1  10    2.66    0.19
  10   1  10    2.64    0.19
  10  -1  10    2.54    0.16
  10  -1  10    2.31    0.19
  10   1  11   14.02    0.81
  10   1  11   11.49    0.82
  10  -1  11   12.83    0.82
  10  -1  11   11.70    0.73
  10   1  12    1.43    0.11
  10   1  12    1.30    0.09
  10   1  12    1.26    0.11
  10  -1  12    1.26    0.11
  10  -1  12    1.27    0.11
  10   1  13    0.17    0.04
  10   1  13    0.18    0.05
  10  -1  13    0.21    0.04
  10  -1  13    0.25    0.04
 -10   2  16    0.04    0.04
 -10  -2  16    0.03    0.03
 -10  -2  16    0.03    0.03
 -10   2  15    3.69    0.25
 -10   2  15    4.08    0.23
 -10   2  15    3.18    0.27
 -10  -2  15    2.95    0.27
 -10  -2  15    3.70    0.25
 -10   2  14    0.04    0.04
 -10   2  14    0.04    0.05
 -10   2  14    0.05    0.03
 -10  -2  14    0.06    0.05
 -10  -2  14    0.07    0.06
 -10  -2  14    0.02    0.02
 -10   2  13    3.95    0.33
 -10   2  13    4.75    0.29
 -10   2  13    4.35    0.31
 -10  -2  13    4.67    0.27
 -10  -2  13    4.21    0.33
 -10  -2  13    4.22    0.31
 -10   2  12    1.63    0.14
 -10   2  12    1.32    0.11
 -10   2  12    1.43    0.14
 -10  -2  12    1.39    0.14
 -10  -2  12    1.41    0.11
 -10   2  11    8.23    0.54
 -10   2  11    7.43    0.53
 -10   2  11    7.77    0.58
 -10   2  11    8.00    0.51
 -10   2  11    7.63    0.51
 -10  -2  11    7.96    0.47
 -10   2  10    5.85    0.38
 -10   2  10    5.51    0.43
 -10   2  10    5.09    0.39
 -10   2  10    5.73    0.37
 -10   2  10    5.41    0.40
 -10  -2  10    6.14    0.35
 -10   2   9   15.27    1.17
 -10   2   9   18.35    1.04
 -10   2   9   15.85    1.09
 -10   2   9   14.64    1.09
 -10   2   9   17.55    1.09
 -10  -2   9   16.15    0.97
 -10   2   8   10.17    0.67
 -10   2   8   10.40    0.71
 -10   2   8   10.95    0.70
 -10   2   8    9.70    0.67
 -10   2   8   10.61    0.71
 -10   2   8   10.50    0.74
 -10   2   8   11.26    0.69
 -10   2   8    9.93    0.76
 -10  -2   8   10.72    0.63
 -10   2   7   -0.01    0.06
 -10   2   7    0.06    0.11
 -10   2   7    0.01    0.04
 -10   2   7   -0.01    0.05
 -10   2   7   -0.04    0.07
 -10   2   7   -0.12    0.10
 -10   2   7    0.00    0.05
 -10   2   7    0.05    0.05
 -10   2   6    0.38    0.11
 -10   2   6    0.75    0.09
 -10   2   6    0.70    0.08
 -10   2   6    0.69    0.08
 -10   2   6    0.68    0.08
 -10   2   6    0.91    0.13
  10   2  -6    0.51    0.09
 -10   2   6    0.74    0.15
 -10   2   6    0.65    0.05
 -10   2   6    0.77    0.08
 -10   2   5    0.82    0.13
 -10   2   5    1.23    0.08
 -10   2   5    0.98    0.16
 -10   2   5    1.06    0.11
  10   2  -5    0.97    0.12
 -10   2   5    1.22    0.12
 -10   2   5    1.18    0.17
  10   2  -5    1.05    0.09
 -10   2   5    1.10    0.11
 -10   2   5    1.15    0.15
 -10   2   5    1.34    0.11
 -10  -2   5    1.06    0.15
 -10   2   4   10.60    0.67
 -10   2   4   10.93    0.75
 -10   2   4   10.97    0.73
 -10   2   4   10.80    0.69
 -10   2   4   11.15    0.62
  10   2  -4   10.99    0.64
  10   2  -4   10.17    0.62
 -10   2   4   10.24    0.68
 -10   2   4    8.92    0.70
 -10   2   4    9.83    0.69
 -10  -2   4   10.06    0.71
 -10   2   3    6.12    0.44
 -10   2   3    7.31    0.51
 -10   2   3    7.10    0.47
  10   2  -3    6.69    0.47
 -10   2   3    6.49    0.49
 -10   2   3    6.68    0.46
 -10   2   3    6.43    0.46
  10   2  -3    7.18    0.43
 -10   2   3    7.97    0.51
 -10   2   3    7.30    0.41
  10   2  -3    6.49    0.41
  10   2  -3    6.74    0.49
 -10   2   2    5.39    0.37
 -10   2   2    5.23    0.39
 -10   2   2    4.16    0.34
 -10   2   2    5.11    0.33
  10   2  -2    4.67    0.39
 -10   2   2    4.65    0.32
  10   2  -2    4.83    0.35
 -10   2   2    5.14    0.29
 -10   2   2    4.99    0.37
 -10   2   2    5.14    0.38
  10   2  -2    4.10    0.33
  10   2  -2    4.62    0.29
  10   2  -2    5.20    0.32
 -10   2   1    4.02    0.24
 -10   2   1    4.21    0.32
  10   2  -1    4.02    0.28
  10   2  -1    3.95    0.30
 -10   2   1    3.69    0.28
 -10   2   1    4.27    0.31
 -10   2   1    3.51    0.27
 -10   2   1    3.55    0.27
  10   2  -1    3.89    0.27
  10   2  -1    3.71    0.32
 -10   2   1    3.86    0.32
  10   2  -1    4.26    0.24
  10   2   0    1.96    0.22
 -10   2   0    2.23    0.23
  10   2   0    2.28    0.14
  10   2   0    1.98    0.20
  10   2   0    2.17    0.19
 -10   2   0    2.07    0.17
  10   2   0    2.09    0.16
 -10   2   0    1.97    0.21
 -10   2   0    2.09    0.22
 -10   2   0    2.21    0.14
  10   2   1    8.70    0.60
  10   2   1    9.27    0.62
  10   2   1    9.85    0.63
  10   2   1    9.22    0.62
 -10   2  -1    9.04    0.55
  10   2   1    9.86    0.58
 -10   2  -1    9.40    0.64
 -10   2  -1    8.52    0.62
  10   2   1   10.05    0.55
 -10   2  -1    9.29    0.62
  10   2   2   28.66    1.81
 -10   2  -2   28.74    1.83
  10   2   2   26.44    1.80
  10   2   2   29.16    1.76
  10   2   2   25.76    1.83
  10   2   2   30.64    1.68
  10   2   2   28.41    1.94
 -10   2  -2   30.60    1.68
 -10   2  -2   27.44    1.78
  10   2   2   28.45    1.86
  10   2   2   30.17    1.65
 -10   2  -3    2.35    0.16
  10   2   3    2.48    0.24
  10   2   3    2.41    0.25
  10   2   3    2.67    0.15
  10   2   3    2.72    0.22
  10   2   3    2.29    0.17
  10   2   3    2.58    0.18
  10   2   3    2.22    0.17
  10   2   3    2.46    0.20
  10   2   4    0.22    0.05
  10   2   4    0.17    0.07
 -10   2  -4    0.20    0.05
  10   2   4    0.24    0.09
  10   2   4    0.30    0.06
  10   2   4    0.27    0.05
  10   2   4    0.14    0.13
  10   2   4    0.26    0.03
  10   2   4    0.20    0.11
  10   2   5    2.79    0.23
  10   2   5    3.00    0.20
  10   2   5    2.74    0.17
  10   2   5    2.90    0.28
 -10   2  -5    2.88    0.19
  10   2   5    2.26    0.25
  10   2   5    2.84    0.25
  10   2   5    2.81    0.20
  10   2   5    2.79    0.20
  10   2   6   10.48    0.66
  10   2   6   10.48    0.67
  10   2   6   10.50    0.68
  10   2   6    9.90    0.76
 -10   2  -6   10.17    0.62
  10   2   6    9.92    0.64
 -10   2  -7    2.55    0.16
  10   2   7    2.33    0.17
  10   2   7    2.40    0.18
  10   2   7    2.63    0.18
  10   2   7    2.51    0.19
  10  -2   7    2.25    0.16
  10   2   8   32.42    2.18
  10   2   8   34.19    2.22
  10   2   8   36.90    2.25
  10  -2   8   34.83    2.04
  10   2   9    0.08    0.03
  10   2   9    0.04    0.06
  10   2   9    0.09    0.05
  10  -2   9    0.12    0.04
  10   2  10    0.92    0.07
  10   2  10    0.98    0.10
  10   2  10    0.95    0.10
  10  -2  10    0.91    0.08
  10   2  11    2.86    0.19
  10   2  11    2.63    0.19
  10  -2  11    2.59    0.17
  10   2  12    1.43    0.10
  10   2  12    1.46    0.10
  10  -2  12    1.33    0.11
  10  -2  12    1.16    0.08
  10   2  13    1.09    0.07
  10  -2  13    0.95    0.08
 -10   3  15    2.83    0.20
 -10  -3  15    2.73    0.19
  10   3 -14    2.64    0.16
 -10   3  14    2.63    0.19
 -10   3  14    2.68    0.20
 -10  -3  14    2.17    0.19
 -10  -3  14    2.96    0.16
 -10  -3  14    2.54    0.20
  10   3 -13    0.79    0.06
 -10   3  13    0.61    0.07
 -10   3  13    0.60    0.08
 -10   3  13    0.67    0.09
 -10  -3  13    0.70    0.07
 -10   3  12    3.69    0.23
 -10   3  12    3.69    0.25
 -10   3  12    3.58    0.25
  10   3 -12    3.42    0.22
 -10   3  12    2.89    0.27
 -10  -3  12    3.44    0.22
  10   3 -11    5.58    0.34
 -10   3  11    5.02    0.41
 -10   3  11    5.55    0.39
 -10   3  11    5.54    0.39
 -10   3  11    5.95    0.36
 -10  -3  11    5.82    0.34
 -10   3  10   -0.02    0.03
 -10   3  10    0.14    0.07
 -10   3  10    0.00    0.07
  10   3 -10    0.03    0.04
 -10  -3  10    0.00    0.04
 -10   3   9    5.81    0.39
 -10   3   9    6.01    0.42
  10   3  -9    6.24    0.37
 -10   3   9    5.79    0.42
 -10   3   9    6.19    0.42
  10   3  -8    2.25    0.15
 -10   3   8    2.06    0.15
 -10   3   8    1.94    0.18
 -10   3   8    2.28    0.17
 -10   3   8    1.89    0.23
 -10   3   8    2.09    0.17
 -10   3   7    0.19    0.12
 -10   3   7    0.17    0.07
 -10   3   7    0.14    0.03
 -10   3   7    0.18    0.05
  10   3  -7    0.26    0.05
 -10   3   7    0.21    0.05
 -10   3   7    0.17    0.08
 -10   3   6    6.83    0.46
 -10   3   6    6.36    0.47
 -10   3   6    7.62    0.45
 -10   3   6    7.10    0.48
  10   3  -6    6.94    0.42
 -10   3   6    6.43    0.51
 -10   3   6    6.48    0.45
 -10   3   6    7.38    0.48
 -10   3   6    6.53    0.53
 -10   3   5    2.25    0.17
 -10   3   5    2.29    0.19
 -10   3   5    1.93    0.20
  10   3  -5    1.98    0.17
  10   3  -5    2.45    0.15
  10   3  -5    1.98    0.19
 -10   3   5    2.42    0.24
 -10   3   5    2.28    0.16
 -10   3   5    2.03    0.19
 -10   3   5    2.56    0.19
 -10   3   5    2.14    0.18
 -10   3   5    2.18    0.26
  10   3  -4   -0.07    0.12
 -10   3   4    0.01    0.06
  10   3  -4    0.15    0.12
  10   3  -4    0.02    0.04
 -10   3   4   -0.01    0.06
 -10   3   4    0.03    0.09
 -10   3   4    0.03    0.05
 -10   3   4    0.07    0.05
  10   3  -4    0.05    0.06
 -10   3   4    0.02    0.10
  10   3  -4    0.03    0.03
 -10   3   4   -0.02    0.05
 -10   3   4    0.11    0.10
  10   3  -4    0.03    0.04
 -10   3   4   -0.01    0.12
  10   3  -3    0.22    0.06
  10   3  -3    0.38    0.05
  10   3  -3    0.23    0.12
 -10   3   3    0.45    0.13
 -10   3   3    0.20    0.10
 -10   3   3    0.30    0.05
  10   3  -3    0.17    0.10
  10   3  -3    0.30    0.04
 -10   3   3    0.17    0.13
 -10   3   3    0.31    0.09
  10   3  -3    0.24    0.09
 -10   3   3    0.30    0.07
 -10   3   3    0.30    0.07
 -10   3   3    0.26    0.06
  10   3  -2    3.48    0.22
 -10   3   2    3.74    0.26
  10   3  -2    3.26    0.28
 -10   3   2    3.55    0.31
 -10   3   2    3.49    0.21
 -10   3   2    3.86    0.33
 -10   3   2    3.51    0.25
  10   3  -2    3.78    0.26
  10   3  -2    3.38    0.25
 -10   3   2    3.35    0.29
 -10   3   2    3.83    0.25
  10   3  -2    2.90    0.30
  10   3  -2    3.54    0.23
  10   3  -2    3.41    0.24
 -10   3   2    3.85    0.29
  10   3  -1    1.29    0.11
  10   3  -1    0.97    0.16
  10   3  -1    1.45    0.10
 -10   3   1    1.24    0.17
  10   3  -1    1.37    0.15
  10   3  -1    1.49    0.12
 -10   3   1    1.15    0.17
 -10   3   1    1.45    0.12
  10   3  -1    1.51    0.17
 -10   3   1    1.31    0.13
 -10   3   1    1.01    0.16
 -10   3   1    1.26    0.12
  10   3  -1    1.34    0.10
 -10   3   1    1.37    0.09
 -10   3   1    1.42    0.16
  10   3   0    6.36    0.45
  10   3   0    7.15    0.45
  10   3   0    6.41    0.39
  10   3   0    6.28    0.43
 -10   3   0    6.77    0.44
 -10   3   0    7.21    0.47
  10   3   0    6.31    0.47
  10   3   0    6.84    0.42
 -10   3   0    6.51    0.49
 -10   3   0    7.00    0.45
 -10   3   0    6.24    0.39
 -10   3   0    6.39    0.45
  10   3   0    6.79    0.43
 -10   3   0    6.17    0.51
  10   3   1    0.08    0.12
  10   3   1    0.11    0.03
 -10   3  -1    0.01    0.11
  10   3   1    0.14    0.04
 -10   3  -1    0.09    0.03
  10   3   1    0.09    0.05
  10   3   1    0.17    0.08
  10   3   1   -0.04    0.08
 -10   3  -1    0.11    0.04
 -10   3  -1    0.11    0.06
 -10   3  -1   -0.04    0.11
  10   3   1    0.14    0.05
 -10   3  -1    0.22    0.11
 -10   3  -2    0.38    0.07
 -10   3  -2    0.33    0.06
  10   3   2    0.57    0.07
  10   3   2    0.46    0.10
 -10   3  -2    0.40    0.14
  10   3   2    0.51    0.06
  10   3   2    0.45    0.06
  10   3   2    0.45    0.11
 -10   3  -2    0.53    0.05
  10   3   2    0.52    0.06
  10   3   2    0.54    0.04
  10   3   2    0.43    0.11
 -10   3  -2    0.31    0.12
  10   3   3    3.92    0.27
 -10   3  -3    3.20    0.32
 -10   3  -3    3.05    0.34
  10   3   3    3.82    0.27
  10   3   3    3.80    0.29
 -10   3  -3    4.33    0.25
  10   3   3    3.87    0.29
 -10   3  -3    4.12    0.29
  10   3   3    4.13    0.26
  10   3   3    4.09    0.27
  10   3   4    7.95    0.55
 -10   3  -4    9.16    0.52
  10   3   4    8.78    0.57
  10   3   4    7.75    0.65
  10   3   4    8.55    0.57
  10   3   4    9.23    0.56
 -10   3  -4    8.52    0.59
  10   3   4    8.78    0.54
  10   3   5   17.99    1.07
  10   3   5   16.61    1.10
 -10   3  -5   16.35    1.12
  10   3   5   17.62    1.09
 -10   3  -5   16.79    1.00
  10   3   5   15.13    1.00
  10   3   5   18.67    1.05
  10   3   5   15.28    1.19
 -10   3  -6    2.48    0.17
  10   3   6    2.57    0.18
  10   3   6    2.60    0.18
  10   3   6    2.47    0.18
  10   3   6    2.65    0.19
 -10   3  -7    1.44    0.10
  10   3   7    1.49    0.12
  10   3   7    1.46    0.12
  10   3   7    1.47    0.11
  10   3   7    1.43    0.11
  10   3   8    3.96    0.27
 -10   3  -8    4.27    0.27
  10   3   8    4.47    0.28
  10   3   8    4.29    0.29
 -10   3  -9    0.86    0.07
  10   3   9    0.92    0.09
  10   3   9    1.02    0.08
  10  -3   9    0.79    0.08
 -10   3 -10    8.43    0.56
  10   3  10    9.76    0.59
  10   3  10    9.34    0.61
  10  -3  10    9.70    0.56
  10   3  11    0.99    0.08
 -10   3 -11    0.88    0.08
  10   3  11    0.98    0.07
  10  -3  11    0.85    0.07
 -10   3 -12    0.15    0.03
  10   3  12    0.05    0.03
  10  -3  12    0.16    0.02
 -10   4  14    1.54    0.13
  10   4 -14    1.76    0.11
 -10  -4  14    1.91    0.11
 -10   4  13    0.75    0.07
 -10  -4  13    0.82    0.07
 -10  -4  13    0.80    0.08
 -10   4  12    0.38    0.08
  10   4 -12    0.54    0.06
 -10   4  12    0.66    0.06
  10   4 -12    0.47    0.04
 -10  -4  12    0.39    0.05
 -10   4  11    0.04    0.05
  10   4 -11    0.00    0.04
 -10   4  11    0.04    0.05
 -10  -4  11    0.03    0.05
  10   4 -10   19.67    1.18
 -10   4  10   19.07    1.32
 -10   4  10   21.12    1.33
  10   4  -9    1.94    0.13
 -10   4   9    1.90    0.18
 -10   4   9    1.94    0.13
  10   4  -9    1.97    0.15
 -10   4   9    2.04    0.17
 -10   4   9    1.91    0.16
  10   4  -8    0.03    0.04
 -10   4   8    0.04    0.03
 -10   4   8   -0.02    0.08
 -10   4   8    0.03    0.05
  10   4  -8    0.03    0.04
 -10   4   8    0.10    0.07
  10   4  -7    0.17    0.06
  10   4  -7    0.01    0.04
 -10   4   7    0.01    0.05
 -10   4   7    0.03    0.04
 -10   4   7    0.10    0.08
 -10   4   7    0.01    0.07
 -10   4   6    3.12    0.23
 -10   4   6    2.58    0.22
 -10   4   6    2.73    0.19
  10   4  -6    2.77    0.21
  10   4  -6    2.77    0.18
 -10   4   6    2.76    0.21
 -10   4   5    0.53    0.09
 -10   4   5    0.69    0.08
  10   4  -5    0.60    0.06
  10   4  -5    0.75    0.08
 -10   4   5    0.66    0.09
 -10   4   5    0.76    0.08
 -10   4   4    1.41    0.11
  10   4  -4    1.11    0.12
  10   4  -4    1.36    0.09
  10   4  -4    0.92    0.14
 -10   4   4    1.34    0.18
 -10   4   4    1.32    0.10
 -10   4   4    1.41    0.12
  10   4  -4    1.46    0.12
  10   4  -4    1.28    0.11
 -10   4   4    1.23    0.13
 -10   4   4    1.25    0.14
  10   4  -3    1.55    0.13
 -10   4   3    1.46    0.14
  10   4  -3    1.72    0.12
  10   4  -3    1.55    0.10
 -10   4   3    1.64    0.14
 -10   4   3    1.62    0.13
  10   4  -3    1.36    0.16
 -10   4   3    1.56    0.19
 -10   4   3    1.56    0.12
 -10   4   3    1.48    0.14
  10   4  -3    1.48    0.11
  10   4  -2    0.50    0.11
 -10   4   2    0.70    0.08
 -10   4   2    0.55    0.08
  10   4  -2    0.73    0.07
  10   4  -2    0.73    0.09
 -10   4   2    0.84    0.09
 -10   4   2    0.69    0.08
 -10   4   2    1.02    0.15
  10   4  -2    0.74    0.05
  10   4  -2    0.91    0.08
 -10   4   2    0.71    0.09
 -10   4   1    0.08    0.05
  10   4  -1    0.06    0.01
 -10   4   1    0.00    0.04
  10   4  -1    0.02    0.04
  10   4  -1    0.10    0.03
  10   4  -1   -0.01    0.05
 -10   4   1    0.05    0.08
 -10   4   1    0.05    0.05
  10   4  -1    0.06    0.06
 -10   4   1    0.06    0.13
  10   4  -1    0.09    0.04
  10   4   0    3.13    0.22
 -10   4   0    3.14    0.23
 -10   4   0    2.69    0.31
  10   4   0    3.36    0.22
  10   4   0    2.95    0.25
  10   4   0    3.20    0.22
 -10   4   0    3.01    0.25
  10   4   0    3.13    0.22
 -10   4   0    3.53    0.23
  10   4   1   17.72    1.07
 -10   4  -1   16.71    1.16
  10   4   1   18.25    1.10
 -10   4  -1   19.14    1.14
 -10   4  -1   15.20    1.22
  10   4   1   17.46    1.13
 -10   4  -1   17.54    1.11
  10   4   1   15.89    1.03
  10   4   2    2.47    0.17
 -10   4  -2    2.44    0.21
 -10   4  -2    2.40    0.15
  10   4   2    2.37    0.18
 -10   4  -2    2.10    0.17
  10   4   2    2.67    0.18
  10   4   2    2.35    0.17
 -10   4  -2    2.45    0.19
  10   4   3    5.25    0.36
  10   4   3    5.42    0.35
  10   4   3    5.69    0.34
  10   4   3    5.04    0.41
 -10   4  -3    5.56    0.32
 -10   4  -3    5.15    0.37
  10   4   3    5.52    0.35
 -10   4  -3    4.59    0.36
 -10   4  -3    5.68    0.38
 -10   4  -4    0.81    0.06
  10   4   4    0.76    0.08
 -10   4  -4    0.64    0.09
  10   4   4    0.72    0.10
  10   4   4    0.87    0.06
 -10   4  -4    0.80    0.09
  10   4   4    0.86    0.09
  10   4   4    0.83    0.08
  10   4   5    1.17    0.10
  10   4   5    1.27    0.11
  10   4   5    1.06    0.10
 -10   4  -5    1.00    0.08
 -10   4  -5    1.26    0.12
  10   4   5    1.07    0.13
 -10   4  -6    0.00    0.03
  10   4   6   -0.01    0.04
  10   4   6    0.02    0.05
  10   4   6    0.00    0.04
  10   4   6   -0.05    0.04
 -10   4  -6    0.00    0.05
 -10   4  -7    4.39    0.30
  10   4   7    3.95    0.27
 -10   4  -7    4.12    0.25
  10   4   7    4.29    0.28
  10   4   7    4.06    0.32
  10   4   7    4.06    0.27
  10   4   8   11.80    0.75
 -10   4  -8   13.11    0.81
 -10   4  -8   11.88    0.72
  10   4   8   12.70    0.77
  10   4   8   10.95    0.88
  10   4   8   12.55    0.79
 -10   4  -9    5.80    0.32
  10   4   9    5.42    0.40
 -10   4  -9    5.14    0.37
  10   4   9    4.86    0.35
  10   4   9    5.37    0.34
 -10   4 -10    1.52    0.14
 -10   4 -10    1.93    0.11
  10   4  11    0.23    0.03
 -10   4 -11    0.18    0.02
  10  -4  11    0.21    0.03
 -10   5  12    0.93    0.09
 -10   5  12    1.14    0.09
 -10   5  11   13.00    0.86
 -10   5  11   13.78    0.86
  10   5 -11   12.03    0.85
  10   5 -10    0.14    0.04
 -10   5  10    0.09    0.05
  10   5 -10    0.15    0.04
 -10   5  10    0.17    0.05
  10   5 -10    0.12    0.02
 -10   5   9   11.41    0.79
 -10   5   9   11.48    0.79
  10   5  -9   11.95    0.78
 -10   5   9   12.15    0.79
  10   5  -9   12.06    0.76
  10   5  -8    1.57    0.13
 -10   5   8    1.56    0.15
 -10   5   8    1.70    0.14
  10   5  -8    1.29    0.09
 -10   5   8    1.65    0.14
  10   5  -8    1.52    0.12
 -10   5   7    0.00    0.07
  10   5  -7    0.04    0.06
  10   5  -7    0.02    0.04
 -10   5   7    0.10    0.06
 -10   5   7    0.12    0.05
  10   5  -7    0.05    0.01
 -10   5   6    2.21    0.19
  10   5  -6    2.73    0.18
 -10   5   6    2.54    0.16
 -10   5   6    2.49    0.21
  10   5  -6    2.47    0.18
 -10   5   6    2.31    0.19
  10   5  -5    0.94    0.10
 -10   5   5    0.86    0.10
 -10   5   5    0.93    0.08
 -10   5   5    0.92    0.11
 -10   5   5    1.08    0.11
  10   5  -5    1.11    0.11
  10   5  -5    0.99    0.11
  10   5  -4    0.02    0.05
  10   5  -4   -0.02    0.05
  10   5  -4    0.09    0.04
 -10   5   4    0.01    0.05
  10   5  -4    0.03    0.04
 -10   5   4    0.01    0.04
 -10   5   4    0.06    0.06
  10   5  -3    1.48    0.12
 -10   5   3    1.60    0.15
  10   5  -3    1.51    0.12
 -10   5   3    1.72    0.12
 -10   5   3    1.46    0.16
  10   5  -3    1.71    0.13
  10   5  -3    1.56    0.12
  10   5  -2    1.57    0.12
  10   5  -2    1.43    0.12
 -10   5   2    1.49    0.15
 -10   5   2    1.83    0.17
 -10   5   2    1.59    0.13
  10   5  -2    1.67    0.13
  10   5  -2    1.54    0.12
  10   5  -1   21.14    1.31
  10   5  -1   20.41    1.39
  10   5  -1   22.18    1.35
 -10   5   1   21.25    1.41
 -10   5   1   21.71    1.35
 -10   5   1   22.04    1.43
  10   5  -1   20.77    1.35
 -10   5   0    3.17    0.25
  10   5   0    3.51    0.23
 -10   5   0    3.45    0.23
  10   5   0    3.51    0.23
  10   5   0    3.52    0.23
 -10   5   0    3.07    0.24
 -10   5   0    3.41    0.25
  10   5   0    3.60    0.23
 -10   5  -1    0.66    0.08
 -10   5  -1    0.83    0.09
 -10   5  -1    0.77    0.07
 -10   5  -1    0.84    0.11
  10   5   1    0.72    0.08
  10   5   1    0.88    0.09
 -10   5  -2    0.58    0.08
  10   5   2    0.46    0.06
  10   5   2    0.50    0.07
 -10   5  -2    0.63    0.07
  10   5   2    0.42    0.06
 -10   5  -2    0.61    0.07
 -10   5  -3    7.74    0.52
 -10   5  -3    7.07    0.50
  10   5   3    8.17    0.48
  10   5   3    7.80    0.49
 -10   5  -3    7.62    0.49
  10   5   3    7.14    0.50
 -10   5  -4    0.17    0.05
 -10   5  -4    0.13    0.07
  10   5   4    0.15    0.05
  10   5   4    0.17    0.04
  10   5   4    0.19    0.06
 -10   5  -4    0.24    0.06
  10   5   5   20.96    1.36
 -10   5  -5   19.59    1.42
  10   5   5   22.03    1.33
  10   5   5   23.28    1.30
 -10   5  -5   19.27    1.34
 -10   5  -5   22.00    1.39
 -10   5  -6    2.28    0.17
 -10   5  -6    2.11    0.17
  10   5   6    2.25    0.15
  10   5   6    2.07    0.15
 -10   5  -6    2.13    0.16
  10   5   7    7.86    0.49
  10   5   7    8.21    0.51
 -10   5  -7    7.41    0.53
 -10   5  -8    0.00    0.04
  10   5   8    0.00    0.02
  10   5   8   -0.03    0.03
 -10   5  -8   -0.02    0.03
 -10   5  -9    0.86    0.07
 -10   5  -9    0.96    0.08
 -10   6   9    0.07    0.04
  10   6  -9    0.04    0.03
  10   6  -9    0.08    0.03
 -10   6   8    1.41    0.11
  10   6  -8    1.34    0.10
  10   6  -8    1.36    0.11
 -10   6   7    0.91    0.09
  10   6  -7    0.89    0.08
  10   6  -7    0.83    0.07
 -10   6   6    4.25    0.29
  10   6  -6    4.28    0.27
  10   6  -6    3.81    0.27
  10   6  -5    0.03    0.04
 -10   6   5    0.05    0.07
  10   6  -5    0.00    0.02
 -10   6   5    0.09    0.06
  10   6  -5    0.03    0.05
  10   6  -4    2.84    0.18
 -10   6   4    2.80    0.21
  10   6  -4    2.79    0.19
 -10   6   4    2.34    0.20
  10   6  -3    0.08    0.05
 -10   6   3    0.05    0.07
  10   6  -3    0.02    0.03
  10   6  -3    0.07    0.03
 -10   6   3    0.01    0.04
  10   6  -2    0.51    0.06
 -10   6   2    0.70    0.05
  10   6  -2    0.64    0.07
  10   6  -2    0.69    0.06
 -10   6   2    0.60    0.07
 -10   6   2    0.57    0.09
  10   6  -1    0.26    0.04
 -10   6   1    0.36    0.06
 -10   6   1    0.26    0.05
 -10   6   1    0.33    0.04
  10   6  -1    0.33    0.06
  10   6   0    3.09    0.21
 -10   6   0    3.08    0.20
  10   6   0    2.87    0.20
 -10   6  -1    0.04    0.05
  10   6   1    0.00    0.03
 -10   6  -1    0.08    0.04
 -10   6  -1    0.05    0.04
 -10   6  -2    0.53    0.06
 -10   6  -2    0.52    0.07
  10   6   2    0.38    0.06
 -10   6  -2    0.39    0.06
  10   6   2    0.53    0.04
  10   6   3    0.03    0.04
 -10   6  -3    0.01    0.05
 -10   6  -3   -0.01    0.06
  10   6   3   -0.03    0.03
 -10   6  -4    1.92    0.16
  10   6   4    2.17    0.16
  10   6   4    2.73    0.16
 -10   6  -4    2.47    0.17
  10   6   5    0.04    0.03
  10   6   5    0.06    0.03
 -10   6  -5    0.06    0.04
 -10   6  -5    0.09    0.05
  10   6   6    0.60    0.05
 -10   6  -6    0.58    0.06
 -11   0  16   11.01    0.77
 -11   0  16   10.32    0.68
 -11   0  15   -0.02    0.04
 -11   0  15   -0.01    0.02
 -11   0  15    0.00    0.06
 -11   0  14    1.48    0.12
 -11   0  14    1.60    0.14
 -11   0  14    1.61    0.14
 -11   0  13   -0.06    0.07
 -11   0  13    0.00    0.06
 -11   0  13    0.01    0.03
 -11   0  12    0.10    0.05
 -11   0  12    0.13    0.06
 -11   0  12    0.04    0.05
 -11   0  11   -0.05    0.06
 -11   0  11    0.06    0.08
 -11   0  11    0.03    0.04
 -11   0  11   -0.08    0.05
 -11   0  11    0.02    0.02
 -11   0  10   18.44    1.06
 -11   0  10   18.22    1.14
 -11   0  10   17.26    1.19
 -11   0   9    0.02    0.04
 -11   0   9    0.17    0.12
 -11   0   9   -0.03    0.06
 -11   0   9    0.03    0.03
 -11   0   9   -0.01    0.06
 -11   0   8    0.55    0.15
 -11   0   8    0.49    0.14
 -11   0   8    0.76    0.07
 -11   0   8    0.75    0.09
 -11   0   8    0.82    0.08
 -11   0   8    0.76    0.16
 -11   0   7    0.00    0.06
 -11   0   7    0.00    0.06
 -11   0   7   -0.03    0.04
 -11   0   7    0.13    0.11
 -11   0   7   -0.09    0.12
 -11   0   7   -0.06    0.11
 -11   0   6    0.31    0.13
 -11   0   6    0.30    0.13
 -11   0   6    0.23    0.12
 -11   0   6    0.47    0.08
 -11   0   6    0.43    0.05
 -11   0   5    0.04    0.11
 -11   0   5    0.02    0.06
 -11   0   5    0.03    0.04
 -11   0   5    0.05    0.11
 -11   0   5    0.00    0.11
 -11   0   4    7.40    0.46
 -11   0   4    8.22    0.56
 -11   0   3    0.00    0.04
 -11   0   2   22.27    1.31
  11   0   1   -0.02    0.04
  11   0   2    4.96    0.30
  11   0   3    0.03    0.03
  11   0   4    4.46    0.27
  11   0   5   -0.01    0.06
  11   0   5   -0.02    0.03
  11   0   6    0.80    0.07
  11   0   6    0.69    0.08
  11   0   7    0.04    0.03
  11   0   7    0.06    0.04
  11   0   8    0.74    0.09
  11   0   8    0.99    0.10
  11   0   8    0.90    0.07
  11   0   9   -0.02    0.03
  11   0   9   -0.08    0.06
  11   0   9    0.00    0.04
  11   0  10    4.66    0.29
  11   0  10    3.68    0.25
  11   0  10    4.61    0.29
  11   0  11   -0.02    0.05
  11   0  11    0.01    0.04
  11   0  11    0.02    0.05
  11   0  12    1.17    0.10
  11   0  12    1.26    0.09
  11   0  12    1.31    0.10
  11   0  13    0.01    0.03
  11   0  13    0.02    0.03
  11   0  13    0.01    0.02
 -11   1  16    0.20    0.04
 -11   1  16    0.17    0.03
 -11  -1  16    0.22    0.03
 -11  -1  16    0.20    0.04
 -11   1  15    1.69    0.12
 -11   1  15    1.40    0.13
 -11  -1  15    1.27    0.14
 -11  -1  15    1.50    0.12
 -11  -1  15    1.52    0.13
 -11   1  14    1.09    0.10
 -11   1  14    1.12    0.13
 -11  -1  14    0.97    0.10
 -11  -1  14    1.21    0.13
 -11  -1  14    1.30    0.10
 -11   1  13    0.31    0.07
 -11   1  13    0.40    0.07
 -11   1  13    0.41    0.05
 -11   1  13    0.51    0.06
 -11  -1  13    0.40    0.08
 -11  -1  13    0.41    0.04
 -11  -1  13    0.36    0.07
 -11   1  12   -0.01    0.05
 -11   1  12    0.01    0.06
 -11   1  12    0.01    0.06
 -11   1  12   -0.03    0.04
 -11  -1  12    0.03    0.03
 -11  -1  12   -0.01    0.07
 -11   1  11    2.52    0.19
 -11   1  11    2.53    0.19
 -11   1  11    2.71    0.21
 -11   1  11    2.27    0.20
 -11  -1  11    2.48    0.20
 -11  -1  11    2.38    0.16
 -11   1  10    3.42    0.27
 -11   1  10    3.31    0.25
 -11   1  10    3.41    0.26
 -11  -1  10    3.86    0.22
 -11   1   9    0.94    0.10
 -11   1   9    0.71    0.10
 -11   1   9    0.81    0.06
 -11   1   9    0.74    0.16
 -11   1   9    0.80    0.10
 -11   1   9    0.82    0.09
 -11  -1   9    0.83    0.08
 -11  -1   9    0.81    0.10
 -11   1   8    0.45    0.14
 -11   1   8    0.42    0.07
 -11   1   8    0.24    0.07
 -11   1   8    0.35    0.04
 -11   1   8    0.30    0.13
 -11   1   8    0.43    0.07
 -11  -1   8    0.21    0.12
 -11  -1   8    0.52    0.06
 -11   1   7    8.67    0.55
 -11   1   7    7.95    0.56
 -11   1   7    7.71    0.56
 -11   1   7    8.38    0.49
 -11   1   7    7.87    0.60
 -11   1   7    8.60    0.54
 -11  -1   7    7.35    0.59
 -11  -1   7    8.71    0.50
 -11   1   6    0.61    0.08
 -11   1   6    0.59    0.13
 -11   1   6    0.60    0.13
 -11   1   6    0.69    0.08
 -11   1   6    0.71    0.07
 -11   1   6    0.67    0.15
 -11  -1   6    0.54    0.13
 -11  -1   6    0.63    0.07
  11   1  -5    0.77    0.11
 -11   1   5    0.85    0.16
 -11   1   5    1.11    0.11
 -11   1   5    1.11    0.08
 -11   1   5    0.60    0.14
 -11   1   5    1.20    0.10
 -11   1   5    0.79    0.14
 -11  -1   5    1.07    0.08
 -11  -1   5    1.20    0.16
 -11   1   4    0.09    0.11
 -11   1   4    0.12    0.06
 -11   1   4    0.08    0.03
 -11   1   4    0.08    0.11
 -11   1   4    0.18    0.12
 -11  -1   4    0.05    0.11
 -11   1   3    3.94    0.24
 -11   1   3    4.04    0.28
 -11   1   3    3.72    0.32
 -11   1   3    4.32    0.34
 -11   1   3    3.46    0.32
 -11   1   2    9.18    0.66
  11   1  -2    8.91    0.59
 -11   1   2   11.14    0.59
 -11   1   2    9.77    0.68
 -11   1   2   10.43    0.66
  11   1  -1   29.16    1.71
 -11   1   1   28.59    1.85
 -11   1   1   28.91    1.71
 -11   1   1   29.39    1.80
 -11   1   0    5.88    0.37
  11   1   0    6.20    0.37
 -11   1  -1    0.06    0.03
  11   1   1    0.11    0.11
  11   1   1    0.14    0.04
  11   1   1    0.09    0.09
  11   1   2    1.23    0.17
  11   1   2    1.52    0.16
 -11   1  -2    1.49    0.11
  11   1   2    1.39    0.13
  11   1   2    1.53    0.10
  11   1   3    5.68    0.40
  11   1   3    5.39    0.42
  11   1   3    5.99    0.33
  11   1   3    5.38    0.38
  11   1   3    5.14    0.37
  11   1   4    6.05    0.43
  11   1   4    5.75    0.39
  11   1   4    5.99    0.36
  11   1   4    6.28    0.40
  11  -1   4    5.55    0.36
  11   1   5    0.56    0.07
  11   1   5    0.53    0.07
  11   1   5    0.32    0.11
  11   1   5    0.56    0.08
  11   1   5    0.64    0.09
  11   1   5    0.68    0.06
  11  -1   5    0.49    0.06
  11   1   6    0.41    0.07
  11   1   6    0.46    0.06
  11   1   6    0.60    0.06
  11   1   6    0.57    0.06
  11  -1   6    0.47    0.06
  11   1   7    0.91    0.10
  11   1   7    0.86    0.10
  11   1   7    0.77    0.09
  11   1   7    0.95    0.07
  11  -1   7    0.96    0.08
  11   1   8    1.19    0.10
  11   1   8    1.18    0.12
  11   1   8    1.14    0.12
  11   1   8    1.07    0.07
  11  -1   8    1.34    0.09
  11   1   9    1.44    0.14
  11   1   9    1.72    0.13
  11   1   9    1.64    0.14
  11  -1   9    1.73    0.14
  11  -1   9    1.68    0.11
  11   1  10    0.32    0.06
  11   1  10    0.60    0.06
  11   1  10    0.22    0.05
  11  -1  10    0.40    0.04
  11  -1  10    0.36    0.07
  11   1  11    0.75    0.08
  11   1  11    0.96    0.07
  11  -1  11    0.88    0.08
  11  -1  11    0.89    0.08
  11  -1  11    0.78    0.05
  11   1  12    0.30    0.04
  11   1  12    0.34    0.04
  11  -1  12    0.26    0.04
  11  -1  12    0.19    0.05
  11  -1  13    8.80    0.58
 -11   2  15    1.46    0.11
 -11   2  15    1.25    0.10
 -11   2  15    1.44    0.09
 -11  -2  15    1.29    0.11
 -11  -2  15    1.19    0.11
 -11   2  14    2.20    0.13
 -11   2  14    1.53    0.14
 -11  -2  14    2.02    0.16
 -11  -2  14    1.82    0.11
 -11  -2  14    1.64    0.15
 -11   2  13   -0.04    0.05
 -11   2  13    0.06    0.07
 -11   2  13   -0.01    0.04
 -11  -2  13   -0.01    0.05
 -11  -2  13    0.01    0.03
 -11  -2  13    0.04    0.05
 -11   2  12    0.50    0.09
 -11   2  12    0.84    0.08
 -11   2  12    0.53    0.07
 -11  -2  12    0.63    0.07
 -11  -2  12    0.72    0.08
 -11   2  11    3.73    0.26
 -11   2  11    4.22    0.31
 -11   2  11    3.96    0.27
 -11   2  11    4.22    0.29
 -11  -2  11    4.07    0.25
 -11   2  10   32.14    1.99
 -11   2  10   30.59    2.06
 -11   2  10   31.80    2.09
 -11   2  10   28.99    2.25
 -11  -2  10   34.61    1.86
 -11   2   9    5.38    0.44
 -11   2   9    6.57    0.40
 -11   2   9    6.18    0.42
 -11  -2   9    5.80    0.36
 -11   2   8    0.06    0.06
 -11   2   8    0.15    0.08
 -11   2   8    0.11    0.13
 -11   2   8    0.10    0.06
 -11   2   8    0.16    0.06
 -11  -2   8    0.30    0.06
 -11   2   7    2.84    0.20
 -11   2   7    2.63    0.29
 -11   2   7    2.98    0.22
 -11   2   7    2.88    0.20
 -11   2   7    2.51    0.21
 -11  -2   7    2.57    0.18
 -11   2   6    1.65    0.18
 -11   2   6    1.61    0.12
 -11   2   6    1.45    0.09
 -11   2   6    1.57    0.14
 -11   2   6    1.16    0.17
 -11   2   6    1.56    0.15
 -11   2   6    1.56    0.13
 -11   2   6    1.66    0.21
 -11   2   5    3.41    0.25
 -11   2   5    3.78    0.24
 -11   2   5    3.22    0.31
 -11   2   5    3.34    0.23
 -11   2   5    2.91    0.24
  11   2  -5    3.18    0.21
 -11   2   5    3.50    0.27
  11   2  -5    3.19    0.24
 -11   2   5    3.55    0.20
 -11   2   5    3.07    0.29
 -11   2   4   24.00    1.31
  11   2  -4   23.61    1.31
 -11   2   4   21.42    1.48
 -11   2   4   22.96    1.41
 -11   2   4   21.43    1.39
 -11   2   4   23.54    1.47
 -11   2   4   21.24    1.53
 -11   2   4   21.69    1.45
 -11   2   4   20.47    1.42
  11   2  -4   22.09    1.30
 -11  -2   4   21.37    1.45
 -11   2   3    1.39    0.13
 -11   2   3    1.36    0.13
 -11   2   3    1.19    0.16
 -11   2   3    1.63    0.13
 -11   2   3    1.65    0.21
 -11   2   3    1.10    0.17
  11   2  -3    1.30    0.15
 -11   2   3    1.62    0.10
 -11   2   3    1.16    0.17
  11   2  -3    1.56    0.11
 -11   2   2   29.03    1.93
  11   2  -2   31.61    1.71
 -11   2   2   32.85    1.93
 -11   2   2   29.57    1.74
  11   2  -2   30.92    1.74
 -11   2   2   28.99    1.96
 -11   2   2   29.26    1.83
 -11   2   2   28.86    1.87
  11   2  -2   25.01    1.88
 -11   2   1    3.19    0.26
  11   2  -1    3.82    0.27
  11   2  -1    3.37    0.31
  11   2  -1    3.46    0.26
 -11   2   1    4.06    0.22
  11   2  -1    3.66    0.22
  11   2  -1    3.53    0.29
 -11   2   1    3.85    0.26
 -11   2   1    3.47    0.25
 -11   2   1    3.21    0.31
 -11   2   1    3.77    0.30
  11   2   0   16.93    1.00
 -11   2   0   17.86    1.00
  11   2   0   18.21    1.00
 -11   2   0   16.53    1.11
 -11   2   0   15.71    1.11
 -11   2   0   17.52    1.08
  11   2   0   15.70    1.07
  11   2   0   17.86    1.11
 -11   2   0   16.38    1.13
  11   2   0   15.59    1.10
  11   2   1    1.82    0.20
  11   2   1    1.19    0.18
  11   2   1    1.90    0.15
 -11   2  -1    1.99    0.13
 -11   2  -1    2.00    0.16
  11   2   1    2.01    0.12
 -11   2  -1    1.70    0.21
  11   2   1    1.87    0.19
 -11   2  -1    1.69    0.20
 -11   2  -2   14.67    0.87
  11   2   2   13.85    0.93
  11   2   2   16.59    0.87
  11   2   2   14.02    0.94
  11   2   2   13.01    0.96
  11   2   2   15.02    0.97
  11   2   2   15.08    0.88
  11   2   3    0.93    0.09
  11   2   3    1.09    0.07
  11   2   3    0.90    0.09
  11   2   3    0.83    0.13
  11   2   3    0.95    0.15
  11   2   3    0.91    0.10
  11   2   3    0.78    0.14
 -11   2  -3    1.02    0.09
  11   2   4    6.40    0.41
  11   2   4    6.33    0.40
 -11   2  -4    6.19    0.37
  11   2   4    6.13    0.36
  11   2   4    5.53    0.39
  11   2   4    5.56    0.40
  11   2   5    8.17    0.50
  11   2   5    8.90    0.56
 -11   2  -5    8.66    0.51
  11   2   5    8.08    0.56
  11   2   5    8.14    0.53
  11   2   5    8.69    0.55
  11   2   6    0.09    0.05
 -11   2  -6    0.09    0.05
  11   2   6    0.10    0.05
  11   2   6    0.05    0.05
  11   2   6    0.12    0.06
  11  -2   6    0.04    0.04
  11   2   7    2.14    0.17
  11   2   7    2.36    0.17
  11   2   7    2.12    0.15
  11   2   7    2.41    0.17
 -11   2  -7    2.20    0.15
  11  -2   7    2.38    0.15
  11   2   8    0.06    0.04
 -11   2  -8    0.13    0.05
  11   2   8    0.00    0.04
  11   2   8    0.00    0.05
  11  -2   8    0.00    0.03
  11   2   9    4.35    0.28
 -11   2  -9    3.90    0.25
  11   2   9    4.27    0.27
  11   2   9    4.14    0.28
  11  -2   9    3.77    0.25
  11   2  10    0.02    0.04
 -11   2 -10    0.10    0.05
  11   2  10    0.06    0.03
  11  -2  10    0.03    0.03
 -11   2 -11    4.91    0.29
  11   2  11    4.24    0.31
  11  -2  11    4.99    0.28
  11  -2  11    4.41    0.32
  11   2  12    0.96    0.09
  11   2  12    1.36    0.08
 -11   2 -12    1.24    0.08
  11  -2  12    0.99    0.09
 -11   3  14    3.32    0.22
  11   3 -14    3.24    0.19
 -11  -3  14    3.00    0.22
 -11  -3  14    2.54    0.23
 -11  -3  14    3.38    0.19
 -11   3  13   11.77    0.78
  11   3 -13   11.56    0.69
 -11  -3  13   11.32    0.69
 -11  -3  13   11.87    0.84
 -11   3  12    6.10    0.36
 -11   3  12    5.76    0.39
  11   3 -12    5.47    0.34
 -11   3  12    5.65    0.39
 -11  -3  12    5.17    0.34
  11   3 -11    0.46    0.06
 -11   3  11    0.47    0.06
 -11   3  11    0.59    0.06
 -11   3  11    0.57    0.08
 -11  -3  11    0.57    0.06
 -11   3  10    2.32    0.20
 -11   3  10    2.35    0.18
  11   3 -10    2.22    0.16
 -11   3  10    2.48    0.17
 -11  -3  10    2.38    0.16
 -11   3   9    5.18    0.38
 -11   3   9    5.44    0.35
 -11   3   9    5.64    0.38
  11   3  -9    5.47    0.33
 -11  -3   9    5.36    0.33
 -11   3   8    6.44    0.44
 -11   3   8    6.46    0.44
  11   3  -8    6.38    0.39
 -11   3   8    6.20    0.41
 -11   3   8    6.18    0.44
  11   3  -7    0.82    0.08
 -11   3   7    0.78    0.07
 -11   3   7    0.71    0.09
 -11   3   7    0.68    0.09
 -11   3   7    0.79    0.10
 -11   3   7    0.84    0.09
 -11   3   6    1.63    0.13
  11   3  -6    1.54    0.11
 -11   3   6    1.44    0.14
 -11   3   6    1.45    0.15
 -11   3   6    1.47    0.14
 -11   3   6    1.45    0.11
 -11   3   5   -0.06    0.12
  11   3  -5    0.14    0.04
 -11   3   5    0.10    0.12
 -11   3   5    0.19    0.05
 -11   3   5    0.22    0.05
 -11   3   5    0.10    0.07
  11   3  -5    0.19    0.05
 -11   3   5    0.14    0.05
  11   3  -5    0.21    0.09
 -11   3   4    0.36    0.15
 -11   3   4    0.59    0.13
 -11   3   4    0.72    0.09
  11   3  -4    0.66    0.08
 -11   3   4    0.75    0.10
 -11   3   4    0.82    0.09
 -11   3   4    0.71    0.08
  11   3  -4    0.69    0.07
 -11   3   4    0.69    0.15
  11   3  -4    0.79    0.07
  11   3  -4    0.50    0.10
 -11   3   3    1.20    0.13
  11   3  -3    1.40    0.10
  11   3  -3    1.50    0.12
  11   3  -3    1.30    0.14
  11   3  -3    1.27    0.10
 -11   3   3    1.34    0.12
 -11   3   3    1.26    0.19
 -11   3   3    1.47    0.12
 -11   3   3    1.22    0.16
  11   3  -3    0.74    0.17
 -11   3   3    1.08    0.18
 -11   3   3    1.31    0.12
  11   3  -3    1.00    0.15
 -11   3   2    8.20    0.62
 -11   3   2    8.82    0.58
  11   3  -2    8.47    0.54
 -11   3   2    7.91    0.64
 -11   3   2    9.26    0.56
  11   3  -2    8.83    0.51
 -11   3   2    8.74    0.51
  11   3  -2    9.15    0.58
 -11   3   2    8.66    0.59
 -11   3   2    7.54    0.57
  11   3  -2    8.60    0.54
  11   3  -1    8.69    0.56
 -11   3   1    8.35    0.60
 -11   3   1    8.46    0.64
  11   3  -1    8.97    0.55
  11   3  -1    8.33    0.57
 -11   3   1    9.00    0.52
 -11   3   1    8.25    0.57
 -11   3   1    8.26    0.59
 -11   3   1    9.84    0.59
  11   3  -1    8.99    0.52
  11   3  -1    9.46    0.59
  11   3   0    0.12    0.03
  11   3   0    0.12    0.05
  11   3   0    0.05    0.05
 -11   3   0    0.04    0.03
 -11   3   0    0.10    0.06
 -11   3   0    0.00    0.06
 -11   3   0    0.12    0.11
  11   3   0    0.04    0.05
 -11   3   0    0.12    0.07
  11   3   0    0.12    0.11
  11   3   0    0.01    0.09
  11   3   1    7.77    0.48
 -11   3  -1    6.76    0.44
 -11   3  -1    6.96    0.49
  11   3   1    6.99    0.50
 -11   3  -1    7.46    0.51
  11   3   1    7.78    0.47
  11   3   1    7.50    0.44
  11   3   1    6.92    0.48
 -11   3  -1    6.44    0.51
  11   3   1    8.05    0.49
 -11   3  -1    7.96    0.50
  11   3   2    3.57    0.30
  11   3   2    4.49    0.29
  11   3   2    4.60    0.29
 -11   3  -2    4.53    0.31
 -11   3  -2    4.55    0.27
  11   3   2    4.24    0.26
  11   3   2    4.66    0.30
  11   3   2    4.41    0.32
  11   3   3    2.47    0.21
  11   3   3    2.66    0.19
  11   3   3    2.66    0.19
 -11   3  -3    2.59    0.21
  11   3   3    2.39    0.19
 -11   3  -3    2.70    0.17
  11   3   3    2.65    0.19
 -11   3  -4    1.74    0.12
  11   3   4    1.72    0.14
 -11   3  -4    1.58    0.16
  11   3   4    1.69    0.14
  11   3   4    1.99    0.14
  11   3   4    1.78    0.13
  11   3   5    2.65    0.20
 -11   3  -5    2.65    0.22
 -11   3  -5    3.06    0.19
  11   3   5    3.09    0.19
  11   3   5    2.87    0.20
  11   3   5    2.76    0.20
  11   3   6    0.26    0.04
  11   3   6    0.24    0.05
 -11   3  -6    0.28    0.05
  11   3   6    0.22    0.05
  11   3   6    0.23    0.04
  11   3   7    4.61    0.31
  11   3   7    4.59    0.30
  11   3   7    4.81    0.30
  11   3   7    4.30    0.30
 -11   3  -7    4.72    0.28
 -11   3  -8   10.49    0.60
  11   3   8   10.73    0.64
  11   3   8    8.75    0.62
  11   3   8   10.06    0.66
  11  -3   8   10.32    0.60
 -11   3  -9    0.05    0.04
  11   3   9    0.00    0.05
  11   3   9   -0.01    0.04
  11  -3   9    0.02    0.03
  11   3  10    7.31    0.45
 -11   3 -10    7.72    0.42
  11   3  10    6.25    0.46
  11   3  11    0.43    0.04
 -11   3 -11    0.47    0.04
  11  -3  11    0.44    0.04
 -11   4  13    0.14    0.06
  11   4 -13    0.18    0.02
 -11  -4  13    0.18    0.03
 -11   4  12    0.09    0.04
 -11   4  12    0.02    0.04
  11   4 -12    0.04    0.04
  11   4 -12    0.06    0.03
 -11  -4  12    0.12    0.03
 -11   4  11    2.41    0.17
  11   4 -11    2.36    0.14
 -11   4  11    1.82    0.16
 -11   4  10    6.30    0.44
 -11   4  10    6.28    0.44
  11   4 -10    6.40    0.38
 -11   4   9    0.75    0.09
 -11   4   9    0.84    0.07
  11   4  -9    0.86    0.07
  11   4  -9    0.81    0.08
 -11   4   9    0.70    0.10
 -11   4   8    1.53    0.15
  11   4  -8    1.41    0.12
 -11   4   8    1.36    0.12
 -11   4   8    1.63    0.15
 -11   4   8    1.52    0.11
  11   4  -8    1.44    0.10
 -11   4   7    2.62    0.20
  11   4  -7    2.49    0.19
 -11   4   7    2.54    0.19
 -11   4   7    2.41    0.21
 -11   4   7    2.54    0.18
  11   4  -7    2.58    0.16
 -11   4   6    2.11    0.17
  11   4  -6    2.20    0.14
 -11   4   6    2.05    0.16
  11   4  -6    1.99    0.17
 -11   4   6    2.28    0.19
 -11   4   6    2.12    0.15
  11   4  -5    4.59    0.34
 -11   4   5    4.22    0.33
  11   4  -5    4.68    0.29
 -11   4   5    5.15    0.35
 -11   4   5    5.37    0.32
 -11   4   5    5.22    0.35
  11   4  -4   41.82    2.56
 -11   4   4   43.52    2.87
  11   4  -4   40.53    2.67
 -11   4   4   45.31    2.90
 -11   4   4   43.06    2.88
 -11   4   4   45.57    2.75
 -11   4   4   46.36    2.84
  11   4  -4   46.38    2.85
  11   4  -4   40.93    2.75
 -11   4   3    1.34    0.12
  11   4  -3    1.39    0.11
  11   4  -3    1.13    0.10
  11   4  -3    1.35    0.09
 -11   4   3    1.48    0.13
 -11   4   3    1.28    0.13
  11   4  -3    1.26    0.11
 -11   4   3    1.53    0.11
  11   4  -2    3.16    0.19
  11   4  -2    3.37    0.22
  11   4  -2    3.18    0.22
  11   4  -2    3.36    0.23
 -11   4   2    3.30    0.22
 -11   4   2    2.81    0.23
 -11   4   2    3.16    0.23
 -11   4   2    2.98    0.25
  11   4  -2    3.17    0.22
  11   4  -1    3.64    0.24
 -11   4   1    3.60    0.26
 -11   4   1    3.69    0.28
 -11   4   1    3.79    0.26
  11   4  -1    3.52    0.25
  11   4  -1    3.60    0.26
  11   4  -1    3.92    0.26
  11   4   0    1.72    0.14
 -11   4   0    1.78    0.15
 -11   4   0    1.84    0.14
  11   4   0    1.68    0.14
  11   4   0    1.70    0.13
 -11   4   0    1.81    0.15
 -11   4  -1    9.74    0.64
  11   4   1   10.79    0.64
 -11   4  -1    8.91    0.67
 -11   4  -1    9.56    0.66
  11   4   1    9.93    0.62
  11   4   1   10.26    0.65
 -11   4  -2    5.51    0.36
 -11   4  -2    4.44    0.31
  11   4   2    5.64    0.35
  11   4   2    5.49    0.34
 -11   4  -2    5.57    0.35
 -11   4  -2    4.82    0.38
  11   4   2    5.33    0.35
  11   4   3    2.22    0.16
 -11   4  -3    2.31    0.17
  11   4   3    1.92    0.15
 -11   4  -3    1.88    0.19
  11   4   3    2.15    0.15
 -11   4  -3    1.84    0.12
 -11   4  -3    1.94    0.17
  11   4   3    2.04    0.14
 -11   4  -4    3.31    0.22
  11   4   4    3.84    0.25
  11   4   4    3.53    0.24
 -11   4  -4    3.61    0.28
  11   4   4    4.21    0.25
  11   4   4    3.54    0.25
 -11   4  -4    3.92    0.26
  11   4   5    0.65    0.06
  11   4   5    0.46    0.06
 -11   4  -5    0.47    0.05
  11   4   5    0.50    0.07
 -11   4  -5    0.45    0.08
  11   4   6    6.38    0.38
  11   4   6    6.08    0.38
 -11   4  -6    5.75    0.40
 -11   4  -6    5.81    0.35
  11   4   6    5.59    0.39
 -11   4  -7    2.60    0.16
  11   4   7    2.98    0.18
  11   4   7    2.64    0.19
  11   4   7    2.55    0.17
 -11   4  -7    2.35    0.19
 -11   4  -8    2.70    0.18
  11   4   8    3.01    0.19
 -11   4  -8    2.88    0.21
  11   4   8    2.94    0.20
  11   4   9    0.22    0.04
 -11   4  -9    0.10    0.04
 -11   4  -9    0.23    0.03
  11  -4   9    0.24    0.03
 -11   4 -10    3.04    0.18
  11   4  10    3.51    0.21
 -11   4 -10    2.84    0.22
  11  -4  10    2.86    0.19
  11   5 -11    0.39    0.04
 -11   5  11    0.45    0.05
 -11   5  11    0.46    0.05
  11   5 -10    0.00    0.03
  11   5 -10    0.17    0.04
 -11   5  10    0.18    0.04
 -11   5  10    0.08    0.06
  11   5  -9    5.06    0.33
 -11   5   9    4.92    0.34
 -11   5   9    4.94    0.35
  11   5  -9    5.00    0.34
 -11   5   8    0.63    0.07
 -11   5   8    0.52    0.07
  11   5  -8    0.55    0.07
  11   5  -8    0.62    0.07
 -11   5   7    3.57    0.25
 -11   5   7    3.17    0.24
 -11   5   7    2.75    0.23
  11   5  -7    3.44    0.23
  11   5  -7    3.28    0.23
 -11   5   6    0.36    0.03
  11   5  -6    0.39    0.06
 -11   5   6    0.38    0.07
  11   5  -6    0.31    0.06
 -11   5   6    0.38    0.06
 -11   5   6    0.18    0.07
 -11   5   5    0.35    0.06
 -11   5   5    0.31    0.04
  11   5  -5    0.29    0.06
  11   5  -5    0.33    0.05
 -11   5   5    0.22    0.07
 -11   5   5    0.12    0.06
  11   5  -5    0.19    0.06
 -11   5   4    0.08    0.04
 -11   5   4    0.04    0.06
  11   5  -4    0.07    0.05
  11   5  -4    0.07    0.04
  11   5  -4    0.02    0.04
 -11   5   4    0.08    0.08
  11   5  -4    0.06    0.05
 -11   5   3    7.91    0.53
  11   5  -3    7.71    0.51
 -11   5   3    7.68    0.51
  11   5  -3    7.51    0.48
  11   5  -3    7.48    0.49
 -11   5   3    7.76    0.49
  11   5  -3    7.36    0.49
  11   5  -2    0.55    0.07
 -11   5   2    0.64    0.10
  11   5  -2    0.69    0.06
 -11   5   2    0.38    0.07
  11   5  -2    0.59    0.07
  11   5  -2    0.58    0.07
 -11   5   2    0.56    0.06
  11   5  -1    0.03    0.03
  11   5  -1    0.01    0.04
 -11   5   1    0.03    0.08
 -11   5   1    0.05    0.04
  11   5  -1    0.00    0.05
  11   5  -1    0.05    0.05
  11   5   0    0.30    0.06
 -11   5   0    0.38    0.07
 -11   5   0    0.30    0.06
  11   5   0    0.19    0.05
 -11   5   0    0.25    0.03
  11   5   0    0.27    0.03
 -11   5  -1    6.14    0.40
 -11   5  -1    5.63    0.40
  11   5   1    6.02    0.39
 -11   5  -1    6.21    0.43
  11   5   1    6.09    0.38
 -11   5  -2    2.15    0.16
  11   5   2    2.19    0.15
 -11   5  -2    2.09    0.19
 -11   5  -2    1.95    0.16
  11   5   2    2.16    0.15
  11   5   3    6.82    0.50
 -11   5  -3    7.53    0.51
  11   5   3    7.85    0.49
 -11   5  -3    8.55    0.54
  11   5   3    7.82    0.49
 -11   5  -3    8.06    0.50
  11   5   4    0.00    0.03
 -11   5  -4    0.00    0.07
  11   5   4    0.03    0.03
  11   5   4    0.02    0.03
 -11   5  -4    0.02    0.07
 -11   5  -4    0.02    0.04
 -11   5  -5    2.72    0.20
 -11   5  -5    2.13    0.18
  11   5   5    2.27    0.18
 -11   5  -5    2.77    0.20
  11   5   5    2.85    0.17
  11   5   5    2.87    0.17
 -11   5  -6    1.26    0.10
  11   5   6    1.33    0.09
 -11   5  -6    1.19    0.11
  11   5   6    1.25    0.10
 -11   5  -7    5.57    0.34
 -11   5  -7    4.79    0.33
  11   5   7    4.45    0.31
 -11   5  -8    3.02    0.20
 -11   5  -8    2.94    0.21
  11   6  -7    0.49    0.05
  11   6  -7    0.49    0.05
  11   6  -7    0.37    0.03
 -11   6   7    0.48    0.06
 -11   6   7    0.58    0.06
  11   6  -6    3.33    0.21
  11   6  -6    3.19    0.21
 -11   6   6    3.06    0.22
 -11   6   5    1.17    0.11
  11   6  -5    1.14    0.09
 -11   6   5    1.10    0.10
 -11   6   4   40.98    2.96
  11   6  -4   43.19    2.85
 -11   6   4   51.47    3.00
 -11   6   3    0.06    0.03
  11   6  -3    0.17    0.04
 -11   6   3    0.31    0.06
  11   6  -3    0.17    0.03
 -11   6   2    1.22    0.12
  11   6  -2    1.17    0.08
 -11   6   2    0.97    0.09
 -11   6   2    1.05    0.07
  11   6  -2    1.16    0.09
  11   6  -2    1.09    0.09
 -11   6   1    1.36    0.11
  11   6  -1    1.48    0.10
  11   6  -1    1.44    0.10
  11   6  -1    1.43    0.10
 -11   6   1    1.30    0.10
 -11   6   1    1.69    0.12
  11   6   0    3.02    0.19
  11   6   0    2.60    0.19
 -11   6   0    3.12    0.19
  11   6   1   -0.01    0.02
 -11   6  -1    0.00    0.04
 -11   6  -1    0.04    0.06
  11   6   1   -0.01    0.03
 -11   6  -2    4.56    0.32
  11   6   2    5.33    0.31
 -11   6  -3    0.17    0.04
 -11   6  -3    0.21    0.03
 -11   6  -4    0.03    0.04
 -11   6  -4   -0.03    0.03
  11   6   4    0.00    0.02
 -11   6  -5    1.09    0.08
  11   6   5    0.83    0.07
 -12   0  15    0.04    0.04
 -12   0  15   -0.01    0.04
 -12   0  14    1.63    0.12
 -12   0  14    1.26    0.13
 -12   0  14    1.44    0.11
 -12   0  13    0.06    0.05
 -12   0  13    0.05    0.05
 -12   0  13    0.13    0.06
 -12   0  12    5.96    0.45
 -12   0  12    6.18    0.40
 -12   0  12    5.88    0.40
 -12   0  11    0.01    0.02
 -12   0  11    0.01    0.06
 -12   0  11    0.05    0.05
 -12   0  11    0.05    0.07
 -12   0  11   -0.05    0.05
 -12   0  10    2.79    0.18
 -12   0  10    2.89    0.22
 -12   0  10    3.19    0.21
 -12   0   9    0.01    0.06
 -12   0   9    0.00    0.06
 -12   0   9   -0.01    0.03
 -12   0   8    0.80    0.10
 -12   0   8    0.67    0.07
 -12   0   8    0.71    0.09
 -12   0   8    0.58    0.15
 -12   0   7   -0.08    0.04
 -12   0   7   -0.01    0.06
 -12   0   7    0.00    0.05
 -12   0   7    0.04    0.12
 -12   0   7   -0.07    0.12
 -12   0   6    7.60    0.46
 -12   0   6    7.65    0.56
 -12   0   6    7.58    0.52
 -12   0   5   -0.08    0.12
 -12   0   5    0.00    0.03
 -12   0   5    0.01    0.06
 -12   0   4   94.65    5.81
 -12   0   4   88.33    5.35
 -12   0   3    0.03    0.04
 -12   0   2    0.05    0.04
 -12   0   1   -0.01    0.04
  12   0   1    0.00    0.04
  12   0   2    0.02    0.04
  12   0   3    0.06    0.04
  12   0   4    1.08    0.09
  12   0   5   -0.03    0.04
  12   0   5   -0.02    0.06
  12   0   6    1.41    0.12
  12   0   6    1.20    0.13
  12   0   6    1.49    0.10
  12   0   7   -0.03    0.03
  12   0   7    0.02    0.05
  12   0   7    0.04    0.06
  12   0   8    1.86    0.15
  12   0   8    1.86    0.14
  12   0   8    1.83    0.12
  12   0   9   -0.02    0.04
  12   0   9   -0.01    0.02
  12   0   9    0.04    0.06
  12   0  10   31.74    1.98
  12   0  10   28.95    1.94
  12   0  11   -0.01    0.03
  12   0  11    0.05    0.03
  12   0  11   -0.02    0.05
  12   0  12    5.44    0.33
  12   0  12    4.55    0.33
 -12   1  15    5.96    0.36
 -12   1  15    5.08    0.40
 -12  -1  15    5.82    0.36
 -12  -1  15    5.14    0.41
 -12  -1  15    5.74    0.37
 -12   1  14    1.09    0.10
 -12   1  14    0.98    0.12
 -12  -1  14    1.06    0.10
 -12  -1  14    1.19    0.11
 -12   1  13    1.46    0.13
 -12   1  13    1.46    0.11
 -12   1  13    1.51    0.14
 -12   1  13    1.85    0.13
 -12  -1  13    1.55    0.14
 -12  -1  13    1.46    0.13
 -12   1  12    0.64    0.07
 -12   1  12    0.63    0.08
 -12   1  12    0.58    0.08
 -12   1  12    0.74    0.07
 -12  -1  12    0.73    0.09
 -12  -1  12    0.54    0.05
 -12   1  11    2.45    0.18
 -12   1  11    2.48    0.20
 -12   1  11    2.51    0.18
 -12   1  11    2.23    0.20
 -12  -1  11    2.81    0.16
 -12  -1  11    2.48    0.20
 -12   1  10    5.42    0.39
 -12   1  10    5.48    0.37
 -12   1  10    5.42    0.41
 -12  -1  10    5.69    0.34
 -12   1   9    8.44    0.57
 -12   1   9    8.14    0.63
 -12   1   9    9.00    0.56
 -12   1   9    8.51    0.59
 -12  -1   9    8.61    0.58
 -12  -1   9    8.78    0.52
 -12   1   8    3.02    0.18
 -12   1   8    2.09    0.27
 -12   1   8    3.19    0.23
 -12   1   8    3.33    0.22
 -12   1   8    2.85    0.22
 -12  -1   8    2.35    0.26
 -12  -1   8    3.12    0.19
 -12   1   7    4.74    0.35
 -12   1   7    5.12    0.35
 -12   1   7    5.29    0.34
 -12   1   7    4.45    0.41
 -12   1   7    4.92    0.30
 -12  -1   7    4.13    0.39
 -12  -1   7    5.27    0.31
 -12   1   6    0.24    0.07
 -12   1   6    0.23    0.12
 -12   1   6    0.20    0.04
 -12   1   6    0.08    0.13
 -12   1   6    0.13    0.06
 -12  -1   6    0.21    0.05
 -12  -1   6    0.11    0.12
 -12   1   5    2.33    0.14
 -12   1   5    2.16    0.23
 -12   1   5    2.22    0.18
 -12   1   5    2.00    0.16
  12   1  -5    1.83    0.19
 -12   1   5    2.09    0.22
 -12  -1   5    1.76    0.22
 -12  -1   5    2.21    0.15
 -12   1   4   -0.09    0.11
 -12   1   4    0.10    0.04
 -12   1   4    0.07    0.13
 -12   1   4    0.09    0.06
  12   1  -4    0.00    0.06
 -12   1   4    0.11    0.11
 -12  -1   4    0.16    0.12
 -12  -1   4    0.04    0.05
 -12   1   3   32.62    2.31
 -12   1   3   39.68    2.15
 -12   1   3   32.98    2.25
 -12   1   3   38.23    2.38
 -12   1   3   38.34    2.36
 -12   1   2    0.37    0.06
 -12   1   2    0.21    0.13
  12   1  -2    0.31    0.05
 -12   1   2    0.32    0.05
 -12   1   1   22.76    1.27
  12   1  -1   20.35    1.27
 -12   1   0    2.47    0.17
  12   1   0    2.85    0.17
 -12   1  -1   31.43    1.87
  12   1   1   32.26    1.87
 -12   1  -2    0.00    0.05
  12   1   2    0.03    0.03
  12   1   2    0.01    0.04
  12   1   3    1.12    0.10
  12   1   3    1.34    0.11
 -12   1  -3    1.22    0.10
  12   1   3    1.04    0.14
  12   1   4    1.06    0.11
  12   1   4    0.76    0.13
  12   1   4    1.18    0.08
  12   1   4    0.89    0.10
  12  -1   4    1.04    0.08
  12   1   5    1.22    0.11
  12   1   5    1.09    0.11
  12   1   5    1.36    0.09
  12  -1   5    1.24    0.09
  12   1   6    0.93    0.10
  12   1   6    0.88    0.07
  12   1   6    1.05    0.10
  12   1   6    0.74    0.09
  12  -1   6    1.02    0.08
  12   1   7   10.03    0.65
  12   1   7    9.23    0.57
  12   1   7    8.95    0.61
  12   1   7   10.10    0.63
  12   1   7    9.97    0.64
  12  -1   7   10.38    0.58
  12   1   8    2.11    0.16
  12   1   8    2.03    0.15
  12   1   8    2.04    0.16
  12  -1   8    2.08    0.13
  12  -1   8    1.84    0.17
  12   1   9    1.34    0.12
  12   1   9    1.26    0.12
  12   1   9    1.39    0.11
  12  -1   9    1.23    0.11
  12  -1   9    1.32    0.09
  12   1  10    0.58    0.06
  12   1  10    0.50    0.07
  12   1  10    0.51    0.06
  12  -1  10    0.53    0.06
  12  -1  10    0.46    0.04
  12  -1  10    0.55    0.06
  12   1  11    0.35    0.05
  12   1  11    0.44    0.05
  12   1  11    0.47    0.04
  12  -1  11    0.31    0.05
  12  -1  11    0.27    0.04
  12   1  12    2.90    0.19
  12  -1  12    2.58    0.19
  12  -1  12    2.89    0.19
 -12  -2  15    0.53    0.05
 -12   2  14    0.03    0.03
 -12   2  14    0.07    0.03
 -12   2  14    0.09    0.04
 -12  -2  14    0.13    0.05
 -12  -2  14    0.10    0.04
 -12   2  13    5.61    0.36
 -12   2  13    5.65    0.34
 -12  -2  13    5.18    0.39
 -12  -2  13    4.80    0.36
 -12  -2  13    4.79    0.31
 -12   2  12    0.73    0.08
 -12   2  12    0.59    0.06
 -12   2  12    0.35    0.07
 -12  -2  12    0.57    0.06
 -12   2  11    0.62    0.08
 -12   2  11    0.64    0.08
 -12   2  11    0.62    0.07
 -12  -2  11    0.73    0.07
 -12   2  10    1.81    0.14
 -12   2  10    1.68    0.13
 -12   2  10    1.86    0.17
 -12   2  10    1.49    0.15
 -12  -2  10    1.88    0.13
 -12   2   9    1.49    0.15
 -12   2   9    1.34    0.12
 -12  -2   9    1.42    0.11
 -12   2   8    0.86    0.11
 -12   2   8    0.88    0.09
 -12   2   8    0.90    0.09
 -12  -2   8    1.01    0.10
 -12   2   7    6.38    0.39
  12   2  -7    5.68    0.36
 -12   2   7    5.80    0.40
 -12   2   7    6.07    0.41
 -12  -2   7    5.47    0.36
 -12   2   6    2.95    0.23
 -12   2   6    2.65    0.30
 -12   2   6    2.81    0.21
 -12   2   6    3.15    0.22
 -12   2   5    3.14    0.22
 -12   2   5    3.18    0.28
 -12   2   5    2.58    0.22
 -12   2   5    2.96    0.18
 -12   2   5    2.91    0.23
 -12   2   5    3.18    0.22
  12   2  -5    2.43    0.23
 -12   2   4   66.78    4.38
  12   2  -4   75.76    4.22
 -12   2   4   70.50    4.77
 -12   2   4   75.15    4.22
 -12   2   4   73.61    4.60
 -12   2   4   73.14    4.68
  12   2  -4   70.71    4.09
 -12   2   4   70.24    4.53
 -12   2   3   12.68    0.93
 -12   2   3   13.19    0.98
  12   2  -3   14.18    0.87
 -12   2   3   15.16    1.00
 -12   2   3   14.71    0.86
 -12   2   3   15.77    0.96
 -12   2   3   15.21    0.93
  12   2  -3   15.14    0.86
 -12   2   2    0.11    0.06
 -12   2   2   -0.12    0.11
 -12   2   2    0.18    0.04
 -12   2   2   -0.08    0.11
 -12   2   2    0.11    0.06
 -12   2   2    0.03    0.13
  12   2  -2    0.11    0.04
 -12   2   2    0.08    0.06
  12   2  -2   -0.07    0.09
 -12   2   1   11.86    0.84
  12   2  -1   12.10    0.73
 -12   2   1   11.90    0.80
 -12   2   1   13.04    0.72
 -12   2   1   13.13    0.81
  12   2  -1   11.43    0.80
 -12   2   1   10.64    0.82
  12   2  -1   12.67    0.72
 -12   2   0    0.03    0.06
 -12   2   0   -0.01    0.04
 -12   2   0    0.03    0.04
  12   2   0    0.05    0.04
  12   2   0   -0.07    0.06
  12   2   0    0.00    0.05
 -12   2   0   -0.18    0.11
  12   2   0    0.02    0.10
  12   2   0    0.00    0.12
 -12   2   0    0.17    0.12
  12   2   1    0.11    0.06
  12   2   1    0.02    0.06
 -12   2  -1    0.20    0.04
  12   2   1    0.05    0.10
 -12   2  -1    0.16    0.07
  12   2   1    0.15    0.04
  12   2   2    0.27    0.05
 -12   2  -2    0.24    0.05
  12   2   2    0.23    0.06
  12   2   2    0.24    0.04
  12   2   2    0.27    0.10
  12   2   3    2.39    0.17
  12   2   3    2.10    0.14
  12   2   3    2.11    0.21
 -12   2  -3    2.21    0.15
  12   2   3    2.08    0.16
  12   2   3    2.20    0.17
  12   2   4    3.87    0.28
  12   2   4    4.18    0.28
  12   2   4    4.41    0.29
 -12   2  -4    3.90    0.26
  12   2   4    4.11    0.25
  12   2   5    6.53    0.47
  12   2   5    7.35    0.48
  12   2   5    6.79    0.47
 -12   2  -5    7.64    0.43
  12   2   5    7.53    0.45
  12   2   6    0.21    0.06
  12   2   6    0.19    0.05
  12   2   6    0.13    0.06
 -12   2  -6    0.16    0.05
  12   2   6    0.14    0.05
  12  -2   6    0.15    0.04
  12   2   7    0.39    0.07
  12   2   7    0.43    0.05
  12   2   7    0.42    0.06
  12   2   7    0.42    0.05
 -12   2  -7    0.34    0.05
  12  -2   7    0.36    0.05
 -12   2  -8    0.36    0.04
  12   2   8    0.18    0.06
  12   2   8    0.19    0.04
  12   2   8    0.33    0.06
  12  -2   8    0.32    0.05
  12   2   9    5.86    0.39
  12   2   9    5.19    0.39
 -12   2  -9    6.22    0.36
  12   2   9    6.08    0.38
  12  -2   9    6.24    0.35
  12   2  10    3.71    0.24
  12   2  10    3.75    0.24
 -12   2 -10    3.71    0.22
  12  -2  10    3.20    0.22
 -12   2 -11    1.59    0.10
  12   2  11    1.66    0.10
  12  -2  11    1.42    0.11
  12  -2  11    1.53    0.11
  12  -2  11    1.30    0.09
  12   3 -13    0.20    0.03
 -12   3  13    0.30    0.05
 -12  -3  13    0.27    0.05
 -12  -3  13    0.23    0.03
 -12   3  12    1.76    0.12
  12   3 -12    1.59    0.11
 -12   3  12    1.72    0.14
 -12  -3  12    1.69    0.11
 -12   3  11    3.10    0.23
 -12   3  11    3.14    0.20
  12   3 -11    2.94    0.19
 -12  -3  11    3.12    0.20
  12   3 -10    5.70    0.36
 -12   3  10    6.31    0.39
 -12   3  10    6.42    0.42
 -12   3  10    5.50    0.41
 -12  -3  10    6.01    0.37
  12   3  -9    0.36    0.05
 -12   3   9    0.37    0.07
 -12   3   9    0.34    0.06
 -12   3   9    0.42    0.06
 -12  -3   9    0.38    0.06
 -12   3   8    6.57    0.48
 -12   3   8    6.80    0.45
 -12   3   8    7.19    0.48
  12   3  -8    7.19    0.42
 -12   3   7    0.61    0.08
  12   3  -7    0.61    0.06
 -12   3   7    0.65    0.07
 -12   3   7    0.53    0.06
 -12   3   7    0.58    0.08
 -12   3   6    2.61    0.21
 -12   3   6    2.42    0.19
 -12   3   6    2.63    0.19
 -12   3   6    2.56    0.18
  12   3  -6    2.61    0.17
 -12   3   5    2.54    0.19
  12   3  -5    2.25    0.19
  12   3  -5    2.03    0.16
 -12   3   5    2.55    0.17
 -12   3   5    2.47    0.17
  12   3  -5    2.62    0.16
 -12   3   5    2.21    0.18
 -12   3   4    6.45    0.44
  12   3  -4    5.84    0.43
 -12   3   4    7.40    0.45
 -12   3   4    6.99    0.47
  12   3  -4    6.62    0.46
  12   3  -4    7.32    0.41
 -12   3   4    6.65    0.47
  12   3  -3   10.69    0.71
 -12   3   3   12.04    0.74
 -12   3   3   10.88    0.76
 -12   3   3   11.60    0.78
 -12   3   3   11.49    0.78
  12   3  -3   12.11    0.76
  12   3  -3   11.74    0.68
  12   3  -2    0.23    0.04
 -12   3   2    0.18    0.06
  12   3  -2    0.22    0.06
 -12   3   2    0.19    0.03
 -12   3   2    0.27    0.07
 -12   3   2    0.02    0.13
 -12   3   2    0.14    0.07
  12   3  -2    0.22    0.04
  12   3  -2    0.02    0.09
 -12   3   2    0.26    0.06
 -12   3   1    4.79    0.32
 -12   3   1    4.61    0.33
 -12   3   1    4.73    0.28
  12   3  -1    3.98    0.33
  12   3  -1    4.87    0.28
  12   3  -1    4.66    0.32
  12   3  -1    4.63    0.32
 -12   3   1    4.79    0.33
  12   3  -1    4.85    0.30
 -12   3   0    4.36    0.28
  12   3   0    4.83    0.30
 -12   3   0    3.99    0.32
  12   3   0    4.13    0.30
  12   3   0    4.49    0.27
 -12   3   0    5.38    0.32
 -12   3   0    4.56    0.32
  12   3   0    4.78    0.32
  12   3   1    6.55    0.41
  12   3   1    6.52    0.43
 -12   3  -1    6.75    0.39
  12   3   1    6.57    0.38
  12   3   1    7.16    0.44
 -12   3  -1    5.84    0.45
 -12   3  -1    5.59    0.43
 -12   3  -1    6.61    0.44
 -12   3  -2    6.07    0.44
  12   3   2    6.77    0.41
 -12   3  -2    6.16    0.39
 -12   3  -2    6.31    0.46
  12   3   2    6.60    0.42
  12   3   2    7.02    0.44
 -12   3  -3    0.14    0.07
  12   3   3    0.17    0.04
  12   3   3    0.18    0.05
  12   3   3    0.15    0.05
  12   3   3    0.17    0.04
 -12   3  -3    0.14    0.04
  12   3   4    0.28    0.06
 -12   3  -4    0.37    0.06
  12   3   4    0.36    0.05
  12   3   4    0.34    0.05
 -12   3  -4    0.28    0.05
  12   3   4    0.30    0.05
  12   3   5    0.12    0.04
  12   3   5    0.05    0.05
 -12   3  -5    0.12    0.07
  12   3   5    0.14    0.05
  12   3   5    0.06    0.04
 -12   3  -5    0.04    0.04
  12   3   6    3.09    0.21
 -12   3  -6    3.26    0.20
  12   3   6    3.25    0.22
  12   3   6    3.20    0.21
  12   3   6    3.10    0.22
  12   3   7    1.69    0.12
  12   3   7    1.64    0.13
  12   3   7    1.51    0.11
 -12   3  -7    1.66    0.11
  12  -3   7    1.38    0.11
  12   3   8    4.27    0.27
 -12   3  -8    3.95    0.25
  12   3   8    4.10    0.28
  12  -3   8    4.25    0.25
  12   3   9    0.22    0.04
  12   3   9    0.13    0.04
 -12   3  -9    0.19    0.03
  12  -3   9    0.20    0.04
 -12   3 -10    0.00    0.02
  12   3  10    0.05    0.03
  12   3  10    0.00    0.02
  12  -3  10    0.02    0.03
  12   4 -12    0.07    0.02
  12   4 -12    0.02    0.03
 -12   4  12    0.14    0.04
 -12  -4  12    0.09    0.02
 -12   4  11    2.10    0.15
 -12   4  11    1.98    0.15
  12   4 -11    2.01    0.12
 -12  -4  11    1.81    0.13
 -12   4  10    4.19    0.28
 -12   4  10    3.71    0.28
  12   4 -10    3.95    0.24
 -12  -4  10    3.92    0.24
  12   4  -9    0.01    0.02
 -12   4   9    0.10    0.06
 -12   4   9   -0.01    0.05
  12   4  -9    0.04    0.04
 -12   4   9    0.03    0.02
 -12   4   8    1.17    0.09
 -12   4   8    1.24    0.12
  12   4  -8    1.17    0.09
 -12   4   8    1.16    0.13
  12   4  -8    1.27    0.10
 -12   4   7    2.42    0.20
  12   4  -7    2.79    0.21
 -12   4   7    2.53    0.21
  12   4  -7    2.77    0.17
 -12   4   7    2.92    0.19
 -12   4   7    2.95    0.21
  12   4  -6    0.94    0.10
 -12   4   6    1.11    0.09
  12   4  -6    0.95    0.07
 -12   4   6    1.00    0.11
 -12   4   6    0.80    0.10
  12   4  -5    4.82    0.31
 -12   4   5    5.52    0.34
  12   4  -5    4.86    0.35
 -12   4   5    5.32    0.37
 -12   4   5    5.13    0.36
  12   4  -4   33.25    2.13
 -12   4   4   33.90    2.26
 -12   4   4   36.38    2.20
 -12   4   4   35.64    2.32
  12   4  -4   34.67    2.04
 -12   4   4   35.41    2.30
  12   4  -3    0.45    0.07
 -12   4   3    0.67    0.07
  12   4  -3    0.45    0.06
 -12   4   3    0.56    0.07
  12   4  -3    0.48    0.04
 -12   4   3    0.59    0.07
 -12   4   3    0.60    0.08
  12   4  -3    0.50    0.07
 -12   4   2   13.48    0.92
 -12   4   2   14.14    0.90
 -12   4   2   12.76    0.94
  12   4  -2   14.01    0.87
 -12   4   2   14.95    0.95
  12   4  -2   12.82    0.90
  12   4  -2   16.06    0.93
  12   4  -2   14.70    0.90
  12   4  -1    0.44    0.06
 -12   4   1    0.59    0.07
  12   4  -1    0.41    0.06
  12   4  -1    0.45    0.05
  12   4  -1    0.48    0.06
 -12   4   1    0.51    0.06
 -12   4   1    0.42    0.06
 -12   4   0   12.73    0.79
 -12   4   0   12.54    0.83
  12   4   0   11.83    0.78
  12   4   0   12.29    0.76
 -12   4   0   11.46    0.81
  12   4   0   12.56    0.80
 -12   4  -1    0.09    0.06
 -12   4  -1    0.10    0.08
  12   4   1    0.10    0.05
  12   4   1    0.10    0.05
  12   4   1    0.09    0.05
 -12   4  -1    0.05    0.05
 -12   4  -2    5.65    0.37
  12   4   2    5.60    0.35
 -12   4  -2    4.89    0.36
  12   4   2    5.28    0.35
 -12   4  -2    5.19    0.38
  12   4   2    5.19    0.34
  12   4   3    1.24    0.08
 -12   4  -3    1.03    0.11
 -12   4  -3    1.21    0.10
 -12   4  -3    0.94    0.07
  12   4   3    1.27    0.10
 -12   4  -3    1.13    0.12
  12   4   3    1.33    0.10
 -12   4  -4   13.99    0.93
 -12   4  -4   15.70    1.04
  12   4   4   18.15    0.98
 -12   4  -4   14.84    1.06
  12   4   4   15.02    1.02
  12   4   4   17.53    1.00
  12   4   5    1.53    0.11
 -12   4  -5    1.36    0.09
  12   4   5    1.64    0.12
 -12   4  -5    1.58    0.14
  12   4   5    1.66    0.12
 -12   4  -5    1.41    0.15
  12   4   6    0.09    0.04
  12   4   6    0.07    0.03
  12   4   6    0.11    0.04
 -12   4  -6    0.07    0.02
 -12   4  -6    0.03    0.04
 -12   4  -6    0.04    0.05
 -12   4  -7    0.06    0.02
  12   4   7    0.07    0.03
 -12   4  -7    0.06    0.05
 -12   4  -7    0.05    0.04
  12   4   7    0.05    0.03
  12   4   7    0.08    0.03
  12   4   8    0.60    0.04
 -12   4  -8    0.44    0.07
 -12   4  -8    0.51    0.04
 -12   4  -8    0.50    0.06
  12   4   8    0.57    0.05
  12   4   9    5.80    0.38
 -12   4  -9    6.04    0.40
  12   5 -10    3.94    0.27
 -12   5  10    4.03    0.27
 -12   5   9    1.36    0.10
 -12   5   9    1.28    0.10
  12   5  -9    1.08    0.09
  12   5  -8    0.59    0.06
  12   5  -8    0.50    0.05
 -12   5   8    0.48    0.06
 -12   5   8    0.50    0.06
 -12   5   7    0.27    0.05
 -12   5   7    0.30    0.05
  12   5  -7    0.35    0.06
  12   5  -7    0.32    0.06
 -12   5   7    0.26    0.07
  12   5  -6    1.78    0.13
 -12   5   6    1.90    0.14
  12   5  -6    1.80    0.14
 -12   5   6    1.67    0.14
 -12   5   6    1.60    0.14
 -12   5   5    8.08    0.49
  12   5  -5    7.72    0.50
  12   5  -5    7.57    0.51
 -12   5   5    7.27    0.52
  12   5  -5    7.75    0.50
 -12   5   4    3.64    0.25
  12   5  -4    3.72    0.25
  12   5  -4    3.69    0.25
 -12   5   4    4.04    0.28
  12   5  -4    3.74    0.25
 -12   5   3    0.77    0.10
  12   5  -3    0.84    0.08
  12   5  -3    1.02    0.10
  12   5  -3    0.81    0.07
  12   5  -3    0.90    0.08
 -12   5   3    1.02    0.08
  12   5  -2    0.75    0.08
  12   5  -2    0.80    0.07
 -12   5   2    0.72    0.10
  12   5  -2    0.73    0.07
 -12   5   2    0.94    0.09
  12   5  -2    0.86    0.09
 -12   5   1    3.39    0.23
 -12   5   1    3.54    0.25
  12   5  -1    3.14    0.22
  12   5  -1    3.22    0.22
  12   5  -1    3.59    0.23
  12   5   0    4.88    0.32
  12   5   0    5.14    0.33
 -12   5   0    4.58    0.33
 -12   5   0    5.31    0.36
  12   5   1    1.55    0.12
 -12   5  -1    1.78    0.12
 -12   5  -1    1.42    0.11
 -12   5  -1    1.53    0.14
  12   5   1    1.70    0.12
 -12   5  -2    0.30    0.04
 -12   5  -2    0.38    0.05
 -12   5  -2    0.40    0.06
  12   5   2    0.34    0.05
  12   5   2    0.23    0.05
  12   5   3    2.52    0.16
  12   5   3    2.44    0.16
 -12   5  -3    1.98    0.16
 -12   5  -3    2.41    0.18
 -12   5  -3    2.35    0.18
 -12   5  -4    0.78    0.07
  12   5   4    0.88    0.06
  12   5   4    0.83    0.08
 -12   5  -4    0.78    0.08
 -12   5  -4    0.70    0.09
  12   5   5    0.90    0.06
 -12   5  -5    0.73    0.08
 -12   5  -5    0.86    0.08
 -12   5  -5    0.78    0.07
  12   5   5    0.57    0.06
  12   5   5    0.79    0.05
  12   5   6    0.56    0.05
 -12   5  -6    0.60    0.05
  12   5   6    0.46    0.05
 -12   5  -6    0.68    0.07
 -12   5  -6    0.46    0.06
 -12   5  -7    2.08    0.15
  12   6  -6    1.27    0.10
 -12   6   6    1.42    0.10
 -12   6   5   -0.01    0.04
  12   6  -5   -0.05    0.02
  12   6  -5   -0.06    0.04
  12   6  -3    0.33    0.03
 -12   6   3    0.22    0.07
  12   6  -3    0.22    0.04
  12   6  -2   10.97    0.72
  12   6  -2   10.97    0.74
  12   6  -2   13.10    0.74
  12   6  -1    0.01    0.02
  12   6  -1   -0.01    0.02
 -12   6   1    0.00    0.02
  12   6   0    6.84    0.43
 -12   6   0    6.81    0.43
  12   6   1   -0.02    0.02
 -12   6  -1    0.05    0.03
  12   6   1    0.04    0.01
 -12   6  -2    2.56    0.18
  12   6   2    2.77    0.16
 -12   6  -2    2.28    0.16
 -13   0  15    0.01    0.03
 -13   0  14    2.28    0.17
 -13   0  14    2.24    0.16
 -13   0  14    2.17    0.15
 -13   0  13    0.01    0.03
 -13   0  13   -0.01    0.04
 -13   0  13   -0.02    0.04
 -13   0  12    0.15    0.06
 -13   0  12    0.19    0.07
 -13   0  12    0.13    0.07
 -13   0  11    0.01    0.06
 -13   0  11    0.05    0.07
 -13   0  11   -0.01    0.06
 -13   0  10    0.01    0.04
 -13   0  10    0.06    0.03
 -13   0  10    0.00    0.06
 -13   0   9    0.02    0.06
 -13   0   9   -0.03    0.07
 -13   0   9    0.03    0.03
 -13   0   8   28.43    1.62
 -13   0   8   26.39    1.82
 -13   0   8   27.95    1.81
 -13   0   7    0.06    0.07
 -13   0   7    0.01    0.04
 -13   0   7   -0.05    0.07
 -13   0   6   15.74    0.93
 -13   0   6   15.49    1.03
 -13   0   5   -0.08    0.09
 -13   0   5    0.05    0.04
 -13   0   5    0.01    0.07
 -13   0   4   86.78    5.01
 -13   0   4   84.10    5.44
 -13   0   3    0.04    0.14
 -13   0   3   -0.02    0.05
 -13   0   2   18.23    1.08
 -13   0   1   -0.01    0.05
 -13   0   0    2.11    0.15
  13   0   0    2.24    0.15
  13   0   1    0.01    0.03
  13   0   2    0.07    0.04
  13   0   3   -0.01    0.03
  13   0   4   11.70    0.65
  13   0   4   10.21    0.71
  13   0   5   -0.02    0.06
  13   0   5    0.02    0.04
  13   0   5   -0.01    0.05
  13   0   6    1.58    0.11
  13   0   6    1.66    0.14
  13   0   6    1.54    0.12
  13   0   7   -0.04    0.04
  13   0   7   -0.02    0.03
  13   0   7    0.02    0.06
  13   0   8    6.07    0.36
  13   0   8    6.41    0.41
  13   0   8    6.02    0.41
  13   0   9    0.01    0.05
  13   0   9   -0.04    0.03
  13   0  10    1.76    0.14
  13   0  10    2.08    0.14
  13   0  11    0.00    0.03
  13   0  11    0.03    0.02
 -13   1  14    0.15    0.03
 -13   1  14    0.14    0.04
 -13  -1  14    0.09    0.04
 -13  -1  14    0.11    0.03
 -13   1  13    0.13    0.05
 -13   1  13    0.14    0.06
 -13   1  13    0.14    0.04
 -13  -1  13    0.23    0.04
 -13  -1  13    0.14    0.05
 -13   1  12    0.14    0.05
 -13   1  12    0.13    0.03
 -13   1  12    0.19    0.05
 -13   1  12    0.17    0.05
 -13  -1  12    0.23    0.07
 -13  -1  12    0.15    0.05
 -13  -1  12    0.12    0.02
 -13   1  11    0.12    0.05
 -13   1  11    0.09    0.06
 -13   1  11    0.18    0.05
 -13   1  11    0.17    0.05
 -13  -1  11    0.17    0.05
 -13  -1  11    0.17    0.03
 -13   1  10    0.69    0.08
 -13   1  10    0.58    0.09
 -13   1  10    0.63    0.09
 -13   1  10    0.76    0.07
 -13  -1  10    0.75    0.09
 -13  -1  10    0.62    0.07
 -13   1   9   -0.01    0.06
 -13   1   9    0.04    0.05
 -13   1   9    0.04    0.06
 -13   1   9   -0.03    0.05
 -13  -1   9    0.02    0.04
 -13  -1   9    0.05    0.05
 -13   1   8    1.19    0.12
 -13   1   8    1.16    0.12
 -13   1   8    1.21    0.12
 -13   1   8    1.00    0.11
 -13   1   8    1.13    0.07
 -13  -1   8    1.25    0.10
 -13   1   7    0.04    0.06
 -13   1   7    0.03    0.03
 -13   1   7    0.02    0.06
 -13   1   7   -0.06    0.07
 -13  -1   7    0.04    0.05
 -13  -1   7   -0.02    0.06
 -13   1   6    1.49    0.15
 -13   1   6    1.68    0.14
 -13   1   6    1.80    0.11
 -13   1   6    1.66    0.15
 -13  -1   6    1.58    0.13
 -13   1   5    7.16    0.46
  13   1  -5    5.30    0.42
 -13   1   5    7.05    0.40
 -13   1   5    6.56    0.51
 -13  -1   5    6.88    0.41
 -13  -1   5    6.08    0.50
 -13   1   4    0.00    0.04
 -13   1   4    0.12    0.14
  13   1  -4    0.05    0.09
 -13   1   4    0.05    0.07
 -13  -1   4    0.08    0.05
 -13  -1   4   -0.11    0.08
 -13   1   3   26.01    1.67
  13   1  -3   22.39    1.48
 -13   1   3   24.35    1.66
 -13   1   3   27.54    1.50
  13   1  -3   26.30    1.50
 -13   1   2    5.99    0.40
  13   1  -2    5.48    0.35
 -13   1   2    5.37    0.44
 -13   1   2    5.78    0.35
 -13   1   1   17.16    1.00
  13   1  -1   16.66    1.00
  13   1   0   -0.02    0.04
 -13   1   0    0.03    0.04
 -13   1  -1    0.27    0.05
  13   1   1    0.32    0.05
  13   1   1    0.19    0.10
  13   1   2    0.11    0.03
 -13   1  -2    0.04    0.05
  13   1   2    0.11    0.04
  13   1   2    0.17    0.09
  13   1   3    1.22    0.09
 -13   1  -3    1.11    0.10
  13   1   3    1.29    0.12
  13  -1   3    1.02    0.09
  13   1   4    0.07    0.06
  13   1   4    0.03    0.05
 -13   1  -4    0.12    0.05
  13   1   4    0.05    0.03
  13  -1   4    0.07    0.04
  13   1   5    2.55    0.16
  13   1   5    2.65    0.19
  13   1   5    2.45    0.18
  13  -1   5    2.38    0.16
  13   1   6    4.16    0.26
  13   1   6    4.61    0.30
  13   1   6    4.29    0.29
  13  -1   6    4.32    0.27
  13   1   7    4.86    0.33
  13   1   7    5.42    0.33
  13   1   7    4.71    0.32
  13   1   7    4.32    0.31
  13  -1   7    5.03    0.30
  13   1   8    1.57    0.12
  13   1   8    1.56    0.12
  13   1   8    1.57    0.13
  13  -1   8    1.59    0.10
  13  -1   8    1.45    0.12
  13  -1   8    1.62    0.13
  13   1   9    1.98    0.14
  13   1   9    1.91    0.15
  13   1   9    1.74    0.14
  13  -1   9    2.04    0.14
  13  -1   9    2.21    0.14
  13  -1   9    1.75    0.12
  13   1  10    1.37    0.10
  13   1  10    1.41    0.10
  13  -1  10    1.41    0.10
  13  -1  10    1.26    0.11
  13  -1  11    1.57    0.11
 -13   2  14    0.45    0.04
 -13  -2  14    0.39    0.05
 -13  -2  14    0.47    0.06
 -13   2  13    7.92    0.53
 -13   2  13    8.48    0.50
 -13  -2  13    7.46    0.57
 -13  -2  13    7.55    0.52
 -13   2  12    2.61    0.18
 -13   2  12    2.40    0.16
 -13  -2  12    1.95    0.14
 -13  -2  12    2.04    0.17
 -13   2  11    0.07    0.07
 -13   2  11    0.17    0.05
 -13  -2  11    0.18    0.07
 -13  -2  11    0.24    0.03
 -13   2  10    1.80    0.13
 -13   2  10    1.60    0.15
 -13   2  10    2.03    0.15
 -13  -2  10    1.90    0.13
  13   2  -9   13.80    0.93
 -13   2   9   16.70    1.05
 -13   2   9   16.57    1.00
 -13  -2   9   15.90    0.93
  13   2  -8    9.84    0.60
 -13   2   8    9.46    0.68
 -13   2   8    9.97    0.65
 -13   2   8   10.17    0.66
 -13  -2   8   10.67    0.60
 -13   2   7    6.57    0.43
  13   2  -7    6.03    0.37
 -13   2   7    6.08    0.41
 -13   2   7    6.41    0.41
 -13  -2   7    5.51    0.37
 -13   2   6    4.36    0.28
 -13   2   6    4.01    0.29
  13   2  -6    3.81    0.25
 -13   2   6    3.95    0.28
 -13  -2   6    3.86    0.25
 -13   2   5    1.03    0.11
 -13   2   5    1.12    0.12
 -13   2   5    0.94    0.07
 -13   2   5    1.05    0.11
 -13   2   4   58.64    3.75
 -13   2   4   63.65    4.03
  13   2  -4   65.13    3.76
 -13   2   4   68.85    4.16
 -13   2   3    6.69    0.50
  13   2  -3    6.24    0.42
 -13   2   3    6.72    0.38
  13   2  -3    7.14    0.39
 -13   2   3    6.14    0.44
 -13   2   3    6.26    0.43
 -13   2   3    5.62    0.45
 -13   2   2   12.40    0.94
  13   2  -2   12.90    0.85
 -13   2   2   13.13    0.96
 -13   2   2   15.61    0.93
  13   2  -2   14.77    0.83
  13   2  -2   13.18    0.93
 -13   2   2   15.83    0.83
  13   2  -1    4.36    0.31
  13   2  -1    4.69    0.27
 -13   2   1    4.17    0.38
 -13   2   1    4.26    0.32
  13   2  -1    4.29    0.31
 -13   2   1    4.28    0.32
 -13   2   1    4.55    0.27
 -13   2   0    1.87    0.27
 -13   2   0    3.04    0.22
  13   2   0    2.75    0.18
 -13   2   0    2.99    0.18
  13   2   0    2.68    0.20
  13   2   0    2.83    0.22
 -13   2   0    2.61    0.21
  13   2   1    0.49    0.05
 -13   2  -1    0.36    0.08
  13   2   1    0.47    0.07
 -13   2  -1    0.63    0.09
 -13   2  -1    0.37    0.05
 -13   2  -2    0.03    0.05
  13   2   2    0.05    0.04
 -13   2  -2   -0.07    0.07
  13   2   2    0.02    0.04
 -13   2  -2    0.08    0.04
 -13   2  -3    3.93    0.23
  13   2   3    3.41    0.22
  13   2   3    3.70    0.26
  13   2   3    3.34    0.25
  13   2   4    4.46    0.29
  13   2   4    4.02    0.27
  13   2   4    3.99    0.28
 -13   2  -4    4.51    0.26
  13   2   4    3.74    0.28
  13   2   5    0.09    0.05
 -13   2  -5    0.11    0.04
  13   2   5    0.17    0.05
  13   2   5    0.13    0.06
  13   2   5    0.12    0.05
  13  -2   5    0.07    0.04
  13   2   6    4.29    0.29
 -13   2  -6    3.98    0.26
  13   2   6    4.60    0.28
  13   2   6    4.11    0.29
  13   2   6    4.12    0.27
  13  -2   6    4.10    0.26
  13   2   7    2.15    0.16
  13   2   7    2.66    0.16
 -13   2  -7    2.32    0.16
  13   2   7    2.23    0.16
  13   2   7    2.30    0.16
  13  -2   7    2.13    0.15
 -13   2  -8    4.70    0.28
  13   2   8    4.75    0.31
  13   2   8    4.67    0.31
  13  -2   8    4.39    0.28
  13   2   9    2.49    0.16
  13   2   9    2.18    0.16
  13  -2   9    2.27    0.14
  13   2  10    0.07    0.02
  13   2  10    0.06    0.03
 -13   2 -10    0.05    0.02
  13  -2  10    0.07    0.03
  13  -2  10    0.06    0.02
  13  -2  10    0.02    0.04
 -13   3  13    0.90    0.09
  13   3 -13    1.19    0.08
 -13  -3  13    1.25    0.10
 -13  -3  13    1.21    0.07
  13   3 -12    1.60    0.09
 -13   3  12    1.20    0.12
 -13  -3  12    1.43    0.10
  13   3 -11    2.78    0.19
 -13   3  11    2.95    0.23
 -13   3  11    2.98    0.20
 -13  -3  11    3.18    0.19
 -13   3  10    1.72    0.14
 -13   3  10    1.65    0.12
  13   3 -10    1.65    0.11
 -13  -3  10    1.55    0.11
 -13   3   9    0.05    0.08
  13   3  -9    0.20    0.04
 -13   3   9    0.07    0.05
 -13  -3   9    0.09    0.04
  13   3  -8    0.19    0.05
 -13   3   8    0.14    0.04
 -13   3   8    0.04    0.08
 -13   3   8    0.17    0.05
 -13  -3   8    0.21    0.04
  13   3  -7    3.17    0.20
 -13   3   7    3.59    0.25
 -13   3   7    3.18    0.22
 -13   3   7    2.91    0.23
 -13   3   6    8.65    0.61
  13   3  -6    8.84    0.54
 -13   3   6    9.20    0.62
 -13   3   6    8.84    0.59
 -13   3   6    9.66    0.58
 -13   3   5    0.27    0.07
 -13   3   5    0.48    0.06
  13   3  -5    0.41    0.07
  13   3  -5    0.46    0.05
 -13   3   5    0.35    0.09
  13   3  -5    0.27    0.05
 -13   3   5    0.41    0.07
  13   3  -4    2.07    0.13
 -13   3   4    1.98    0.15
  13   3  -4    1.86    0.15
 -13   3   4    1.93    0.15
 -13   3   4    1.86    0.17
  13   3  -4    1.74    0.14
 -13   3   4    2.23    0.16
 -13   3   3   26.88    1.75
 -13   3   3   28.66    1.84
 -13   3   3   27.05    1.83
  13   3  -3   28.40    1.63
 -13   3   3   28.31    1.81
  13   3  -3   29.45    1.81
  13   3  -3   25.05    1.70
  13   3  -2    4.81    0.32
 -13   3   2    5.11    0.34
  13   3  -2    5.26    0.34
 -13   3   2    4.53    0.35
 -13   3   2    4.96    0.34
 -13   3   2    4.82    0.34
  13   3  -2    4.98    0.30
  13   3  -1    0.30    0.04
 -13   3   1    0.28    0.07
  13   3  -1    0.22    0.06
 -13   3   1    0.35    0.06
 -13   3   1    0.38    0.08
  13   3  -1    0.36    0.05
 -13   3   1    0.27    0.03
  13   3   0    1.56    0.12
 -13   3   0    1.35    0.12
 -13   3   0    1.68    0.13
  13   3   0    1.40    0.13
  13   3   0    1.47    0.12
 -13   3   0    1.47    0.10
  13   3   0    1.44    0.09
 -13   3   0    1.41    0.14
 -13   3  -1    2.28    0.15
  13   3   1    2.30    0.17
  13   3   1    2.64    0.18
  13   3   1    2.15    0.14
 -13   3  -1    2.09    0.18
  13   3   1    2.51    0.17
 -13   3  -1    2.58    0.19
  13   3   2    4.37    0.27
 -13   3  -2    3.85    0.31
 -13   3  -2    4.27    0.30
  13   3   2    4.14    0.29
 -13   3  -2    4.17    0.26
  13   3   2    4.32    0.29
  13   3   3   11.05    0.64
 -13   3  -3   10.52    0.70
 -13   3  -3    9.76    0.68
 -13   3  -3    9.57    0.60
  13   3   3    9.81    0.67
  13   3   3   10.46    0.65
  13   3   4    0.00    0.04
  13   3   4    0.01    0.04
 -13   3  -4    0.02    0.07
 -13   3  -4   -0.03    0.07
  13   3   4   -0.01    0.03
  13   3   4    0.05    0.04
 -13   3  -4   -0.03    0.04
  13   3   5    0.29    0.04
  13   3   5    0.33    0.04
  13   3   5    0.27    0.05
 -13   3  -5    0.30    0.07
  13   3   5    0.31    0.06
 -13   3  -5    0.39    0.04
 -13   3  -6    9.06    0.53
  13   3   6    9.16    0.56
  13   3   6    9.08    0.58
  13   3   6    8.83    0.58
 -13   3  -6    8.74    0.60
  13   3   7    2.22    0.16
  13   3   7    2.62    0.16
  13   3   7    1.94    0.15
 -13   3  -7    2.40    0.14
  13  -3   7    2.21    0.15
 -13   3  -8   -0.01    0.03
  13   3   8    0.00    0.04
  13   3   8    0.02    0.02
  13  -3   8    0.07    0.03
 -13   3  -9   10.53    0.63
  13   3   9   11.42    0.67
  13  -3   9    9.98    0.63
  13   4 -11    0.72    0.05
  13   4 -11    0.75    0.06
 -13   4  11    0.94    0.08
 -13  -4  11    0.65    0.06
  13   4 -10    0.04    0.04
  13   4 -10    0.01    0.02
 -13   4  10   -0.02    0.04
 -13   4  10   -0.02    0.06
 -13  -4  10    0.04    0.03
  13   4  -9    2.05    0.17
 -13   4   9    2.14    0.17
 -13   4   9    2.26    0.15
 -13   4   9    2.39    0.17
  13   4  -9    2.34    0.14
 -13  -4   9    2.48    0.15
 -13   4   8    1.06    0.10
  13   4  -8    0.97    0.07
  13   4  -8    0.98    0.10
 -13   4   8    1.01    0.09
 -13   4   8    1.04    0.08
 -13   4   7    3.04    0.23
  13   4  -7    2.67    0.18
  13   4  -7    2.97    0.21
 -13   4   7    3.26    0.20
 -13   4   7    2.73    0.21
 -13   4   6    0.56    0.06
 -13   4   6    0.50    0.07
 -13   4   6    0.47    0.08
  13   4  -6    0.65    0.07
  13   4  -6    0.48    0.04
 -13   4   5    0.94    0.10
 -13   4   5    1.03    0.10
 -13   4   5    1.00    0.12
  13   4  -5    0.90    0.06
  13   4  -5    0.86    0.10
 -13   4   4   42.99    2.34
  13   4  -4   35.54    2.27
  13   4  -4   32.12    2.17
  13   4  -4   38.40    2.42
 -13   4   4   37.43    2.47
  13   4  -4   35.15    2.34
 -13   4   4   38.54    2.44
  13   4  -3    1.68    0.13
  13   4  -3    1.97    0.14
  13   4  -3    1.56    0.15
 -13   4   3    1.79    0.16
 -13   4   3    1.85    0.13
 -13   4   3    1.74    0.14
  13   4  -3    1.66    0.13
 -13   4   3    1.74    0.15
  13   4  -2    1.13    0.10
 -13   4   2    1.31    0.10
 -13   4   2    1.33    0.12
 -13   4   2    1.36    0.14
 -13   4   2    1.17    0.12
  13   4  -2    1.24    0.11
  13   4  -2    1.32    0.12
  13   4  -2    1.37    0.11
 -13   4   1    0.43    0.07
 -13   4   1    0.48    0.06
  13   4  -1    0.40    0.06
  13   4  -1    0.43    0.07
  13   4  -1    0.45    0.05
 -13   4   1    0.43    0.09
  13   4   0    0.35    0.05
 -13   4   0    0.34    0.06
  13   4   0    0.40    0.05
 -13   4   0    0.36    0.06
 -13   4   0    0.35    0.06
  13   4   0    0.34    0.05
  13   4   1    1.23    0.10
 -13   4  -1    1.02    0.09
  13   4   1    1.14    0.09
 -13   4  -1    0.90    0.11
 -13   4  -1    0.92    0.10
  13   4   1    1.06    0.09
  13   4   2    6.73    0.41
 -13   4  -2    6.42    0.45
  13   4   2    6.30    0.42
 -13   4  -2    6.85    0.43
 -13   4  -2    6.40    0.44
  13   4   2    6.29    0.43
  13   4   3    2.50    0.17
 -13   4  -3    2.37    0.18
 -13   4  -3    2.68    0.17
 -13   4  -3    2.31    0.17
  13   4   3    2.56    0.16
  13   4   3    2.04    0.16
  13   4   4    0.86    0.08
 -13   4  -4    0.90    0.08
  13   4   4    0.85    0.08
  13   4   5    1.12    0.09
  13   4   5    1.41    0.10
 -13   4  -5    1.41    0.11
 -13   4  -5    1.31    0.11
  13   4   5    1.01    0.10
 -13   4  -6    0.01    0.06
  13   4   6    0.06    0.02
 -13   4  -6    0.09    0.05
  13   4   6    0.06    0.03
  13   4   6    0.03    0.03
 -13   4  -7    2.07    0.13
  13   4   7    1.53    0.12
  13   5  -9    1.67    0.12
  13   5  -8    0.04    0.03
 -13   5   8    0.03    0.03
  13   5  -8   -0.01    0.03
 -13   5   7    0.59    0.07
 -13   5   7    0.59    0.06
  13   5  -7    0.67    0.06
  13   5  -7    0.55    0.06
  13   5  -6    4.87    0.33
  13   5  -6    5.04    0.34
 -13   5   6    5.43    0.36
 -13   5   5    2.36    0.15
  13   5  -5    2.27    0.16
 -13   5   5    2.26    0.17
  13   5  -5    2.08    0.16
  13   5  -4    0.24    0.05
  13   5  -4    0.40    0.05
  13   5  -4    0.31    0.04
 -13   5   4    0.41    0.06
 -13   5   4    0.36    0.04
  13   5  -3   23.80    1.47
 -13   5   3   22.98    1.47
  13   5  -3   22.59    1.52
  13   5  -3   21.45    1.48
 -13   5   3   26.06    1.56
  13   5  -2    2.68    0.20
 -13   5   2    2.99    0.22
 -13   5   2    3.15    0.20
  13   5  -2    3.00    0.20
  13   5  -2    3.12    0.21
 -13   5   1    3.79    0.28
  13   5  -1    3.79    0.25
 -13   5   1    3.97    0.26
 -13   5   0    0.15    0.05
 -13   5   0    0.12    0.04
  13   5   0    0.12    0.05
  13   5   0    0.14    0.03
 -13   5  -1    5.73    0.39
  13   5   1    6.13    0.38
 -13   5  -1    6.11    0.41
  13   5   1    5.91    0.37
 -13   5  -2    0.39    0.06
 -13   5  -2    0.47    0.04
  13   5   2    0.56    0.05
 -13   5  -2    0.49    0.06
  13   5   3    7.67    0.49
  13   5   3    8.75    0.49
 -13   5  -3    6.65    0.51
 -13   5  -3    7.96    0.50
 -13   5  -3    8.02    0.53
 -13   5  -4    0.60    0.05
 -13   5  -4    0.45    0.06
  13   5   4    0.66    0.05
 -13   5  -5    2.11    0.14
 -13   5  -5    1.94    0.15
 -14   0  13   -0.05    0.03
 -14   0  13    0.01    0.04
 -14   0  13    0.03    0.03
 -14   0  12    0.20    0.05
 -14   0  12    0.09    0.05
 -14   0  12    0.20    0.06
 -14   0  11    0.05    0.04
 -14   0  11    0.02    0.05
 -14   0  11   -0.03    0.04
 -14   0  10    0.31    0.06
 -14   0  10    0.52    0.08
 -14   0  10    0.55    0.06
 -14   0   9    0.01    0.06
 -14   0   9    0.00    0.03
 -14   0   9    0.04    0.07
 -14   0   8    0.02    0.03
 -14   0   8    0.09    0.07
 -14   0   8   -0.03    0.07
 -14   0   7    0.06    0.04
 -14   0   7   -0.03    0.07
 -14   0   7   -0.06    0.07
 -14   0   6    0.85    0.10
 -14   0   6    0.92    0.08
 -14   0   5   -0.04    0.07
 -14   0   5   -0.02    0.04
 -14   0   4    6.22    0.38
 -14   0   3    0.02    0.05
 -14   0   2    2.02    0.15
 -14   0   1    0.04    0.03
 -14   0   0    7.02    0.44
  14   0   0    7.51    0.44
  14   0   1    0.03    0.04
 -14   0  -1   -0.02    0.05
  14   0   2   17.38    1.03
  14   0   3    0.00    0.04
  14   0   4    0.99    0.08
  14   0   5    0.01    0.03
  14   0   5   -0.02    0.04
  14   0   5    0.01    0.05
  14   0   6    2.76    0.17
  14   0   6    3.02    0.20
  14   0   6    2.61    0.19
  14   0   7   -0.04    0.05
  14   0   7    0.00    0.02
  14   0   7   -0.10    0.05
  14   0   8    0.21    0.04
  14   0   8    0.27    0.04
  14   0   9   -0.01    0.03
  14   0   9    0.03    0.04
  14   0  10    5.85    0.39
  14   0  10    6.16    0.39
 -14  -1  13    6.91    0.50
 -14   1  12    0.26    0.05
 -14   1  12    0.23    0.04
 -14   1  12    0.26    0.03
 -14   1  12    0.17    0.04
 -14  -1  12    0.30    0.05
 -14  -1  12    0.29    0.05
 -14   1  11   13.64    0.79
 -14   1  11   13.12    0.82
 -14   1  11   13.18    0.81
 -14   1  11   10.57    0.88
 -14  -1  11   11.31    0.72
 -14  -1  11   12.13    0.81
 -14   1  10    0.23    0.05
 -14   1  10    0.17    0.07
 -14   1  10    0.16    0.04
 -14   1  10    0.24    0.05
 -14  -1  10    0.21    0.04
 -14  -1  10    0.05    0.07
 -14   1   9    0.19    0.05
 -14   1   9    0.23    0.08
 -14  -1   9    0.17    0.04
 -14   1   8    0.60    0.08
 -14   1   8    0.48    0.08
 -14   1   8    0.52    0.08
 -14  -1   8    0.60    0.08
 -14  -1   8    0.64    0.06
 -14   1   7   14.18    0.92
 -14   1   7   15.38    0.96
 -14   1   7   15.24    0.95
 -14   1   7   13.09    0.85
 -14  -1   7   13.69    0.96
 -14  -1   7   14.81    0.85
 -14   1   6    1.00    0.11
 -14   1   6    0.83    0.07
 -14   1   6    1.14    0.12
 -14  -1   6    0.96    0.09
 -14   1   5    2.35    0.19
 -14   1   5    2.35    0.15
 -14  -1   5    2.21    0.16
  14   1  -4    0.00    0.05
 -14   1   4   -0.01    0.05
 -14   1   4    0.02    0.04
 -14  -1   4    0.00    0.05
  14   1  -3    7.82    0.48
 -14   1   3    8.32    0.55
 -14   1   3    8.20    0.48
 -14  -1   3    7.84    0.49
 -14   1   2    5.01    0.39
  14   1  -2    5.34    0.34
 -14   1   2    6.11    0.34
 -14   1   1    2.87    0.19
  14   1  -1    2.93    0.19
 -14   1   0    4.23    0.26
  14   1   0    4.13    0.26
  14   1   1    5.92    0.36
 -14   1  -1    5.98    0.36
  14   1   2   -0.01    0.04
  14   1   2   -0.01    0.04
 -14   1  -2    0.03    0.05
  14  -1   2    0.03    0.03
  14   1   3   29.17    1.98
 -14   1  -3   29.05    1.79
  14   1   3   31.43    1.78
  14  -1   3   31.76    1.79
  14   1   4    0.86    0.09
 -14   1  -4    1.06    0.08
  14   1   4    0.97    0.07
  14  -1   4    0.97    0.09
 -14   1  -5    6.18    0.34
  14   1   5    5.45    0.33
  14   1   5    4.96    0.37
  14   1   5    5.46    0.38
  14  -1   5    5.27    0.37
  14  -1   5    6.13    0.34
  14   1   6    1.06    0.10
  14   1   6    1.15    0.09
  14   1   6    1.24    0.10
  14   1   6    1.05    0.07
 -14   1  -6    1.31    0.09
  14  -1   6    1.19    0.09
  14  -1   6    1.13    0.09
  14   1   7   11.27    0.77
  14   1   7   12.69    0.76
  14  -1   7   11.74    0.70
  14  -1   7   11.84    0.77
  14   1   8    0.24    0.03
  14   1   8    0.19    0.04
  14   1   8    0.18    0.04
  14  -1   8    0.12    0.05
  14  -1   8    0.22    0.03
  14  -1   8    0.14    0.04
  14   1   9   37.18    2.16
  14   1   9   31.85    2.22
  14  -1   9   33.79    2.19
  14   1  10    0.14    0.03
 -14   2  13    1.07    0.08
 -14   2  13    1.01    0.09
 -14  -2  13    1.15    0.09
  14   2 -12    0.84    0.06
 -14   2  12    0.86    0.08
 -14   2  12    0.88    0.10
 -14  -2  12    0.81    0.05
 -14  -2  12    0.62    0.08
 -14  -2  12    0.78    0.09
 -14   2  11    0.14    0.04
  14   2 -11    0.12    0.03
 -14   2  11    0.17    0.05
 -14  -2  11    0.09    0.03
 -14  -2  11    0.05    0.06
 -14   2  10    1.47    0.15
 -14   2  10    1.88    0.13
  14   2 -10    1.59    0.11
 -14  -2  10    1.52    0.11
 -14   2   9   13.15    0.90
  14   2  -9   13.12    0.84
 -14   2   9   14.87    0.92
 -14   2   9   15.12    0.94
 -14  -2   9   14.35    0.84
  14   2  -8    0.22    0.05
 -14   2   8    0.12    0.08
 -14   2   8    0.19    0.06
 -14   2   8    0.18    0.05
 -14  -2   8    0.22    0.05
 -14   2   7    0.23    0.05
 -14   2   7    0.14    0.06
  14   2  -7    0.27    0.05
 -14   2   7    0.23    0.06
 -14  -2   7    0.26    0.06
 -14   2   6    3.60    0.25
 -14   2   6    3.75    0.26
  14   2  -6    3.44    0.22
 -14   2   6    3.57    0.25
 -14  -2   6    3.59    0.23
 -14   2   5    9.86    0.64
 -14   2   5    9.77    0.67
 -14   2   5   10.04    0.66
 -14   2   4   11.04    0.71
 -14   2   4   10.06    0.64
 -14   2   4   11.07    0.74
 -14   2   4   11.64    0.73
  14   2  -3    0.18    0.05
 -14   2   3    0.24    0.07
 -14   2   3    0.14    0.03
 -14   2   3    0.16    0.07
 -14   2   2    4.70    0.29
  14   2  -2    4.81    0.33
  14   2  -2    4.85    0.29
 -14   2   2    4.92    0.34
  14   2  -1    1.72    0.15
 -14   2   1    1.89    0.16
 -14   2   1    1.74    0.12
  14   2  -1    1.94    0.13
 -14   2   0    0.88    0.07
 -14   2   0    0.74    0.09
  14   2   0    0.89    0.07
  14   2   0    0.91    0.10
 -14   2   0    0.71    0.10
  14   2   1    0.70    0.07
 -14   2  -1    0.70    0.08
 -14   2  -1    0.69    0.08
 -14   2  -1    0.67    0.07
  14   2   1    0.59    0.08
 -14   2  -2    7.51    0.41
 -14   2  -2    5.96    0.46
  14   2   2    6.83    0.40
  14   2   2    6.59    0.45
 -14   2  -2    6.66    0.46
  14   2   3    0.66    0.08
  14   2   3    0.70    0.07
 -14   2  -3    0.70    0.07
  14   2   3    0.60    0.07
 -14   2  -3    0.47    0.08
  14   2   4    0.50    0.07
  14   2   4    0.58    0.06
  14   2   4    0.45    0.07
 -14   2  -4    0.60    0.06
 -14   2  -4    0.59    0.08
 -14   2  -5    4.36    0.25
  14   2   5    3.52    0.27
  14   2   5    4.23    0.25
  14   2   5    3.75    0.26
  14   2   5    3.97    0.27
  14  -2   5    3.78    0.24
  14   2   6    1.28    0.09
 -14   2  -6    1.37    0.10
  14   2   6    1.21    0.10
  14   2   6    1.17    0.10
  14   2   6    1.35    0.11
  14  -2   6    1.43    0.09
  14   2   7    5.18    0.41
  14   2   7    6.38    0.40
  14   2   7    5.57    0.39
 -14   2  -7    6.73    0.38
  14   2   7    6.50    0.41
  14  -2   7    7.07    0.37
 -14   2  -8    0.49    0.05
  14   2   8    0.30    0.05
  14  -2   8    0.46    0.05
  14  -2   8    0.51    0.05
 -14   2  -9    0.11    0.02
  14   2   9    0.14    0.03
  14   2   9    0.15    0.03
  14  -2   9    0.15    0.02
  14  -2   9    0.15    0.03
  14   3 -12    6.28    0.38
 -14  -3  12    6.66    0.38
 -14   3  11    1.03    0.10
 -14  -3  11    1.11    0.07
 -14   3  10    0.33    0.06
 -14   3  10    0.34    0.04
  14   3 -10    0.33    0.04
 -14  -3  10    0.46    0.04
 -14   3   9    3.95    0.24
 -14   3   9    3.27    0.26
  14   3  -9    3.72    0.22
 -14  -3   9    3.55    0.23
 -14   3   8    7.26    0.46
  14   3  -8    6.17    0.40
 -14   3   8    6.95    0.43
 -14  -3   8    6.36    0.40
  14   3  -7    0.01    0.03
 -14   3   7    0.05    0.05
 -14   3   7    0.07    0.06
  14   3  -6    4.77    0.29
 -14   3   6    4.63    0.34
 -14   3   6    5.27    0.32
 -14   3   6    4.53    0.32
  14   3  -5    0.17    0.06
 -14   3   5    0.07    0.04
  14   3  -5    0.13    0.04
 -14   3   5    0.04    0.06
 -14   3   5    0.06    0.06
 -14   3   5   -0.03    0.07
  14   3  -4    0.70    0.08
  14   3  -4    0.69    0.08
 -14   3   4    0.70    0.09
  14   3  -4    0.66    0.06
 -14   3   4    0.88    0.09
 -14   3   4    0.73    0.08
 -14   3   4    1.01    0.10
 -14   3   3   11.62    0.81
 -14   3   3   13.12    0.79
  14   3  -3   11.13    0.74
 -14   3   3   12.15    0.80
  14   3  -3   11.48    0.79
  14   3  -3   11.38    0.70
 -14   3   3   12.77    0.77
 -14   3   2    3.22    0.25
  14   3  -2    3.72    0.25
  14   3  -2    3.26    0.21
 -14   3   2    3.53    0.25
 -14   3   2    3.26    0.24
  14   3  -2    3.47    0.23
 -14   3   2    3.71    0.25
 -14   3   1    1.86    0.15
  14   3  -1    1.82    0.13
  14   3  -1    2.04    0.15
 -14   3   1    2.01    0.16
 -14   3   1    1.77    0.15
 -14   3   1    1.74    0.15
  14   3  -1    1.84    0.12
 -14   3   0    0.76    0.05
  14   3   0    0.80    0.07
 -14   3   0    0.62    0.09
 -14   3   0    0.81    0.09
  14   3   0    0.72    0.08
  14   3   0    0.79    0.09
 -14   3   0    0.79    0.09
  14   3   0    0.73    0.05
 -14   3   0    0.80    0.09
  14   3   1    1.12    0.09
 -14   3  -1    1.14    0.12
 -14   3  -1    1.33    0.13
  14   3   1    1.15    0.11
 -14   3  -1    0.97    0.08
  14   3   1    1.13    0.10
 -14   3  -2    0.00    0.05
  14   3   2   -0.01    0.03
  14   3   2    0.01    0.04
  14   3   2    0.02    0.05
 -14   3  -2   -0.01    0.07
 -14   3  -2    0.01    0.03
 -14   3  -3    2.55    0.17
 -14   3  -3    3.05    0.21
  14   3   3    2.91    0.18
  14   3   3    2.67    0.19
 -14   3  -3    2.57    0.20
  14   3   3    2.69    0.19
  14   3   4    1.91    0.13
 -14   3  -4    1.85    0.12
  14   3   4    1.65    0.13
 -14   3  -4    1.73    0.15
  14   3   4    1.82    0.14
 -14   3  -4    1.94    0.15
 -14   3  -5    0.25    0.03
  14   3   5    0.19    0.03
  14   3   5    0.22    0.04
 -14   3  -5    0.16    0.07
  14   3   5    0.20    0.04
 -14   3  -5    0.24    0.07
  14   3   6    2.03    0.14
 -14   3  -6    2.16    0.13
  14   3   6    2.23    0.15
 -14   3  -6    2.00    0.16
 -14   3  -6    2.26    0.16
  14  -3   6    2.13    0.14
  14   3   7    2.00    0.15
 -14   3  -7    2.38    0.15
  14   3   7    2.58    0.16
 -14   3  -7    2.55    0.18
  14  -3   7    2.57    0.15
 -14   3  -8    1.93    0.11
  14   3   8    1.82    0.12
  14  -3   8    1.47    0.11
 -14   4  10    0.79    0.07
  14   4 -10    0.86    0.07
 -14   4   9    4.59    0.30
  14   4  -9    4.38    0.26
 -14  -4   9    4.32    0.27
  14   4  -8    0.57    0.04
  14   4  -8    0.65    0.06
 -14   4   8    0.69    0.06
 -14   4   8    0.73    0.08
  14   4  -8    0.52    0.07
 -14   4   8    0.64    0.05
  14   4  -7    0.00    0.04
  14   4  -7    0.02    0.03
  14   4  -7    0.01    0.02
 -14   4   7    0.02    0.05
 -14   4   7    0.00    0.04
 -14   4   7    0.05    0.03
 -14   4   6    0.44    0.07
  14   4  -6    0.39    0.03
  14   4  -6    0.47    0.05
 -14   4   6    0.38    0.06
 -14   4   6    0.36    0.05
  14   4  -6    0.53    0.06
 -14   4   5    7.53    0.52
  14   4  -5    7.35    0.50
 -14   4   5    8.36    0.50
 -14   4   5    7.66    0.52
  14   4  -4   17.23    1.09
  14   4  -4   15.01    1.02
 -14   4   4   16.76    1.06
  14   4  -4   16.36    1.06
 -14   4   4   18.17    1.11
 -14   4   3    0.04    0.04
  14   4  -3   -0.01    0.05
  14   4  -3    0.01    0.03
 -14   4   3    0.07    0.05
  14   4  -3    0.01    0.04
 -14   4   3    0.02    0.02
  14   4  -3    0.00    0.05
 -14   4   3   -0.04    0.06
  14   4  -2    3.07    0.22
 -14   4   2    2.99    0.21
 -14   4   2    3.44    0.24
 -14   4   2    3.23    0.21
  14   4  -2    3.16    0.21
 -14   4   2    2.82    0.22
  14   4  -2    3.12    0.21
 -14   4   1    0.71    0.07
 -14   4   1    0.83    0.09
  14   4  -1    0.81    0.09
  14   4  -1    0.76    0.07
 -14   4   1    0.69    0.09
  14   4  -1    0.84    0.07
 -14   4   0   -0.01    0.05
  14   4   0    0.02    0.03
 -14   4   0   -0.08    0.04
 -14   4   0    0.00    0.04
  14   4   0    0.04    0.03
  14   4   0    0.01    0.05
  14   4   1    1.88    0.14
 -14   4  -1    1.97    0.14
  14   4   1    2.13    0.15
 -14   4  -1    1.94    0.16
  14   4   1    1.79    0.13
 -14   4  -1    1.95    0.16
 -14   4  -2    1.42    0.12
  14   4   2    1.69    0.12
 -14   4  -2    1.74    0.14
  14   4   2    1.48    0.11
  14   4   2    1.74    0.11
 -14   4  -2    1.53    0.12
  14   4   3    5.09    0.31
  14   4   3    4.90    0.32
 -14   4  -3    4.67    0.34
  14   4   4    0.11    0.04
 -14   4  -4    0.09    0.04
 -14   4  -4    0.04    0.05
  14   4   4    0.01    0.04
 -14   4  -5   -0.01    0.04
  14   4   5    0.01    0.02
  14   4   5    0.05    0.03
 -14   4  -5   -0.02    0.03
 -14   4  -6    1.38    0.11
  14   4   6    1.71    0.10
  14   5  -7    0.09    0.03
  14   5  -6    2.08    0.15
  14   5  -6    2.40    0.15
  14   5  -5    0.00    0.02
 -14   5   5    0.06    0.04
  14   5  -5   -0.02    0.02
 -14   5   4    1.55    0.10
  14   5  -4    1.38    0.11
  14   5  -4    1.47    0.10
 -14   5   4    1.76    0.12
 -14   5   3   12.31    0.77
 -14   5   3   12.86    0.72
  14   5  -3   10.11    0.70
  14   5  -3   12.08    0.73
  14   5  -3    9.95    0.74
  14   5  -2    0.31    0.04
 -14   5   2    0.34    0.04
  14   5  -2    0.41    0.04
 -14   5   2    0.40    0.06
  14   5  -1    7.78    0.48
 -14   5   1    8.22    0.48
  14   5  -1    6.52    0.47
 -14   5   0    0.06    0.03
  14   5   0    0.03    0.03
  14   5   0   -0.02    0.03
 -14   5   0   -0.04    0.04
 -14   5  -1    0.07    0.03
  14   5   1    0.03    0.03
  14   5   1    0.10    0.02
 -14   5  -1    0.03    0.04
 -14   5  -2    0.01    0.03
 -14   5  -2   -0.01    0.04
  14   5   2    0.00    0.02
  14   5   2    0.00    0.02
  14   5   3   -0.01    0.02
 -15   0  12    0.02    0.05
 -15   0  12    0.04    0.03
 -15   0  12    0.02    0.03
 -15   0  11   -0.05    0.05
 -15   0  11    0.02    0.05
 -15   0  11    0.07    0.04
 -15   0  10    1.70    0.13
 -15   0  10    1.45    0.14
 -15   0  10    2.13    0.13
 -15   0   9   -0.01    0.06
 -15   0   9    0.01    0.02
 -15   0   9    0.01    0.04
 -15   0   8    1.74    0.11
 -15   0   8    1.82    0.16
 -15   0   8    1.81    0.15
 -15   0   7    0.02    0.05
 -15   0   7    0.04    0.05
 -15   0   7    0.01    0.04
 -15   0   6    1.04    0.13
 -15   0   6    0.95    0.08
 -15   0   6    1.09    0.12
 -15   0   5   -0.09    0.04
 -15   0   5    0.04    0.05
 -15   0   4    2.31    0.16
 -15   0   3   -0.02    0.05
 -15   0   2    0.59    0.07
 -15   0   1   -0.01    0.05
  15   0  -1   -0.03    0.05
  15   0   0   17.54    1.06
 -15   0   0   18.46    1.07
  15   0   1   -0.04    0.04
 -15   0  -1    0.04    0.05
  15   0   2   12.87    0.75
 -15   0  -2   12.21    0.75
  15   0   3   -0.02    0.04
  15   0   4    3.52    0.22
  15   0   5   -0.02    0.03
  15   0   5   -0.11    0.06
  15   0   6   11.92    0.74
  15   0   6   10.49    0.66
  15   0   7    0.00    0.03
  15   0   7    0.02    0.05
  15   0   8    0.37    0.04
 -15   1  12    0.53    0.05
 -15  -1  12    0.34    0.06
 -15  -1  12    0.50    0.06
 -15   1  11    4.33    0.28
 -15   1  11    4.79    0.30
 -15  -1  11    4.25    0.29
 -15  -1  11    3.82    0.32
 -15   1  10    0.90    0.10
 -15   1  10    0.77    0.09
 -15   1  10    0.93    0.08
 -15  -1  10    0.84    0.06
 -15  -1  10    0.84    0.10
 -15   1   9   19.96    1.28
 -15   1   9   21.00    1.34
 -15  -1   9   19.73    1.19
 -15   1   8    2.95    0.21
 -15   1   8    2.88    0.20
 -15   1   8    2.92    0.21
 -15  -1   8    2.85    0.21
 -15  -1   8    2.63    0.18
 -15   1   7    4.63    0.31
 -15   1   7    4.31    0.29
 -15   1   7    4.07    0.28
 -15  -1   7    3.69    0.29
 -15  -1   7    4.16    0.26
 -15   1   6    0.01    0.03
 -15   1   6   -0.04    0.04
 -15   1   6    0.08    0.06
 -15  -1   6   -0.02    0.03
  15   1  -5    1.04    0.10
 -15   1   5    1.27    0.12
 -15   1   5    1.34    0.12
 -15   1   5    1.07    0.08
 -15  -1   5    1.23    0.10
 -15   1   4    0.07    0.04
  15   1  -4    0.04    0.05
 -15   1   4    0.20    0.07
 -15  -1   4    0.11    0.05
 -15   1   3    4.87    0.34
 -15   1   3    4.81    0.29
  15   1  -3    4.33    0.29
 -15  -1   3    4.97    0.30
 -15   1   2    0.08    0.03
  15   1  -2    0.05    0.05
 -15   1   2    0.13    0.08
 -15  -1   2    0.11    0.05
  15   1  -1    1.37    0.10
 -15   1   1    1.46    0.11
  15   1   0    3.12    0.20
 -15   1   0    3.18    0.20
 -15   1  -1   -0.04    0.05
  15   1   1    0.00    0.03
  15   1   1    0.00    0.05
  15   1   2    0.02    0.06
 -15   1  -2    0.01    0.05
  15   1   2    0.02    0.03
  15  -1   2   -0.01    0.04
  15   1   3    0.68    0.09
  15   1   3    0.77    0.06
 -15   1  -3    0.79    0.07
  15  -1   3    0.82    0.07
  15   1   4    0.23    0.06
 -15   1  -4    0.31    0.04
  15   1   4    0.22    0.03
  15  -1   4    0.24    0.05
 -15   1  -5    2.17    0.15
  15   1   5    2.06    0.13
  15   1   5    2.33    0.15
  15   1   5    2.31    0.17
  15  -1   5    2.18    0.14
  15   1   6    0.47    0.05
  15   1   6    0.38    0.04
 -15   1  -6    0.50    0.05
  15  -1   6    0.47    0.05
 -15   1  -7    6.29    0.39
  15   1   7    6.61    0.43
  15  -1   7    6.27    0.38
  15  -1   7    6.74    0.43
  15   1   8    0.27    0.03
  15  -1   8    0.38    0.04
  15  -1   8    0.23    0.02
  15  -1   8    0.33    0.04
 -15   2  12    1.91    0.13
  15   2 -11    2.43    0.17
 -15   2  11    3.37    0.21
 -15   2  11    3.16    0.19
 -15  -2  11    2.74    0.17
 -15  -2  11    2.31    0.20
  15   2 -10    4.64    0.27
 -15   2  10    4.56    0.31
 -15   2  10    4.24    0.29
 -15  -2  10    4.22    0.27
 -15   2   9    0.59    0.07
  15   2  -9    0.65    0.06
 -15   2   9    0.79    0.08
 -15   2   9    0.57    0.05
 -15  -2   9    0.66    0.07
 -15   2   8    0.50    0.09
 -15   2   8    0.60    0.06
  15   2  -8    0.46    0.05
 -15  -2   8    0.57    0.06
  15   2  -7    2.29    0.15
 -15   2   7    2.31    0.17
 -15   2   7    2.24    0.18
 -15   2   7    2.32    0.18
 -15  -2   7    2.29    0.15
 -15   2   6    0.25    0.06
 -15   2   6    0.21    0.07
  15   2  -6    0.29    0.05
 -15   2   6    0.41    0.07
 -15  -2   6    0.29    0.06
  15   2  -5    6.80    0.42
 -15   2   5    7.48    0.47
 -15   2   5    6.99    0.46
 -15   2   5    6.65    0.48
 -15  -2   5    6.81    0.42
 -15   2   4    0.50    0.09
 -15   2   4    0.55    0.08
 -15   2   4    0.69    0.08
 -15   2   3    1.24    0.11
 -15   2   3    0.92    0.07
 -15   2   3    1.05    0.11
 -15   2   2    0.28    0.08
  15   2  -2    0.18    0.07
 -15   2   2    0.25    0.03
 -15   2   1   12.35    0.77
 -15   2   1   13.34    0.87
  15   2  -1   13.71    0.87
 -15   2   0    7.18    0.47
 -15   2   0    6.92    0.42
  15   2   0    6.90    0.47
 -15   2  -1    1.87    0.16
  15   2   1    1.97    0.15
 -15   2  -1    1.88    0.13
 -15   2  -2    1.90    0.13
  15   2   2    2.27    0.15
 -15   2  -2    1.87    0.17
  15   2   2    2.07    0.14
  15   2   3    0.68    0.08
 -15   2  -3    0.62    0.06
  15   2   3    0.56    0.07
  15   2   4    0.92    0.08
 -15   2  -4    1.01    0.08
 -15   2  -4    0.89    0.10
  15   2   4    0.98    0.09
  15   2   4    1.01    0.08
  15  -2   4    0.90    0.08
 -15   2  -5    4.52    0.33
  15   2   5    4.92    0.30
 -15   2  -5    5.14    0.29
  15   2   5    4.46    0.32
  15  -2   5    4.65    0.29
  15   2   6    3.34    0.22
  15   2   6    3.98    0.23
 -15   2  -6    3.24    0.24
 -15   2  -6    3.33    0.21
  15  -2   6    3.13    0.21
  15   2   7    2.21    0.15
 -15   2  -7    2.36    0.14
 -15   2  -7    2.38    0.17
  15  -2   7    2.42    0.14
 -15   3  10    0.23    0.03
  15   3 -10    0.21    0.03
 -15   3  10    0.27    0.05
 -15  -3  10    0.21    0.03
 -15   3   9    7.09    0.43
  15   3  -9    6.46    0.37
 -15   3   9    6.39    0.40
 -15  -3   9    5.26    0.37
 -15   3   8   12.04    0.77
 -15   3   8   12.57    0.81
  15   3  -8   12.02    0.72
  15   3  -7    0.04    0.03
 -15   3   7    0.04    0.05
 -15   3   7    0.02    0.05
 -15  -3   7    0.04    0.05
 -15   3   6    0.06    0.05
  15   3  -6    0.11    0.03
  15   3  -6    0.04    0.05
 -15   3   6    0.11    0.05
 -15   3   5    0.32    0.08
  15   3  -5    0.35    0.05
 -15   3   5    0.27    0.04
  15   3  -5    0.31    0.04
 -15   3   5    0.42    0.07
  15   3  -4    2.73    0.19
 -15   3   4    2.95    0.20
 -15   3   4    3.26    0.21
  15   3  -4    2.84    0.21
 -15   3   4    3.18    0.21
  15   3  -4    2.70    0.18
  15   3  -3    0.07    0.03
  15   3  -3    0.04    0.02
 -15   3   3    0.09    0.04
 -15   3   3    0.10    0.05
  15   3  -3    0.08    0.04
 -15   3   3    0.03    0.05
 -15   3   3    0.12    0.06
  15   3  -2    0.79    0.08
  15   3  -2    0.79    0.07
 -15   3   2    0.86    0.09
 -15   3   2    0.64    0.09
 -15   3   2    0.57    0.08
 -15   3   2    0.55    0.08
  15   3  -2    0.75    0.05
  15   3  -1    0.61    0.04
 -15   3   1    0.73    0.09
  15   3  -1    0.72    0.07
 -15   3   1    0.72    0.07
 -15   3   1    0.51    0.08
  15   3  -1    0.83    0.07
 -15   3   1    0.59    0.08
  15   3   0    0.07    0.05
  15   3   0    0.10    0.05
 -15   3   0    0.07    0.06
 -15   3   0    0.06    0.04
 -15   3   0    0.12    0.06
 -15   3  -1    2.08    0.17
  15   3   1    2.23    0.17
 -15   3  -1    2.59    0.18
 -15   3  -1    2.00    0.17
  15   3   1    2.45    0.16
  15   3   1    2.34    0.16
  15   3   2    4.81    0.29
  15   3   2    3.65    0.28
 -15   3  -2    4.05    0.26
  15   3   2    4.80    0.29
 -15   3  -2    4.53    0.30
 -15   3  -2    4.55    0.31
 -15   3  -3    9.00    0.66
  15   3   3   11.21    0.64
 -15   3  -3   10.57    0.68
  15   3   3   10.29    0.66
  15   3   3    9.76    0.62
 -15   3  -3    9.40    0.59
  15   3   4    0.68    0.07
  15   3   4    0.70    0.05
 -15   3  -4    0.72    0.08
 -15   3  -4    0.68    0.05
  15   3   4    0.65    0.06
 -15   3  -4    0.74    0.07
 -15   3  -5    1.68    0.11
  15   3   5    2.03    0.13
 -15   3  -5    1.70    0.13
  15   3   5    1.78    0.12
  15  -3   5    1.81    0.12
 -15   3  -6    0.88    0.06
 -15   3  -6    1.12    0.08
  15  -3   6    0.98    0.07
  15   4  -8    0.48    0.05
 -15   4   8    0.52    0.06
  15   4  -8    0.50    0.05
  15   4  -7    1.29    0.10
 -15   4   7    1.54    0.10
  15   4  -7    1.18    0.10
 -15   4   7    1.35    0.11
 -15   4   6    1.17    0.08
 -15   4   6    1.20    0.09
  15   4  -6    0.84    0.09
 -15   4   6    1.00    0.09
  15   4  -5    1.64    0.12
 -15   4   5    1.50    0.13
 -15   4   5    1.86    0.14
 -15   4   5    1.85    0.13
  15   4  -5    1.87    0.13
 -15   4   4    0.04    0.05
 -15   4   4    0.13    0.05
  15   4  -4    0.12    0.03
 -15   4   4    0.10    0.04
  15   4  -3    0.36    0.05
  15   4  -3    0.30    0.04
  15   4  -3    0.29    0.04
 -15   4   3    0.24    0.06
 -15   4   3    0.35    0.05
 -15   4   3    0.41    0.05
  15   4  -2    0.71    0.06
 -15   4   2    0.65    0.07
  15   4  -2    0.48    0.07
  15   4  -2    0.54    0.06
 -15   4   2    0.69    0.07
  15   4  -1    0.29    0.06
  15   4  -1    0.32    0.04
 -15   4   1    0.35    0.04
 -15   4   1    0.46    0.05
 -15   4   1    0.43    0.06
  15   4  -1    0.27    0.04
 -15   4   0    0.40    0.05
 -15   4   0    0.45    0.05
  15   4   0    0.33    0.04
  15   4   0    0.44    0.06
  15   4   0    0.50    0.04
 -15   4  -1    1.50    0.12
 -15   4  -1    1.47    0.11
  15   4   1    1.48    0.10
  15   4   1    1.71    0.12
  15   4   1    1.79    0.11
 -15   4  -1    1.50    0.12
 -15   4  -2    0.83    0.08
  15   4   2    0.86    0.07
 -15   4  -2    0.87    0.08
 -15   4  -2    0.63    0.07
  15   4   2    0.82    0.07
  15   4   3    0.52    0.05
 -15   4  -3    0.36    0.05
  15   4   3    0.52    0.05
 -15   4  -4    0.73    0.06
 -15   4  -4    0.88    0.07
  15   4   4    0.72    0.06
 -16   0  11    0.03    0.02
 -16   0  10    0.12    0.03
 -16   0   9    0.02    0.06
 -16   0   8   10.03    0.68
 -16   0   8    9.66    0.60
 -16   0   8   10.79    0.67
 -16   0   7    0.05    0.07
 -16   0   7   -0.09    0.06
 -16   0   7   -0.01    0.03
 -16   0   6    0.02    0.05
 -16   0   6    0.05    0.04
 -16   0   6    0.08    0.05
 -16   0   5   -0.01    0.07
 -16   0   5   -0.01    0.04
 -16   0   4    0.03    0.04
 -16   0   3    0.00    0.03
 -16   0   2   -0.04    0.05
  16   0  -2    0.02    0.05
  16   0  -1    0.04    0.05
 -16   0   1   -0.01    0.05
 -16   0   0    2.24    0.15
  16   0   0    2.25    0.15
  16   0   1    0.03    0.04
 -16   0  -1   -0.03    0.05
 -16   0  -2    1.16    0.09
  16   0   2    1.14    0.09
 -16   0  -3    0.01    0.04
  16   0   3   -0.05    0.04
  16   0   4    7.87    0.54
  16   0   4    8.36    0.48
 -16   0  -4    8.02    0.49
  16   0   5   -0.02    0.02
  16   0   5   -0.03    0.03
  16   0   7    0.01    0.04
 -16   1  11    0.22    0.04
 -16  -1  11    0.30    0.04
 -16  -1  11    0.32    0.05
 -16   1  10    0.41    0.05
 -16   1  10    0.41    0.05
 -16   1  10    0.41    0.05
 -16  -1  10    0.45    0.05
 -16   1   9    0.81    0.08
 -16   1   9    0.80    0.07
 -16   1   9    0.71    0.08
 -16  -1   9    0.89    0.08
 -16  -1   9    0.75    0.06
 -16   1   8    0.82    0.07
 -16   1   8    0.55    0.08
 -16   1   8    0.85    0.09
 -16  -1   8    0.86    0.06
 -16   1   7    0.57    0.08
  16   1  -7    0.74    0.06
 -16   1   7    0.75    0.09
 -16  -1   7    0.69    0.06
 -16  -1   7    0.77    0.09
 -16   1   6    0.15    0.06
 -16   1   6    0.23    0.08
 -16  -1   6    0.19    0.07
 -16  -1   6    0.28    0.04
 -16   1   5    0.04    0.05
 -16   1   5    0.03    0.08
 -16   1   5    0.00    0.03
 -16  -1   5   -0.03    0.05
 -16   1   4    0.18    0.03
 -16   1   4    0.22    0.07
  16   1  -4    0.25    0.04
 -16  -1   4    0.19    0.05
 -16   1   3    5.24    0.36
 -16   1   3    5.69    0.41
  16   1  -3    6.40    0.36
 -16  -1   3    6.43    0.36
 -16   1   2    1.80    0.13
  16   1  -2    1.92    0.12
 -16   1   2    1.96    0.16
 -16  -1   2    1.91    0.14
 -16   1   1    0.24    0.06
 -16   1   1    0.20    0.04
  16   1  -1    0.22    0.04
 -16  -1   1    0.16    0.05
 -16   1   0    0.28    0.05
  16   1   0    0.24    0.03
  16   1   1   14.38    1.01
  16   1   1   15.11    0.90
  16  -1   1   16.34    0.90
 -16   1  -2    0.11    0.04
  16   1   2    0.04    0.06
  16   1   2    0.03    0.03
  16  -1   2   -0.04    0.04
 -16   1  -3   17.84    1.10
  16   1   3   18.32    1.09
  16  -1   3   19.59    1.10
 -16   1  -4    0.06    0.04
  16   1   4   -0.03    0.05
  16   1   4    0.08    0.04
  16  -1   4   -0.03    0.03
 -16   1  -5    0.16    0.03
  16   1   5    0.10    0.03
  16   1   5    0.12    0.03
  16  -1   5    0.10    0.02
  16   1   6    1.12    0.09
 -16   1  -6    1.30    0.08
  16  -1   6    1.21    0.08
  16   1   7    3.62    0.24
 -16   2  10    0.10    0.03
  16   2 -10    0.14    0.02
 -16   2  10    0.07    0.04
 -16  -2  10    0.08    0.02
 -16   2   9    2.79    0.20
  16   2  -9    2.77    0.17
 -16  -2   9    2.70    0.17
 -16   2   8    3.05    0.21
  16   2  -8    2.74    0.19
 -16   2   8    3.43    0.22
 -16   2   8    2.91    0.20
 -16  -2   8    3.32    0.19
 -16   2   7    6.39    0.38
 -16   2   7    5.15    0.38
 -16   2   7    5.94    0.40
  16   2  -7    5.35    0.34
 -16  -2   7    5.99    0.35
 -16   2   6    0.52    0.06
 -16   2   6    0.58    0.09
  16   2  -6    0.59    0.06
 -16   2   6    0.61    0.07
 -16  -2   6    0.56    0.06
 -16   2   5    0.73    0.09
 -16   2   5    0.74    0.08
 -16   2   5    0.63    0.08
  16   2  -5    0.77    0.06
 -16  -2   5    0.74    0.08
 -16   2   4    0.01    0.06
  16   2  -4    0.08    0.04
 -16   2   4    0.03    0.06
 -16   2   4    0.13    0.06
  16   2  -4    0.09    0.04
 -16  -2   4    0.04    0.05
  16   2  -3    1.80    0.11
 -16   2   3    1.87    0.16
  16   2  -3    1.35    0.12
 -16   2   3    1.83    0.13
 -16   2   2    1.09    0.07
  16   2  -2    1.11    0.08
  16   2  -2    1.02    0.11
  16   2  -2    1.17    0.10
 -16   2   2    1.23    0.11
 -16   2   2    1.40    0.10
  16   2  -1   12.75    0.74
  16   2  -1   11.20    0.70
 -16   2   1   11.46    0.70
  16   2  -1   11.30    0.79
 -16   2   1   12.90    0.79
  16   2   0    1.99    0.13
 -16   2   0    2.15    0.17
  16   2   0    2.22    0.15
 -16   2   0    2.15    0.13
  16   2   0    2.02    0.16
  16   2   1    0.28    0.04
 -16   2  -1    0.22    0.07
  16   2   1    0.20    0.02
  16   2   1    0.16    0.04
 -16   2  -1    0.17    0.03
  16   2   2    2.99    0.24
 -16   2  -2    3.80    0.21
 -16   2  -2    3.54    0.25
  16   2   2    3.72    0.23
 -16   2  -3    4.20    0.25
  16   2   3    4.47    0.26
 -16   2  -3    3.90    0.29
  16  -2   3    3.76    0.25
  16   2   4    5.49    0.33
 -16   2  -4    5.02    0.31
  16   2   4    4.92    0.35
  16  -2   4    5.55    0.31
 -16   2  -5    0.12    0.03
  16   2   5    0.10    0.03
  16   2   5    0.12    0.03
  16   2   5    0.17    0.03
  16  -2   5    0.10    0.02
 -16   2  -6    3.69    0.23
  16  -2   6    3.98    0.23
 -16   3   9    0.08    0.04
  16   3  -9    0.05    0.02
 -16   3   9    0.07    0.02
 -16  -3   9    0.04    0.02
 -16   3   8    1.67    0.11
  16   3  -8    1.33    0.09
 -16   3   8    1.65    0.12
 -16  -3   8    1.28    0.09
  16   3  -7    0.11    0.03
  16   3  -7    0.07    0.02
 -16   3   7    0.14    0.05
 -16   3   7    0.08    0.03
 -16  -3   7    0.07    0.04
 -16   3   6    0.45    0.05
 -16   3   6    0.52    0.06
  16   3  -6    0.42    0.05
  16   3  -6    0.36    0.04
 -16  -3   6    0.41    0.04
 -16   3   5    3.32    0.21
  16   3  -5    2.47    0.21
 -16   3   5    3.37    0.22
  16   3  -5    3.06    0.18
 -16   3   4    6.25    0.42
 -16   3   4    6.24    0.41
  16   3  -4    5.52    0.39
 -16   3   4    7.12    0.40
  16   3  -4    5.51    0.37
  16   3  -4    6.89    0.42
 -16   3   3    0.23    0.04
  16   3  -3    0.22    0.03
 -16   3   3    0.18    0.06
  16   3  -3    0.29    0.04
  16   3  -3    0.21    0.02
 -16   3   3    0.23    0.05
 -16   3   2   -0.06    0.04
 -16   3   2   -0.06    0.04
  16   3  -2   -0.05    0.03
  16   3  -2    0.01    0.03
 -16   3   2    0.05    0.06
  16   3  -1    3.82    0.27
 -16   3   1    4.08    0.27
  16   3  -1    4.29    0.26
 -16   3   1    4.02    0.28
 -16   3   1    3.92    0.27
 -16   3   0    4.59    0.32
  16   3   0    4.96    0.29
  16   3   0    4.28    0.31
  16   3   1   -0.02    0.04
  16   3   1    0.03    0.03
 -16   3  -1    0.02    0.04
  16   3   1    0.03    0.03
 -16   3  -2    2.96    0.20
  16   3   2    2.78    0.19
  16   3   3   10.39    0.63
  16   3   3   10.28    0.65
 -16   3  -3   10.92    0.68
  16   3   3    9.55    0.67
  16   3   4    0.00    0.03
  16   3   4    0.03    0.02
 -16   3  -4   -0.02    0.03
 -16   4   5   -0.03    0.02
  16   4  -5    0.00    0.03
 -16   4   4    0.33    0.03
  16   4  -4    0.24    0.04
 -16   4   3    0.68    0.06
  16   4  -3    0.47    0.04
  16   4  -2    0.20    0.03
 -16   4   2    0.17    0.04
  16   4  -2    0.27    0.03
 -16   4   1    1.19    0.09
  16   4  -1    1.15    0.08
  16   4  -1    1.21    0.08
  16   4   0    1.32    0.10
  16   4   0    1.52    0.10
  16   4   1    0.13    0.03
 -17   0  10    6.11    0.40
 -17   0   9   -0.01    0.04
 -17   0   8    0.05    0.05
 -17   0   7   -0.06    0.06
 -17   0   7   -0.06    0.05
 -17   0   6    2.88    0.20
 -17   0   6    2.92    0.19
 -17   0   6    2.42    0.16
 -17   0   5    0.04    0.04
 -17   0   5   -0.01    0.07
 -17   0   5    0.03    0.03
 -17   0   4    0.48    0.08
  17   0  -4    0.43    0.06
 -17   0   4    0.53    0.05
 -17   0   3    0.01    0.04
  17   0  -3    0.00    0.04
 -17   0   2    0.02    0.04
  17   0  -2    0.06    0.03
 -17   0   1    0.01    0.04
  17   0  -1    0.00    0.04
 -17   0   0    0.20    0.04
  17   0   0    0.27    0.03
 -17   0  -1   -0.01    0.04
  17   0   1   -0.01    0.04
  17   0   2    0.01    0.02
 -17   0  -2    0.02    0.04
  17   0   3    0.02    0.02
 -17   0  -3    0.09    0.04
  17   0   4    0.05    0.03
 -17   0  -4    0.00    0.03
  17   0   4    0.01    0.02
  17   0   4    0.05    0.02
 -17   1   9    2.63    0.18
 -17   1   9    2.80    0.19
 -17   1   9    2.37    0.18
 -17  -1   9    2.94    0.19
 -17   1   8   -0.01    0.04
  17   1  -8    0.04    0.02
 -17   1   8   -0.01    0.05
 -17  -1   8   -0.01    0.02
 -17   1   7    6.09    0.39
  17   1  -7    6.35    0.36
 -17   1   7    5.84    0.40
 -17  -1   7    5.58    0.35
 -17  -1   7    5.82    0.40
 -17   1   6    0.23    0.07
 -17   1   6    0.32    0.05
  17   1  -6    0.19    0.04
 -17  -1   6    0.27    0.05
 -17  -1   6    0.24    0.04
  17   1  -5    1.54    0.09
 -17   1   5    1.71    0.14
 -17   1   5    1.28    0.12
 -17  -1   5    1.40    0.10
 -17  -1   5    1.19    0.11
 -17   1   4    0.79    0.06
 -17   1   4    0.95    0.08
 -17   1   4    0.71    0.09
 -17  -1   4    0.99    0.07
 -17   1   3    6.51    0.43
 -17   1   3    7.84    0.49
 -17   1   3    7.59    0.49
 -17  -1   3    7.23    0.43
 -17   1   2    1.81    0.16
  17   1  -2    2.04    0.13
 -17   1   2    1.91    0.13
 -17  -1   2    2.25    0.13
  17   1  -1   16.23    1.00
 -17   1   1   18.49    1.00
 -17  -1   1   16.23    1.00
 -17   1   0    4.13    0.24
  17   1   0    4.20    0.24
  17  -1   0    3.88    0.25
 -17  -1   0    3.91    0.25
 -17   1  -1   10.75    0.70
  17   1   1   11.67    0.70
  17   1   1   13.18    0.78
  17   1   2    0.05    0.05
 -17   1  -2    0.09    0.03
  17   1   2    0.12    0.03
  17  -1   2    0.06    0.03
  17   1   3    2.54    0.16
  17   1   3    2.28    0.17
 -17   1  -4    0.21    0.04
  17   1   4    0.29    0.04
  17   1   4    0.23    0.04
  17  -1   4    0.21    0.03
 -17   2   8    0.01    0.04
  17   2  -8    0.04    0.02
 -17   2   8    0.01    0.03
 -17  -2   8    0.03    0.02
 -17   2   7    4.53    0.27
 -17   2   7    3.66    0.25
  17   2  -7    3.60    0.23
 -17   2   7    3.92    0.25
 -17  -2   7    3.37    0.23
 -17   2   6    1.75    0.12
 -17   2   6    2.10    0.15
 -17   2   6    1.70    0.13
  17   2  -6    1.76    0.11
 -17  -2   6    1.60    0.12
 -17   2   5    0.49    0.06
 -17   2   5    0.44    0.06
  17   2  -5    0.45    0.05
 -17   2   5    0.64    0.06
 -17  -2   5    0.66    0.05
 -17   2   4    1.02    0.10
  17   2  -4    1.18    0.09
 -17   2   4    1.36    0.10
 -17   2   4    1.49    0.11
  17   2  -4    1.22    0.08
 -17  -2   4    1.26    0.09
 -17   2   3    2.70    0.17
  17   2  -3    2.30    0.15
 -17   2   3    2.38    0.18
  17   2  -3    2.36    0.17
  17   2  -3    2.45    0.16
 -17  -2   3    2.46    0.16
  17   2  -2    0.05    0.02
 -17   2   2    0.08    0.04
  17   2  -2    0.04    0.03
  17   2  -2   -0.01    0.04
 -17   2   2    0.14    0.07
 -17  -2   2    0.07    0.04
  17   2  -1    0.17    0.02
 -17   2   1    0.17    0.04
  17   2  -1    0.23    0.04
  17   2  -1    0.07    0.03
 -17   2   1    0.12    0.06
  17   2   0    1.14    0.09
 -17   2   0    1.08    0.10
  17   2   0    1.08    0.08
 -17   2  -1    1.50    0.09
  17   2   1    1.43    0.11
 -17   2  -1    1.84    0.13
 -17   2  -2    0.44    0.03
  17   2   2    0.28    0.04
 -17   2  -2    0.37    0.06
 -17   2  -3    2.22    0.14
  17   2   3    2.15    0.16
  17   2   3    2.43    0.15
 -17   3   6    0.61    0.06
 -17   3   6    0.64    0.06
 -17   3   5    1.31    0.10
 -17   3   5    1.59    0.12
 -17   3   4    3.21    0.21
 -17   3   4    2.97    0.20
 -17   3   3    9.65    0.57
 -17   3   3    8.20    0.58
 -17   3   3    8.81    0.59
 -17   3   2    0.71    0.06
 -17   3   2    0.75    0.06
 -17   3   2    0.49    0.07
 -17   3   1    3.32    0.23
  17   3  -1    3.54    0.23
  17   3   0    6.53    0.41
 -17   3   0    5.82    0.41
  17   3   1    0.33    0.04
 -17   3  -1    0.31    0.04
  17   3   1    0.32    0.04
 -18   0   6    1.55    0.12
 -18   0   5   -0.03    0.04
 -18   0   5    0.01    0.04
 -18   0   5    0.01    0.01
 -18   0   4    7.01    0.45
 -18   0   4    6.53    0.40
 -18   0   3   -0.03    0.03
 -18   0   3    0.03    0.06
  18   0  -3    0.00    0.03
 -18   0   2    5.20    0.31
 -18   0   1    0.01    0.02
  18   0  -1   -0.02    0.02
  18   0   0    5.66    0.32
 -18   0   0    4.92    0.32
 -18   0  -1    0.00    0.02
  18   0   1    0.01    0.02
  18   0   2    8.26    0.46
 -18   0  -2    7.19    0.46
  18   1  -6    0.24    0.03
 -18   1   6    0.19    0.04
 -18   1   6    0.18    0.03
 -18  -1   6    0.19    0.02
 -18   1   5    0.33    0.05
 -18   1   5    0.11    0.05
  18   1  -5    0.23    0.03
 -18  -1   5    0.20    0.03
  18   1  -4    0.07    0.02
 -18   1   4    0.12    0.04
  18   1  -4    0.03    0.03
 -18   1   4    0.15    0.05
 -18  -1   4    0.09    0.04
 -18  -1   4    0.12    0.03
 -18   1   3    3.89    0.25
 -18   1   3    2.96    0.25
  18   1  -3    3.32    0.21
 -18  -1   3    3.86    0.22
 -18  -1   3    3.90    0.25
 -18   1   2    0.42    0.05
  18   1  -2    0.38    0.04
 -18   1   2    0.49    0.06
  18   1  -2    0.47    0.05
  18  -1  -2    0.30    0.04
 -18  -1   2    0.52    0.04
 -18   1   1    0.01    0.05
 -18   1   1   -0.01    0.01
  18   1  -1    0.00    0.03
  18   1  -1    0.01    0.02
 -18   1   1    0.00    0.03
 -18  -1   1   -0.02    0.03
  18  -1  -1   -0.01    0.02
  18   1   0    1.47    0.10
  18   1   0    1.67    0.11
 -18   1   0    1.62    0.10
 -18  -1   0    1.72    0.10
 -18   1  -1    0.88    0.06
  18   1   1    0.71    0.06
  18  -1   1    0.95    0.06
 -18   1  -2    0.05    0.02
  18  -1   2   -0.01    0.02
  18   2  -5    2.93    0.17
 -18  -2   5    2.61    0.17
 -18   2   4    2.84    0.18
 -18   2   4    2.65    0.19
  18   2  -4    2.63    0.16
 -18   2   3    3.15    0.22
 -18   2   3    3.12    0.21
 -18   2   2    1.56    0.12
 -18   2   2    1.92    0.13
   0   0   0    0.00    0.00
;
_shelx_hkl_checksum   17835

