 
data_x14411 
 
_audit_creation_method            SHELXL-2014/6 
# CIF edited on-the-fly by script CIFFIX (S. Parkin, 2000-2014). 
# CIFFIX: http://xray.uky.edu/people/parkin/programs/ciffix 
 
_publ_section_exptl_refinement 
; 
H atoms were found in difference Fourier maps, but subsequently included 
in the refinement using riding models, with constrained distances set to 
0.95 %A (C~sp2~H), 0.99 %A (R~2~CH~2~) and 1.00 %A (R~3~CH). 
U~iso~(H) values were set to 1.2U~eq~ of the attached atom. 
 
To ensure satisfactory refinement of disordered groups in the structure, 
a combination of constraints and restraints were employed. The constraints 
(SHELXL commands EXYZ and EADP) were used to fix overlapping fragments. 
Restraints were used to maintain the integrity of ill-defined or disordered 
groups (SHELXL commands SAME, RIGU and ISOR). 
; 
 
_publ_section_references 
; 
Bruker-AXS (2006). 
  <i>APEX2</i> Bruker-AXS Inc., Madison, Wisconsin, USA. 
 
Hope, H. (1994). 
  <i>Prog. Inorg. Chem.</i> <b>41</b>, 1--19. 
 
Parkin, S. & Hope, H. (1998). 
  <i>J. Appl. Cryst.</i> <b>31</b>, 945--953. 
 
Parkin, S. (2000). 
  <i>Acta Cryst.</i> A<b>56</b>, 157--162. 
 
Parkin, S. (2013). 
  <i>CIFFIX</i>, http://xray.uky.edu/people/parkin/programs/ciffix 
 
Sheldrick, G.M. (2008a). 
  <i>Acta Cryst.</i> A<b>64</b>, 112--122. 
 
Sheldrick, G.M. (2008b). 
  <i>SADABS</i> University of G\"ottingen, Germany. 
 
Spek, A.L. (2009). 
  <i>Acta Cryst.</i> D<b>65</b>, 148--155. 
; 
 
_chemical_name_systematic         ? 
_chemical_name_common             ? 
_chemical_melting_point           ? 
_chemical_formula_moiety          'C58 H72 F2 S2 Si2' 
_chemical_formula_sum             'C58 H72 F2 S2 Si2' 
_chemical_formula_weight          927.45 
 
loop_ 
 _atom_type_symbol 
 _atom_type_description 
 _atom_type_scat_dispersion_real 
 _atom_type_scat_dispersion_imag 
 _atom_type_scat_source 
 'C'  'C'   0.0181   0.0091 
 'International Tables Vol C Tables 4.2.6.8 and 6.1.1.4' 
 'H'  'H'   0.0000   0.0000 
 'International Tables Vol C Tables 4.2.6.8 and 6.1.1.4' 
 'F'  'F'   0.0727   0.0534 
 'International Tables Vol C Tables 4.2.6.8 and 6.1.1.4' 
 'Si'  'Si'   0.2541   0.3302 
 'International Tables Vol C Tables 4.2.6.8 and 6.1.1.4' 
 'S'  'S'   0.3331   0.5567 
 'International Tables Vol C Tables 4.2.6.8 and 6.1.1.4' 
 
_space_group_crystal_system       triclinic 
_space_group_IT_number            2 
_space_group_name_H-M_alt         'P -1' 
_space_group_name_Hall            '-P 1' 
 
_shelx_space_group_comment 
; 
The symmetry employed for this shelxl refinement is uniquely defined 
by the following loop, which should always be used as a source of 
symmetry information in preference to the above space-group names. 
They are only intended as comments. 
; 
 
loop_ 
 _space_group_symop_operation_xyz 
 'x, y, z' 
 '-x, -y, -z' 
 
_cell_length_a                    8.8077(5) 
_cell_length_b                    9.7264(5) 
_cell_length_c                    16.0841(9) 
_cell_angle_alpha                 100.053(3) 
_cell_angle_beta                  92.168(3) 
_cell_angle_gamma                 110.363(3) 
_cell_volume                      1264.67(12) 
_cell_formula_units_Z             1 
_cell_measurement_temperature     90.0(2) 
_cell_measurement_reflns_used     9898 
_cell_measurement_theta_min       2.81 
_cell_measurement_theta_max       68.28 
 
_exptl_crystal_description        'irregular wedge' 
_exptl_crystal_colour             orange-red 
_exptl_crystal_density_meas       ? 
_exptl_crystal_density_method     ? 
_exptl_crystal_density_diffrn     1.218 
_exptl_crystal_F_000              498 
_exptl_transmission_factor_min    ? 
_exptl_transmission_factor_max    ? 
_exptl_crystal_size_max           0.200 
_exptl_crystal_size_mid           0.080 
_exptl_crystal_size_min           0.030 
_exptl_absorpt_coefficient_mu     1.750 
_shelx_estimated_absorpt_T_min    0.721 
_shelx_estimated_absorpt_T_max    0.949 
_exptl_absorpt_correction_type    multi-scan 
_exptl_absorpt_correction_T_min   0.776 
_exptl_absorpt_correction_T_max   0.915 
_exptl_absorpt_process_details    '<i>SADABS</i> (Sheldrick, 2008b)' 
_exptl_absorpt_special_details    ? 
_diffrn_ambient_temperature       90.0(2) 
_diffrn_radiation_wavelength      1.54178 
_diffrn_radiation_type            CuK\a 
_diffrn_source                    'fine-focus rotating anode' 
_diffrn_measurement_device_type   'Bruker X8 Proteum diffractometer' 
_diffrn_measurement_method        '\f and \w scans' 
_diffrn_detector_area_resol_mean  5.6 
_diffrn_reflns_number             16069 
_diffrn_reflns_av_unetI/netI      0.0384 
_diffrn_reflns_av_R_equivalents   0.0446 
_diffrn_reflns_limit_h_min        -10 
_diffrn_reflns_limit_h_max        7 
_diffrn_reflns_limit_k_min        -11 
_diffrn_reflns_limit_k_max        11 
_diffrn_reflns_limit_l_min        -19 
_diffrn_reflns_limit_l_max        17 
_diffrn_reflns_theta_min          2.806 
_diffrn_reflns_theta_max          68.270 
_diffrn_reflns_theta_full         67.679 
_diffrn_measured_fraction_theta_max                0.973 
_diffrn_measured_fraction_theta_full               0.978 
_diffrn_reflns_Laue_measured_fraction_max          0.973 
_diffrn_reflns_Laue_measured_fraction_full         0.978 
_diffrn_reflns_point_group_measured_fraction_max   0.973 
_diffrn_reflns_point_group_measured_fraction_full  0.978 
 
_reflns_number_total              4518 
_reflns_number_gt                 3991 
_reflns_threshold_expression      'I > 2\s(I)' 
_reflns_Friedel_coverage          0.000 
_reflns_Friedel_fraction_max      . 
_reflns_Friedel_fraction_full     . 
 
_reflns_special_details 
; 
Reflections were merged by SHELXL according to the crystal 
class for the calculation of statistics and refinement. 
 
_reflns_Friedel_fraction is defined as the number of unique 
Friedel pairs measured divided by the number that would be 
possible theoretically, ignoring centric projections and 
systematic absences. 
; 
 
_computing_data_collection        '<i>APEX2</i> (Bruker-AXS, 2006)' 
_computing_cell_refinement        '<i>APEX2</i> (Bruker-AXS, 2006)' 
_computing_data_reduction         '<i>APEX2</i> (Bruker-AXS, 2006)' 
_computing_structure_solution     '<i>SHELXS-97</i> (Sheldrick, 2008a)' 
_computing_structure_refinement   '<i>SHELXL-2014/6</i> (Sheldrick, 2008a)' 
_computing_molecular_graphics     '<i>XP in SHELXTL</i> (Sheldrick, 2008a)' 
_computing_publication_material 
'<i>SHELX</i> (Sheldrick, 2008a) and <i>CIFFIX</i> (Parkin, 2013)' 
_refine_special_details 
; 
Refinement progress was checked using <i>Platon</i> (Spek, 2009) and by 
an <i>R</i>-tensor (Parkin, 2000). The final model was further checked 
with the IUCr utility <i>checkCIF</i>. 
; 
_refine_ls_structure_factor_coef  Fsqd 
_refine_ls_matrix_type            full 
_refine_ls_weighting_scheme       calc 
_refine_ls_weighting_details 
'w=1/[\s^2^(Fo^2^)+(0.0559P)^2^+1.1099P] where P=(Fo^2^+2Fc^2^)/3' 
_atom_sites_solution_primary      direct 
_atom_sites_solution_secondary    difmap 
_atom_sites_solution_hydrogens    difmap 
_refine_ls_hydrogen_treatment     constr 
_refine_ls_extinction_method      none 
_refine_ls_extinction_coef        . 
_refine_ls_number_reflns          4518 
_refine_ls_number_parameters      302 
_refine_ls_number_restraints      103 
_refine_ls_R_factor_all           0.0529 
_refine_ls_R_factor_gt            0.0465 
_refine_ls_wR_factor_ref          0.1255 
_refine_ls_wR_factor_gt           0.1189 
_refine_ls_goodness_of_fit_ref    1.040 
_refine_ls_restrained_S_all       1.055 
_refine_ls_shift/su_max           0.000 
_refine_ls_shift/su_mean          0.000 
 
loop_ 
 _atom_site_label 
 _atom_site_type_symbol 
 _atom_site_fract_x 
 _atom_site_fract_y 
 _atom_site_fract_z 
 _atom_site_U_iso_or_equiv 
 _atom_site_adp_type 
 _atom_site_occupancy 
 _atom_site_site_symmetry_order 
 _atom_site_calc_flag 
 _atom_site_refinement_flags_posn 
 _atom_site_refinement_flags_adp 
 _atom_site_refinement_flags_occupancy 
 _atom_site_disorder_assembly 
 _atom_site_disorder_group 
Si1 Si 0.67724(6) 0.26591(5) 0.78786(3) 0.01559(14) Uani 1 1 d . . . . . 
C1 C 0.5397(2) 0.43315(19) 0.56500(11) 0.0154(4) Uani 1 1 d . . . . . 
C2 C 0.6655(2) 0.53856(19) 0.53206(11) 0.0155(4) Uani 1 1 d . . . . . 
C3 C 0.8308(2) 0.5808(2) 0.56442(12) 0.0199(4) Uani 1 1 d . . . . . 
H3 H 0.8592 0.5362 0.6077 0.024 Uiso 1 1 calc R U . A 1 
C4 C 0.9486(2) 0.6858(2) 0.53313(12) 0.0231(4) Uani 0.669(2) 1 d D U P B 1 
S5 S 1.15711(11) 0.76356(11) 0.56963(7) 0.0305(3) Uani 0.669(2) 1 d D U P B 1 
C6 C 1.1871(4) 0.8803(4) 0.4963(2) 0.0257(8) Uani 0.669(2) 1 d D U P B 1 
F1 F 1.3390(2) 0.9732(3) 0.49579(14) 0.0388(5) Uani 0.669(2) 1 d D U P B 1 
C7 C 1.0562(9) 0.8705(10) 0.4478(4) 0.0280(6) Uani 0.669(2) 1 d D U P B 1 
H7 H 1.0566 0.9304 0.4069 0.034 Uiso 0.669(2) 1 calc R U P B 1 
C8 C 0.9100(2) 0.7525(2) 0.46684(12) 0.0212(4) Uani 0.669(2) 1 d D U P B 1 
C4' C 0.9486(2) 0.6858(2) 0.53313(12) 0.0231(4) Uani 0.331(2) 1 d D U P B 2 
C5' C 1.1209(11) 0.7270(12) 0.5540(7) 0.0305(3) Uani 0.331(2) 1 d D U P B 2 
H5' H 1.1710 0.6906 0.5941 0.037 Uiso 0.331(2) 1 calc R U P B 2 
F1' F 1.3613(4) 0.8973(5) 0.5103(3) 0.0388(5) Uani 0.331(2) 1 d D U P B 2 
C6' C 1.1990(8) 0.8261(9) 0.5069(6) 0.0257(8) Uani 0.331(2) 1 d D U P B 2 
S7' S 1.0787(4) 0.8691(5) 0.43288(18) 0.0280(6) Uani 0.331(2) 1 d D U P B 2 
C8' C 0.9100(2) 0.7525(2) 0.46684(12) 0.0212(4) Uani 0.331(2) 1 d D U P B 2 
C9 C 0.7515(2) 0.7129(2) 0.43393(11) 0.0191(4) Uani 1 1 d . . . . . 
H9 H 0.7262 0.7571 0.3897 0.023 Uiso 1 1 calc R U . B 1 
C10 C 0.6255(2) 0.60614(19) 0.46588(11) 0.0155(4) Uani 1 1 d . . . . . 
C11 C 0.5803(2) 0.37004(19) 0.63269(11) 0.0173(4) Uani 1 1 d . . . . . 
C12 C 0.6180(2) 0.3231(2) 0.69182(12) 0.0191(4) Uani 1 1 d . . . . . 
C13 C 0.5167(2) 0.2716(2) 0.86197(11) 0.0186(4) Uani 1 1 d . . . . . 
H13 H 0.5045 0.3706 0.8644 0.022 Uiso 1 1 calc R U . . . 
C14 C 0.3494(2) 0.1518(3) 0.82767(14) 0.0323(5) Uani 1 1 d . . . . . 
H14A H 0.3174 0.1641 0.7705 0.039 Uiso 1 1 calc R U . . . 
H14B H 0.3571 0.0515 0.8218 0.039 Uiso 1 1 calc R U . . . 
C15 C 0.2183(3) 0.1610(3) 0.88536(15) 0.0375(5) Uani 1 1 d . . . . . 
H15A H 0.2017 0.2568 0.8863 0.045 Uiso 1 1 calc R U . . . 
H15B H 0.1143 0.0784 0.8624 0.045 Uiso 1 1 calc R U . . . 
C16 C 0.2654(3) 0.1507(2) 0.97486(14) 0.0318(5) Uani 1 1 d . . . . . 
H16A H 0.2723 0.0513 0.9747 0.038 Uiso 1 1 calc R U . . . 
H16B H 0.1808 0.1616 1.0115 0.038 Uiso 1 1 calc R U . . . 
C17 C 0.4287(3) 0.2724(3) 1.01044(14) 0.0354(5) Uani 1 1 d . . . . . 
H17A H 0.4597 0.2613 1.0680 0.043 Uiso 1 1 calc R U . . . 
H17B H 0.4186 0.3717 1.0154 0.043 Uiso 1 1 calc R U . . . 
C18 C 0.5617(3) 0.2641(3) 0.95352(13) 0.0307(5) Uani 1 1 d . . . . . 
H18A H 0.5801 0.1694 0.9539 0.037 Uiso 1 1 calc R U . . . 
H18B H 0.6646 0.3480 0.9767 0.037 Uiso 1 1 calc R U . . . 
C19 C 0.6944(2) 0.0777(2) 0.75317(11) 0.0180(4) Uani 1 1 d . . . . . 
H19 H 0.7896 0.0960 0.7191 0.022 Uiso 1 1 calc R U . . . 
C20 C 0.5515(3) -0.0407(2) 0.69406(14) 0.0324(5) Uani 1 1 d . . . . . 
H20A H 0.4533 -0.0660 0.7248 0.039 Uiso 1 1 calc R U . . . 
H20B H 0.5287 0.0006 0.6450 0.039 Uiso 1 1 calc R U . . . 
C21 C 0.5864(3) -0.1826(2) 0.66196(14) 0.0300(5) Uani 1 1 d . . . . . 
H21A H 0.4887 -0.2587 0.6269 0.036 Uiso 1 1 calc R U . . . 
H21B H 0.6767 -0.1599 0.6256 0.036 Uiso 1 1 calc R U . . . 
C22 C 0.6321(2) -0.2450(2) 0.73541(13) 0.0249(4) Uani 1 1 d . . . . . 
H22A H 0.5376 -0.2781 0.7681 0.030 Uiso 1 1 calc R U . . . 
H22B H 0.6609 -0.3332 0.7129 0.030 Uiso 1 1 calc R U . . . 
C23 C 0.7746(3) -0.1283(2) 0.79326(15) 0.0333(5) Uani 1 1 d . . . . . 
H23A H 0.8716 -0.1019 0.7617 0.040 Uiso 1 1 calc R U . . . 
H23B H 0.7994 -0.1702 0.8417 0.040 Uiso 1 1 calc R U . . . 
C24 C 0.7384(3) 0.0126(2) 0.82685(13) 0.0284(5) Uani 1 1 d . . . . . 
H24A H 0.8351 0.0881 0.8629 0.034 Uiso 1 1 calc R U . . . 
H24B H 0.6468 -0.0119 0.8623 0.034 Uiso 1 1 calc R U . . . 
C25 C 0.8839(2) 0.4085(2) 0.83415(12) 0.0191(4) Uani 1 1 d . . . . . 
H25 H 0.9162 0.3801 0.8870 0.023 Uiso 1 1 calc R U . . . 
C26 C 1.0152(2) 0.4095(2) 0.77379(13) 0.0256(4) Uani 1 1 d . . . . . 
H26A H 1.0255 0.3099 0.7632 0.031 Uiso 1 1 calc R U . . . 
H26B H 0.9806 0.4278 0.7188 0.031 Uiso 1 1 calc R U . . . 
C27 C 1.1813(2) 0.5289(2) 0.80934(16) 0.0344(5) Uani 1 1 d . . . . . 
H27A H 1.2229 0.5034 0.8603 0.041 Uiso 1 1 calc R U . . . 
H27B H 1.2591 0.5300 0.7664 0.041 Uiso 1 1 calc R U . . . 
C28 C 1.1711(3) 0.6836(2) 0.83292(16) 0.0347(5) Uani 1 1 d . . . . . 
H28A H 1.2789 0.7570 0.8588 0.042 Uiso 1 1 calc R U . . . 
H28B H 1.1410 0.7141 0.7810 0.042 Uiso 1 1 calc R U . . . 
C29 C 1.0454(2) 0.6839(2) 0.89508(15) 0.0311(5) Uani 1 1 d . . . . . 
H29A H 1.0367 0.7841 0.9073 0.037 Uiso 1 1 calc R U . . . 
H29B H 1.0812 0.6631 0.9491 0.037 Uiso 1 1 calc R U . . . 
C30 C 0.8785(2) 0.5661(2) 0.85919(14) 0.0258(4) Uani 1 1 d . . . . . 
H30A H 0.8378 0.5935 0.8087 0.031 Uiso 1 1 calc R U . . . 
H30B H 0.8010 0.5658 0.9022 0.031 Uiso 1 1 calc R U . . . 
 
loop_ 
 _atom_site_aniso_label 
 _atom_site_aniso_U_11 
 _atom_site_aniso_U_22 
 _atom_site_aniso_U_33 
 _atom_site_aniso_U_23 
 _atom_site_aniso_U_13 
 _atom_site_aniso_U_12 
Si1 0.0153(3) 0.0131(2) 0.0164(3) 0.00366(18) -0.00123(18) 0.00260(18) 
C1 0.0169(9) 0.0128(8) 0.0145(8) 0.0005(6) -0.0007(7) 0.0041(7) 
C2 0.0151(8) 0.0131(8) 0.0154(8) -0.0004(7) -0.0001(7) 0.0033(7) 
C3 0.0167(9) 0.0212(9) 0.0200(9) 0.0033(7) -0.0018(7) 0.0053(7) 
C4 0.0143(9) 0.0260(10) 0.0230(9) 0.0006(8) -0.0011(7) 0.0021(7) 
S5 0.0121(5) 0.0349(6) 0.0378(6) 0.0081(4) -0.0017(4) 0.0003(4) 
C6 0.0119(11) 0.027(2) 0.0293(15) 0.0036(15) 0.0029(10) -0.0026(13) 
F1 0.0113(8) 0.0454(14) 0.0469(11) 0.0108(10) 0.0031(7) -0.0063(8) 
C7 0.0197(10) 0.0290(6) 0.0221(11) 0.0021(8) 0.0064(7) -0.0065(6) 
C8 0.0156(9) 0.0227(9) 0.0188(9) 0.0018(7) 0.0029(7) -0.0002(7) 
C4' 0.0143(9) 0.0260(10) 0.0230(9) 0.0006(8) -0.0011(7) 0.0021(7) 
C5' 0.0121(5) 0.0349(6) 0.0378(6) 0.0081(4) -0.0017(4) 0.0003(4) 
F1' 0.0113(8) 0.0454(14) 0.0469(11) 0.0108(10) 0.0031(7) -0.0063(8) 
C6' 0.0119(11) 0.027(2) 0.0293(15) 0.0036(15) 0.0029(10) -0.0026(13) 
S7' 0.0197(10) 0.0290(6) 0.0221(11) 0.0021(8) 0.0064(7) -0.0065(6) 
C8' 0.0156(9) 0.0227(9) 0.0188(9) 0.0018(7) 0.0029(7) -0.0002(7) 
C9 0.0195(9) 0.0174(9) 0.0160(9) 0.0021(7) 0.0003(7) 0.0022(7) 
C10 0.0164(9) 0.0128(8) 0.0137(8) -0.0005(6) 0.0001(7) 0.0025(7) 
C11 0.0159(9) 0.0131(8) 0.0192(9) 0.0008(7) -0.0011(7) 0.0022(7) 
C12 0.0181(9) 0.0136(8) 0.0213(9) 0.0013(7) -0.0001(7) 0.0019(7) 
C13 0.0172(9) 0.0160(9) 0.0205(9) 0.0032(7) 0.0000(7) 0.0036(7) 
C14 0.0218(10) 0.0397(12) 0.0249(10) 0.0048(9) -0.0001(8) -0.0009(9) 
C15 0.0203(10) 0.0453(14) 0.0401(13) 0.0080(10) 0.0032(9) 0.0038(9) 
C16 0.0294(11) 0.0280(11) 0.0328(11) 0.0043(9) 0.0118(9) 0.0039(9) 
C17 0.0307(12) 0.0437(13) 0.0249(11) 0.0011(9) 0.0052(9) 0.0073(10) 
C18 0.0249(11) 0.0431(13) 0.0227(10) 0.0074(9) 0.0011(8) 0.0101(9) 
C19 0.0183(9) 0.0142(8) 0.0195(9) 0.0037(7) 0.0016(7) 0.0035(7) 
C20 0.0345(12) 0.0233(10) 0.0353(12) -0.0051(9) -0.0170(9) 0.0128(9) 
C21 0.0343(11) 0.0201(10) 0.0305(11) -0.0065(8) -0.0114(9) 0.0105(9) 
C22 0.0305(11) 0.0146(9) 0.0273(10) 0.0021(8) 0.0038(8) 0.0061(8) 
C23 0.0419(13) 0.0222(10) 0.0354(12) -0.0021(9) -0.0149(10) 0.0167(9) 
C24 0.0375(12) 0.0200(10) 0.0256(10) -0.0012(8) -0.0111(9) 0.0121(9) 
C25 0.0176(9) 0.0163(9) 0.0220(9) 0.0047(7) -0.0026(7) 0.0044(7) 
C26 0.0175(9) 0.0236(10) 0.0318(11) 0.0056(8) 0.0025(8) 0.0026(8) 
C27 0.0176(10) 0.0295(11) 0.0489(14) 0.0037(10) 0.0036(9) 0.0017(9) 
C28 0.0214(10) 0.0239(11) 0.0490(14) 0.0089(10) -0.0039(9) -0.0040(8) 
C29 0.0220(10) 0.0180(10) 0.0449(13) 0.0002(9) -0.0080(9) 0.0011(8) 
C30 0.0190(10) 0.0169(9) 0.0370(11) 0.0003(8) -0.0034(8) 0.0042(8) 
 
_geom_special_details 
; 
 All esds (except the esd in the dihedral angle between two l.s. planes) 
 are estimated using the full covariance matrix.  The cell esds are taken 
 into account individually in the estimation of esds in distances, angles 
 and torsion angles; correlations between esds in cell parameters are only 
 used when they are defined by crystal symmetry.  An approximate (isotropic) 
 treatment of cell esds is used for estimating esds involving l.s. planes. 
; 
 
loop_ 
 _geom_bond_atom_site_label_1 
 _geom_bond_atom_site_label_2 
 _geom_bond_distance 
 _geom_bond_site_symmetry_2 
 _geom_bond_publ_flag 
Si1 C12 1.8467(19) . ? 
Si1 C19 1.8783(19) . ? 
Si1 C25 1.8894(18) . ? 
Si1 C13 1.8924(19) . ? 
C1 C10 1.414(2) 2_666 ? 
C1 C2 1.416(2) . ? 
C1 C11 1.431(3) . ? 
C2 C3 1.418(3) . ? 
C2 C10 1.437(3) . ? 
C3 C4' 1.362(3) . ? 
C3 C4 1.362(3) . ? 
C3 H3 0.9500 . ? 
C4 C8 1.428(3) . ? 
C4 S5 1.7569(19) . ? 
S5 C6 1.742(4) . ? 
C6 C7 1.333(9) . ? 
C6 F1 1.330(4) . ? 
C7 C8 1.482(7) . ? 
C7 H7 0.9500 . ? 
C8 C9 1.369(3) . ? 
C4' C5' 1.438(10) . ? 
C4' C8' 1.428(3) . ? 
C5' C6' 1.345(12) . ? 
C5' H5' 0.9500 . ? 
F1' C6' 1.349(8) . ? 
C6' S7' 1.761(8) . ? 
S7' C8' 1.703(3) . ? 
C8' C9 1.369(3) . ? 
C9 C10 1.415(3) . ? 
C9 H9 0.9500 . ? 
C10 C1 1.414(2) 2_666 ? 
C11 C12 1.206(3) . ? 
C13 C18 1.531(3) . ? 
C13 C14 1.534(3) . ? 
C13 H13 1.0000 . ? 
C14 C15 1.525(3) . ? 
C14 H14A 0.9900 . ? 
C14 H14B 0.9900 . ? 
C15 C16 1.513(3) . ? 
C15 H15A 0.9900 . ? 
C15 H15B 0.9900 . ? 
C16 C17 1.521(3) . ? 
C16 H16A 0.9900 . ? 
C16 H16B 0.9900 . ? 
C17 C18 1.529(3) . ? 
C17 H17A 0.9900 . ? 
C17 H17B 0.9900 . ? 
C18 H18A 0.9900 . ? 
C18 H18B 0.9900 . ? 
C19 C20 1.527(3) . ? 
C19 C24 1.534(3) . ? 
C19 H19 1.0000 . ? 
C20 C21 1.524(3) . ? 
C20 H20A 0.9900 . ? 
C20 H20B 0.9900 . ? 
C21 C22 1.520(3) . ? 
C21 H21A 0.9900 . ? 
C21 H21B 0.9900 . ? 
C22 C23 1.510(3) . ? 
C22 H22A 0.9900 . ? 
C22 H22B 0.9900 . ? 
C23 C24 1.527(3) . ? 
C23 H23A 0.9900 . ? 
C23 H23B 0.9900 . ? 
C24 H24A 0.9900 . ? 
C24 H24B 0.9900 . ? 
C25 C30 1.533(3) . ? 
C25 C26 1.537(3) . ? 
C25 H25 1.0000 . ? 
C26 C27 1.529(3) . ? 
C26 H26A 0.9900 . ? 
C26 H26B 0.9900 . ? 
C27 C28 1.521(3) . ? 
C27 H27A 0.9900 . ? 
C27 H27B 0.9900 . ? 
C28 C29 1.520(3) . ? 
C28 H28A 0.9900 . ? 
C28 H28B 0.9900 . ? 
C29 C30 1.529(3) . ? 
C29 H29A 0.9900 . ? 
C29 H29B 0.9900 . ? 
C30 H30A 0.9900 . ? 
C30 H30B 0.9900 . ? 
 
loop_ 
 _geom_angle_atom_site_label_1 
 _geom_angle_atom_site_label_2 
 _geom_angle_atom_site_label_3 
 _geom_angle 
 _geom_angle_site_symmetry_1 
 _geom_angle_site_symmetry_3 
 _geom_angle_publ_flag 
C12 Si1 C19 107.45(8) . . ? 
C12 Si1 C25 106.76(8) . . ? 
C19 Si1 C25 109.52(8) . . ? 
C12 Si1 C13 105.75(8) . . ? 
C19 Si1 C13 115.55(8) . . ? 
C25 Si1 C13 111.31(8) . . ? 
C10 C1 C2 120.93(16) 2_666 . ? 
C10 C1 C11 119.75(16) 2_666 . ? 
C2 C1 C11 119.27(16) . . ? 
C1 C2 C3 120.99(16) . . ? 
C1 C2 C10 119.71(16) . . ? 
C3 C2 C10 119.29(16) . . ? 
C4' C3 C2 119.58(17) . . ? 
C4 C3 C2 119.58(17) . . ? 
C4 C3 H3 120.2 . . ? 
C2 C3 H3 120.2 . . ? 
C3 C4 C8 121.46(17) . . ? 
C3 C4 S5 126.71(16) . . ? 
C8 C4 S5 111.74(14) . . ? 
C6 S5 C4 89.46(14) . . ? 
C7 C6 F1 126.5(5) . . ? 
C7 C6 S5 117.3(4) . . ? 
F1 C6 S5 116.3(3) . . ? 
C6 C7 C8 110.0(6) . . ? 
C6 C7 H7 125.0 . . ? 
C8 C7 H7 125.0 . . ? 
C9 C8 C4 120.20(16) . . ? 
C9 C8 C7 128.1(4) . . ? 
C4 C8 C7 111.5(4) . . ? 
C3 C4' C5' 124.9(5) . . ? 
C3 C4' C8' 121.46(17) . . ? 
C5' C4' C8' 113.2(5) . . ? 
C6' C5' C4' 108.1(8) . . ? 
C6' C5' H5' 126.0 . . ? 
C4' C5' H5' 126.0 . . ? 
C5' C6' F1' 126.7(7) . . ? 
C5' C6' S7' 117.4(6) . . ? 
F1' C6' S7' 115.9(5) . . ? 
C8' S7' C6' 88.6(3) . . ? 
C9 C8' C4' 120.20(16) . . ? 
C9 C8' S7' 127.01(19) . . ? 
C4' C8' S7' 112.65(19) . . ? 
C8' C9 C10 119.96(17) . . ? 
C8 C9 C10 119.96(17) . . ? 
C8 C9 H9 120.0 . . ? 
C10 C9 H9 120.0 . . ? 
C1 C10 C9 121.13(16) 2_666 . ? 
C1 C10 C2 119.36(16) 2_666 . ? 
C9 C10 C2 119.50(16) . . ? 
C12 C11 C1 177.12(19) . . ? 
C11 C12 Si1 175.37(16) . . ? 
C18 C13 C14 110.05(16) . . ? 
C18 C13 Si1 114.69(13) . . ? 
C14 C13 Si1 112.31(13) . . ? 
C18 C13 H13 106.4 . . ? 
C14 C13 H13 106.4 . . ? 
Si1 C13 H13 106.4 . . ? 
C15 C14 C13 112.32(18) . . ? 
C15 C14 H14A 109.1 . . ? 
C13 C14 H14A 109.1 . . ? 
C15 C14 H14B 109.1 . . ? 
C13 C14 H14B 109.1 . . ? 
H14A C14 H14B 107.9 . . ? 
C16 C15 C14 111.28(19) . . ? 
C16 C15 H15A 109.4 . . ? 
C14 C15 H15A 109.4 . . ? 
C16 C15 H15B 109.4 . . ? 
C14 C15 H15B 109.4 . . ? 
H15A C15 H15B 108.0 . . ? 
C15 C16 C17 110.52(18) . . ? 
C15 C16 H16A 109.5 . . ? 
C17 C16 H16A 109.5 . . ? 
C15 C16 H16B 109.5 . . ? 
C17 C16 H16B 109.5 . . ? 
H16A C16 H16B 108.1 . . ? 
C16 C17 C18 111.28(18) . . ? 
C16 C17 H17A 109.4 . . ? 
C18 C17 H17A 109.4 . . ? 
C16 C17 H17B 109.4 . . ? 
C18 C17 H17B 109.4 . . ? 
H17A C17 H17B 108.0 . . ? 
C17 C18 C13 112.08(17) . . ? 
C17 C18 H18A 109.2 . . ? 
C13 C18 H18A 109.2 . . ? 
C17 C18 H18B 109.2 . . ? 
C13 C18 H18B 109.2 . . ? 
H18A C18 H18B 107.9 . . ? 
C20 C19 C24 110.07(16) . . ? 
C20 C19 Si1 116.29(13) . . ? 
C24 C19 Si1 113.63(13) . . ? 
C20 C19 H19 105.2 . . ? 
C24 C19 H19 105.2 . . ? 
Si1 C19 H19 105.2 . . ? 
C21 C20 C19 111.84(17) . . ? 
C21 C20 H20A 109.2 . . ? 
C19 C20 H20A 109.2 . . ? 
C21 C20 H20B 109.2 . . ? 
C19 C20 H20B 109.2 . . ? 
H20A C20 H20B 107.9 . . ? 
C22 C21 C20 111.10(17) . . ? 
C22 C21 H21A 109.4 . . ? 
C20 C21 H21A 109.4 . . ? 
C22 C21 H21B 109.4 . . ? 
C20 C21 H21B 109.4 . . ? 
H21A C21 H21B 108.0 . . ? 
C23 C22 C21 110.80(16) . . ? 
C23 C22 H22A 109.5 . . ? 
C21 C22 H22A 109.5 . . ? 
C23 C22 H22B 109.5 . . ? 
C21 C22 H22B 109.5 . . ? 
H22A C22 H22B 108.1 . . ? 
C22 C23 C24 111.44(17) . . ? 
C22 C23 H23A 109.3 . . ? 
C24 C23 H23A 109.3 . . ? 
C22 C23 H23B 109.3 . . ? 
C24 C23 H23B 109.3 . . ? 
H23A C23 H23B 108.0 . . ? 
C23 C24 C19 110.58(17) . . ? 
C23 C24 H24A 109.5 . . ? 
C19 C24 H24A 109.5 . . ? 
C23 C24 H24B 109.5 . . ? 
C19 C24 H24B 109.5 . . ? 
H24A C24 H24B 108.1 . . ? 
C30 C25 C26 110.04(16) . . ? 
C30 C25 Si1 111.65(12) . . ? 
C26 C25 Si1 112.26(13) . . ? 
C30 C25 H25 107.6 . . ? 
C26 C25 H25 107.6 . . ? 
Si1 C25 H25 107.6 . . ? 
C27 C26 C25 112.54(17) . . ? 
C27 C26 H26A 109.1 . . ? 
C25 C26 H26A 109.1 . . ? 
C27 C26 H26B 109.1 . . ? 
C25 C26 H26B 109.1 . . ? 
H26A C26 H26B 107.8 . . ? 
C28 C27 C26 111.64(18) . . ? 
C28 C27 H27A 109.3 . . ? 
C26 C27 H27A 109.3 . . ? 
C28 C27 H27B 109.3 . . ? 
C26 C27 H27B 109.3 . . ? 
H27A C27 H27B 108.0 . . ? 
C29 C28 C27 110.74(18) . . ? 
C29 C28 H28A 109.5 . . ? 
C27 C28 H28A 109.5 . . ? 
C29 C28 H28B 109.5 . . ? 
C27 C28 H28B 109.5 . . ? 
H28A C28 H28B 108.1 . . ? 
C28 C29 C30 111.15(18) . . ? 
C28 C29 H29A 109.4 . . ? 
C30 C29 H29A 109.4 . . ? 
C28 C29 H29B 109.4 . . ? 
C30 C29 H29B 109.4 . . ? 
H29A C29 H29B 108.0 . . ? 
C29 C30 C25 112.49(16) . . ? 
C29 C30 H30A 109.1 . . ? 
C25 C30 H30A 109.1 . . ? 
C29 C30 H30B 109.1 . . ? 
C25 C30 H30B 109.1 . . ? 
H30A C30 H30B 107.8 . . ? 
 
loop_ 
 _geom_torsion_atom_site_label_1 
 _geom_torsion_atom_site_label_2 
 _geom_torsion_atom_site_label_3 
 _geom_torsion_atom_site_label_4 
 _geom_torsion 
 _geom_torsion_site_symmetry_1 
 _geom_torsion_site_symmetry_2 
 _geom_torsion_site_symmetry_3 
 _geom_torsion_site_symmetry_4 
 _geom_torsion_publ_flag 
C10 C1 C2 C3 178.42(16) 2_666 . . . ? 
C11 C1 C2 C3 0.8(3) . . . . ? 
C10 C1 C2 C10 -0.4(3) 2_666 . . . ? 
C11 C1 C2 C10 -178.05(15) . . . . ? 
C1 C2 C3 C4' -178.05(17) . . . . ? 
C10 C2 C3 C4' 0.8(3) . . . . ? 
C1 C2 C3 C4 -178.05(17) . . . . ? 
C10 C2 C3 C4 0.8(3) . . . . ? 
C2 C3 C4 C8 -1.4(3) . . . . ? 
C2 C3 C4 S5 174.91(15) . . . . ? 
C3 C4 S5 C6 -176.9(2) . . . . ? 
C8 C4 S5 C6 -0.3(2) . . . . ? 
C4 S5 C6 C7 1.5(5) . . . . ? 
C4 S5 C6 F1 -180.0(3) . . . . ? 
F1 C6 C7 C8 179.5(4) . . . . ? 
S5 C6 C7 C8 -2.2(7) . . . . ? 
C3 C4 C8 C9 0.9(3) . . . . ? 
S5 C4 C8 C9 -175.93(15) . . . . ? 
C3 C4 C8 C7 176.1(4) . . . . ? 
S5 C4 C8 C7 -0.8(4) . . . . ? 
C6 C7 C8 C9 176.5(3) . . . . ? 
C6 C7 C8 C4 1.8(7) . . . . ? 
C2 C3 C4' C5' -173.2(6) . . . . ? 
C2 C3 C4' C8' -1.4(3) . . . . ? 
C3 C4' C5' C6' 175.9(6) . . . . ? 
C8' C4' C5' C6' 3.4(10) . . . . ? 
C4' C5' C6' F1' 176.7(7) . . . . ? 
C4' C5' C6' S7' -3.2(11) . . . . ? 
C5' C6' S7' C8' 1.6(8) . . . . ? 
F1' C6' S7' C8' -178.2(6) . . . . ? 
C3 C4' C8' C9 0.9(3) . . . . ? 
C5' C4' C8' C9 173.6(5) . . . . ? 
C3 C4' C8' S7' -175.1(2) . . . . ? 
C5' C4' C8' S7' -2.4(6) . . . . ? 
C6' S7' C8' C9 -175.2(3) . . . . ? 
C6' S7' C8' C4' 0.5(4) . . . . ? 
C4' C8' C9 C10 0.3(3) . . . . ? 
S7' C8' C9 C10 175.6(2) . . . . ? 
C4 C8 C9 C10 0.3(3) . . . . ? 
C7 C8 C9 C10 -174.0(4) . . . . ? 
C8' C9 C10 C1 177.92(17) . . . 2_666 ? 
C8 C9 C10 C1 177.92(17) . . . 2_666 ? 
C8' C9 C10 C2 -0.8(3) . . . . ? 
C8 C9 C10 C2 -0.8(3) . . . . ? 
C1 C2 C10 C1 0.4(3) . . . 2_666 ? 
C3 C2 C10 C1 -178.45(16) . . . 2_666 ? 
C1 C2 C10 C9 179.17(16) . . . . ? 
C3 C2 C10 C9 0.3(3) . . . . ? 
C12 Si1 C13 C18 -166.29(14) . . . . ? 
C19 Si1 C13 C18 75.02(16) . . . . ? 
C25 Si1 C13 C18 -50.72(17) . . . . ? 
C12 Si1 C13 C14 67.09(16) . . . . ? 
C19 Si1 C13 C14 -51.60(17) . . . . ? 
C25 Si1 C13 C14 -177.34(14) . . . . ? 
C18 C13 C14 C15 53.6(2) . . . . ? 
Si1 C13 C14 C15 -177.35(15) . . . . ? 
C13 C14 C15 C16 -55.9(3) . . . . ? 
C14 C15 C16 C17 56.6(3) . . . . ? 
C15 C16 C17 C18 -56.6(3) . . . . ? 
C16 C17 C18 C13 55.8(3) . . . . ? 
C14 C13 C18 C17 -53.4(2) . . . . ? 
Si1 C13 C18 C17 178.80(15) . . . . ? 
C12 Si1 C19 C20 -48.98(17) . . . . ? 
C25 Si1 C19 C20 -164.59(15) . . . . ? 
C13 Si1 C19 C20 68.76(17) . . . . ? 
C12 Si1 C19 C24 -178.32(14) . . . . ? 
C25 Si1 C19 C24 66.07(15) . . . . ? 
C13 Si1 C19 C24 -60.58(16) . . . . ? 
C24 C19 C20 C21 -55.5(2) . . . . ? 
Si1 C19 C20 C21 173.48(15) . . . . ? 
C19 C20 C21 C22 55.5(3) . . . . ? 
C20 C21 C22 C23 -55.6(2) . . . . ? 
C21 C22 C23 C24 56.9(3) . . . . ? 
C22 C23 C24 C19 -57.3(2) . . . . ? 
C20 C19 C24 C23 55.9(2) . . . . ? 
Si1 C19 C24 C23 -171.70(15) . . . . ? 
C12 Si1 C25 C30 60.92(15) . . . . ? 
C19 Si1 C25 C30 176.96(13) . . . . ? 
C13 Si1 C25 C30 -54.02(16) . . . . ? 
C12 Si1 C25 C26 -63.18(15) . . . . ? 
C19 Si1 C25 C26 52.86(15) . . . . ? 
C13 Si1 C25 C26 -178.13(13) . . . . ? 
C30 C25 C26 C27 52.7(2) . . . . ? 
Si1 C25 C26 C27 177.71(14) . . . . ? 
C25 C26 C27 C28 -54.8(3) . . . . ? 
C26 C27 C28 C29 55.8(3) . . . . ? 
C27 C28 C29 C30 -56.2(2) . . . . ? 
C28 C29 C30 C25 56.0(2) . . . . ? 
C26 C25 C30 C29 -53.4(2) . . . . ? 
Si1 C25 C30 C29 -178.78(15) . . . . ? 
 
_refine_diff_density_max    0.418 
_refine_diff_density_min   -0.406 
_refine_diff_density_rms    0.056 
 
_shelxl_version_number 2014/6 
 
_iucr_refine_instructions_details 
; 
TITL x14411 in P1bar 
CELL  1.54178   8.8077   9.7264  16.0841  100.053   92.168  110.363 
ZERR    1.000   0.0005   0.0005   0.0009    0.003    0.003    0.003 
LATT  1 
SFAC C H F SI S 
UNIT 58 72 2 2 2 
TEMP -183 
SIZE 0.20 0.08 0.03 
REM COLR orange-red 
REM FORM irregular wedge 
L.S. 10 
BOND $H 
CONF 
ACTA 
LIST 4 
FMAP 2 
PLAN 10 
WGHT    0.055900    1.109900 
FVAR       0.18844   0.66895 
SI1   4    0.677242    0.265905    0.787859    11.00000    0.01529    0.01310 = 
         0.01636    0.00366   -0.00123    0.00260 
C1    1    0.539657    0.433150    0.565005    11.00000    0.01689    0.01275 = 
         0.01455    0.00048   -0.00072    0.00407 
C2    1    0.665501    0.538562    0.532058    11.00000    0.01509    0.01313 = 
         0.01544   -0.00041   -0.00006    0.00332 
C3    1    0.830813    0.580835    0.564420    11.00000    0.01666    0.02117 = 
         0.01998    0.00334   -0.00177    0.00526 
AFIX  43 
H3    2    0.859192    0.536184    0.607655    11.00000   -1.20000 
AFIX   0 
EXYZ C4 C4' 
EXYZ C8 C8' 
EADP C4 C4' 
EADP S5 C5' 
EADP C6 C6' 
EADP F1 F1' 
EADP C7 S7' 
EADP C8 C8' 
SAME C8' S7' C6' F1' C5' C4' 
RIGU C4 > C8' 
ISOR 0.002 C7 S7' 
PART 1 
C4    1    0.948588    0.685819    0.533130    21.00000    0.01426    0.02598 = 
         0.02301    0.00061   -0.00106    0.00213 
S5    5    1.157115    0.763557    0.569633    21.00000    0.01207    0.03494 = 
         0.03777    0.00805   -0.00171    0.00027 
C6    1    1.187100    0.880312    0.496287    21.00000    0.01194    0.02731 = 
         0.02933    0.00356    0.00287   -0.00264 
F1    3    1.338972    0.973206    0.495787    21.00000    0.01125    0.04545 = 
         0.04691    0.01076    0.00312   -0.00629 
C7    1    1.056185    0.870503    0.447752    21.00000    0.01967    0.02897 = 
         0.02211    0.00210    0.00643   -0.00653 
AFIX  43 
H7    2    1.056603    0.930390    0.406935    21.00000   -1.20000 
AFIX   0 
C8    1    0.909958    0.752470    0.466835    21.00000    0.01555    0.02268 = 
         0.01879    0.00182    0.00292   -0.00025 
PART 2 
C4'   1    0.948588    0.685819    0.533130   -21.00000    0.01426    0.02598 = 
         0.02301    0.00061   -0.00106    0.00213 
C5'   1    1.120941    0.727013    0.554024   -21.00000    0.01207    0.03494 = 
         0.03777    0.00805   -0.00171    0.00027 
AFIX  43 
H5'   2    1.170955    0.690570    0.594117   -21.00000   -1.20000 
AFIX   0 
F1'   3    1.361340    0.897345    0.510323   -21.00000    0.01125    0.04545 = 
         0.04691    0.01076    0.00312   -0.00629 
C6'   1    1.198975    0.826138    0.506899   -21.00000    0.01194    0.02731 = 
         0.02933    0.00356    0.00287   -0.00264 
S7'   5    1.078727    0.869080    0.432881   -21.00000    0.01967    0.02897 = 
         0.02211    0.00210    0.00643   -0.00653 
C8'   1    0.909958    0.752470    0.466835   -21.00000    0.01555    0.02268 = 
         0.01879    0.00182    0.00292   -0.00025 
PART 0 
C9    1    0.751496    0.712896    0.433935    11.00000    0.01949    0.01741 = 
         0.01602    0.00212    0.00033    0.00219 
AFIX  43 
H9    2    0.726202    0.757099    0.389686    11.00000   -1.20000 
AFIX   0 
C10   1    0.625484    0.606144    0.465883    11.00000    0.01635    0.01278 = 
         0.01372   -0.00049    0.00013    0.00250 
C11   1    0.580334    0.370044    0.632694    11.00000    0.01593    0.01313 = 
         0.01915    0.00082   -0.00111    0.00223 
C12   1    0.617951    0.323142    0.691821    11.00000    0.01814    0.01357 = 
         0.02131    0.00126   -0.00009    0.00190 
C13   1    0.516732    0.271572    0.861968    11.00000    0.01716    0.01597 = 
         0.02049    0.00322   -0.00004    0.00358 
AFIX  13 
H13   2    0.504473    0.370576    0.864401    11.00000   -1.20000 
AFIX   0 
C14   1    0.349361    0.151823    0.827665    11.00000    0.02180    0.03971 = 
         0.02486    0.00478   -0.00014   -0.00094 
AFIX  23 
H14A  2    0.317351    0.164117    0.770544    11.00000   -1.20000 
H14B  2    0.357127    0.051520    0.821780    11.00000   -1.20000 
AFIX   0 
C15   1    0.218311    0.161006    0.885358    11.00000    0.02029    0.04526 = 
         0.04009    0.00802    0.00325    0.00376 
AFIX  23 
H15A  2    0.201652    0.256803    0.886349    11.00000   -1.20000 
H15B  2    0.114261    0.078424    0.862376    11.00000   -1.20000 
AFIX   0 
C16   1    0.265415    0.150726    0.974857    11.00000    0.02939    0.02805 = 
         0.03276    0.00429    0.01184    0.00386 
AFIX  23 
H16A  2    0.272346    0.051264    0.974745    11.00000   -1.20000 
H16B  2    0.180759    0.161636    1.011451    11.00000   -1.20000 
AFIX   0 
C17   1    0.428689    0.272445    1.010443    11.00000    0.03071    0.04366 = 
         0.02492    0.00114    0.00522    0.00731 
AFIX  23 
H17A  2    0.459735    0.261293    1.068000    11.00000   -1.20000 
H17B  2    0.418650    0.371744    1.015387    11.00000   -1.20000 
AFIX   0 
C18   1    0.561679    0.264078    0.953521    11.00000    0.02486    0.04314 = 
         0.02268    0.00741    0.00111    0.01009 
AFIX  23 
H18A  2    0.580071    0.169387    0.953874    11.00000   -1.20000 
H18B  2    0.664612    0.347956    0.976713    11.00000   -1.20000 
AFIX   0 
C19   1    0.694380    0.077673    0.753174    11.00000    0.01831    0.01422 = 
         0.01953    0.00367    0.00164    0.00345 
AFIX  13 
H19   2    0.789573    0.095985    0.719098    11.00000   -1.20000 
AFIX   0 
C20   1    0.551506   -0.040739    0.694063    11.00000    0.03448    0.02329 = 
         0.03531   -0.00509   -0.01697    0.01283 
AFIX  23 
H20A  2    0.453267   -0.065972    0.724791    11.00000   -1.20000 
H20B  2    0.528717    0.000643    0.645003    11.00000   -1.20000 
AFIX   0 
C21   1    0.586389   -0.182577    0.661958    11.00000    0.03428    0.02010 = 
         0.03046   -0.00652   -0.01137    0.01045 
AFIX  23 
H21A  2    0.488713   -0.258700    0.626932    11.00000   -1.20000 
H21B  2    0.676667   -0.159918    0.625643    11.00000   -1.20000 
AFIX   0 
C22   1    0.632129   -0.245037    0.735405    11.00000    0.03047    0.01460 = 
         0.02727    0.00211    0.00385    0.00608 
AFIX  23 
H22A  2    0.537562   -0.278108    0.768131    11.00000   -1.20000 
H22B  2    0.660911   -0.333185    0.712915    11.00000   -1.20000 
AFIX   0 
C23   1    0.774563   -0.128316    0.793256    11.00000    0.04189    0.02218 = 
         0.03537   -0.00210   -0.01488    0.01671 
AFIX  23 
H23A  2    0.871649   -0.101924    0.761709    11.00000   -1.20000 
H23B  2    0.799436   -0.170228    0.841651    11.00000   -1.20000 
AFIX   0 
C24   1    0.738407    0.012607    0.826853    11.00000    0.03754    0.02000 = 
         0.02559   -0.00117   -0.01107    0.01213 
AFIX  23 
H24A  2    0.835113    0.088086    0.862947    11.00000   -1.20000 
H24B  2    0.646823   -0.011936    0.862255    11.00000   -1.20000 
AFIX   0 
C25   1    0.883857    0.408489    0.834154    11.00000    0.01757    0.01632 = 
         0.02201    0.00468   -0.00256    0.00442 
AFIX  13 
H25   2    0.916243    0.380071    0.887042    11.00000   -1.20000 
AFIX   0 
C26   1    1.015206    0.409535    0.773793    11.00000    0.01753    0.02364 = 
         0.03180    0.00562    0.00250    0.00259 
AFIX  23 
H26A  2    1.025494    0.309949    0.763164    11.00000   -1.20000 
H26B  2    0.980634    0.427835    0.718765    11.00000   -1.20000 
AFIX   0 
C27   1    1.181251    0.528937    0.809343    11.00000    0.01761    0.02954 = 
         0.04891    0.00374    0.00360    0.00168 
AFIX  23 
H27A  2    1.222912    0.503366    0.860298    11.00000   -1.20000 
H27B  2    1.259093    0.530034    0.766420    11.00000   -1.20000 
AFIX   0 
C28   1    1.171060    0.683604    0.832918    11.00000    0.02136    0.02394 = 
         0.04904    0.00894   -0.00387   -0.00399 
AFIX  23 
H28A  2    1.278928    0.756974    0.858847    11.00000   -1.20000 
H28B  2    1.140956    0.714123    0.781007    11.00000   -1.20000 
AFIX   0 
C29   1    1.045355    0.683870    0.895078    11.00000    0.02202    0.01805 = 
         0.04489    0.00018   -0.00796    0.00112 
AFIX  23 
H29A  2    1.036716    0.784070    0.907308    11.00000   -1.20000 
H29B  2    1.081182    0.663096    0.949093    11.00000   -1.20000 
AFIX   0 
C30   1    0.878482    0.566122    0.859188    11.00000    0.01904    0.01686 = 
         0.03705    0.00035   -0.00341    0.00416 
AFIX  23 
H30A  2    0.837805    0.593530    0.808656    11.00000   -1.20000 
H30B  2    0.800981    0.565785    0.902225    11.00000   -1.20000 
 
AFIX   0 
HKLF 4 
 
REM  x14411 in P1bar 
REM R1 =  0.0465 for    3991 Fo > 4sig(Fo)  and  0.0529 for all    4518 data 
REM    302 parameters refined using    103 restraints 
 
END 
 
WGHT      0.0552      1.1470 
 
REM Highest difference peak  0.418,  deepest hole -0.406,  1-sigma level  0.056 
Q1    1   0.5838  0.2631  0.8240  11.00000  0.05    0.42 
Q2    1   0.5083 -0.2047  0.6879  11.00000  0.05    0.34 
Q3    1   0.9878  0.8210  0.4563  11.00000  0.05    0.34 
Q4    1   0.6645  0.1613  0.7697  11.00000  0.05    0.34 
Q5    1   0.8150  0.0256  0.7973  11.00000  0.05    0.32 
Q6    1   0.4633  0.1988  1.0086  11.00000  0.05    0.32 
Q7    1   1.1324  0.8466  0.4395  11.00000  0.05    0.31 
Q8    1   0.3478  0.2346  0.8321  11.00000  0.05    0.30 
Q9    1   0.9001  0.6608  0.5576  11.00000  0.05    0.29 
Q10   1   0.7900  0.3568  0.8027  11.00000  0.05    0.29 
; 
_shelx_res_checksum   77238 
 
_shelx_hkl_file
;
  -1   0   0   20.79    1.29
  -1   0   0   20.85    1.30
  -1   0   0   19.06    1.20
  -1   0   0   18.44    1.20
  -1   0   0   19.45    1.27
  -1   0   0   21.17    1.27
  -1   0   0   19.68    1.27
  -1   0   0   18.66    1.18
  -1   0   0   18.78    1.13
  -1   0   0   18.86    1.26
   1   0   0   21.04    1.29
   1   0   0   19.96    1.30
  -2   0   0   20.92    1.28
  -2   0   0   22.12    1.43
  -2   0   0   22.75    1.43
  -2   0   0   21.22    1.33
  -2   0   0   20.54    1.43
  -2   0   0   21.06    1.35
  -2   0   0   22.54    1.35
  -2   0   0   22.40    1.46
  -2   0   0   22.09    1.45
   2   0   0   23.72    1.45
   2   0   0   23.39    1.46
  -3   0   0    0.13    0.08
  -3   0   0    0.18    0.05
  -3   0   0    0.16    0.07
  -3   0   0    0.24    0.09
  -3   0   0    0.16    0.05
  -3   0   0    0.10    0.07
  -3   0   0    0.18    0.07
  -3   0   0    0.29    0.09
  -3   0   0    0.15    0.09
   3   0   0    0.15    0.09
   3   0   0    0.13    0.06
  -4   0   0   30.77    2.14
  -4   0   0   35.16    2.15
  -4   0   0   36.32    2.02
  -4   0   0   33.29    2.19
  -4   0   0   34.09    1.92
  -4   0   0   34.52    2.01
  -4   0   0   32.25    2.19
  -4   0   0   33.26    2.02
   4   0   0   28.77    2.19
  -5   0   0    0.11    0.12
  -6   0   0   13.82    0.72
  -6   0   0   12.57    0.86
  -6   0   0   12.25    0.70
  -6   0   0   12.77    0.70
  -6   0   0   12.19    0.85
  -6   0   0   12.75    0.71
  -7   0   0    0.62    0.14
  -7   0   0    0.57    0.23
  -7   0   0    0.65    0.07
  -7   0   0    0.54    0.10
  -7   0   0    0.61    0.11
  -8   0   0    8.61    0.51
  -8   0   0    8.62    0.51
  -8   0   0    9.40    0.63
  -9   0   0    0.30    0.10
  -9   0   0    0.44    0.12
 -10   1   0    0.00    0.07
 -10   1   0    0.09    0.09
  -9   1   0    2.00    0.19
  -9   1   0    1.99    0.26
  -8   1   0    3.96    0.33
  -8   1   0    3.86    0.26
  -8   1   0    3.33    0.26
  -7   1   0   47.33    3.49
  -7   1   0   54.34    3.31
  -7   1   0   58.34    2.91
  -7   1   0   53.92    2.95
  -7   1   0   56.02    2.93
  -7   1   0   55.87    3.51
  -6   1   0    1.72    0.19
  -6   1   0    2.09    0.15
  -6   1   0    1.52    0.15
  -6   1   0    1.69    0.18
  -6   1   0    1.79    0.12
  -6   1   0    1.92    0.15
  -6   1   0    1.41    0.22
  -6   1   0    1.69    0.21
  -5   1   0    6.44    0.43
  -5   1   0    7.00    0.43
  -5   1   0    7.43    0.48
  -5   1   0    6.90    0.45
  -5   1   0    7.30    0.49
  -5   1   0    5.94    0.47
   4  -1   0    8.14    0.57
  -4   1   0    8.84    0.55
  -4   1   0    8.19    0.52
  -4   1   0    6.56    0.56
  -4   1   0    7.73    0.56
  -4   1   0    7.25    0.50
  -4   1   0    7.98    0.50
  -4   1   0    7.69    0.54
  -4   1   0    8.69    0.50
   3  -1   0    0.22    0.10
   3  -1   0    0.18    0.07
  -3   1   0    0.24    0.09
  -3   1   0    0.18    0.10
  -3   1   0    0.08    0.09
  -3   1   0    0.19    0.07
  -3   1   0    0.19    0.09
  -3   1   0    0.13    0.08
  -3   1   0    0.20    0.06
  -3   1   0    0.13    0.06
   2  -1   0  122.66    7.39
   2  -1   0  119.52    7.38
  -2   1   0  104.57    7.26
  -2   1   0  112.85    7.26
  -2   1   0  116.62    7.38
  -2   1   0  107.18    6.88
  -2   1   0  104.25    6.49
  -2   1   0  116.96    7.38
  -2   1   0  112.55    6.74
  -2   1   0  117.12    6.91
   1  -1   0   44.53    2.79
   1  -1   0   46.55    2.80
   1  -1   0   40.10    2.60
   1  -1   0   38.97    2.74
  -1   1   0   41.99    2.74
  -1   1   0   40.39    2.60
  -1   1   0   43.48    2.54
  -1   1   0   45.36    2.79
   0  -1   0    6.00    0.38
   0  -1   0    6.11    0.41
   0  -1   0    5.34    0.41
   0  -1   0    6.10    0.43
   0  -1   0    6.35    0.42
   0  -1   0    5.41    0.40
   0   1   0    6.73    0.43
   0   1   0    5.47    0.41
   0   1   0    5.64    0.38
  -1  -1   0   12.61    0.83
  -1  -1   0   11.90    0.78
  -1  -1   0   11.65    0.83
  -1  -1   0   12.70    0.85
  -1  -1   0   12.39    0.82
  -1  -1   0   13.48    0.86
  -1  -1   0   12.32    0.78
   1   1   0   13.52    0.85
   1   1   0   13.69    0.86
  -2  -1   0   10.15    0.69
  -2  -1   0    9.36    0.60
  -2  -1   0   10.22    0.70
  -2  -1   0   11.10    0.69
  -2  -1   0   10.97    0.72
  -2  -1   0   10.46    0.64
  -2  -1   0   10.87    0.64
  -2  -1   0   10.23    0.65
  -2  -1   0    9.74    0.69
   2   1   0   10.40    0.73
  -3  -1   0   51.97    3.12
  -3  -1   0   49.81    2.94
  -3  -1   0   49.45    2.90
  -3  -1   0   48.26    2.95
  -3  -1   0   46.03    3.17
  -3  -1   0   44.10    2.77
  -3  -1   0   46.30    3.12
  -3  -1   0   50.59    3.18
  -3  -1   0   52.86    3.12
   3   1   0   48.72    3.17
   3   1   0   43.97    3.18
  -4  -1   0   10.74    0.70
  -4  -1   0    9.50    0.62
  -4  -1   0   10.21    0.62
  -4  -1   0    9.22    0.67
  -4  -1   0   10.55    0.66
  -4  -1   0    9.98    0.67
  -5  -1   0   33.74    1.90
  -5  -1   0   31.39    2.26
  -5  -1   0   37.76    2.14
  -5  -1   0   35.76    1.87
  -5  -1   0   36.18    1.93
  -5  -1   0   35.43    2.04
  -5  -1   0   34.36    1.88
  -6  -1   0   19.47    1.09
  -6  -1   0   19.42    1.10
  -6  -1   0   20.89    1.10
  -6  -1   0   20.16    1.29
  -6  -1   0   20.16    1.32
  -6  -1   0   20.69    1.13
  -7  -1   0   12.42    0.86
  -7  -1   0   12.88    0.71
  -7  -1   0   12.91    0.73
  -7  -1   0   12.38    0.71
  -8  -1   0    0.05    0.11
  -8  -1   0   -0.05    0.10
  -8  -1   0    0.11    0.09
  -9  -1   0    1.33    0.14
  -9  -1   0    1.67    0.16
  -9  -1   0    1.73    0.17
 -10   2   0    4.19    0.29
 -10   2   0    5.35    0.37
  -9   2   0    1.50    0.19
  -9   2   0    1.66    0.24
  -9   2   0    1.50    0.18
  -8   2   0    0.39    0.13
  -8   2   0    0.39    0.06
  -8   2   0    0.51    0.12
  -8   2   0    0.27    0.10
  -7   2   0    1.59    0.17
  -7   2   0    1.88    0.17
  -7   2   0    1.68    0.20
  -7   2   0    1.85    0.13
  -7   2   0    1.65    0.22
  -7   2   0    2.20    0.31
  -6   2   0    2.24    0.14
  -6   2   0    2.36    0.22
  -6   2   0    2.47    0.18
  -6   2   0    2.52    0.22
  -6   2   0    2.47    0.16
  -6   2   0    2.62    0.27
  -6   2   0    2.51    0.18
  -6   2   0    2.93    0.31
  -5   2   0    4.05    0.29
  -5   2   0    4.28    0.34
  -5   2   0    4.11    0.34
  -5   2   0    4.02    0.32
   4  -2   0    8.68    0.67
  -4   2   0   10.49    0.61
  -4   2   0    7.60    0.67
  -4   2   0    9.09    0.67
  -4   2   0   10.32    0.59
  -4   2   0   10.32    0.59
  -4   2   0   10.42    0.66
  -4   2   0    8.00    0.59
  -4   2   0    8.39    0.64
   3  -2   0    0.44    0.13
   3  -2   0    0.26    0.08
  -3   2   0    0.59    0.09
  -3   2   0    0.59    0.11
  -3   2   0    0.30    0.09
  -3   2   0    0.34    0.11
  -3   2   0    0.62    0.12
  -3   2   0    0.47    0.13
  -3   2   0    0.18    0.06
  -3   2   0    0.33    0.05
  -3   2   0    0.36    0.12
   2  -2   0   53.01    3.26
   2  -2   0   41.37    3.20
   2  -2   0   53.98    3.27
   2  -2   0   48.22    3.02
  -2   2   0   49.29    3.20
  -2   2   0   52.52    2.96
  -2   2   0   47.11    2.84
  -2   2   0   41.29    3.19
  -2   2   0   54.68    3.02
  -2   2   0   54.19    3.27
   1  -2   0   19.39    1.21
   1  -2   0   20.51    1.33
   1  -2   0   18.21    1.29
  -1   2   0   20.63    1.21
  -1   2   0   20.27    1.33
  -1   2   0   17.76    1.29
  -1   2   0   20.90    1.33
   0  -2   0  158.66   10.91
   0  -2   0  177.57   11.08
   0  -2   0  174.36   10.98
   0  -2   0  178.55   11.12
   0  -2   0  177.61   10.41
   0   2   0  163.94   10.33
   0   2   0  166.92   11.08
   0   2   0  164.74   10.90
  -1  -2   0    0.42    0.09
  -1  -2   0    0.55    0.11
  -1  -2   0    0.44    0.08
  -1  -2   0    0.60    0.08
  -1  -2   0    0.66    0.13
  -1  -2   0    0.48    0.12
  -1  -2   0    0.60    0.12
   1   2   0    0.55    0.12
   1   2   0    0.77    0.15
  -2  -2   0    2.80    0.26
  -2  -2   0    3.39    0.28
  -2  -2   0    3.30    0.25
  -2  -2   0    3.10    0.27
  -2  -2   0    3.35    0.28
  -2  -2   0    2.96    0.23
  -2  -2   0    3.36    0.23
  -2  -2   0    3.55    0.26
   2   2   0    3.32    0.31
   2   2   0    3.13    0.28
  -3  -2   0    0.64    0.09
  -3  -2   0    0.64    0.12
  -3  -2   0    0.65    0.13
  -3  -2   0    0.83    0.13
  -3  -2   0    0.65    0.12
  -3  -2   0    0.80    0.14
  -3  -2   0    0.63    0.09
  -4  -2   0   27.21    1.62
  -4  -2   0   25.98    1.73
  -4  -2   0   26.57    1.75
  -4  -2   0   26.05    1.63
  -5  -2   0    1.95    0.15
  -5  -2   0    1.66    0.22
  -5  -2   0    1.91    0.12
  -5  -2   0    1.71    0.15
  -5  -2   0    1.85    0.15
  -5  -2   0    1.61    0.18
  -6  -2   0    1.32    0.16
  -6  -2   0    1.80    0.28
  -6  -2   0    1.63    0.11
  -6  -2   0    1.37    0.16
  -6  -2   0    1.44    0.20
  -6  -2   0    1.48    0.16
  -7  -2   0    0.75    0.13
  -7  -2   0    0.88    0.12
  -7  -2   0    0.68    0.10
  -7  -2   0    1.25    0.12
  -8  -2   0    3.92    0.25
  -8  -2   0    3.31    0.24
  -9  -2   0    0.92    0.10
  -9  -2   0    1.15    0.12
 -10   3   0    0.24    0.09
 -10   3   0    0.40    0.13
  -9   3   0    1.34    0.18
  -9   3   0    1.30    0.16
  -9   3   0    1.37    0.14
  -8   3   0    2.37    0.16
  -8   3   0    2.20    0.24
  -8   3   0    2.21    0.22
  -8   3   0    2.10    0.26
  -7   3   0   24.58    1.67
  -7   3   0   26.30    1.73
  -7   3   0   26.43    1.72
  -7   3   0   27.29    1.43
  -7   3   0   26.43    1.61
  -7   3   0   27.34    1.45
  -6   3   0    2.08    0.22
  -6   3   0    2.40    0.29
  -6   3   0    2.25    0.15
  -6   3   0    2.10    0.22
  -6   3   0    2.32    0.15
  -6   3   0    2.38    0.18
  -6   3   0    2.48    0.31
  -6   3   0    2.54    0.29
  -6   3   0    2.26    0.21
  -5   3   0   46.47    3.20
  -5   3   0   50.47    2.97
  -5   3   0   48.99    2.86
  -5   3   0   50.51    3.01
  -4   3   0    2.13    0.24
  -4   3   0    2.10    0.22
  -4   3   0    2.07    0.27
  -4   3   0    2.08    0.20
   3  -3   0    4.55    0.40
   3  -3   0    4.31    0.38
  -3   3   0    4.01    0.40
  -3   3   0    4.56    0.38
  -3   3   0    4.59    0.32
  -3   3   0    4.75    0.33
   2  -3   0   51.16    3.41
   2  -3   0   58.79    3.63
   2  -3   0   56.88    3.70
  -2   3   0   57.69    3.70
  -2   3   0   54.21    3.69
  -2   3   0   58.45    3.42
  -2   3   0   54.09    3.21
   1  -3   0    0.44    0.16
   1  -3   0    0.49    0.16
   1  -3   0    0.44    0.09
   1  -3   0    0.43    0.11
  -1   3   0    0.30    0.15
  -1   3   0    0.41    0.13
  -1   3   0    0.33    0.17
  -1   3   0    0.46    0.08
   0  -3   0    4.17    0.35
   0  -3   0    4.15    0.37
   0  -3   0    4.30    0.30
   0  -3   0    4.29    0.30
   0  -3   0    4.46    0.37
   0   3   0    3.58    0.25
   0   3   0    3.59    0.34
   0   3   0    3.89    0.36
   0   3   0    3.78    0.30
   0   3   0    3.94    0.38
  -1  -3   0   37.63    2.66
  -1  -3   0   42.09    2.46
  -1  -3   0   41.46    2.59
  -1  -3   0   43.72    2.62
   1   3   0   37.76    2.67
   1   3   0   37.85    2.68
  -2  -3   0   16.94    1.11
  -2  -3   0   15.92    1.03
  -2  -3   0   16.90    1.04
  -2  -3   0   17.13    1.13
  -3  -3   0   24.20    1.52
  -3  -3   0   24.85    1.63
  -3  -3   0   25.20    1.52
  -3  -3   0   24.33    1.64
  -4  -3   0    0.86    0.09
  -4  -3   0    0.88    0.09
  -4  -3   0    0.93    0.11
  -4  -3   0    0.70    0.07
  -4  -3   0    0.88    0.09
  -4  -3   0    1.06    0.17
  -4  -3   0    1.13    0.11
  -4  -3   0    1.10    0.20
  -4  -3   0    0.93    0.19
  -4  -3   0    0.82    0.08
  -5  -3   0   16.59    0.92
  -5  -3   0   16.34    1.09
  -5  -3   0   17.27    0.95
  -5  -3   0   16.40    0.92
  -5  -3   0   17.44    0.93
  -6  -3   0    1.93    0.18
  -6  -3   0    1.83    0.17
  -6  -3   0    1.93    0.13
  -6  -3   0    1.78    0.18
  -7  -3   0    5.37    0.33
  -7  -3   0    5.02    0.32
  -8  -3   0    1.40    0.15
  -8  -3   0    1.35    0.13
 -10   4   0    7.87    0.54
 -10   4   0    7.24    0.53
  -9   4   0    2.33    0.26
  -9   4   0    2.10    0.23
  -9   4   0    1.64    0.20
  -8   4   0    3.10    0.25
  -8   4   0    3.08    0.21
  -8   4   0    3.36    0.29
  -8   4   0    2.79    0.30
  -7   4   0    0.59    0.11
  -7   4   0    0.58    0.17
  -7   4   0    0.61    0.19
  -7   4   0    0.48    0.08
  -7   4   0    0.54    0.13
  -7   4   0    0.46    0.06
  -7   4   0    0.50    0.11
  -7   4   0    0.69    0.13
  -6   4   0    5.29    0.31
  -6   4   0    5.68    0.39
  -6   4   0    5.71    0.32
  -6   4   0    5.21    0.49
  -6   4   0    5.68    0.40
  -6   4   0    5.50    0.40
  -6   4   0    4.41    0.41
  -6   4   0    5.67    0.44
  -6   4   0    5.31    0.33
  -5   4   0    0.56    0.13
  -5   4   0    0.36    0.17
  -5   4   0    0.59    0.14
  -4   4   0   12.45    0.79
  -4   4   0   12.89    0.91
  -4   4   0   12.92    0.83
   3  -4   0    0.25    0.14
  -3   4   0    0.02    0.10
  -3   4   0    0.01    0.11
  -3   4   0    0.12    0.15
   2  -4   0    8.94    0.58
   2  -4   0    7.97    0.66
   2  -4   0   10.09    0.69
  -2   4   0    8.23    0.53
  -2   4   0    8.60    0.69
  -2   4   0    8.23    0.58
  -2   4   0    7.90    0.68
   1  -4   0  199.88   13.25
   1  -4   0  204.01   13.54
   1  -4   0  214.31   13.32
   1  -4   0  216.14   12.60
  -1   4   0  195.98   12.60
  -1   4   0  214.42   13.57
  -1   4   0  202.08   11.84
  -1   4   0  213.89   13.56
   0  -4   0   12.19    0.76
   0  -4   0   11.34    0.81
   0   4   0   10.36    0.85
   0   4   0   10.62    0.84
  -1  -4   0    7.39    0.48
  -1  -4   0    7.05    0.57
  -1  -4   0    7.22    0.52
  -2  -4   0   30.89    1.92
  -2  -4   0   31.66    2.07
  -2  -4   0   33.02    1.95
  -2  -4   0   30.55    2.09
  -3  -4   0   -0.05    0.03
  -3  -4   0   -0.04    0.08
  -3  -4   0    0.01    0.04
  -3  -4   0   -0.06    0.06
  -3  -4   0    0.04    0.17
  -3  -4   0   -0.06    0.08
  -3  -4   0   -0.08    0.12
  -3  -4   0   -0.04    0.05
  -3  -4   0   -0.04    0.06
  -3  -4   0   -0.06    0.13
  -4  -4   0    2.72    0.32
  -4  -4   0    2.99    0.17
  -4  -4   0    2.84    0.20
  -4  -4   0    2.84    0.23
  -4  -4   0    2.91    0.33
  -4  -4   0    2.81    0.18
  -4  -4   0    2.70    0.20
  -4  -4   0    2.77    0.31
  -4  -4   0    2.78    0.20
  -5  -4   0   34.24    2.38
  -5  -4   0   38.27    2.11
  -5  -4   0   39.75    2.15
  -5  -4   0   41.09    2.10
  -5  -4   0   40.05    2.09
  -6  -4   0   21.27    1.27
  -6  -4   0   22.81    1.24
  -6  -4   0   23.53    1.23
  -6  -4   0   23.02    1.24
  -7  -4   0    5.38    0.33
  -7  -4   0    5.70    0.34
 -10   5   0    0.98    0.13
 -10   5   0    0.75    0.12
  -9   5   0    0.13    0.11
  -9   5   0    0.11    0.12
  -9   5   0    0.04    0.07
  -8   5   0   10.99    0.70
  -8   5   0    9.53    0.71
  -8   5   0    9.77    0.58
  -7   5   0    0.96    0.10
  -7   5   0    0.61    0.15
  -7   5   0    0.68    0.14
  -7   5   0    0.90    0.14
  -7   5   0    1.19    0.15
  -7   5   0    0.77    0.08
  -7   5   0    1.11    0.24
  -6   5   0    3.17    0.21
  -6   5   0    2.95    0.27
  -6   5   0    3.31    0.31
  -6   5   0    2.98    0.26
  -6   5   0    3.15    0.34
  -6   5   0    3.33    0.22
  -6   5   0    3.06    0.42
  -5   5   0    9.15    0.68
  -5   5   0   10.34    0.69
  -5   5   0   10.07    0.58
  -5   5   0   10.20    0.60
  -5   5   0   10.25    0.58
  -5   5   0   10.47    0.71
  -5   5   0   11.66    0.82
  -4   5   0    5.85    0.44
  -4   5   0    6.66    0.48
  -3   5   0   15.79    0.96
  -3   5   0   15.86    1.03
   2  -5   0   20.81    1.30
   2  -5   0   16.57    1.17
   2  -5   0   15.74    1.13
  -2   5   0   20.86    1.28
  -2   5   0   16.56    1.14
  -2   5   0   17.40    1.05
   1  -5   0   25.31    1.63
   1  -5   0   20.48    1.66
   1  -5   0   23.83    1.50
   1  -5   0   25.15    1.56
   0  -5   0    3.70    0.31
   0  -5   0    4.12    0.42
  -1  -5   0    8.76    0.69
  -1  -5   0    8.78    0.62
  -1  -5   0    8.16    0.57
  -2  -5   0    2.13    0.20
  -2  -5   0    1.58    0.12
  -2  -5   0    1.61    0.14
  -2  -5   0    1.68    0.13
  -2  -5   0    1.66    0.24
  -2  -5   0    1.63    0.12
  -2  -5   0    1.70    0.13
  -2  -5   0    1.84    0.24
  -2  -5   0    2.04    0.29
  -3  -5   0   29.61    1.88
  -3  -5   0   29.36    2.01
  -3  -5   0   30.11    1.88
  -3  -5   0   30.65    1.64
  -3  -5   0   30.09    1.68
  -3  -5   0   30.74    1.67
  -3  -5   0   30.36    2.04
  -3  -5   0   30.54    1.66
  -3  -5   0   31.11    1.63
  -4  -5   0    1.03    0.11
  -4  -5   0    0.88    0.11
  -4  -5   0    1.23    0.26
  -4  -5   0    1.01    0.12
  -4  -5   0    0.99    0.08
  -4  -5   0    0.93    0.12
  -5  -5   0    0.35    0.06
  -5  -5   0    0.31    0.10
  -5  -5   0    0.23    0.08
  -5  -5   0    0.33    0.09
  -6  -5   0    3.70    0.25
  -6  -5   0    3.79    0.25
  -6  -5   0    3.59    0.24
  -7  -5   0   21.59    1.13
  -7  -5   0   20.42    1.14
 -10   6   0    3.77    0.29
  -9   6   0    8.50    0.60
  -9   6   0    8.57    0.60
  -9   6   0    8.95    0.50
  -8   6   0    0.17    0.05
  -8   6   0    0.15    0.09
  -8   6   0    0.37    0.13
  -7   6   0    0.17    0.20
  -7   6   0    0.00    0.08
  -7   6   0    0.14    0.13
  -7   6   0    0.00    0.07
  -7   6   0   -0.17    0.10
  -6   6   0   12.92    0.88
  -6   6   0   12.76    0.87
  -6   6   0   11.91    0.73
  -6   6   0   14.54    0.73
  -6   6   0   13.34    0.87
  -6   6   0   11.44    0.99
  -6   6   0   12.88    0.75
  -5   6   0   11.25    0.81
  -5   6   0   12.89    0.84
  -5   6   0   13.05    0.96
  -5   6   0   11.28    0.69
  -5   6   0   12.64    0.70
  -5   6   0   13.00    0.81
  -5   6   0   12.25    0.71
  -4   6   0    7.58    0.47
  -4   6   0    8.14    0.69
  -4   6   0    7.66    0.47
  -4   6   0    8.69    0.55
  -3   6   0   21.46    1.28
  -3   6   0   21.25    1.50
   1  -6   0    0.06    0.10
   1  -6   0    0.00    0.22
   0  -6   0   25.80    1.62
   0  -6   0   26.89    1.70
   0  -6   0   25.06    1.47
   0  -6   0   27.78    1.79
   0  -6   0   23.79    1.42
  -1  -6   0    1.13    0.12
  -1  -6   0    1.32    0.11
  -1  -6   0    1.34    0.20
  -1  -6   0    1.27    0.11
  -1  -6   0    1.59    0.32
  -1  -6   0    1.00    0.16
  -2  -6   0   -0.32    0.21
  -2  -6   0    0.02    0.11
  -2  -6   0   -0.02    0.05
  -2  -6   0    0.27    0.17
  -2  -6   0    0.06    0.05
  -2  -6   0   -0.07    0.07
  -2  -6   0    0.05    0.03
  -2  -6   0    0.23    0.17
  -3  -6   0    2.62    0.18
  -3  -6   0    2.48    0.34
  -3  -6   0    2.73    0.21
  -3  -6   0    3.10    0.20
  -3  -6   0    2.98    0.22
  -4  -6   0    4.09    0.27
  -4  -6   0    4.13    0.28
  -4  -6   0    4.31    0.26
  -4  -6   0    4.04    0.27
  -5  -6   0    5.36    0.32
  -5  -6   0    5.38    0.30
  -5  -6   0    5.44    0.32
  -5  -6   0    4.72    0.32
  -6  -6   0   10.52    0.57
  -6  -6   0   10.11    0.57
  -9   7   0    0.63    0.12
  -9   7   0    0.51    0.09
  -8   7   0   -0.05    0.08
  -8   7   0   -0.01    0.06
  -8   7   0    0.09    0.11
  -8   7   0    0.06    0.12
  -7   7   0    1.48    0.17
  -7   7   0    1.74    0.17
  -7   7   0    1.74    0.19
  -7   7   0    1.42    0.19
  -6   7   0   11.97    0.86
  -6   7   0   12.96    0.75
  -6   7   0   11.88    0.91
  -6   7   0   13.69    0.74
  -6   7   0   13.49    0.87
  -6   7   0   12.80    0.73
  -5   7   0    3.71    0.25
  -5   7   0    4.08    0.30
  -5   7   0    3.91    0.27
  -5   7   0    3.36    0.40
  -5   7   0    3.92    0.37
  -4   7   0    8.18    0.56
  -4   7   0    7.73    0.47
  -3   7   0    0.49    0.07
   1  -7   0    4.34    0.55
   1  -7   0    4.78    0.30
   0  -7   0   49.47    3.20
   0  -7   0   52.06    2.83
   0  -7   0   55.72    2.95
   0  -7   0   48.36    3.45
  -1  -7   0    1.29    0.16
  -1  -7   0    1.82    0.15
  -1  -7   0    1.33    0.24
  -1  -7   0    1.64    0.13
  -1  -7   0    1.73    0.14
  -1  -7   0    1.73    0.23
  -2  -7   0   -0.04    0.06
  -2  -7   0    0.17    0.09
  -2  -7   0   -0.02    0.07
  -2  -7   0    0.07    0.07
  -3  -7   0    0.17    0.08
  -3  -7   0    0.23    0.08
  -3  -7   0    0.11    0.10
  -3  -7   0    0.12    0.05
  -4  -7   0   -0.03    0.09
  -4  -7   0    0.08    0.06
  -4  -7   0    0.08    0.07
  -5  -7   0    1.65    0.13
  -5  -7   0    1.51    0.14
  -9   8   0    1.53    0.18
  -8   8   0    6.27    0.47
  -8   8   0    5.52    0.36
  -8   8   0    6.44    0.44
  -8   8   0    6.46    0.38
  -7   8   0    3.41    0.32
  -7   8   0    3.26    0.24
  -7   8   0    3.37    0.29
  -7   8   0    3.77    0.27
  -6   8   0    4.86    0.37
  -6   8   0    5.85    0.35
  -6   8   0    6.40    0.37
  -5   8   0    0.01    0.10
  -5   8   0    0.05    0.07
  -4   8   0   22.02    1.27
   2  -8   0    0.30    0.08
   1  -8   0    0.18    0.08
   1  -8   0    0.20    0.07
   0  -8   0    6.06    0.35
   0  -8   0    5.49    0.35
  -1  -8   0    4.03    0.26
  -1  -8   0    3.82    0.24
  -1  -8   0    4.16    0.27
  -1  -8   0    4.09    0.26
  -2  -8   0    7.05    0.42
  -2  -8   0    7.15    0.41
  -2  -8   0    7.18    0.42
  -3  -8   0    1.94    0.17
  -3  -8   0    1.86    0.16
  -4  -8   0    2.85    0.19
  -4  -8   0    3.07    0.18
  -9   9   0    1.16    0.11
  -8   9   0    2.10    0.15
  -8   9   0    2.14    0.24
  -7   9   0    4.45    0.29
  -7   9   0    3.75    0.35
  -7   9   0    3.75    0.26
  -6   9   0    0.13    0.07
  -6   9   0    0.07    0.10
  -5   9   0    1.75    0.16
  -5   9   0    1.70    0.21
  -4   9   0    0.13    0.07
   3  -9   0    4.99    0.30
  -3   9   0    4.18    0.30
   2  -9   0    0.47    0.09
   1  -9   0    4.94    0.32
   1  -9   0    5.13    0.32
   0  -9   0    1.69    0.15
   0  -9   0    1.67    0.17
   0  -9   0    1.60    0.13
  -1  -9   0   15.53    0.86
  -1  -9   0   15.10    0.86
  -1  -9   0   15.66    0.85
  -2  -9   0    1.57    0.15
  -2  -9   0    1.55    0.15
  -3  -9   0    1.17    0.11
  -3  -9   0    1.33    0.11
  -7  10   0    5.03    0.38
  -7  10   0    4.45    0.29
  -6  10   0    5.29    0.33
  -5  10   0    0.70    0.12
  -5  10   0    0.83    0.09
  -4  10   0    3.43    0.24
   3 -10   0    1.23    0.12
  -3  10   0    0.86    0.11
   2 -10   0    0.07    0.07
   2 -10   0    0.02    0.07
   1 -10   0    4.01    0.26
   1 -10   0    4.07    0.26
   0 -10   0    3.86    0.25
   0 -10   0    3.87    0.24
  -1 -10   0    1.10    0.12
  -1 -10   0    0.96    0.11
  -6  11   0    0.22    0.11
  -6  11   0    0.24    0.07
  -5  11   0    2.39    0.17
  -4  11   0    0.54    0.07
   3 -11   0    1.61    0.14
  -3  11   0    1.50    0.14
   2 -11   0    7.49    0.44
   2 -11   0    7.84    0.43
   1 -11   0   12.22    0.69
   1 -11   0   12.78    0.68
   1 -11   1    9.47    0.53
   1 -11   1    9.63    0.54
   2 -11   1    3.59    0.22
   2 -11   1    3.71    0.23
  -3  11  -1    0.17    0.06
   3 -11   1    0.28    0.07
   3 -11   1    0.37    0.07
  -4  11  -1    0.57    0.09
  -5  11  -1    0.00    0.07
  -5  11  -1    0.12    0.10
  -5  11  -1    0.11    0.06
  -6  11  -1    6.45    0.43
  -6  11  -1    4.83    0.33
  -1 -10   1    3.35    0.19
  -1 -10   1    3.22    0.21
  -1 -10   1    3.04    0.20
   0 -10   1    7.41    0.41
   0 -10   1    6.63    0.40
   1 -10   1    5.64    0.32
   1 -10   1    5.02    0.32
   2 -10   1    7.00    0.43
  -3  10  -1    0.36    0.09
   3 -10   1    0.25    0.08
  -4  10  -1    0.01    0.08
  -5  10  -1   11.77    0.65
  -5  10  -1   10.08    0.64
  -6  10  -1    2.57    0.22
  -6  10  -1    3.15    0.28
  -7  10  -1    5.95    0.46
  -7  10  -1    6.10    0.36
  -8  10  -1   12.85    0.71
  -8  10  -1   12.51    0.88
  -3  -9   1    0.64    0.07
  -3  -9   1    0.47    0.07
  -2  -9   1    1.17    0.10
  -2  -9   1    1.20    0.13
  -2  -9   1    0.95    0.10
  -1  -9   1    1.68    0.16
  -1  -9   1    2.00    0.17
  -1  -9   1    1.89    0.15
   0  -9   1    6.36    0.38
   0  -9   1    6.62    0.38
   0  -9   1    6.02    0.38
   1  -9   1    7.72    0.51
   1  -9   1    9.26    0.50
   2  -9   1    0.12    0.06
  -3   9  -1    1.22    0.13
   3  -9   1    1.14    0.14
  -4   9  -1    0.32    0.08
  -5   9  -1    1.08    0.13
  -5   9  -1    1.46    0.15
  -6   9  -1    2.95    0.24
  -6   9  -1    3.08    0.21
  -7   9  -1    5.93    0.46
  -7   9  -1    5.65    0.35
  -8   9  -1   22.32    1.53
  -9   9  -1    1.69    0.13
  -4  -8   1    3.24    0.20
  -4  -8   1    3.10    0.20
  -4  -8   1    3.12    0.20
  -3  -8   1    0.43    0.05
  -3  -8   1    0.27    0.09
  -3  -8   1    0.46    0.08
  -3  -8   1    0.34    0.08
  -2  -8   1    0.20    0.09
  -2  -8   1    0.16    0.08
  -2  -8   1    0.18    0.06
  -2  -8   1    0.26    0.08
  -1  -8   1    2.82    0.20
  -1  -8   1    2.88    0.19
  -1  -8   1    2.98    0.22
  -1  -8   1    2.71    0.21
   0  -8   1   21.19    1.24
   0  -8   1   22.03    1.20
   1  -8   1   24.84    1.43
   2  -8   1    2.88    0.21
  -3   8  -1    0.01    0.07
  -4   8  -1    5.85    0.37
  -5   8  -1    1.11    0.14
  -5   8  -1    1.15    0.13
  -6   8  -1    6.64    0.42
  -6   8  -1    6.48    0.41
  -6   8  -1    7.19    0.43
  -7   8  -1    0.14    0.10
  -7   8  -1    0.01    0.08
  -7   8  -1    0.09    0.10
  -7   8  -1    0.04    0.13
  -8   8  -1    0.38    0.10
  -8   8  -1    0.53    0.14
  -8   8  -1    0.40    0.06
  -8   8  -1    0.67    0.11
  -9   8  -1    0.24    0.09
  -5  -7   1    1.36    0.13
  -5  -7   1    1.53    0.11
  -5  -7   1    1.61    0.14
  -4  -7   1    0.18    0.08
  -4  -7   1    0.29    0.07
  -4  -7   1    0.04    0.08
  -3  -7   1    2.10    0.18
  -3  -7   1    2.30    0.17
  -3  -7   1    2.16    0.15
  -3  -7   1    2.01    0.19
  -2  -7   1   13.07    0.72
  -2  -7   1   12.69    0.72
  -2  -7   1   12.10    0.71
  -2  -7   1   13.49    0.72
  -1  -7   1    1.26    0.13
  -1  -7   1    1.16    0.11
  -1  -7   1    1.35    0.23
  -1  -7   1    1.53    0.21
  -1  -7   1    0.95    0.11
  -1  -7   1    1.20    0.35
  -1  -7   1    1.22    0.12
   0  -7   1   21.07    1.56
   0  -7   1   22.46    1.40
   0  -7   1   20.55    1.24
   0  -7   1   22.34    1.20
   1  -7   1   11.39    0.67
  -3   7  -1    0.15    0.07
  -4   7  -1    0.10    0.14
  -4   7  -1    0.11    0.10
  -4   7  -1   -0.08    0.17
  -4   7  -1   -0.03    0.24
  -4   7  -1    0.06    0.06
  -5   7  -1    2.33    0.20
  -5   7  -1    2.12    0.20
  -5   7  -1    2.34    0.28
  -5   7  -1    1.48    0.33
  -5   7  -1    2.25    0.29
  -5   7  -1    2.32    0.17
  -6   7  -1    3.75    0.29
  -6   7  -1    4.77    0.28
  -6   7  -1    3.68    0.41
  -6   7  -1    3.94    0.42
  -6   7  -1    4.28    0.26
  -6   7  -1    4.41    0.33
  -7   7  -1   -0.11    0.13
  -7   7  -1    0.02    0.08
  -7   7  -1   -0.07    0.10
  -7   7  -1   -0.09    0.11
  -8   7  -1   10.59    0.59
  -8   7  -1   10.89    0.71
  -8   7  -1    9.30    0.74
  -9   7  -1    3.51    0.29
 -10   7  -1    0.65    0.09
  -6  -6   1    6.57    0.35
  -6  -6   1    5.68    0.35
  -5  -6   1    5.28    0.32
  -5  -6   1    4.95    0.32
  -5  -6   1    5.34    0.31
  -4  -6   1    4.88    0.31
  -4  -6   1    4.69    0.28
  -4  -6   1    4.79    0.30
  -4  -6   1    4.97    0.30
  -3  -6   1    1.33    0.26
  -3  -6   1    1.57    0.16
  -3  -6   1    1.62    0.14
  -3  -6   1    1.73    0.16
  -3  -6   1    0.97    0.23
  -3  -6   1    1.49    0.13
  -2  -6   1   -0.01    0.11
  -2  -6   1   -0.03    0.05
  -2  -6   1    0.06    0.15
  -2  -6   1   -0.02    0.08
  -2  -6   1    0.04    0.06
  -2  -6   1    0.15    0.18
  -2  -6   1    0.01    0.04
  -2  -6   1   -0.09    0.22
  -1  -6   1   22.52    1.49
  -1  -6   1   22.91    1.23
  -1  -6   1   20.50    1.22
  -1  -6   1   21.09    1.28
  -1  -6   1   23.23    1.42
  -1  -6   1   23.89    1.58
   0  -6   1    8.09    0.50
   0  -6   1    9.05    0.73
   0  -6   1    8.65    0.61
   1  -6   1   14.70    0.97
  -3   6  -1    4.28    0.35
  -3   6  -1    4.77    0.50
  -3   6  -1    5.40    0.46
  -4   6  -1    5.99    0.47
  -4   6  -1    7.48    0.52
  -4   6  -1    6.26    0.39
  -4   6  -1    6.79    0.61
  -4   6  -1    6.64    0.40
  -5   6  -1   24.68    1.60
  -5   6  -1   22.12    1.25
  -5   6  -1   22.96    1.45
  -5   6  -1   22.04    1.47
  -5   6  -1   22.68    1.30
  -5   6  -1   21.11    1.37
  -5   6  -1   22.94    1.26
  -6   6  -1    0.08    0.17
  -6   6  -1    0.03    0.04
  -6   6  -1    0.01    0.22
  -6   6  -1    0.03    0.07
  -6   6  -1    0.00    0.10
  -6   6  -1    0.12    0.15
  -6   6  -1    0.06    0.08
  -7   6  -1   19.87    1.45
  -7   6  -1   23.33    1.17
  -7   6  -1   21.05    1.39
  -7   6  -1   18.36    1.38
  -7   6  -1   21.88    1.34
  -7   6  -1   21.95    1.17
  -8   6  -1    2.49    0.20
  -8   6  -1    3.05    0.28
  -8   6  -1    2.48    0.27
  -9   6  -1    4.19    0.33
  -9   6  -1    3.81    0.33
 -10   6  -1    0.27    0.10
 -10   6  -1   -0.10    0.08
  -7  -5   1   10.52    0.56
  -7  -5   1    9.86    0.56
  -6  -5   1    5.95    0.33
  -6  -5   1    5.94    0.36
  -6  -5   1    5.76    0.35
  -5  -5   1   12.82    0.70
  -5  -5   1   11.72    0.70
  -5  -5   1   12.40    0.69
  -5  -5   1   12.65    0.69
  -4  -5   1    5.03    0.32
  -4  -5   1    5.45    0.31
  -4  -5   1    4.99    0.32
  -4  -5   1    4.46    0.46
  -4  -5   1    4.41    0.45
  -4  -5   1    5.06    0.32
  -4  -5   1    5.43    0.30
  -3  -5   1    2.19    0.15
  -3  -5   1    1.98    0.16
  -3  -5   1    2.03    0.29
  -3  -5   1    2.13    0.27
  -3  -5   1    2.18    0.32
  -3  -5   1    2.10    0.17
  -3  -5   1    2.23    0.23
  -3  -5   1    2.10    0.15
  -3  -5   1    2.20    0.16
  -2  -5   1    4.30    0.45
  -2  -5   1    4.44    0.37
  -2  -5   1    4.14    0.25
  -2  -5   1    3.81    0.25
  -2  -5   1    4.65    0.33
  -2  -5   1    4.03    0.24
  -2  -5   1    3.90    0.25
  -2  -5   1    4.25    0.36
  -1  -5   1   43.65    2.70
  -1  -5   1   43.01    2.90
  -1  -5   1   44.56    2.84
   0  -5   1    1.75    0.20
   0  -5   1    2.63    0.34
   0  -5   1    1.88    0.20
  -1   5  -1    0.08    0.17
   1  -5   1   -0.10    0.14
   1  -5   1    0.08    0.08
  -2   5  -1    2.79    0.41
  -2   5  -1    3.47    0.41
  -2   5  -1    2.94    0.24
  -2   5  -1    3.76    0.35
   2  -5   1    2.81    0.24
  -3   5  -1    0.65    0.13
  -3   5  -1    0.84    0.20
  -3   5  -1    0.98    0.17
  -4   5  -1    0.01    0.12
  -4   5  -1   -0.10    0.19
  -4   5  -1   -0.05    0.12
  -5   5  -1    3.06    0.31
  -5   5  -1    3.16    0.20
  -5   5  -1    2.90    0.26
  -5   5  -1    3.81    0.41
  -5   5  -1    3.18    0.22
  -5   5  -1    3.53    0.30
  -5   5  -1    3.32    0.21
  -6   5  -1   10.98    0.74
  -6   5  -1   11.41    0.62
  -6   5  -1   10.55    0.78
  -6   5  -1   11.47    0.74
  -6   5  -1    9.95    0.84
  -6   5  -1   11.02    0.75
  -6   5  -1   11.48    0.74
  -6   5  -1   11.25    0.62
  -7   5  -1    0.94    0.10
  -7   5  -1    0.77    0.12
  -7   5  -1    1.45    0.25
  -7   5  -1    1.08    0.15
  -7   5  -1    0.82    0.14
  -7   5  -1    1.06    0.16
  -7   5  -1    1.00    0.10
  -7   5  -1    1.20    0.16
  -8   5  -1   14.22    0.98
  -8   5  -1   15.56    0.81
  -8   5  -1   13.54    0.97
  -9   5  -1    0.19    0.13
  -9   5  -1   -0.06    0.11
 -10   5  -1    0.24    0.09
 -10   5  -1    0.16    0.10
  -8  -4   1    6.59    0.37
  -7  -4   1    2.08    0.17
  -7  -4   1    1.43    0.15
  -6  -4   1    6.31    0.37
  -6  -4   1    6.24    0.40
  -6  -4   1    6.70    0.39
  -6  -4   1    7.14    0.40
  -5  -4   1   18.35    0.97
  -5  -4   1   18.13    0.96
  -5  -4   1   15.97    1.15
  -5  -4   1   17.38    0.99
  -5  -4   1   17.71    0.97
  -4  -4   1   21.06    1.20
  -4  -4   1   22.38    1.18
  -4  -4   1   21.42    1.45
  -4  -4   1   21.47    1.37
  -4  -4   1   21.37    1.45
  -4  -4   1   21.66    1.17
  -4  -4   1   21.39    1.18
  -4  -4   1   20.80    1.34
  -4  -4   1   21.13    1.16
  -3  -4   1    2.37    0.17
  -3  -4   1    2.58    0.28
  -3  -4   1    2.54    0.16
  -3  -4   1    2.43    0.16
  -3  -4   1    2.38    0.17
  -3  -4   1    2.33    0.15
  -3  -4   1    2.85    0.29
  -3  -4   1    2.52    0.34
  -3  -4   1    2.45    0.16
  -3  -4   1    2.82    0.22
  -2  -4   1   17.36    1.12
  -2  -4   1   17.94    1.12
  -2  -4   1   18.27    1.23
  -2  -4   1   17.73    1.19
  -1  -4   1    0.56    0.11
  -1  -4   1    0.40    0.09
  -1  -4   1    0.29    0.13
  -1  -4   1    0.46    0.17
   0   4  -1    3.35    0.36
   0   4  -1    2.71    0.30
   0  -4   1    4.07    0.28
   0  -4   1    3.21    0.35
   0  -4   1    4.27    0.36
  -1   4  -1    5.99    0.51
  -1   4  -1    6.43    0.56
  -1   4  -1    5.70    0.53
  -1   4  -1    6.28    0.41
  -1   4  -1    6.60    0.47
   1  -4   1    6.45    0.54
   1  -4   1    7.80    0.57
   1  -4   1    6.65    0.45
   1  -4   1    7.11    0.45
  -2   4  -1  154.25    8.83
  -2   4  -1  160.01    9.94
  -2   4  -1  162.37    9.40
  -2   4  -1  158.81   10.12
  -2   4  -1  150.82   10.11
   2  -4   1  145.13    9.94
   2  -4   1  158.56   10.12
   2  -4   1  151.87    9.39
   2  -4   1  149.86    9.87
  -3   4  -1    1.68    0.20
  -3   4  -1    1.38    0.21
  -3   4  -1    1.56    0.19
  -3   4  -1    1.31    0.22
  -3   4  -1    1.75    0.25
   3  -4   1    1.63    0.24
  -4   4  -1    1.46    0.19
  -4   4  -1    1.49    0.18
  -4   4  -1    1.24    0.21
  -5   4  -1    0.26    0.11
  -5   4  -1    0.26    0.17
  -5   4  -1    0.31    0.13
  -6   4  -1    1.16    0.10
  -6   4  -1    1.30    0.17
  -6   4  -1    1.08    0.11
  -6   4  -1    1.21    0.12
  -6   4  -1    1.18    0.22
  -6   4  -1    1.39    0.14
  -6   4  -1    0.89    0.13
  -6   4  -1    0.98    0.13
  -6   4  -1    1.64    0.22
  -7   4  -1   20.98    1.12
  -7   4  -1   20.18    1.35
  -7   4  -1   19.96    1.29
  -7   4  -1   20.27    1.35
  -7   4  -1   21.14    1.13
  -8   4  -1    0.08    0.06
  -8   4  -1   -0.01    0.13
  -8   4  -1    0.09    0.11
  -8   4  -1   -0.09    0.11
  -9   4  -1    2.86    0.26
  -9   4  -1    2.41    0.29
  -9   4  -1    2.78    0.23
 -10   4  -1    0.57    0.11
 -10   4  -1    0.41    0.12
  -8  -3   1    0.73    0.10
  -8  -3   1    0.85    0.09
  -7  -3   1    0.05    0.08
  -7  -3   1    0.09    0.10
  -6  -3   1    2.04    0.15
  -6  -3   1    2.10    0.19
  -6  -3   1    2.10    0.18
  -6  -3   1    2.20    0.18
  -5  -3   1   58.02    3.04
  -5  -3   1   57.54    3.02
  -5  -3   1   54.10    3.08
  -5  -3   1   57.22    3.12
  -5  -3   1   56.42    3.07
  -5  -3   1   55.20    3.43
  -4  -3   1   10.31    0.67
  -4  -3   1   10.21    0.58
  -4  -3   1   10.19    0.57
  -4  -3   1   10.43    0.58
  -4  -3   1   11.05    0.71
  -4  -3   1   10.18    0.58
  -4  -3   1    9.93    0.59
  -4  -3   1   10.81    0.75
  -4  -3   1   10.85    0.75
  -3  -3   1   20.66    1.38
  -3  -3   1   21.21    1.40
  -3  -3   1   20.10    1.30
  -3  -3   1   21.58    1.30
  -2  -3   1    7.62    0.54
  -2  -3   1    7.55    0.51
  -2  -3   1    6.99    0.57
  -2  -3   1    7.87    0.57
  -2  -3   1    8.09    0.50
   1   3  -1    0.13    0.12
   1   3  -1    0.14    0.12
  -1  -3   1    0.24    0.11
  -1  -3   1    0.17    0.12
  -1  -3   1    0.24    0.08
  -1  -3   1    0.12    0.09
  -1  -3   1    0.10    0.12
   0   3  -1    1.04    0.16
   0   3  -1    1.07    0.10
   0   3  -1    1.20    0.14
   0   3  -1    0.96    0.18
   0  -3   1    1.32    0.13
  -1   3  -1    9.06    0.56
  -1   3  -1    9.29    0.61
  -1   3  -1    9.04    0.69
  -1   3  -1   10.23    0.70
  -1   3  -1    9.40    0.66
   1  -3   1    9.21    0.60
   1  -3   1    9.21    0.66
   1  -3   1    9.03    0.61
  -2   3  -1   13.17    0.78
  -2   3  -1   13.14    0.93
  -2   3  -1   12.27    0.89
  -2   3  -1   13.40    0.92
  -2   3  -1   12.92    0.82
   2  -3   1   11.97    0.82
   2  -3   1   13.40    0.92
   2  -3   1   13.83    0.92
  -3   3  -1    0.74    0.15
  -3   3  -1    0.71    0.12
  -3   3  -1    0.97    0.17
  -3   3  -1    0.70    0.11
  -3   3  -1    0.49    0.12
   3  -3   1    0.85    0.16
  -4   3  -1   14.23    0.88
  -4   3  -1   14.83    0.92
  -4   3  -1   14.68    0.99
  -4   3  -1   14.36    0.92
  -5   3  -1   10.79    0.69
  -5   3  -1   10.92    0.76
  -5   3  -1   10.69    0.69
  -5   3  -1   10.97    0.72
  -6   3  -1    8.63    0.47
  -6   3  -1    8.44    0.57
  -6   3  -1    9.26    0.59
  -6   3  -1    8.53    0.59
  -6   3  -1    8.27    0.61
  -6   3  -1    7.66    0.46
  -6   3  -1    8.36    0.57
  -6   3  -1    8.34    0.47
  -6   3  -1    8.18    0.53
  -6   3  -1    8.48    0.47
  -7   3  -1    1.98    0.14
  -7   3  -1    1.42    0.27
  -7   3  -1    1.77    0.24
  -7   3  -1    2.08    0.22
  -7   3  -1    1.81    0.18
  -7   3  -1    1.65    0.23
  -8   3  -1   29.07    1.58
  -8   3  -1   27.96    1.90
  -8   3  -1   29.09    1.59
  -8   3  -1   30.90    1.91
  -9   3  -1    0.29    0.11
  -9   3  -1    0.17    0.14
  -9   3  -1    0.31    0.11
 -10   3  -1    0.52    0.10
 -10   3  -1    0.95    0.13
  -9  -2   1    0.03    0.07
  -8  -2   1   24.08    1.37
  -8  -2   1   26.27    1.36
  -7  -2   1    0.31    0.05
  -7  -2   1    0.33    0.12
  -7  -2   1    0.27    0.11
  -7  -2   1    0.19    0.09
  -6  -2   1   55.37    2.91
  -6  -2   1   54.80    2.82
  -6  -2   1   49.00    3.20
  -6  -2   1   53.56    2.84
  -6  -2   1   50.74    2.86
  -6  -2   1   52.09    3.40
  -5  -2   1   18.82    1.16
  -5  -2   1   17.56    1.19
  -5  -2   1   18.22    1.01
  -5  -2   1   18.31    0.98
  -5  -2   1   17.61    0.98
  -5  -2   1   18.29    0.98
  -5  -2   1   18.92    1.11
  -5  -2   1   16.23    1.17
  -5  -2   1   17.75    0.98
  -4  -2   1   31.31    1.95
  -4  -2   1   31.67    2.09
  -4  -2   1   32.12    1.96
  -4  -2   1   32.36    2.09
  -3  -2   1   14.73    0.98
  -3  -2   1   13.78    0.90
  -3  -2   1   14.35    0.91
  -3  -2   1   15.05    0.97
   2   2  -1   25.63    1.81
   2   2  -1   27.04    1.79
  -2  -2   1   26.77    1.78
  -2  -2   1   27.36    1.64
  -2  -2   1   27.75    1.80
  -2  -2   1   23.22    1.64
  -2  -2   1   27.79    1.75
  -2  -2   1   28.08    1.73
  -2  -2   1   26.35    1.61
   1   2  -1   15.40    1.04
   1   2  -1   17.30    1.07
   1   2  -1   14.61    1.02
   1   2  -1   13.80    0.95
  -1  -2   1   15.58    0.94
  -1  -2   1   15.29    1.03
  -1  -2   1   12.67    1.04
  -1  -2   1   16.39    1.00
  -1  -2   1   16.26    1.02
   0   2  -1    2.79    0.28
   0   2  -1    2.70    0.17
   0   2  -1    2.42    0.24
   0   2  -1    2.43    0.21
   0   2  -1    3.16    0.26
   0  -2   1    2.81    0.24
   0  -2   1    3.09    0.27
   0  -2   1    2.74    0.20
  -1   2  -1  376.27   21.71
  -1   2  -1  346.72   21.69
  -1   2  -1  334.20   21.40
  -1   2  -1  324.74   20.23
  -1   2  -1  306.75   19.00
   1  -2   1  326.90   20.21
   1  -2   1  313.70   21.36
   1  -2   1  331.65   21.69
  -2   2  -1    2.28    0.21
  -2   2  -1    2.37    0.24
  -2   2  -1    2.70    0.23
  -2   2  -1    2.33    0.24
  -2   2  -1    1.91    0.17
  -2   2  -1    2.65    0.19
  -2   2  -1    2.44    0.19
   2  -2   1    2.46    0.24
   2  -2   1    2.69    0.23
  -3   2  -1    8.06    0.52
  -3   2  -1    8.09    0.57
  -3   2  -1    9.15    0.55
  -3   2  -1    8.26    0.60
  -3   2  -1    8.01    0.60
  -3   2  -1    9.18    0.53
  -3   2  -1    9.44    0.58
  -3   2  -1    7.56    0.55
  -3   2  -1    6.95    0.53
   3  -2   1    8.83    0.59
   3  -2   1    8.91    0.60
  -4   2  -1   28.45    1.59
  -4   2  -1   29.71    1.77
  -4   2  -1   25.34    1.80
  -4   2  -1   24.08    1.66
  -4   2  -1   30.27    1.66
  -4   2  -1   25.87    1.76
   4  -2   1   25.70    1.80
  -5   2  -1    1.27    0.16
  -5   2  -1    1.42    0.18
  -5   2  -1    1.65    0.20
  -5   2  -1    1.00    0.14
  -5   2  -1    1.12    0.11
  -5   2  -1    0.98    0.11
  -6   2  -1    3.13    0.27
  -6   2  -1    3.14    0.28
  -6   2  -1    3.49    0.31
  -6   2  -1    3.49    0.20
  -6   2  -1    3.49    0.22
  -6   2  -1    3.43    0.23
  -6   2  -1    3.76    0.35
  -7   2  -1   26.30    1.83
  -7   2  -1   29.92    1.84
  -7   2  -1   27.05    1.77
  -7   2  -1   28.07    1.53
  -7   2  -1   30.33    1.54
  -7   2  -1   27.65    1.54
  -8   2  -1    2.05    0.19
  -8   2  -1    1.82    0.20
  -8   2  -1    1.66    0.21
  -8   2  -1    1.79    0.24
  -9   2  -1    4.84    0.35
  -9   2  -1    4.43    0.31
 -10   2  -1    0.02    0.11
 -10   2  -1    0.00    0.08
  -9  -1   1   12.30    0.68
  -9  -1   1   12.15    0.81
  -8  -1   1    3.31    0.23
  -8  -1   1    3.11    0.28
  -8  -1   1    2.74    0.22
  -7  -1   1   11.34    0.61
  -7  -1   1   11.01    0.62
  -7  -1   1   11.06    0.62
  -7  -1   1   10.78    0.76
  -6  -1   1    0.38    0.08
  -6  -1   1    0.09    0.11
  -6  -1   1    0.09    0.08
  -6  -1   1    0.06    0.07
  -6  -1   1   -0.01    0.18
  -6  -1   1    0.23    0.05
  -5  -1   1   85.63    4.75
  -5  -1   1   74.32    4.32
  -5  -1   1   84.49    4.81
  -5  -1   1   76.12    4.22
  -5  -1   1   76.74    4.29
  -5  -1   1   80.22    4.36
  -5  -1   1   79.69    5.09
  -5  -1   1   78.62    4.25
  -5  -1   1   76.43    5.09
  -4  -1   1   21.02    1.36
  -4  -1   1   22.41    1.36
  -4  -1   1   22.90    1.46
   3   1  -1   60.65    4.09
  -3  -1   1   65.89    3.77
  -3  -1   1   64.75    4.00
  -3  -1   1   67.88    3.99
  -3  -1   1   60.82    4.06
  -3  -1   1   65.11    3.70
  -3  -1   1   55.78    4.00
  -3  -1   1   58.17    3.55
  -3  -1   1   61.82    4.08
  -3  -1   1   57.90    3.78
   2   1  -1   15.59    0.99
   2   1  -1   14.46    0.96
  -2  -1   1   14.52    0.94
  -2  -1   1   13.24    0.95
  -2  -1   1   13.10    0.88
  -2  -1   1   14.32    0.87
  -2  -1   1   14.40    0.96
  -2  -1   1   15.00    0.98
  -2  -1   1   14.40    0.95
  -2  -1   1   13.25    0.82
  -2  -1   1   14.83    0.88
   1   1  -1    0.05    0.10
   1   1  -1    0.05    0.05
   1   1  -1    0.02    0.07
  -1  -1   1    0.01    0.03
  -1  -1   1    0.09    0.07
  -1  -1   1    0.07    0.05
  -1  -1   1    0.00    0.02
  -1  -1   1    0.03    0.08
  -1  -1   1    0.13    0.05
   0   1  -1   28.23    1.73
   0   1  -1   24.99    1.60
   0   1  -1   24.14    1.50
   0  -1   1   27.19    1.72
   0  -1   1   26.26    1.60
   0  -1   1   25.55    1.68
  -1   1  -1    0.75    0.08
  -1   1  -1    0.61    0.08
  -1   1  -1    0.70    0.07
  -1   1  -1    0.84    0.11
  -1   1  -1    0.86    0.11
  -1   1  -1    0.79    0.09
  -1   1  -1    0.64    0.09
  -1   1  -1    0.88    0.10
   1  -1   1    0.81    0.11
   1  -1   1    0.98    0.11
  -2   1  -1    2.68    0.22
  -2   1  -1    2.88    0.21
  -2   1  -1    2.40    0.20
  -2   1  -1    2.87    0.18
  -2   1  -1    2.26    0.18
  -2   1  -1    2.70    0.21
  -2   1  -1    2.62    0.20
  -2   1  -1    2.48    0.20
  -2   1  -1    2.82    0.21
   2  -1   1    3.16    0.21
   2  -1   1    2.76    0.22
  -3   1  -1   20.01    1.29
  -3   1  -1   19.88    1.29
  -3   1  -1   19.50    1.32
  -3   1  -1   21.24    1.21
  -3   1  -1   19.38    1.32
  -3   1  -1   19.29    1.17
  -3   1  -1   18.16    1.22
  -3   1  -1   18.98    1.28
  -3   1  -1   21.13    1.22
   3  -1   1   20.60    1.32
   3  -1   1   20.83    1.31
  -4   1  -1   12.09    0.82
  -4   1  -1   12.88    0.80
  -4   1  -1   12.78    0.82
  -4   1  -1   12.33    0.76
  -5   1  -1    0.22    0.10
  -5   1  -1    0.15    0.13
  -6   1  -1    7.93    0.43
  -6   1  -1    6.59    0.51
  -6   1  -1    7.81    0.55
  -6   1  -1    7.70    0.42
  -6   1  -1    7.08    0.41
  -6   1  -1    6.77    0.50
  -6   1  -1    7.22    0.40
  -6   1  -1    6.98    0.51
  -7   1  -1    0.35    0.09
  -7   1  -1   -0.04    0.19
  -7   1  -1    0.22    0.10
  -7   1  -1    0.25    0.13
  -7   1  -1    0.26    0.09
  -8   1  -1    2.69    0.21
  -8   1  -1    2.45    0.28
  -8   1  -1    2.43    0.22
  -9   1  -1    5.19    0.32
  -9   1  -1    4.76    0.40
 -10   1  -1    1.77    0.17
 -10   1  -1    1.38    0.13
  -9   0   1    0.36    0.12
  -9   0   1    0.16    0.09
  -8   0   1    1.20    0.13
  -8   0   1    1.54    0.18
  -8   0   1    1.22    0.14
  -7   0   1    3.97    0.33
  -7   0   1    3.93    0.26
  -7   0   1    3.95    0.27
  -7   0   1    3.97    0.23
  -7   0   1    3.41    0.41
  -6   0   1   27.00    1.48
  -6   0   1   27.58    1.45
  -6   0   1   25.87    1.43
  -6   0   1   26.99    1.44
  -6   0   1   25.06    1.73
  -6   0   1   26.51    1.66
  -5   0   1   -0.08    0.12
  -5   0   1    0.09    0.07
  -5   0   1    0.06    0.10
  -5   0   1    0.16    0.09
  -4   0   1   67.84    4.77
  -4   0   1   69.23    4.17
  -4   0   1   80.29    4.68
  -4   0   1   68.85    4.68
  -4   0   1   66.54    4.42
  -4   0   1   77.92    4.42
  -4   0   1   78.17    4.34
   3   0  -1   16.80    1.11
   3   0  -1   17.55    1.14
  -3   0   1   14.72    1.09
  -3   0   1   17.69    1.10
  -3   0   1   15.86    1.13
  -3   0   1   13.85    1.02
  -3   0   1   17.45    1.01
  -3   0   1   16.42    1.11
  -3   0   1   16.74    0.97
  -3   0   1   17.32    1.02
   2   0  -1  160.46   10.21
   2   0  -1  161.00   10.22
  -2   0   1  156.80   10.20
  -2   0   1  158.38   10.05
  -2   0   1  149.38    9.32
  -2   0   1  153.83   10.21
  -2   0   1  135.75    9.52
  -2   0   1  174.93   10.13
  -2   0   1  162.21    9.57
   1   0  -1   61.81    3.87
   1   0  -1   55.95    3.80
   1   0  -1   63.61    3.86
  -1   0   1   55.41    3.61
  -1   0   1   58.91    3.53
  -1   0   1   57.36    3.80
  -1   0   1   61.33    3.86
   0   0  -1   67.03    4.15
   0   0  -1   63.56    4.37
   0   0  -1   70.82    4.44
   0   0  -1   65.41    4.35
   0   0   1   73.64    4.46
   0   0   1   63.68    4.36
   0   0   1   73.13    4.45
  -1   0  -1  152.85    9.86
  -1   0  -1  156.41    9.81
  -1   0  -1  150.99    8.80
  -1   0  -1  155.54    9.15
  -2   0  -1   90.17    5.15
  -2   0  -1   92.43    5.35
  -2   0  -1   85.73    5.73
  -2   0  -1   92.29    5.76
  -3   0  -1   62.50    3.90
  -3   0  -1   59.83    3.49
  -3   0  -1   58.59    3.88
  -3   0  -1   62.34    3.63
  -4   0  -1   20.50    1.25
  -4   0  -1   18.83    1.19
  -4   0  -1   21.75    1.34
  -5   0  -1    1.49    0.20
  -5   0  -1    1.21    0.13
  -5   0  -1    1.17    0.13
  -6   0  -1    3.54    0.23
  -6   0  -1    3.59    0.23
  -6   0  -1    3.13    0.28
  -6   0  -1    3.70    0.36
  -6   0  -1    3.52    0.23
  -6   0  -1    3.41    0.20
  -7   0  -1    2.69    0.37
  -7   0  -1    2.93    0.24
  -7   0  -1    2.95    0.29
  -7   0  -1    3.42    0.23
  -7   0  -1    3.18    0.22
  -8   0  -1    8.71    0.51
  -8   0  -1    9.27    0.51
  -8   0  -1    8.37    0.62
  -9   0  -1   13.05    0.69
  -9   0  -1   11.57    0.69
  -9   0  -1   12.71    0.83
 -10   1   1    0.11    0.09
 -10   1   1   -0.15    0.07
  -9   1   1    2.98    0.23
  -9   1   1    2.60    0.28
  -8   1   1    4.17    0.26
  -8   1   1    3.82    0.23
  -8   1   1    3.59    0.34
  -8   1   1    3.74    0.27
  -7   1   1    0.61    0.10
  -7   1   1    0.53    0.06
  -7   1   1    0.44    0.12
  -7   1   1    0.43    0.09
  -7   1   1    0.55    0.10
  -7   1   1    0.54    0.22
  -6   1   1    1.54    0.14
  -6   1   1    1.33    0.18
  -6   1   1    1.27    0.09
  -6   1   1    1.45    0.13
  -6   1   1    1.26    0.16
  -6   1   1    1.39    0.18
  -6   1   1    1.35    0.14
  -6   1   1    1.45    0.11
  -6   1   1    1.23    0.18
  -6   1   1    1.18    0.20
  -5   1   1    3.70    0.26
  -5   1   1    3.66    0.32
  -5   1   1    3.49    0.28
  -5   1   1    3.70    0.32
   4  -1  -1    1.34    0.19
  -4   1   1    1.49    0.18
  -4   1   1    1.27    0.13
  -4   1   1    1.85    0.20
  -4   1   1    1.28    0.16
  -4   1   1    1.13    0.18
  -4   1   1    1.54    0.14
  -4   1   1    1.52    0.20
  -4   1   1    1.65    0.17
   3  -1  -1    6.42    0.45
   3  -1  -1    6.43    0.48
  -3   1   1    6.03    0.45
  -3   1   1    5.33    0.44
  -3   1   1    6.96    0.42
  -3   1   1    5.88    0.39
  -3   1   1    5.18    0.40
  -3   1   1    6.45    0.46
  -3   1   1    5.72    0.47
  -3   1   1    6.96    0.40
   2  -1  -1    3.25    0.30
   2  -1  -1    3.75    0.29
   2  -1  -1    3.71    0.31
  -2   1   1    3.50    0.29
  -2   1   1    3.68    0.25
  -2   1   1    3.62    0.25
  -2   1   1    3.65    0.29
   1  -1  -1   24.89    1.71
   1  -1  -1   26.74    1.71
   1  -1  -1   24.20    1.58
  -1   1   1   24.27    1.58
  -1   1   1   25.16    1.54
  -1   1   1   29.92    1.68
   0  -1  -1   40.78    2.47
   0  -1  -1   41.26    2.66
   0  -1  -1   41.38    2.59
   0  -1  -1   40.69    2.61
   0  -1  -1   38.78    2.60
   0   1   1   38.62    2.61
   0   1   1   43.41    2.66
   0   1   1   44.37    2.66
   0   1   1   36.74    2.47
  -1  -1  -1  221.18   14.07
  -1  -1  -1  245.77   14.80
  -1  -1  -1  225.89   14.84
  -1  -1  -1  235.40   15.08
  -1  -1  -1  237.58   14.88
  -1  -1  -1  207.50   13.74
   1   1   1  233.65   15.06
   1   1   1  246.38   15.09
  -2  -1  -1   31.83    1.92
  -2  -1  -1   30.53    1.81
  -2  -1  -1   32.96    2.03
  -2  -1  -1   30.80    1.89
  -2  -1  -1   32.06    1.92
  -2  -1  -1   32.03    2.07
  -2  -1  -1   31.44    2.07
  -2  -1  -1   33.46    2.04
  -2  -1  -1   28.23    2.03
   2   1   1   31.79    2.08
   2   1   1   31.01    2.07
  -3  -1  -1  138.08    9.31
  -3  -1  -1  152.86    9.18
  -3  -1  -1  142.76    8.69
  -3  -1  -1  148.13    8.51
  -3  -1  -1  137.62    9.31
  -3  -1  -1  152.46    9.17
  -3  -1  -1  141.94    8.18
  -3  -1  -1  152.39    8.70
  -3  -1  -1  148.19    9.17
   3   1   1  126.71    9.32
   3   1   1  135.84    9.32
  -4  -1  -1   58.00    3.73
  -4  -1  -1   57.53    3.46
  -5  -1  -1    8.24    0.45
  -5  -1  -1    8.04    0.45
  -5  -1  -1    7.71    0.50
  -5  -1  -1    7.85    0.55
  -5  -1  -1    8.97    0.58
  -5  -1  -1    8.01    0.47
  -5  -1  -1    8.30    0.46
  -6  -1  -1    0.43    0.09
  -6  -1  -1    0.19    0.04
  -6  -1  -1    0.27    0.08
  -6  -1  -1    0.15    0.08
  -6  -1  -1    0.23    0.19
  -6  -1  -1    0.25    0.11
  -7  -1  -1    2.42    0.19
  -7  -1  -1    2.12    0.19
  -7  -1  -1    1.96    0.20
  -7  -1  -1    1.95    0.23
  -8  -1  -1    3.09    0.28
  -8  -1  -1    3.18    0.24
  -9  -1  -1    7.02    0.38
  -9  -1  -1    6.07    0.37
 -10   2   1    5.43    0.34
 -10   2   1    6.09    0.41
  -9   2   1    2.90    0.24
  -9   2   1    2.09    0.29
  -9   2   1    2.69    0.22
  -8   2   1    1.26    0.17
  -8   2   1    1.35    0.14
  -8   2   1    1.55    0.19
  -8   2   1    1.53    0.12
  -7   2   1    0.33    0.16
  -7   2   1    0.24    0.10
  -7   2   1    0.35    0.09
  -7   2   1    0.35    0.20
  -7   2   1    0.24    0.06
  -7   2   1    0.19    0.10
  -7   2   1    0.25    0.11
  -6   2   1    1.93    0.15
  -6   2   1    1.65    0.19
  -6   2   1    1.95    0.18
  -6   2   1    1.98    0.25
  -6   2   1    1.71    0.12
  -6   2   1    2.33    0.25
  -6   2   1    1.59    0.19
  -6   2   1    1.57    0.16
  -6   2   1    1.86    0.13
  -6   2   1    1.79    0.26
  -5   2   1    2.48    0.28
  -5   2   1    2.53    0.26
  -5   2   1    2.58    0.21
  -5   2   1    2.52    0.25
  -4   2   1    0.17    0.09
  -4   2   1    0.03    0.10
  -4   2   1    0.07    0.11
  -4   2   1    0.01    0.09
  -4   2   1    0.09    0.11
  -4   2   1    0.21    0.12
   3  -2  -1   49.81    3.13
   3  -2  -1   47.07    3.12
  -3   2   1   50.11    2.88
  -3   2   1   49.74    2.82
  -3   2   1   41.57    3.12
  -3   2   1   45.47    3.06
  -3   2   1   46.20    3.12
   2  -2  -1   31.26    2.01
   2  -2  -1   32.15    2.02
   2  -2  -1   27.19    1.85
   2  -2  -1   28.64    1.97
  -2   2   1   29.55    2.01
  -2   2   1   30.74    1.81
  -2   2   1   30.25    1.85
  -2   2   1   29.83    1.96
  -2   2   1   31.49    2.01
   1  -2  -1  951.61   61.79
   1  -2  -1  937.49   57.64
   1  -2  -1  933.44   60.91
  -1   2   1 1000.00   61.78
  -1   2   1  945.67   61.77
  -1   2   1  970.23   60.90
  -1   2   1  913.33   57.65
   0  -2  -1   24.49    1.53
   0  -2  -1   23.09    1.40
   0  -2  -1   22.83    1.49
   0  -2  -1   19.91    1.49
   0  -2  -1   22.36    1.47
   0   2   1   22.70    1.49
   0   2   1   20.62    1.40
   0   2   1   23.58    1.53
   0   2   1   25.09    1.53
  -1  -2  -1    8.46    0.58
  -1  -2  -1    7.53    0.54
  -1  -2  -1    8.49    0.59
  -1  -2  -1    8.94    0.61
   1   2   1    8.82    0.62
   1   2   1    8.88    0.62
  -2  -2  -1  365.84   24.01
  -2  -2  -1  371.35   21.97
  -2  -2  -1  354.25   24.02
  -2  -2  -1  372.86   23.75
  -2  -2  -1  333.00   22.42
  -2  -2  -1  387.71   23.75
  -2  -2  -1  390.86   22.49
  -2  -2  -1  361.54   23.67
   2   2   1  364.97   24.02
   2   2   1  397.47   24.03
  -3  -2  -1    3.95    0.32
  -3  -2  -1    4.53    0.34
  -3  -2  -1    4.59    0.32
  -3  -2  -1    3.95    0.28
  -3  -2  -1    4.52    0.28
  -3  -2  -1    4.32    0.32
  -3  -2  -1    3.84    0.33
  -4  -2  -1    9.65    0.69
  -4  -2  -1    9.65    0.64
  -4  -2  -1   10.11    0.55
  -4  -2  -1    9.51    0.58
  -4  -2  -1    9.16    0.53
  -5  -2  -1    4.14    0.40
  -5  -2  -1    4.39    0.26
  -5  -2  -1    4.61    0.34
  -5  -2  -1    4.94    0.40
  -5  -2  -1    4.42    0.28
  -5  -2  -1    4.71    0.31
  -5  -2  -1    4.57    0.28
  -5  -2  -1    4.37    0.28
  -6  -2  -1    5.83    0.36
  -6  -2  -1    6.12    0.37
  -6  -2  -1    5.89    0.33
  -6  -2  -1    5.63    0.36
  -6  -2  -1    6.68    0.45
  -6  -2  -1    5.34    0.50
  -7  -2  -1   -0.05    0.09
  -7  -2  -1    0.19    0.08
  -7  -2  -1    0.06    0.09
  -8  -2  -1    0.12    0.09
  -8  -2  -1    0.12    0.08
 -10   3   1    0.02    0.07
 -10   3   1    0.25    0.11
  -9   3   1    9.01    0.65
  -9   3   1    9.57    0.64
  -9   3   1    9.07    0.53
  -8   3   1   12.32    0.82
  -8   3   1   11.17    0.68
  -8   3   1   11.99    0.67
  -8   3   1   12.59    0.82
  -7   3   1    4.30    0.38
  -7   3   1    4.39    0.39
  -7   3   1    4.10    0.31
  -7   3   1    4.36    0.42
  -7   3   1    4.70    0.28
  -7   3   1    4.33    0.34
  -7   3   1    4.15    0.25
  -7   3   1    4.20    0.26
  -7   3   1    4.36    0.35
  -6   3   1    0.49    0.06
  -6   3   1    0.43    0.12
  -6   3   1    0.56    0.20
  -6   3   1    0.59    0.17
  -6   3   1    0.30    0.16
  -6   3   1    0.62    0.11
  -6   3   1    0.43    0.10
  -6   3   1    0.40    0.09
  -6   3   1    0.66    0.07
  -5   3   1   37.31    2.40
  -5   3   1   34.79    2.20
  -5   3   1   37.47    2.13
  -5   3   1   35.33    2.24
  -4   3   1    2.81    0.24
  -4   3   1    2.83    0.26
  -4   3   1    2.71    0.25
  -4   3   1    2.79    0.31
   3  -3  -1    0.79    0.18
   3  -3  -1    1.12    0.19
  -3   3   1    0.90    0.13
  -3   3   1    0.85    0.13
  -3   3   1    0.92    0.19
  -3   3   1    0.87    0.17
   2  -3  -1    0.17    0.15
   2  -3  -1    0.02    0.08
   2  -3  -1    0.00    0.17
   2  -3  -1   -0.01    0.09
  -2   3   1    0.04    0.14
  -2   3   1    0.12    0.15
  -2   3   1    0.04    0.15
  -2   3   1   -0.05    0.08
   1  -3  -1  112.46    7.52
   1  -3  -1  110.71    6.98
  -1   3   1  116.74    7.53
  -1   3   1  127.28    7.40
  -1   3   1  113.32    7.52
  -1   3   1  109.15    6.99
   0  -3  -1    2.99    0.29
   0  -3  -1    3.06    0.30
   0  -3  -1    2.85    0.24
   0  -3  -1    3.18    0.24
   0  -3  -1    2.97    0.29
   0   3   1    2.57    0.30
   0   3   1    3.13    0.31
   0   3   1    2.27    0.26
   0   3   1    2.49    0.23
  -1  -3  -1    0.24    0.11
  -1  -3  -1    0.16    0.10
  -1  -3  -1    0.18    0.10
   1   3   1    0.09    0.13
   1   3   1    0.18    0.14
  -2  -3  -1  127.01    8.19
  -2  -3  -1  130.68    8.17
  -2  -3  -1  126.81    7.74
  -2  -3  -1  125.35    7.57
  -3  -3  -1    2.56    0.26
  -3  -3  -1    2.67    0.27
  -3  -3  -1    2.64    0.26
  -3  -3  -1    2.79    0.21
  -4  -3  -1   19.21    1.07
  -4  -3  -1   19.91    1.09
  -4  -3  -1   19.85    1.32
  -4  -3  -1   19.49    1.23
  -4  -3  -1   19.60    1.06
  -4  -3  -1   19.61    1.16
  -4  -3  -1   18.79    1.07
  -4  -3  -1   19.69    1.06
  -5  -3  -1    4.47    0.29
  -5  -3  -1    4.56    0.29
  -5  -3  -1    5.21    0.33
  -5  -3  -1    4.58    0.27
  -5  -3  -1    4.54    0.44
  -5  -3  -1    4.68    0.30
  -5  -3  -1    4.59    0.41
  -6  -3  -1    0.07    0.10
  -6  -3  -1    0.15    0.10
  -6  -3  -1    0.26    0.10
  -7  -3  -1    0.76    0.11
  -7  -3  -1    0.79    0.10
  -7  -3  -1    0.83    0.11
  -8  -3  -1    7.21    0.41
 -10   4   1    9.85    0.67
 -10   4   1    9.94    0.67
  -9   4   1    2.96    0.19
  -9   4   1    3.05    0.29
  -9   4   1    2.75    0.27
  -9   4   1    2.67    0.23
  -8   4   1   17.71    0.98
  -8   4   1   17.65    1.18
  -8   4   1   17.74    0.97
  -8   4   1   17.47    1.17
  -7   4   1    1.05    0.11
  -7   4   1    1.06    0.13
  -7   4   1    1.18    0.15
  -7   4   1    1.65    0.26
  -7   4   1    1.62    0.17
  -7   4   1    1.01    0.23
  -7   4   1    1.01    0.16
  -7   4   1    1.21    0.13
  -6   4   1    0.69    0.12
  -6   4   1    0.85    0.19
  -6   4   1    0.43    0.08
  -6   4   1    0.55    0.07
  -6   4   1    0.65    0.22
  -6   4   1    0.73    0.15
  -6   4   1    0.49    0.09
  -6   4   1    0.64    0.11
  -5   4   1   15.64    1.20
  -5   4   1   17.96    1.10
  -5   4   1   17.36    1.05
  -4   4   1    6.67    0.48
  -4   4   1    6.95    0.49
  -4   4   1    7.23    0.57
   3  -4  -1    7.01    0.56
  -3   4   1    5.71    0.54
  -3   4   1    5.97    0.42
  -3   4   1    5.44    0.52
  -3   4   1    6.48    0.45
   2  -4  -1  167.16   10.51
   2  -4  -1  157.40   10.50
   2  -4  -1  163.01    9.75
   2  -4  -1  159.43   10.32
  -2   4   1  170.78   10.32
  -2   4   1  144.88   10.50
   1  -4  -1   64.85    4.12
   1  -4  -1   66.81    3.92
   1  -4  -1   62.53    4.25
  -1   4   1   62.92    4.28
  -1   4   1   62.91    4.26
   0  -4  -1    8.11    0.67
   0  -4  -1    9.67    0.61
   0  -4  -1    9.68    0.66
   0  -4  -1    7.98    0.68
   0   4   1    8.21    0.69
  -1  -4  -1   23.87    1.53
  -1  -4  -1   24.93    1.62
  -1  -4  -1   25.32    1.66
  -2  -4  -1   96.18    6.14
  -2  -4  -1   97.00    5.81
  -2  -4  -1   96.78    6.17
  -2  -4  -1   91.88    5.69
  -3  -4  -1    2.61    0.29
  -3  -4  -1    2.46    0.18
  -3  -4  -1    2.41    0.20
  -3  -4  -1    2.71    0.16
  -3  -4  -1    2.51    0.15
  -3  -4  -1    2.43    0.17
  -3  -4  -1    2.58    0.27
  -3  -4  -1    2.62    0.21
  -3  -4  -1    2.26    0.18
  -3  -4  -1    2.48    0.30
  -4  -4  -1   16.14    1.09
  -4  -4  -1   17.00    0.93
  -4  -4  -1   16.13    0.93
  -4  -4  -1   17.85    1.01
  -4  -4  -1   17.02    0.92
  -4  -4  -1   17.14    1.18
  -4  -4  -1   16.70    0.93
  -4  -4  -1   17.35    0.95
  -5  -4  -1   18.86    1.45
  -5  -4  -1   21.33    1.16
  -5  -4  -1   22.39    1.15
  -5  -4  -1   21.06    1.16
  -5  -4  -1   21.61    1.19
  -6  -4  -1    1.19    0.15
  -6  -4  -1    1.30    0.13
  -6  -4  -1    1.14    0.13
  -7  -4  -1    2.07    0.17
  -7  -4  -1    1.69    0.16
 -10   5   1    0.39    0.10
 -10   5   1    0.29    0.10
  -9   5   1   14.80    0.76
  -9   5   1   14.28    0.92
  -9   5   1   11.76    0.91
  -8   5   1    6.66    0.47
  -8   5   1    6.98    0.38
  -8   5   1    5.70    0.36
  -8   5   1    6.32    0.48
  -7   5   1    5.15    0.39
  -7   5   1    4.44    0.40
  -7   5   1    5.02    0.38
  -7   5   1    5.04    0.32
  -7   5   1    5.02    0.30
  -7   5   1    5.32    0.46
  -6   5   1    6.57    0.36
  -6   5   1    5.74    0.43
  -6   5   1    5.87    0.49
  -6   5   1    6.59    0.59
  -6   5   1    5.43    0.36
  -6   5   1    5.97    0.35
  -6   5   1    5.73    0.46
  -5   5   1   32.45    1.95
  -5   5   1   30.58    2.11
  -5   5   1   34.08    1.86
  -5   5   1   27.64    1.70
  -5   5   1   30.82    1.71
  -4   5   1    0.00    0.12
  -4   5   1   -0.04    0.14
  -3   5   1   61.21    3.48
  -3   5   1   58.99    3.70
   2  -5  -1    1.65    0.20
   2  -5  -1    2.01    0.24
  -2   5   1    1.78    0.24
  -2   5   1    1.40    0.18
  -2   5   1    2.13    0.30
   1  -5  -1    0.84    0.16
   1  -5  -1    0.68    0.21
   1  -5  -1    0.64    0.22
   1  -5  -1    0.98    0.15
   0  -5  -1    2.98    0.37
   0  -5  -1    2.91    0.27
  -1  -5  -1   25.95    1.55
  -1  -5  -1   28.69    1.84
  -1  -5  -1   23.81    1.50
  -1  -5  -1   29.35    1.70
  -1  -5  -1   28.70    1.80
  -2  -5  -1   25.20    1.49
  -2  -5  -1   23.05    1.31
  -2  -5  -1   22.53    1.35
  -2  -5  -1   24.18    1.40
  -2  -5  -1   24.30    1.48
  -2  -5  -1   21.89    1.32
  -2  -5  -1   23.93    1.62
  -2  -5  -1   24.66    1.29
  -2  -5  -1   24.57    1.59
  -2  -5  -1   23.65    1.30
  -3  -5  -1    4.02    0.23
  -3  -5  -1    4.02    0.24
  -3  -5  -1    3.68    0.25
  -3  -5  -1    4.05    0.25
  -3  -5  -1    3.89    0.39
  -3  -5  -1    3.74    0.41
  -3  -5  -1    3.92    0.26
  -3  -5  -1    4.08    0.31
  -4  -5  -1   49.65    2.60
  -4  -5  -1   47.05    2.64
  -4  -5  -1   47.52    2.56
  -4  -5  -1   52.57    2.59
  -4  -5  -1   41.57    3.13
  -5  -5  -1    6.53    0.38
  -5  -5  -1    6.27    0.36
  -5  -5  -1    6.59    0.39
  -5  -5  -1    6.11    0.38
  -6  -5  -1    0.27    0.08
  -6  -5  -1    0.23    0.09
  -6  -5  -1    0.19    0.08
  -7  -5  -1    0.08    0.06
 -10   6   1    0.69    0.10
  -9   6   1    1.86    0.18
  -9   6   1    1.30    0.15
  -8   6   1   19.09    1.04
  -8   6   1   18.75    1.24
  -8   6   1   18.33    1.04
  -7   6   1    0.13    0.08
  -7   6   1    0.20    0.09
  -7   6   1    0.23    0.12
  -7   6   1    0.30    0.21
  -7   6   1    0.20    0.13
  -6   6   1    1.68    0.25
  -6   6   1    1.87    0.26
  -6   6   1    1.84    0.18
  -6   6   1    1.82    0.17
  -6   6   1    1.43    0.20
  -6   6   1    1.52    0.34
  -6   6   1    1.64    0.13
  -5   6   1   11.61    0.69
  -5   6   1   12.23    0.69
  -5   6   1   11.94    0.80
  -5   6   1   12.63    0.81
  -5   6   1   12.18    0.85
  -5   6   1   12.47    0.96
  -5   6   1   11.96    0.71
  -4   6   1    1.25    0.21
  -4   6   1    1.77    0.22
  -3   6   1   24.90    1.48
   2  -6  -1   15.77    1.07
   1  -6  -1    2.87    0.27
   1  -6  -1    2.59    0.36
   1  -6  -1    2.43    0.18
   0  -6  -1    1.79    0.24
   0  -6  -1    1.69    0.14
   0  -6  -1    1.51    0.14
   0  -6  -1    2.06    0.34
   0  -6  -1    1.74    0.22
   0  -6  -1    1.87    0.13
  -1  -6  -1   43.30    2.42
  -1  -6  -1   42.84    2.40
  -1  -6  -1   44.88    2.51
  -1  -6  -1   42.19    2.94
  -1  -6  -1   46.21    2.89
  -1  -6  -1   44.85    2.73
  -2  -6  -1    6.91    0.64
  -2  -6  -1    6.81    0.41
  -2  -6  -1    7.37    0.41
  -2  -6  -1    7.59    0.42
  -2  -6  -1    7.09    0.42
  -2  -6  -1    7.24    0.57
  -2  -6  -1    7.01    0.51
  -3  -6  -1    5.23    0.33
  -3  -6  -1    5.51    0.33
  -3  -6  -1    5.78    0.32
  -3  -6  -1    5.19    0.30
  -3  -6  -1    5.00    0.32
  -3  -6  -1    4.26    0.47
  -4  -6  -1    2.31    0.18
  -4  -6  -1    2.27    0.17
  -4  -6  -1    2.21    0.18
  -4  -6  -1    2.45    0.21
  -5  -6  -1    2.24    0.17
  -5  -6  -1    2.39    0.19
  -5  -6  -1    2.01    0.14
  -5  -6  -1    1.95    0.16
  -6  -6  -1    0.39    0.07
 -10   7   1    0.17    0.08
  -9   7   1    0.60    0.12
  -9   7   1    0.47    0.09
  -8   7   1   -0.09    0.11
  -8   7   1   -0.08    0.10
  -8   7   1   -0.08    0.07
  -7   7   1    0.05    0.11
  -7   7   1    0.12    0.13
  -7   7   1    0.09    0.10
  -7   7   1    0.14    0.09
  -6   7   1   13.72    0.78
  -6   7   1   12.94    0.76
  -6   7   1   14.82    0.77
  -6   7   1   12.06    0.89
  -6   7   1   12.95    0.91
  -5   7   1    0.35    0.30
  -5   7   1    0.24    0.09
  -5   7   1    0.24    0.10
  -5   7   1    0.05    0.20
  -5   7   1    0.45    0.18
  -5   7   1    0.16    0.06
  -4   7   1    0.18    0.15
  -4   7   1    0.05    0.06
   2  -7  -1    6.10    0.37
   1  -7  -1    0.05    0.15
   1  -7  -1    0.07    0.07
   1  -7  -1    0.05    0.06
   1  -7  -1    0.04    0.31
   0  -7  -1    6.63    0.39
   0  -7  -1    7.41    0.40
   0  -7  -1    6.55    0.40
   0  -7  -1    6.25    0.53
   0  -7  -1    6.91    0.51
   0  -7  -1    5.67    0.65
  -1  -7  -1    5.07    0.43
  -1  -7  -1    5.77    0.33
  -1  -7  -1    5.39    0.32
  -1  -7  -1    5.64    0.33
  -1  -7  -1    4.87    0.46
  -1  -7  -1    5.30    0.33
  -2  -7  -1    0.54    0.07
  -2  -7  -1    0.66    0.09
  -2  -7  -1    0.60    0.11
  -3  -7  -1    0.40    0.05
  -3  -7  -1    0.42    0.08
  -3  -7  -1    0.38    0.10
  -4  -7  -1    2.23    0.19
  -4  -7  -1    2.53    0.17
  -5  -7  -1    5.84    0.34
  -9   8   1    0.67    0.10
  -9   8   1    0.42    0.09
  -8   8   1    4.72    0.33
  -8   8   1    4.00    0.35
  -8   8   1    4.31    0.29
  -8   8   1    3.94    0.26
  -7   8   1    0.72    0.15
  -7   8   1    0.67    0.12
  -7   8   1    0.60    0.12
  -7   8   1    0.69    0.10
  -6   8   1   12.89    0.77
  -6   8   1   13.49    0.76
  -5   8   1   -0.05    0.07
  -5   8   1   -0.11    0.11
  -4   8   1   25.00    1.44
   3  -8  -1    0.21    0.07
   2  -8  -1    5.06    0.33
   1  -8  -1    1.57    0.15
   1  -8  -1    1.69    0.15
   0  -8  -1    8.06    0.47
   0  -8  -1    7.98    0.47
   0  -8  -1    7.95    0.47
  -1  -8  -1   10.63    0.61
  -1  -8  -1   10.91    0.60
  -1  -8  -1   10.32    0.61
  -2  -8  -1    0.28    0.08
  -2  -8  -1    0.21    0.05
  -2  -8  -1    0.26    0.09
  -3  -8  -1    7.46    0.43
  -3  -8  -1    7.16    0.42
  -4  -8  -1    0.11    0.06
  -8   9   1    2.90    0.23
  -8   9   1    3.04    0.20
  -8   9   1    3.20    0.28
  -7   9   1    5.91    0.36
  -7   9   1    6.44    0.45
  -7   9   1    4.98    0.37
  -6   9   1    2.60    0.19
  -6   9   1    2.04    0.22
  -5   9   1    0.25    0.08
  -4   9   1    2.09    0.18
   3  -9  -1    0.82    0.09
   2  -9  -1    3.42    0.24
   1  -9  -1    1.23    0.14
   1  -9  -1    1.35    0.14
   0  -9  -1    2.77    0.19
   0  -9  -1    2.46    0.21
   0  -9  -1    2.86    0.21
  -1  -9  -1    0.63    0.10
  -1  -9  -1    0.61    0.09
  -1  -9  -1    0.57    0.07
  -2  -9  -1    7.78    0.44
  -2  -9  -1    7.56    0.44
  -3  -9  -1    0.64    0.08
  -7  10   1    0.18    0.07
  -7  10   1    0.20    0.11
  -6  10   1    3.86    0.27
  -5  10   1    0.14    0.07
   4 -10  -1    1.28    0.15
  -4  10   1    1.24    0.13
   3 -10  -1    2.17    0.17
  -3  10   1    1.56    0.17
   2 -10  -1    9.40    0.51
   2 -10  -1    7.63    0.49
   1 -10  -1    6.71    0.38
   1 -10  -1    6.18    0.38
   0 -10  -1    5.92    0.35
   0 -10  -1    5.72    0.35
   0 -10  -1    6.08    0.34
  -1 -10  -1    0.59    0.08
  -1 -10  -1    0.55    0.07
  -6  11   1    0.66    0.10
  -5  11   1    0.35    0.07
  -4  11   1    0.58    0.08
   3 -11  -1    1.13    0.11
   3 -11  -1    1.07    0.11
   2 -11  -1    0.04    0.06
   2 -11  -1    0.06    0.05
   1 -11   2    2.57    0.17
  -2  11  -2    0.08    0.07
   2 -11   2    0.10    0.06
   2 -11   2    0.04    0.06
  -3  11  -2   -0.02    0.08
   3 -11   2    0.01    0.06
   3 -11   2    0.06    0.07
  -4  11  -2    5.35    0.44
  -4  11  -2    5.62    0.35
   4 -11   2    6.11    0.35
  -5  11  -2    2.24    0.20
  -5  11  -2    3.27    0.26
  -6  11  -2    0.09    0.11
  -6  11  -2    0.10    0.07
  -1 -10   2    0.87    0.10
  -1 -10   2    0.87    0.09
  -1 -10   2    1.09    0.10
   0 -10   2    3.32    0.21
   0 -10   2    3.02    0.21
   1 -10   2   30.01    1.59
   1 -10   2   28.40    1.68
   1 -10   2   29.37    1.62
   2 -10   2   10.42    0.62
  -3  10  -2    9.42    0.51
   3 -10   2    7.51    0.51
  -4  10  -2    5.11    0.33
  -5  10  -2    0.70    0.09
  -5  10  -2    0.47    0.10
  -6  10  -2    3.99    0.31
  -6  10  -2    3.03    0.25
  -7  10  -2   11.95    0.69
  -7  10  -2   12.77    0.70
  -8  10  -2    2.79    0.26
  -8  10  -2    2.75    0.19
  -3  -9   2    0.61    0.08
  -2  -9   2    8.28    0.45
  -2  -9   2    8.04    0.45
  -2  -9   2    7.76    0.45
  -2  -9   2    7.83    0.46
  -1  -9   2    2.89    0.23
  -1  -9   2    3.29    0.21
  -1  -9   2    2.85    0.20
  -1  -9   2    3.00    0.22
   0  -9   2    0.14    0.08
   0  -9   2    0.11    0.06
   0  -9   2    0.10    0.07
   1  -9   2    1.02    0.10
   2  -9   2    0.26    0.07
  -3   9  -2    0.30    0.09
  -4   9  -2    2.78    0.21
  -5   9  -2    0.29    0.08
  -5   9  -2    0.32    0.10
  -6   9  -2    0.22    0.14
  -7   9  -2    4.26    0.36
  -7   9  -2    4.05    0.27
  -8   9  -2   19.29    1.33
  -9   9  -2    0.20    0.05
  -4  -8   2    4.32    0.25
  -4  -8   2    4.21    0.25
  -4  -8   2    4.03    0.25
  -3  -8   2    0.48    0.09
  -3  -8   2    0.43    0.06
  -3  -8   2    0.39    0.08
  -3  -8   2    0.34    0.09
  -2  -8   2    0.22    0.08
  -2  -8   2    0.36    0.07
  -2  -8   2    0.31    0.09
  -2  -8   2    0.29    0.09
  -1  -8   2    7.42    0.43
  -1  -8   2    6.90    0.43
  -1  -8   2    7.62    0.44
  -1  -8   2    7.39    0.43
   0  -8   2    5.31    0.32
   0  -8   2    4.84    0.31
   1  -8   2    1.04    0.13
  -3   8  -2    8.17    0.50
  -4   8  -2    1.07    0.13
  -4   8  -2    1.13    0.13
  -5   8  -2    0.03    0.09
  -5   8  -2    0.01    0.07
  -6   8  -2    5.46    0.33
  -6   8  -2    4.43    0.34
  -7   8  -2    2.19    0.23
  -7   8  -2    2.46    0.19
  -7   8  -2    2.37    0.27
  -7   8  -2    2.36    0.21
  -8   8  -2    1.52    0.18
  -8   8  -2    1.29    0.19
  -9   8  -2    4.74    0.34
  -9   8  -2    4.56    0.27
  -9   8  -2    4.47    0.37
  -5  -7   2    0.04    0.06
  -5  -7   2   -0.07    0.05
  -5  -7   2   -0.14    0.06
  -4  -7   2    1.81    0.15
  -4  -7   2    1.54    0.16
  -4  -7   2    1.60    0.16
  -3  -7   2    4.71    0.31
  -3  -7   2    4.97    0.31
  -3  -7   2    5.16    0.31
  -3  -7   2    4.85    0.30
  -2  -7   2   12.52    0.71
  -2  -7   2   12.13    0.69
  -2  -7   2   12.63    0.69
  -2  -7   2   10.70    0.84
  -2  -7   2   12.76    0.69
  -1  -7   2    1.11    0.12
  -1  -7   2    1.13    0.20
  -1  -7   2    1.20    0.11
  -1  -7   2    1.13    0.11
  -1  -7   2    1.12    0.25
  -1  -7   2    1.04    0.11
  -1  -7   2    0.76    0.33
   0  -7   2    7.19    0.43
   0  -7   2    6.76    0.53
   0  -7   2    7.38    0.42
   1  -7   2   -0.06    0.06
  -3   7  -2   10.53    0.62
  -4   7  -2    4.69    0.31
  -4   7  -2    5.57    0.32
  -4   7  -2    5.00    0.45
  -4   7  -2    4.61    0.55
  -4   7  -2    4.60    0.40
  -5   7  -2    0.68    0.19
  -5   7  -2    0.70    0.11
  -5   7  -2    0.63    0.10
  -5   7  -2    0.57    0.07
  -5   7  -2    0.79    0.29
  -5   7  -2    0.58    0.20
  -6   7  -2   26.65    1.41
  -6   7  -2   25.56    1.42
  -6   7  -2   24.32    1.66
  -7   7  -2    4.63    0.37
  -7   7  -2    4.95    0.32
  -7   7  -2    4.26    0.41
  -7   7  -2    5.31    0.30
  -8   7  -2    2.05    0.25
  -8   7  -2    1.65    0.18
  -8   7  -2    1.97    0.22
  -9   7  -2    0.28    0.11
 -10   7  -2   12.46    0.82
  -6  -6   2    1.99    0.15
  -6  -6   2    1.80    0.14
  -5  -6   2    5.81    0.35
  -5  -6   2    6.07    0.34
  -5  -6   2    5.54    0.35
  -4  -6   2    3.01    0.19
  -4  -6   2    2.80    0.22
  -4  -6   2    3.26    0.23
  -4  -6   2    3.06    0.21
  -3  -6   2   11.83    0.65
  -3  -6   2   12.14    0.65
  -3  -6   2   11.07    0.81
  -3  -6   2   12.54    0.65
  -3  -6   2    9.94    0.83
  -3  -6   2   11.26    0.65
  -2  -6   2   12.70    0.71
  -2  -6   2   12.72    0.71
  -2  -6   2   12.43    0.99
  -2  -6   2   12.44    0.73
  -2  -6   2   12.89    0.84
  -2  -6   2   12.80    0.89
  -2  -6   2   12.34    0.70
  -2  -6   2   13.16    0.87
  -1  -6   2   19.47    1.39
  -1  -6   2   19.85    1.30
  -1  -6   2   18.38    1.07
  -1  -6   2   19.63    1.07
  -1  -6   2   18.69    1.11
  -1  -6   2   20.08    1.24
   0  -6   2    2.83    0.18
   0  -6   2    2.45    0.34
  -2   6  -2    5.74    0.48
  -2   6  -2    6.14    0.56
  -3   6  -2  165.75    9.47
  -3   6  -2  165.21   10.68
  -4   6  -2    0.59    0.09
  -4   6  -2    0.41    0.22
  -4   6  -2    0.33    0.09
  -4   6  -2    0.67    0.16
  -4   6  -2    0.55    0.17
  -4   6  -2    0.39    0.06
  -5   6  -2   12.38    0.85
  -5   6  -2   12.19    0.71
  -5   6  -2   12.82    0.82
  -5   6  -2   12.52    0.71
  -5   6  -2   12.56    0.72
  -5   6  -2   13.02    0.96
  -5   6  -2   12.30    0.83
  -6   6  -2   14.37    1.10
  -6   6  -2   15.41    0.84
  -6   6  -2   13.85    0.99
  -6   6  -2   15.64    1.05
  -6   6  -2   13.30    0.98
  -6   6  -2   16.49    0.84
  -6   6  -2   15.43    0.97
  -7   6  -2    8.44    0.63
  -7   6  -2    9.17    0.63
  -7   6  -2    8.97    0.67
  -7   6  -2    9.26    0.51
  -7   6  -2    9.31    0.66
  -7   6  -2    8.60    0.52
  -8   6  -2    1.86    0.26
  -8   6  -2    2.06    0.25
  -8   6  -2    2.34    0.18
  -8   6  -2    1.82    0.25
  -9   6  -2    4.59    0.42
  -9   6  -2    6.31    0.41
 -10   6  -2    1.95    0.19
  -7  -5   2    4.63    0.29
  -7  -5   2    5.51    0.30
  -6  -5   2    4.43    0.28
  -6  -5   2    4.18    0.27
  -6  -5   2    3.98    0.25
  -5  -5   2    0.62    0.08
  -5  -5   2    0.60    0.10
  -5  -5   2    0.59    0.10
  -5  -5   2    0.71    0.10
  -4  -5   2    5.05    0.31
  -4  -5   2    5.04    0.47
  -4  -5   2    5.39    0.30
  -4  -5   2    5.12    0.30
  -4  -5   2    4.53    0.39
  -4  -5   2    5.00    0.31
  -4  -5   2    4.74    0.31
  -3  -5   2    6.08    0.44
  -3  -5   2    5.96    0.35
  -3  -5   2    7.19    0.51
  -3  -5   2    5.93    0.35
  -3  -5   2    6.06    0.35
  -3  -5   2    6.15    0.49
  -3  -5   2    5.57    0.56
  -3  -5   2    5.94    0.35
  -2  -5   2    0.22    0.05
  -2  -5   2    0.09    0.15
  -2  -5   2    0.31    0.21
  -2  -5   2    0.24    0.11
  -2  -5   2    0.20    0.04
  -2  -5   2    0.17    0.05
  -2  -5   2    0.32    0.14
  -2  -5   2    0.21    0.06
  -1  -5   2   14.97    1.10
  -1  -5   2   15.16    1.03
  -1  -5   2   15.86    0.99
   0  -5   2   10.71    0.72
   0  -5   2    9.58    0.83
   0  -5   2   10.81    0.74
   0  -5   2   13.09    0.90
  -1   5  -2   -0.03    0.16
  -1   5  -2    0.17    0.18
  -1   5  -2   -0.08    0.15
   1  -5   2    0.06    0.15
   1  -5   2    0.01    0.15
   1  -5   2    0.07    0.10
   1  -5   2    0.04    0.07
  -2   5  -2   81.80    6.09
  -2   5  -2   97.65    5.28
  -2   5  -2   97.29    5.63
  -2   5  -2   94.57    5.97
   2  -5   2   87.72    6.08
  -3   5  -2   10.95    0.71
  -3   5  -2   11.51    0.76
  -3   5  -2   11.48    0.84
  -4   5  -2    1.08    0.23
  -4   5  -2    1.12    0.17
  -4   5  -2    0.98    0.16
  -5   5  -2    0.53    0.15
  -5   5  -2    0.50    0.13
  -5   5  -2    0.46    0.10
  -5   5  -2    0.43    0.05
  -5   5  -2    0.39    0.07
  -5   5  -2    0.40    0.07
  -5   5  -2    0.61    0.22
  -6   5  -2    0.41    0.11
  -6   5  -2    0.46    0.13
  -6   5  -2    0.61    0.19
  -6   5  -2    0.34    0.12
  -6   5  -2    0.36    0.08
  -6   5  -2    0.36    0.06
  -6   5  -2    0.25    0.20
  -6   5  -2    0.42    0.11
  -7   5  -2    0.69    0.09
  -7   5  -2    0.65    0.14
  -7   5  -2    0.70    0.13
  -7   5  -2    0.44    0.12
  -7   5  -2    0.99    0.23
  -8   5  -2    6.49    0.45
  -8   5  -2    5.12    0.44
  -8   5  -2    6.27    0.35
  -8   5  -2    5.33    0.45
  -9   5  -2    9.01    0.65
  -9   5  -2    9.66    0.64
 -10   5  -2   14.66    1.04
 -10   5  -2   16.77    1.04
  -8  -4   2    0.79    0.08
  -7  -4   2    5.59    0.35
  -7  -4   2    6.20    0.36
  -6  -4   2    0.85    0.11
  -6  -4   2    1.24    0.11
  -6  -4   2    0.85    0.10
  -5  -4   2    5.69    0.33
  -5  -4   2    5.76    0.32
  -5  -4   2    5.17    0.49
  -5  -4   2    5.36    0.34
  -5  -4   2    5.56    0.34
  -5  -4   2    5.79    0.34
  -4  -4   2    1.28    0.16
  -4  -4   2    1.56    0.25
  -4  -4   2    1.28    0.13
  -4  -4   2    1.22    0.11
  -4  -4   2    1.02    0.11
  -4  -4   2    1.28    0.25
  -4  -4   2    1.23    0.13
  -4  -4   2    1.10    0.11
  -3  -4   2    0.89    0.22
  -3  -4   2    0.73    0.08
  -3  -4   2    0.67    0.08
  -3  -4   2    0.70    0.16
  -3  -4   2    0.55    0.11
  -3  -4   2    0.55    0.06
  -3  -4   2    1.06    0.18
  -3  -4   2    0.66    0.07
  -2  -4   2   -0.01    0.06
  -2  -4   2    0.05    0.16
  -2  -4   2   -0.18    0.12
  -2  -4   2    0.09    0.11
  -1  -4   2   48.01    3.01
  -1  -4   2   46.92    2.86
  -1  -4   2   50.67    3.06
  -1  -4   2   40.80    3.10
   0   4  -2    2.86    0.37
   0   4  -2    2.13    0.34
   0   4  -2    2.36    0.31
   0   4  -2    2.27    0.26
   0  -4   2    2.22    0.30
   0  -4   2    2.94    0.22
   0  -4   2    2.79    0.23
   0  -4   2    2.75    0.30
  -1   4  -2    0.25    0.11
  -1   4  -2    0.24    0.13
  -1   4  -2    0.07    0.11
  -1   4  -2    0.22    0.08
   1  -4   2    0.08    0.10
   1  -4   2    0.22    0.15
   1  -4   2    0.22    0.06
  -2   4  -2    0.10    0.10
  -2   4  -2    0.04    0.12
  -2   4  -2    0.11    0.09
  -2   4  -2    0.04    0.11
  -2   4  -2    0.20    0.17
   2  -4   2    0.12    0.12
  -3   4  -2    7.68    0.53
  -3   4  -2    7.33    0.64
  -3   4  -2    8.88    0.63
  -3   4  -2    8.90    0.56
  -4   4  -2    2.75    0.31
  -4   4  -2    2.15    0.24
  -4   4  -2    2.66    0.26
  -4   4  -2    3.23    0.25
  -5   4  -2   19.75    1.18
  -5   4  -2   17.99    1.03
  -5   4  -2   18.57    1.28
  -5   4  -2   20.73    1.15
  -5   4  -2   17.52    1.04
  -6   4  -2    0.12    0.10
  -6   4  -2   -0.01    0.14
  -6   4  -2    0.09    0.10
  -6   4  -2    0.15    0.15
  -6   4  -2    0.06    0.04
  -6   4  -2    0.02    0.08
  -6   4  -2   -0.07    0.10
  -6   4  -2   -0.05    0.10
  -6   4  -2    0.04    0.05
  -7   4  -2    2.65    0.31
  -7   4  -2    2.38    0.16
  -7   4  -2    2.34    0.24
  -7   4  -2    2.25    0.25
  -7   4  -2    2.05    0.26
  -7   4  -2    2.34    0.22
  -8   4  -2    2.18    0.25
  -8   4  -2    2.35    0.16
  -8   4  -2    2.34    0.29
  -8   4  -2    2.50    0.22
  -9   4  -2    0.10    0.11
  -9   4  -2   -0.11    0.14
  -9   4  -2    0.02    0.12
 -10   4  -2    0.25    0.12
 -10   4  -2    0.20    0.09
  -8  -3   2   22.40    1.22
  -7  -3   2    0.57    0.11
  -7  -3   2    0.39    0.09
  -7  -3   2    0.56    0.06
  -6  -3   2    1.25    0.12
  -6  -3   2    1.13    0.12
  -6  -3   2    0.75    0.10
  -6  -3   2    0.94    0.11
  -5  -3   2    9.49    0.54
  -5  -3   2   10.16    0.54
  -5  -3   2    9.88    0.54
  -5  -3   2    8.81    0.70
  -5  -3   2    9.78    0.56
  -5  -3   2    9.25    0.65
  -5  -3   2    9.30    0.70
  -5  -3   2   10.00    0.54
  -5  -3   2    9.57    0.63
  -4  -3   2    8.04    0.45
  -4  -3   2    7.77    0.45
  -4  -3   2    7.62    0.45
  -4  -3   2    7.97    0.46
  -4  -3   2    8.91    0.63
  -4  -3   2    7.73    0.45
  -4  -3   2    9.03    0.58
  -4  -3   2    7.99    0.54
  -3  -3   2    3.91    0.38
  -3  -3   2    3.96    0.29
  -3  -3   2    4.11    0.33
  -3  -3   2    4.01    0.33
  -2  -3   2   -0.02    0.11
  -2  -3   2    0.12    0.09
  -2  -3   2    0.04    0.14
  -2  -3   2   -0.01    0.07
  -2  -3   2    0.04    0.09
   1   3  -2    1.69    0.25
   1   3  -2    1.44    0.19
   1   3  -2    2.08    0.28
   1   3  -2    1.66    0.22
  -1  -3   2    1.71    0.23
  -1  -3   2    1.73    0.22
  -1  -3   2    1.76    0.17
  -1  -3   2    1.80    0.17
  -1  -3   2    1.83    0.23
   0   3  -2    4.88    0.37
   0   3  -2    4.91    0.32
   0   3  -2    5.01    0.43
   0   3  -2    5.75    0.45
   0  -3   2    5.37    0.42
   0  -3   2    5.33    0.45
   0  -3   2    5.61    0.36
  -1   3  -2   59.60    3.81
  -1   3  -2   61.09    3.37
  -1   3  -2   59.59    3.60
  -1   3  -2   57.42    3.88
   1  -3   2   56.21    3.76
   1  -3   2   58.43    3.81
   1  -3   2   59.76    3.89
  -2   3  -2   29.43    2.21
  -2   3  -2   32.39    2.27
  -2   3  -2   33.28    2.27
  -2   3  -2   38.24    2.09
  -2   3  -2   33.84    1.97
  -2   3  -2   34.95    2.22
   2  -3   2   36.62    2.27
   2  -3   2   31.48    2.08
   2  -3   2   35.69    2.27
  -3   3  -2    0.60    0.12
  -3   3  -2    0.32    0.12
  -3   3  -2    0.54    0.11
  -3   3  -2    0.51    0.12
  -3   3  -2    0.56    0.10
  -3   3  -2    0.60    0.13
  -3   3  -2    0.40    0.07
   3  -3   2    0.60    0.13
   3  -3   2    0.56    0.12
  -4   3  -2   43.78    2.65
  -4   3  -2   47.15    2.96
  -4   3  -2   45.88    2.79
  -5   3  -2    9.30    0.59
  -5   3  -2    9.26    0.63
  -5   3  -2    8.54    0.61
  -5   3  -2    8.37    0.56
  -6   3  -2    1.60    0.16
  -6   3  -2    1.65    0.12
  -6   3  -2    1.70    0.21
  -6   3  -2    1.56    0.19
  -6   3  -2    1.84    0.14
  -6   3  -2    1.48    0.19
  -6   3  -2    1.63    0.24
  -6   3  -2    1.47    0.19
  -7   3  -2    1.57    0.12
  -7   3  -2    1.43    0.17
  -7   3  -2    2.21    0.28
  -7   3  -2    1.57    0.18
  -7   3  -2    1.54    0.17
  -8   3  -2   17.81    1.17
  -8   3  -2   15.70    0.97
  -8   3  -2   19.46    1.18
  -9   3  -2    1.52    0.20
  -9   3  -2    1.67    0.19
  -9   3  -2    1.70    0.19
 -10   3  -2    6.18    0.44
  -9  -2   2    1.03    0.12
  -8  -2   2    1.78    0.16
  -8  -2   2    2.02    0.19
  -8  -2   2    1.98    0.20
  -7  -2   2   36.64    2.49
  -7  -2   2   39.67    2.09
  -7  -2   2   38.24    2.08
  -7  -2   2   39.14    2.07
  -6  -2   2   99.03    6.59
  -6  -2   2  109.41    5.47
  -6  -2   2  104.36    5.65
  -6  -2   2   97.81    6.15
  -6  -2   2  105.33    5.51
  -6  -2   2   98.77    5.56
  -5  -2   2   32.39    2.12
  -5  -2   2   32.37    1.75
  -5  -2   2   32.63    1.73
  -5  -2   2   33.30    1.98
  -5  -2   2   29.25    2.08
  -5  -2   2   31.46    1.74
  -5  -2   2   32.51    1.76
  -5  -2   2   32.53    1.78
  -5  -2   2   32.68    1.98
  -4  -2   2    1.00    0.13
  -4  -2   2    0.98    0.18
  -4  -2   2    1.15    0.17
  -3  -2   2  160.39    9.70
  -3  -2   2  156.54    9.49
  -3  -2   2  163.21   10.22
  -3  -2   2  159.19   10.26
   2   2  -2    3.03    0.33
  -2  -2   2    2.22    0.24
  -2  -2   2    3.06    0.23
  -2  -2   2    2.87    0.26
  -2  -2   2    2.88    0.27
  -2  -2   2    2.30    0.20
  -2  -2   2    2.87    0.21
  -2  -2   2    2.73    0.23
  -2  -2   2    2.90    0.28
   1   2  -2   18.63    1.29
  -1  -2   2   21.81    1.29
  -1  -2   2   21.23    1.41
  -1  -2   2   21.12    1.35
  -1  -2   2   21.71    1.38
   0   2  -2  124.50    7.59
   0   2  -2  132.89    8.16
   0   2  -2  123.46    7.13
   0  -2   2  123.91    8.00
   0  -2   2  116.58    7.59
   0  -2   2  129.19    8.15
  -1   2  -2   76.83    4.99
  -1   2  -2   75.25    4.91
  -1   2  -2   83.79    4.99
  -1   2  -2   78.60    4.36
  -1   2  -2   74.87    4.64
   1  -2   2   67.88    4.90
  -2   2  -2    7.33    0.54
  -2   2  -2    7.62    0.47
  -2   2  -2    7.88    0.48
  -2   2  -2    7.54    0.54
  -2   2  -2    6.69    0.47
  -2   2  -2    7.53    0.52
  -2   2  -2    7.64    0.53
   2  -2   2    7.91    0.54
   2  -2   2    7.82    0.54
  -3   2  -2   19.12    1.09
  -3   2  -2   17.50    1.20
  -3   2  -2   18.00    1.23
  -3   2  -2   19.00    1.13
  -3   2  -2   19.97    1.13
  -3   2  -2   17.12    1.19
  -3   2  -2   16.32    1.13
  -3   2  -2   17.75    1.24
  -3   2  -2   19.47    1.21
   3  -2   2   19.25    1.23
   3  -2   2   18.76    1.23
  -4   2  -2   19.14    1.15
  -4   2  -2   18.50    1.05
  -4   2  -2   19.38    1.09
  -4   2  -2   16.06    1.08
  -4   2  -2   16.38    1.14
  -4   2  -2   17.13    1.14
  -4   2  -2   15.55    1.17
  -4   2  -2   18.32    1.08
  -5   2  -2    8.43    0.59
  -5   2  -2    8.63    0.56
  -6   2  -2    0.75    0.17
  -6   2  -2    0.60    0.08
  -6   2  -2    0.44    0.05
  -6   2  -2    0.41    0.09
  -6   2  -2    0.32    0.17
  -6   2  -2    0.38    0.10
  -6   2  -2    0.35    0.07
  -6   2  -2    0.35    0.10
  -7   2  -2    1.78    0.16
  -7   2  -2    1.72    0.15
  -7   2  -2    1.45    0.19
  -7   2  -2    1.32    0.17
  -7   2  -2    0.68    0.24
  -8   2  -2   -0.17    0.10
  -8   2  -2    0.11    0.09
  -8   2  -2    0.04    0.14
  -8   2  -2   -0.09    0.10
  -9   2  -2    4.71    0.37
  -9   2  -2    5.95    0.41
  -9   2  -2    4.72    0.33
 -10   2  -2    2.23    0.21
 -10   2  -2    1.92    0.16
  -9  -1   2    0.18    0.08
  -9  -1   2    0.39    0.10
  -8  -1   2    7.13    0.40
  -8  -1   2    6.84    0.41
  -8  -1   2    6.50    0.50
  -7  -1   2    0.02    0.10
  -7  -1   2    0.09    0.11
  -7  -1   2    0.03    0.05
  -7  -1   2    0.14    0.09
  -6  -1   2    0.70    0.11
  -6  -1   2    0.71    0.21
  -6  -1   2    0.81    0.10
  -6  -1   2    0.51    0.08
  -6  -1   2    0.99    0.09
  -5  -1   2    2.90    0.28
  -5  -1   2    2.45    0.17
  -5  -1   2    2.33    0.15
  -5  -1   2    2.48    0.17
  -5  -1   2    2.67    0.20
  -5  -1   2    2.61    0.16
  -5  -1   2    2.16    0.21
  -5  -1   2    2.22    0.16
  -5  -1   2    2.58    0.28
  -4  -1   2   42.13    2.76
  -4  -1   2   42.84    2.59
  -4  -1   2   41.94    2.55
   3   1  -2    4.15    0.39
   3   1  -2    4.23    0.34
  -3  -1   2    3.93    0.26
  -3  -1   2    3.59    0.33
  -3  -1   2    3.65    0.29
  -3  -1   2    4.39    0.29
  -3  -1   2    4.13    0.34
  -3  -1   2    4.91    0.35
  -3  -1   2    4.25    0.36
  -3  -1   2    4.39    0.31
   2   1  -2   11.34    0.90
   2   1  -2   14.15    0.92
   2   1  -2   14.67    0.96
  -2  -1   2   14.04    0.83
  -2  -1   2   13.12    0.92
  -2  -1   2   14.65    0.91
  -2  -1   2   13.85    0.88
  -2  -1   2   11.58    0.84
  -2  -1   2   12.72    0.82
  -2  -1   2   14.36    0.94
   1   1  -2  104.03    6.58
   1   1  -2   95.09    6.12
   1   1  -2  100.59    6.56
  -1  -1   2  109.34    6.58
  -1  -1   2  100.99    6.56
  -1  -1   2   98.81    6.43
  -1  -1   2   96.42    6.11
   0   1  -2   33.99    2.23
   0   1  -2   32.04    1.97
   0   1  -2   32.29    2.10
   0   1  -2   34.70    2.26
   0  -1   2   34.79    2.10
   0  -1   2   33.90    2.22
   0  -1   2   36.35    2.27
   0  -1   2   37.65    2.26
  -1   1  -2  247.76   16.15
  -1   1  -2  267.71   16.17
  -1   1  -2  257.21   15.22
  -1   1  -2  271.67   17.31
  -1   1  -2  263.63   17.08
  -1   1  -2  283.39   17.33
  -1   1  -2  264.59   17.07
  -1   1  -2  233.61   16.94
   1  -1   2  284.92   17.31
   1  -1   2  286.84   17.33
  -2   1  -2    0.25    0.06
  -2   1  -2    0.17    0.04
  -2   1  -2    0.17    0.04
  -2   1  -2    0.16    0.06
  -2   1  -2    0.12    0.08
  -2   1  -2    0.19    0.07
  -2   1  -2    0.15    0.08
  -2   1  -2    0.22    0.06
  -2   1  -2    0.14    0.06
  -2   1  -2    0.15    0.07
   2  -1   2    0.20    0.06
  -3   1  -2    6.96    0.45
  -3   1  -2    6.62    0.43
  -3   1  -2    6.60    0.47
  -3   1  -2    7.08    0.47
  -4   1  -2   43.49    3.10
  -4   1  -2   52.14    2.92
  -4   1  -2   50.24    2.81
  -5   1  -2    5.18    0.39
  -5   1  -2    4.79    0.36
  -6   1  -2   31.29    1.64
  -6   1  -2   30.37    1.68
  -6   1  -2   31.08    1.88
  -6   1  -2   28.48    1.96
  -6   1  -2   30.70    1.63
  -6   1  -2   30.12    1.97
  -7   1  -2   10.39    0.60
  -7   1  -2    9.15    0.69
  -7   1  -2    9.52    0.73
  -7   1  -2   10.61    0.71
  -7   1  -2   11.09    0.59
  -7   1  -2   10.84    0.59
  -8   1  -2    2.51    0.29
  -8   1  -2    2.34    0.24
  -8   1  -2    2.43    0.22
  -8   1  -2    2.73    0.21
  -9   1  -2    5.48    0.41
  -9   1  -2    5.33    0.34
 -10   1  -2    7.66    0.43
  -9   0   2    0.07    0.10
  -9   0   2    0.17    0.11
  -8   0   2    1.23    0.13
  -8   0   2    1.33    0.11
  -8   0   2    1.59    0.18
  -8   0   2    1.19    0.13
  -7   0   2    7.56    0.61
  -7   0   2    8.22    0.44
  -7   0   2    7.63    0.56
  -7   0   2    7.93    0.46
  -7   0   2    7.73    0.46
  -6   0   2   59.49    3.29
  -6   0   2   60.66    3.88
  -6   0   2   59.90    3.88
  -6   0   2   56.67    3.21
  -6   0   2   62.41    3.67
  -6   0   2   59.00    3.27
  -6   0   2   62.39    3.24
  -6   0   2   60.46    3.64
  -5   0   2    6.60    0.43
  -5   0   2    6.17    0.46
  -5   0   2    6.48    0.49
  -5   0   2    5.96    0.43
  -4   0   2    0.86    0.12
  -4   0   2    0.85    0.16
  -4   0   2    0.90    0.11
  -4   0   2    0.89    0.15
   3   0  -2   71.97    4.54
   3   0  -2   70.38    4.56
  -3   0   2   72.42    4.13
  -3   0   2   73.07    4.21
  -3   0   2   74.75    4.47
  -3   0   2   68.47    4.54
  -3   0   2   57.61    4.21
  -3   0   2   65.11    4.56
   2   0  -2   48.73    3.18
   2   0  -2   43.33    3.11
   2   0  -2   47.89    3.15
  -2   0   2   48.44    3.11
  -2   0   2   47.48    2.86
  -2   0   2   48.70    3.16
  -2   0   2   50.69    2.93
   1   0  -2    5.42    0.38
   1   0  -2    4.78    0.35
   1   0  -2    5.22    0.41
  -1   0   2    4.96    0.34
  -1   0   2    5.82    0.41
  -1   0   2    5.46    0.38
  -1   0   2    5.00    0.33
   0   0  -2   16.05    1.08
   0   0  -2   16.10    1.03
   0   0  -2   16.63    1.12
   0   0  -2   15.94    1.10
   0   0   2   15.53    1.09
   0   0   2   19.23    1.13
   0   0   2   18.06    1.11
  -1   0  -2   32.20    2.05
  -1   0  -2   33.10    2.06
  -1   0  -2   32.23    1.81
  -1   0  -2   29.09    2.02
  -1   0  -2   30.83    1.88
  -1   0  -2   31.26    2.02
  -1   0  -2   32.72    1.91
  -1   0  -2   31.58    2.02
  -1   0  -2   30.16    2.02
  -1   0  -2   29.68    1.91
   1   0   2   30.86    2.06
   1   0   2   35.09    2.06
  -2   0  -2    0.08    0.08
  -2   0  -2    0.02    0.08
  -2   0  -2    0.06    0.07
  -2   0  -2    0.06    0.07
  -3   0  -2    0.08    0.08
  -3   0  -2    0.15    0.08
  -3   0  -2    0.13    0.09
  -3   0  -2    0.13    0.08
  -4   0  -2    6.55    0.47
  -4   0  -2    6.66    0.44
  -4   0  -2    5.96    0.42
  -5   0  -2   11.22    0.62
  -5   0  -2   11.79    0.75
  -5   0  -2   11.11    0.62
  -5   0  -2   11.22    0.64
  -6   0  -2    3.74    0.31
  -6   0  -2    4.31    0.38
  -6   0  -2    3.82    0.25
  -6   0  -2    3.91    0.25
  -6   0  -2    3.63    0.27
  -6   0  -2    3.90    0.25
  -7   0  -2    0.00    0.09
  -7   0  -2    0.12    0.12
  -7   0  -2    0.08    0.08
  -7   0  -2    0.03    0.21
  -7   0  -2    0.12    0.08
  -8   0  -2    0.18    0.13
  -8   0  -2   -0.07    0.10
  -8   0  -2   -0.08    0.08
  -9   0  -2   11.85    0.65
  -9   0  -2   11.41    0.65
  -9   0  -2   12.07    0.79
 -10   1   2    0.02    0.07
 -10   1   2    0.19    0.10
  -9   1   2    1.56    0.17
  -9   1   2    1.01    0.13
  -8   1   2    1.53    0.18
  -8   1   2    1.70    0.13
  -8   1   2    1.30    0.17
  -8   1   2    1.54    0.17
  -7   1   2    5.29    0.31
  -7   1   2    4.89    0.31
  -7   1   2    4.99    0.38
  -7   1   2    4.64    0.36
  -7   1   2    4.62    0.46
  -7   1   2    4.99    0.29
  -6   1   2   24.23    1.53
  -6   1   2   23.79    1.27
  -6   1   2   21.31    1.40
  -6   1   2   24.40    1.46
  -6   1   2   24.36    1.27
  -6   1   2   22.45    1.29
  -6   1   2   22.73    1.28
  -6   1   2   24.32    1.56
  -6   1   2   22.31    1.52
  -6   1   2   24.63    1.48
  -5   1   2    0.21    0.11
  -5   1   2    0.14    0.13
  -5   1   2    0.12    0.09
  -5   1   2    0.14    0.14
  -4   1   2    0.01    0.09
  -4   1   2    0.14    0.08
  -4   1   2    0.20    0.12
  -4   1   2    0.10    0.11
  -4   1   2    0.16    0.13
  -4   1   2    0.12    0.11
   3  -1  -2   53.53    3.47
   3  -1  -2   54.51    3.49
  -3   1   2   48.27    3.48
  -3   1   2   56.73    3.21
  -3   1   2   53.82    3.41
  -3   1   2   54.12    3.47
  -3   1   2   43.72    3.40
  -3   1   2   56.27    3.14
   2  -1  -2   30.60    1.95
   2  -1  -2   31.78    1.97
   2  -1  -2   25.86    1.80
  -2   1   2   29.13    1.76
  -2   1   2   29.72    1.92
  -2   1   2   30.30    1.95
  -2   1   2   29.54    1.80
  -2   1   2   26.40    1.96
   1  -1  -2   51.31    3.33
   1  -1  -2   50.60    3.38
  -1   1   2   51.51    3.37
  -1   1   2   52.72    3.19
  -1   1   2   52.62    3.11
  -1   1   2   55.57    3.43
   0  -1  -2   10.52    0.67
   0  -1  -2   11.37    0.73
   0  -1  -2   11.32    0.75
   0  -1  -2   10.34    0.71
   0   1   2   11.52    0.75
   0   1   2   11.30    0.74
   0   1   2    9.70    0.72
  -1  -1  -2    5.58    0.35
  -1  -1  -2    5.14    0.38
  -1  -1  -2    5.45    0.39
  -1  -1  -2    5.99    0.38
  -1  -1  -2    5.12    0.35
  -1  -1  -2    5.13    0.34
  -1  -1  -2    5.51    0.38
  -1  -1  -2    5.55    0.39
  -1  -1  -2    5.58    0.39
   1   1   2    5.83    0.40
   1   1   2    5.67    0.40
  -2  -1  -2    5.90    0.40
  -2  -1  -2    5.48    0.37
  -2  -1  -2    5.19    0.37
  -2  -1  -2    5.50    0.39
  -2  -1  -2    5.14    0.35
  -2  -1  -2    5.55    0.37
  -2  -1  -2    5.11    0.34
  -2  -1  -2    5.27    0.38
  -2  -1  -2    5.74    0.34
  -2  -1  -2    5.17    0.34
   2   1   2    5.48    0.38
   2   1   2    5.79    0.39
  -3  -1  -2   15.55    0.92
  -3  -1  -2   14.15    0.88
  -3  -1  -2   15.22    1.00
  -4  -1  -2   13.00    0.87
  -4  -1  -2   12.39    0.81
  -5  -1  -2    0.68    0.10
  -5  -1  -2    0.88    0.18
  -5  -1  -2    0.80    0.08
  -5  -1  -2    0.77    0.06
  -5  -1  -2    0.85    0.15
  -5  -1  -2    0.83    0.09
  -5  -1  -2    0.66    0.09
  -5  -1  -2    0.89    0.18
  -5  -1  -2    0.82    0.09
  -6  -1  -2   25.44    1.72
  -6  -1  -2   28.85    1.49
  -6  -1  -2   25.98    1.80
  -6  -1  -2   27.63    1.63
  -6  -1  -2   29.04    1.54
  -6  -1  -2   28.54    1.50
  -7  -1  -2    2.42    0.21
  -7  -1  -2    2.23    0.25
  -7  -1  -2    2.52    0.20
  -7  -1  -2    2.34    0.20
  -8  -1  -2    0.33    0.10
  -8  -1  -2    0.41    0.08
  -9  -1  -2    4.25    0.26
  -9  -1  -2    4.25    0.26
 -10   2   2    0.50    0.08
  -9   2   2    4.39    0.35
  -9   2   2    3.77    0.28
  -8   2   2    3.12    0.25
  -8   2   2    3.41    0.22
  -8   2   2    3.39    0.31
  -8   2   2    3.68    0.29
  -7   2   2   37.55    1.93
  -7   2   2   36.84    1.91
  -7   2   2   36.39    1.90
  -7   2   2   34.34    2.17
  -7   2   2   34.88    1.94
  -7   2   2   31.86    2.31
  -7   2   2   36.55    2.30
  -7   2   2   33.84    2.29
  -7   2   2   35.63    2.19
  -6   2   2   14.32    0.91
  -6   2   2   13.98    1.00
  -6   2   2   13.95    0.78
  -6   2   2   14.36    0.79
  -6   2   2   13.83    0.94
  -6   2   2   14.08    0.94
  -6   2   2   14.03    0.93
  -6   2   2   14.19    0.78
  -6   2   2   14.84    0.78
  -6   2   2   14.22    0.90
  -5   2   2   36.78    2.27
  -5   2   2   38.43    2.16
  -5   2   2   35.15    2.43
  -5   2   2   36.63    2.23
  -4   2   2    1.91    0.21
  -4   2   2    1.95    0.25
  -4   2   2    2.04    0.23
  -4   2   2    2.11    0.27
  -4   2   2    2.14    0.20
   3  -2  -2   11.31    0.79
   3  -2  -2   11.43    0.87
   3  -2  -2   13.11    0.91
   3  -2  -2   12.60    0.88
  -3   2   2   13.92    0.78
  -3   2   2   13.12    0.79
  -3   2   2   11.91    0.89
  -3   2   2   13.54    0.87
  -3   2   2   10.86    0.89
   2  -2  -2   20.47    1.42
   2  -2  -2   24.05    1.32
   2  -2  -2   18.68    1.40
  -2   2   2   20.27    1.27
  -2   2   2   20.93    1.43
  -2   2   2   20.61    1.31
  -2   2   2   20.73    1.44
  -2   2   2   20.68    1.40
   1  -2  -2  686.22   44.46
   1  -2  -2  646.07   41.51
  -1   2   2  697.15   44.45
  -1   2   2  616.50   41.48
  -1   2   2  789.11   43.95
  -1   2   2  664.97   44.43
   0  -2  -2   15.78    0.96
   0  -2  -2   14.90    0.91
   0  -2  -2   14.73    1.00
   0  -2  -2   15.03    0.98
   0   2   2   13.11    0.91
   0   2   2   14.96    1.01
   0   2   2   14.94    1.01
   0   2   2   12.93    0.97
  -1  -2  -2    9.41    0.62
  -1  -2  -2    8.26    0.55
  -1  -2  -2    8.15    0.62
  -1  -2  -2    9.10    0.64
  -1  -2  -2    9.30    0.61
  -1  -2  -2    7.97    0.57
  -1  -2  -2    8.73    0.63
  -1  -2  -2    9.67    0.57
   1   2   2    9.64    0.65
   1   2   2    9.36    0.65
  -2  -2  -2   22.49    1.57
  -2  -2  -2   24.03    1.42
  -2  -2  -2   21.49    1.54
  -2  -2  -2   24.63    1.54
  -2  -2  -2   24.55    1.54
  -2  -2  -2   22.66    1.57
  -2  -2  -2   22.58    1.45
  -2  -2  -2   24.80    1.45
   2   2   2   25.36    1.59
   2   2   2   23.35    1.58
  -3  -2  -2  104.93    7.07
  -3  -2  -2  118.07    7.08
  -3  -2  -2   96.68    7.17
  -3  -2  -2  113.23    7.06
  -3  -2  -2  107.47    6.69
  -3  -2  -2  112.69    6.56
  -3  -2  -2  119.16    6.69
  -4  -2  -2   45.35    2.46
  -4  -2  -2   46.64    2.66
  -4  -2  -2   47.68    2.76
  -4  -2  -2   43.28    2.44
  -4  -2  -2   47.78    2.97
  -4  -2  -2   45.13    2.52
  -4  -2  -2   43.83    2.48
  -5  -2  -2    4.31    0.39
  -5  -2  -2    4.10    0.24
  -5  -2  -2    4.21    0.29
  -5  -2  -2    4.23    0.26
  -5  -2  -2    4.07    0.26
  -5  -2  -2    3.85    0.36
  -5  -2  -2    4.36    0.27
  -6  -2  -2   17.81    1.02
  -6  -2  -2   18.85    1.01
  -6  -2  -2   18.73    1.04
  -7  -2  -2    2.69    0.21
  -7  -2  -2    2.58    0.21
  -7  -2  -2    2.52    0.21
  -8  -2  -2    1.55    0.16
  -8  -2  -2    1.56    0.15
 -10   3   2    3.32    0.27
  -9   3   2    1.91    0.25
  -9   3   2    2.19    0.22
  -9   3   2    2.15    0.20
  -9   3   2    2.21    0.16
  -8   3   2    5.80    0.37
  -8   3   2    6.00    0.45
  -8   3   2    6.27    0.36
  -8   3   2    6.06    0.45
  -7   3   2    8.65    0.70
  -7   3   2    9.85    0.54
  -7   3   2    9.58    0.54
  -7   3   2   10.24    0.66
  -7   3   2   10.15    0.54
  -7   3   2    9.44    0.67
  -7   3   2    9.56    0.66
  -7   3   2    8.39    0.72
  -7   3   2    9.31    0.64
  -6   3   2    6.10    0.58
  -6   3   2    6.83    0.48
  -6   3   2    6.94    0.47
  -6   3   2    6.62    0.38
  -6   3   2    6.32    0.38
  -6   3   2    6.99    0.50
  -6   3   2    6.33    0.38
  -6   3   2    7.37    0.52
  -6   3   2    6.61    0.47
  -5   3   2    1.61    0.20
  -5   3   2    1.53    0.21
  -5   3   2    1.32    0.26
  -5   3   2    1.28    0.18
  -4   3   2    1.61    0.18
  -4   3   2    1.32    0.22
  -4   3   2    1.53    0.20
  -4   3   2    1.74    0.19
   3  -3  -2    1.34    0.23
   3  -3  -2    1.51    0.22
  -3   3   2    1.43    0.25
  -3   3   2    1.22    0.16
  -3   3   2    1.30    0.21
  -3   3   2    1.33    0.23
   2  -3  -2    7.35    0.57
   2  -3  -2    7.18    0.49
   2  -3  -2    6.88    0.58
   2  -3  -2    7.27    0.57
  -2   3   2    7.17    0.50
  -2   3   2    6.99    0.59
  -2   3   2    7.32    0.56
  -2   3   2    8.83    0.63
   1  -3  -2   47.98    2.87
   1  -3  -2   46.86    3.06
   1  -3  -2   45.92    3.12
   1  -3  -2   49.30    3.12
  -1   3   2   46.40    2.88
  -1   3   2   46.86    3.13
  -1   3   2   45.12    3.05
   0  -3  -2   48.69    3.34
   0  -3  -2   52.13    3.09
   0  -3  -2   50.81    3.25
   0  -3  -2   51.40    3.28
   0  -3  -2   50.73    3.35
   0   3   2   49.15    3.35
   0   3   2   50.20    3.36
  -1  -3  -2    0.14    0.08
  -1  -3  -2    0.20    0.12
  -1  -3  -2    0.18    0.10
  -1  -3  -2    0.12    0.09
   1   3   2    0.27    0.15
   1   3   2    0.14    0.14
  -2  -3  -2    0.05    0.10
  -2  -3  -2    0.01    0.08
  -2  -3  -2    0.06    0.06
  -2  -3  -2    0.23    0.12
  -3  -3  -2   30.34    1.93
  -3  -3  -2   29.70    1.60
  -3  -3  -2   27.82    1.78
  -3  -3  -2   30.05    1.80
  -3  -3  -2   28.55    1.91
  -4  -3  -2    9.12    0.64
  -4  -3  -2   10.07    0.70
  -4  -3  -2    9.26    0.54
  -4  -3  -2    8.96    0.52
  -4  -3  -2    9.92    0.58
  -4  -3  -2    8.94    0.52
  -4  -3  -2    9.79    0.53
  -5  -3  -2    7.44    0.62
  -5  -3  -2    8.63    0.50
  -5  -3  -2    7.61    0.44
  -5  -3  -2    7.63    0.46
  -5  -3  -2    7.93    0.45
  -5  -3  -2    7.73    0.46
  -6  -3  -2    2.11    0.19
  -6  -3  -2    2.34    0.19
  -6  -3  -2    2.37    0.20
  -7  -3  -2    0.66    0.10
  -7  -3  -2    0.86    0.10
  -7  -3  -2    0.99    0.11
  -8  -3  -2    0.49    0.08
  -8  -3  -2    0.22    0.07
 -10   4   2    0.17    0.10
 -10   4   2    0.08    0.10
  -9   4   2    2.12    0.20
  -9   4   2    2.80    0.25
  -9   4   2    2.55    0.27
  -9   4   2    2.54    0.18
  -8   4   2    5.08    0.35
  -8   4   2    5.25    0.42
  -8   4   2    5.74    0.43
  -8   4   2    5.72    0.33
  -7   4   2   15.30    0.85
  -7   4   2   15.66    0.86
  -7   4   2   14.00    1.11
  -7   4   2   14.81    1.00
  -7   4   2   15.46    1.03
  -7   4   2   16.95    0.86
  -7   4   2   15.36    1.02
  -7   4   2   14.93    1.00
  -6   4   2    5.07    0.41
  -6   4   2    4.48    0.35
  -6   4   2    4.91    0.28
  -6   4   2    4.92    0.39
  -6   4   2    4.15    0.28
  -6   4   2    4.72    0.50
  -6   4   2    4.40    0.28
  -6   4   2    4.70    0.34
  -5   4   2    0.40    0.14
  -5   4   2    0.43    0.15
  -5   4   2    0.41    0.06
  -5   4   2    0.28    0.22
  -4   4   2    6.46    0.47
  -4   4   2    5.91    0.55
  -4   4   2    6.49    0.45
   3  -4  -2    2.82    0.35
  -3   4   2    4.20    0.35
  -3   4   2    3.53    0.39
   2  -4  -2    6.17    0.50
   2  -4  -2    4.96    0.47
   2  -4  -2    6.14    0.41
  -2   4   2    4.33    0.45
  -2   4   2    4.00    0.45
  -2   4   2    4.59    0.47
  -2   4   2    5.19    0.39
   1  -4  -2   41.47    3.00
   1  -4  -2   43.13    3.01
   1  -4  -2   47.92    2.90
   1  -4  -2   46.99    2.76
  -1   4   2   43.46    3.03
  -1   4   2   45.56    3.05
   0  -4  -2   10.88    0.91
   0  -4  -2   13.22    0.86
   0  -4  -2   12.61    0.90
   0  -4  -2   13.19    0.81
  -1  -4  -2   31.76    2.08
  -1  -4  -2   29.94    1.90
  -1  -4  -2   32.61    2.06
  -2  -4  -2   16.87    1.20
  -2  -4  -2   16.47    0.96
  -2  -4  -2   16.83    0.95
  -2  -4  -2   18.57    1.10
  -2  -4  -2   17.56    1.09
  -2  -4  -2   18.74    1.19
  -3  -4  -2   21.65    1.19
  -3  -4  -2   19.77    1.33
  -3  -4  -2   22.65    1.44
  -3  -4  -2   21.52    1.32
  -3  -4  -2   21.63    1.43
  -3  -4  -2   20.83    1.17
  -3  -4  -2   19.32    1.15
  -3  -4  -2   22.09    1.16
  -3  -4  -2   22.10    1.17
  -3  -4  -2   21.26    1.26
  -4  -4  -2   -0.01    0.09
  -4  -4  -2   -0.17    0.08
  -4  -4  -2   -0.08    0.07
  -4  -4  -2    0.02    0.05
  -4  -4  -2   -0.05    0.07
  -4  -4  -2    0.01    0.18
  -5  -4  -2    8.53    0.52
  -5  -4  -2    8.94    0.52
  -5  -4  -2    9.05    0.50
  -5  -4  -2    9.23    0.51
  -6  -4  -2    0.08    0.08
  -6  -4  -2    0.16    0.09
  -6  -4  -2    0.28    0.10
  -7  -4  -2   -0.09    0.08
  -7  -4  -2    0.07    0.07
 -10   5   2    0.17    0.10
 -10   5   2    0.09    0.09
  -9   5   2   15.34    0.90
  -9   5   2   13.70    0.75
  -9   5   2   11.35    0.90
  -8   5   2    8.73    0.68
  -8   5   2    9.78    0.68
  -8   5   2   10.61    0.56
  -8   5   2    9.86    0.55
  -7   5   2    1.64    0.15
  -7   5   2    1.44    0.17
  -7   5   2    1.27    0.22
  -7   5   2    1.47    0.20
  -7   5   2    2.07    0.29
  -7   5   2    1.96    0.19
  -6   5   2   38.26    2.09
  -6   5   2   37.05    2.44
  -6   5   2   38.78    2.07
  -6   5   2   37.58    2.37
  -6   5   2   36.57    2.55
  -6   5   2   38.61    2.26
  -5   5   2    7.40    0.45
  -5   5   2    8.49    0.56
  -5   5   2    7.26    0.68
  -5   5   2    7.33    0.45
  -5   5   2    8.16    0.57
  -4   5   2    9.48    0.63
  -4   5   2    9.60    0.67
  -4   5   2    9.37    0.76
  -3   5   2    2.02    0.26
  -3   5   2    1.76    0.22
  -3   5   2    2.00    0.30
   2  -5  -2    3.29    0.42
   2  -5  -2    3.43    0.30
   2  -5  -2    3.19    0.29
   1  -5  -2    1.50    0.21
   1  -5  -2    1.58    0.20
   0  -5  -2   23.24    1.49
   0  -5  -2   21.42    1.54
  -1  -5  -2   41.00    2.30
  -1  -5  -2   44.33    2.59
  -1  -5  -2   39.26    2.39
  -1  -5  -2   41.34    2.78
  -1  -5  -2   42.46    2.29
  -1  -5  -2   43.47    2.74
  -2  -5  -2   32.28    2.21
  -2  -5  -2   32.24    1.94
  -2  -5  -2   34.19    1.79
  -2  -5  -2   35.37    1.81
  -2  -5  -2   33.86    2.06
  -2  -5  -2   31.33    1.84
  -2  -5  -2   35.12    2.20
  -2  -5  -2   32.90    1.82
  -2  -5  -2   31.08    1.78
  -3  -5  -2    0.02    0.17
  -3  -5  -2    0.01    0.09
  -3  -5  -2    0.07    0.07
  -3  -5  -2    0.15    0.10
  -3  -5  -2    0.01    0.09
  -3  -5  -2   -0.02    0.05
  -3  -5  -2   -0.02    0.04
  -3  -5  -2    0.28    0.20
  -3  -5  -2    0.01    0.07
  -4  -5  -2   51.07    2.90
  -4  -5  -2   53.69    3.00
  -4  -5  -2   54.83    2.95
  -4  -5  -2   57.08    2.93
  -5  -5  -2    0.50    0.10
  -5  -5  -2    0.62    0.09
  -5  -5  -2    0.49    0.10
  -5  -5  -2    0.57    0.06
  -6  -5  -2    7.23    0.43
  -6  -5  -2    7.88    0.44
  -6  -5  -2    7.72    0.44
  -7  -5  -2    0.15    0.06
 -10   6   2    3.41    0.27
  -9   6   2    1.59    0.19
  -9   6   2    1.55    0.16
  -8   6   2    0.50    0.08
  -8   6   2    0.35    0.10
  -8   6   2    0.57    0.13
  -7   6   2    8.85    0.48
  -7   6   2    8.71    0.65
  -7   6   2    7.38    0.60
  -7   6   2    8.35    0.49
  -7   6   2    7.94    0.58
  -6   6   2    3.13    0.35
  -6   6   2    2.81    0.20
  -6   6   2    2.78    0.23
  -6   6   2    2.40    0.34
  -6   6   2    3.30    0.46
  -6   6   2    3.08    0.22
  -6   6   2    2.82    0.26
  -5   6   2    1.18    0.34
  -5   6   2    1.12    0.24
  -5   6   2    1.16    0.21
  -5   6   2    0.85    0.11
  -4   6   2    0.66    0.21
  -4   6   2    0.62    0.17
  -4   6   2    0.46    0.27
   3  -6  -2    0.02    0.13
  -3   6   2   -0.13    0.11
   2  -6  -2   -0.10    0.12
   1  -6  -2   12.52    0.80
   1  -6  -2   10.84    0.66
   1  -6  -2   13.42    0.84
   1  -6  -2   10.81    0.68
   1  -6  -2   11.86    0.94
   0  -6  -2    7.67    0.47
   0  -6  -2    8.22    0.46
   0  -6  -2    7.29    0.70
   0  -6  -2    8.88    0.61
  -1  -6  -2   81.71    5.72
  -1  -6  -2   91.61    4.77
  -1  -6  -2   87.49    4.84
  -1  -6  -2   91.98    5.67
  -1  -6  -2   85.43    4.99
  -1  -6  -2   86.94    5.37
  -1  -6  -2   88.78    4.80
  -2  -6  -2    4.43    0.27
  -2  -6  -2    4.37    0.28
  -2  -6  -2    4.66    0.27
  -2  -6  -2    4.21    0.35
  -2  -6  -2    4.30    0.43
  -2  -6  -2    4.48    0.29
  -3  -6  -2   13.77    0.79
  -3  -6  -2   13.80    0.77
  -3  -6  -2   14.10    0.78
  -3  -6  -2   14.25    0.78
  -4  -6  -2    5.47    0.32
  -4  -6  -2    5.19    0.34
  -4  -6  -2    6.00    0.35
  -5  -6  -2   19.24    1.00
  -5  -6  -2   17.36    1.02
  -6  -6  -2    0.06    0.06
 -10   7   2   -0.04    0.07
  -9   7   2    0.75    0.10
  -9   7   2    1.06    0.13
  -8   7   2    0.06    0.07
  -8   7   2   -0.04    0.10
  -8   7   2   -0.04    0.11
  -7   7   2    5.11    0.32
  -7   7   2    4.52    0.33
  -7   7   2    4.79    0.37
  -6   7   2   20.08    1.13
  -6   7   2   17.32    1.23
  -6   7   2   18.87    1.29
  -6   7   2   21.57    1.11
  -5   7   2    3.06    0.27
  -5   7   2    3.43    0.35
  -5   7   2    3.37    0.26
  -5   7   2    3.38    0.23
  -4   7   2    0.13    0.15
   2  -7  -2    4.19    0.27
   1  -7  -2    0.25    0.33
   1  -7  -2    0.64    0.17
   1  -7  -2    0.45    0.07
   0  -7  -2    0.21    0.06
   0  -7  -2    0.15    0.06
   0  -7  -2   -0.21    0.30
   0  -7  -2    0.22    0.14
   0  -7  -2    0.25    0.08
   0  -7  -2    0.17    0.17
  -1  -7  -2    9.31    0.52
  -1  -7  -2    9.17    0.52
  -1  -7  -2    9.36    0.52
  -1  -7  -2    7.56    0.68
  -2  -7  -2    0.11    0.09
  -2  -7  -2    0.12    0.05
  -2  -7  -2    0.10    0.07
  -3  -7  -2    0.46    0.09
  -3  -7  -2    0.59    0.08
  -4  -7  -2    8.75    0.50
  -4  -7  -2    8.80    0.49
  -5  -7  -2   -0.08    0.06
  -9   8   2    0.25    0.08
  -9   8   2    0.01    0.05
  -8   8   2    0.72    0.11
  -8   8   2    0.46    0.08
  -8   8   2    0.45    0.11
  -7   8   2    4.89    0.37
  -7   8   2    4.89    0.32
  -6   8   2    1.25    0.18
  -6   8   2    1.35    0.15
  -6   8   2    1.40    0.14
  -5   8   2    0.21    0.07
  -4   8   2    1.74    0.17
   3  -8  -2    4.52    0.30
   2  -8  -2    0.96    0.11
   1  -8  -2   14.27    0.86
   1  -8  -2   15.12    0.83
   0  -8  -2    7.30    0.44
   0  -8  -2    7.54    0.44
   0  -8  -2    7.65    0.45
   0  -8  -2    7.46    0.44
  -1  -8  -2   10.71    0.58
  -1  -8  -2    9.85    0.58
  -1  -8  -2    9.90    0.57
  -2  -8  -2    2.91    0.20
  -2  -8  -2    2.70    0.17
  -2  -8  -2    2.97    0.22
  -3  -8  -2    0.72    0.10
  -4  -8  -2    0.16    0.06
  -8   9   2    1.44    0.13
  -8   9   2    1.20    0.15
  -8   9   2    1.47    0.18
  -7   9   2    0.49    0.10
  -7   9   2    0.68    0.14
  -6   9   2   10.07    0.61
  -6   9   2   10.66    0.61
  -5   9   2    7.70    0.47
  -4   9   2    0.07    0.07
   3  -9  -2    0.08    0.08
   2  -9  -2    0.17    0.08
   2  -9  -2    0.44    0.09
   1  -9  -2    2.87    0.20
   1  -9  -2    2.64    0.19
   0  -9  -2    7.66    0.42
   0  -9  -2    7.69    0.42
   0  -9  -2    6.20    0.43
  -1  -9  -2    0.16    0.05
  -1  -9  -2    0.14    0.08
  -1  -9  -2    0.17    0.08
  -2  -9  -2    0.50    0.07
  -2  -9  -2    0.44    0.09
  -7  10   2    8.37    0.51
  -7  10   2    9.56    0.64
  -6  10   2    0.78    0.11
  -6  10   2    0.93    0.11
   5 -10  -2    7.29    0.48
  -5  10   2    8.58    0.48
   4 -10  -2    3.29    0.25
  -4  10   2    3.60    0.24
   3 -10  -2    0.16    0.08
   2 -10  -2    0.67    0.09
   2 -10  -2    0.35    0.08
   1 -10  -2   10.77    0.64
   1 -10  -2   11.79    0.63
   0 -10  -2    1.80    0.15
   0 -10  -2    1.65    0.14
   0 -10  -2    1.91    0.12
  -1 -10  -2    1.82    0.14
  -1 -10  -2    2.27    0.15
  -5  11   2    1.31    0.12
  -4  11   2    0.15    0.05
   3 -11  -2    0.45    0.06
   3 -11  -2    0.30    0.06
  -3  11   2    0.23    0.06
   2 -11  -2    1.90    0.13
   2 -11  -2    1.62    0.12
   1 -11   3    2.35    0.16
  -2  11  -3   15.85    0.92
  -3  11  -3    4.03    0.27
  -4  11  -3    2.58    0.19
  -4  11  -3    2.66    0.25
   4 -11   3    2.44    0.18
  -5  11  -3    2.65    0.20
  -5  11  -3    2.53    0.25
  -6  11  -3    8.83    0.58
  -6  11  -3    7.21    0.46
  -1 -10   3    3.44    0.23
  -1 -10   3    4.23    0.24
   0 -10   3    0.01    0.06
   1 -10   3    0.42    0.07
   1 -10   3    0.32    0.08
   1 -10   3    0.27    0.07
  -2  10  -3    0.95    0.12
   2 -10   3    1.07    0.14
  -3  10  -3    3.16    0.22
   3 -10   3    2.63    0.22
  -4  10  -3    2.68    0.21
  -5  10  -3    9.71    0.62
  -5  10  -3   10.73    0.62
  -5  10  -3   11.42    0.76
  -6  10  -3    0.12    0.13
  -6  10  -3    0.26    0.09
  -7  10  -3    1.62    0.16
  -7  10  -3    1.40    0.21
  -7  10  -3    1.14    0.12
  -8  10  -3    0.41    0.11
  -8  10  -3    0.26    0.07
  -3  -9   3    0.99    0.11
  -3  -9   3    0.96    0.10
  -2  -9   3    5.86    0.34
  -2  -9   3    5.77    0.35
  -2  -9   3    5.83    0.34
  -1  -9   3    3.03    0.22
  -1  -9   3    3.38    0.22
   0  -9   3    6.48    0.41
   0  -9   3    7.16    0.40
   0  -9   3    6.64    0.39
   1  -9   3    5.58    0.36
  -2   9  -3    0.75    0.09
   2  -9   3    0.56    0.08
  -3   9  -3    1.83    0.17
  -4   9  -3    3.69    0.28
  -4   9  -3    3.70    0.26
  -5   9  -3    5.49    0.35
  -5   9  -3    5.76    0.36
  -6   9  -3   18.98    1.27
  -6   9  -3   17.59    1.03
  -7   9  -3    0.64    0.14
  -8   9  -3   11.32    0.79
  -8   9  -3   10.89    0.63
  -4  -8   3    0.88    0.09
  -4  -8   3    1.01    0.12
  -3  -8   3   -0.07    0.07
  -3  -8   3   -0.06    0.05
  -3  -8   3   -0.05    0.07
  -3  -8   3   -0.05    0.08
  -2  -8   3    7.40    0.45
  -2  -8   3    8.12    0.46
  -2  -8   3    7.85    0.45
  -2  -8   3    7.79    0.45
  -1  -8   3    3.37    0.21
  -1  -8   3    3.08    0.22
  -1  -8   3    3.01    0.21
   0  -8   3    8.31    0.50
   0  -8   3    9.48    0.53
   0  -8   3    8.72    0.51
   1  -8   3   28.60    1.64
  -2   8  -3    0.17    0.07
  -3   8  -3    0.15    0.07
  -4   8  -3    0.59    0.08
  -5   8  -3    2.91    0.21
  -5   8  -3    3.06    0.24
  -6   8  -3    2.31    0.28
  -6   8  -3    2.67    0.20
  -7   8  -3    8.10    0.48
  -7   8  -3    8.32    0.58
  -7   8  -3    8.62    0.62
  -8   8  -3    7.27    0.50
  -8   8  -3    6.90    0.54
  -9   8  -3    1.71    0.18
  -9   8  -3    1.63    0.21
  -5  -7   3   -0.02    0.07
  -5  -7   3    0.05    0.06
  -4  -7   3    3.21    0.22
  -4  -7   3    3.15    0.21
  -4  -7   3    3.05    0.18
  -4  -7   3    2.68    0.20
  -3  -7   3   10.27    0.59
  -3  -7   3   10.11    0.59
  -3  -7   3   10.46    0.59
  -3  -7   3   10.78    0.59
  -2  -7   3   14.97    0.85
  -2  -7   3   14.40    0.81
  -2  -7   3   13.57    0.99
  -2  -7   3   15.73    0.82
  -2  -7   3   14.34    0.82
  -1  -7   3    0.21    0.13
  -1  -7   3    0.00    0.29
  -1  -7   3    0.19    0.07
  -1  -7   3    0.24    0.06
  -1  -7   3    0.34    0.06
   0  -7   3   22.79    1.31
   1  -7   3    0.01    0.04
  -2   7  -3    3.36    0.23
  -3   7  -3    5.87    0.60
  -3   7  -3    5.89    0.36
  -4   7  -3    6.28    0.45
  -4   7  -3    5.71    0.36
  -4   7  -3    5.56    0.49
  -4   7  -3    5.26    0.60
  -4   7  -3    5.97    0.36
  -5   7  -3   18.88    1.38
  -5   7  -3   17.81    1.25
  -5   7  -3   18.94    1.06
  -5   7  -3   19.57    1.09
  -5   7  -3   20.37    1.06
  -5   7  -3   17.74    1.18
  -6   7  -3    6.15    0.40
  -6   7  -3    7.08    0.40
  -6   7  -3    6.43    0.52
  -6   7  -3    7.10    0.48
  -6   7  -3    5.71    0.51
  -7   7  -3   15.49    0.87
  -7   7  -3   14.61    1.04
  -7   7  -3   17.01    1.10
  -7   7  -3   15.69    0.88
  -8   7  -3    0.89    0.16
  -8   7  -3    0.90    0.14
  -9   7  -3    7.74    0.55
  -9   7  -3    8.05    0.57
 -10   7  -3    0.67    0.10
  -6  -6   3    1.43    0.15
  -6  -6   3    1.43    0.11
  -5  -6   3   19.54    1.05
  -5  -6   3   18.67    1.04
  -5  -6   3   19.04    1.04
  -4  -6   3    2.22    0.16
  -4  -6   3    2.20    0.18
  -4  -6   3    2.14    0.20
  -4  -6   3    2.46    0.18
  -3  -6   3    3.55    0.40
  -3  -6   3    3.87    0.25
  -3  -6   3    4.00    0.24
  -3  -6   3    3.85    0.24
  -3  -6   3    3.69    0.22
  -3  -6   3    3.39    0.24
  -2  -6   3    0.36    0.14
  -2  -6   3    0.12    0.06
  -2  -6   3    0.17    0.07
  -2  -6   3    0.31    0.05
  -2  -6   3    0.37    0.20
  -2  -6   3    0.19    0.15
  -2  -6   3    0.19    0.06
  -2  -6   3    0.23    0.24
  -1  -6   3   16.83    0.92
  -1  -6   3   14.92    0.87
  -1  -6   3   15.17    0.88
  -1  -6   3   16.59    1.03
  -1  -6   3   15.89    1.18
   0  -6   3   11.40    0.92
   0  -6   3   11.43    0.68
   0  -6   3   12.17    0.78
  -2   6  -3    1.73    0.24
  -2   6  -3    1.16    0.24
  -3   6  -3   11.40    0.76
  -3   6  -3   13.65    0.89
  -3   6  -3   13.86    0.82
  -3   6  -3   14.72    1.00
  -4   6  -3    9.99    0.57
  -4   6  -3    9.87    0.70
  -4   6  -3    9.92    0.57
  -4   6  -3   11.27    0.81
  -4   6  -3    9.57    0.58
  -4   6  -3    9.88    0.66
  -5   6  -3    7.71    0.44
  -5   6  -3    7.23    0.44
  -5   6  -3    7.28    0.55
  -5   6  -3    7.85    0.56
  -5   6  -3    7.75    0.52
  -5   6  -3    8.29    0.66
  -5   6  -3    7.16    0.44
  -6   6  -3    0.07    0.08
  -6   6  -3    0.03    0.11
  -6   6  -3   -0.06    0.12
  -6   6  -3   -0.07    0.21
  -6   6  -3   -0.17    0.10
  -6   6  -3    0.11    0.17
  -6   6  -3    0.05    0.06
  -6   6  -3   -0.05    0.14
  -7   6  -3    1.26    0.16
  -7   6  -3    1.39    0.26
  -7   6  -3    0.88    0.09
  -7   6  -3    1.10    0.16
  -7   6  -3    1.20    0.11
  -7   6  -3    0.84    0.16
  -8   6  -3    0.83    0.14
  -8   6  -3    1.03    0.16
  -8   6  -3    0.65    0.16
  -9   6  -3    3.23    0.30
  -9   6  -3    3.56    0.30
 -10   6  -3    2.04    0.23
 -10   6  -3    3.12    0.23
  -7  -5   3    0.61    0.09
  -6  -5   3    4.16    0.26
  -6  -5   3    3.52    0.24
  -6  -5   3    3.52    0.23
  -5  -5   3    0.10    0.04
  -5  -5   3    0.14    0.07
  -5  -5   3    0.12    0.09
  -5  -5   3    0.16    0.08
  -4  -5   3    0.36    0.09
  -4  -5   3    0.30    0.13
  -4  -5   3    0.38    0.22
  -4  -5   3    0.47    0.08
  -4  -5   3    0.23    0.08
  -4  -5   3    0.27    0.06
  -3  -5   3    1.41    0.24
  -3  -5   3    1.25    0.27
  -3  -5   3    1.51    0.19
  -3  -5   3    1.14    0.12
  -3  -5   3    1.09    0.12
  -3  -5   3    1.20    0.10
  -3  -5   3    1.17    0.11
  -2  -5   3    0.80    0.18
  -2  -5   3    0.68    0.07
  -2  -5   3    0.65    0.08
  -2  -5   3    0.76    0.08
  -2  -5   3    0.75    0.13
  -2  -5   3    1.02    0.17
  -2  -5   3    1.03    0.25
  -2  -5   3    0.60    0.07
  -1  -5   3    4.15    0.33
  -1  -5   3    4.04    0.45
  -1  -5   3    4.16    0.32
   0  -5   3   27.90    1.90
   0  -5   3   31.06    1.99
  -1   5  -3   13.10    0.83
   1  -5   3   12.47    0.91
   1  -5   3   12.70    0.81
   1  -5   3   11.05    0.95
  -2   5  -3   64.22    3.47
  -2   5  -3   64.86    3.71
  -2   5  -3   50.80    4.03
  -3   5  -3    4.42    0.43
  -3   5  -3    4.30    0.36
  -3   5  -3    4.12    0.33
  -4   5  -3    3.01    0.31
  -4   5  -3    3.20    0.29
  -4   5  -3    3.21    0.38
  -4   5  -3    3.07    0.29
  -5   5  -3    3.21    0.29
  -5   5  -3    3.38    0.21
  -5   5  -3    3.13    0.20
  -5   5  -3    3.68    0.33
  -5   5  -3    3.06    0.26
  -5   5  -3    3.23    0.38
  -5   5  -3    2.99    0.26
  -5   5  -3    3.25    0.29
  -6   5  -3   18.09    0.95
  -6   5  -3   17.76    1.13
  -6   5  -3   16.48    0.95
  -6   5  -3   16.83    1.09
  -6   5  -3   17.30    1.09
  -6   5  -3   16.51    1.19
  -6   5  -3   17.01    1.14
  -6   5  -3   17.55    1.19
  -7   5  -3    2.35    0.28
  -7   5  -3    2.73    0.26
  -7   5  -3    2.81    0.34
  -7   5  -3    2.23    0.28
  -7   5  -3    2.78    0.19
  -8   5  -3   25.78    1.76
  -8   5  -3   30.35    1.76
  -8   5  -3   24.41    1.83
  -9   5  -3    0.24    0.14
  -9   5  -3   -0.01    0.11
 -10   5  -3    0.19    0.11
 -10   5  -3    0.42    0.11
  -8  -4   3   -0.01    0.06
  -7  -4   3   26.14    1.32
  -7  -4   3   23.94    1.32
  -7  -4   3   22.90    1.32
  -6  -4   3    0.94    0.11
  -6  -4   3    0.92    0.10
  -6  -4   3    0.84    0.11
  -5  -4   3   28.63    1.61
  -5  -4   3   30.88    1.58
  -5  -4   3   28.14    1.57
  -5  -4   3   30.43    1.56
  -5  -4   3   28.96    1.59
  -5  -4   3   25.80    1.82
  -4  -4   3   11.00    0.62
  -4  -4   3   11.70    0.62
  -4  -4   3   10.85    0.73
  -4  -4   3   11.30    0.62
  -4  -4   3   11.74    0.85
  -4  -4   3   10.46    0.62
  -4  -4   3   10.18    0.63
  -4  -4   3   11.94    0.78
  -3  -4   3    1.61    0.27
  -3  -4   3    1.63    0.11
  -3  -4   3    1.57    0.12
  -3  -4   3    1.71    0.22
  -3  -4   3    1.36    0.13
  -3  -4   3    1.87    0.23
  -3  -4   3    1.84    0.19
  -3  -4   3    1.57    0.12
  -2  -4   3    6.35    0.44
  -2  -4   3    6.15    0.54
  -2  -4   3    6.37    0.47
   1   4  -3   38.23    2.73
  -1  -4   3   37.49    2.70
  -1  -4   3   40.46    2.66
  -1  -4   3   42.54    2.48
  -1  -4   3   41.99    2.60
   0   4  -3    0.30    0.13
   0   4  -3    0.47    0.21
   0   4  -3    0.48    0.14
   0  -4   3    0.46    0.16
   0  -4   3    0.55    0.09
   0  -4   3    0.63    0.11
   0  -4   3    0.77    0.22
  -1   4  -3   48.85    2.81
  -1   4  -3   49.84    3.28
  -1   4  -3   50.95    3.01
   1  -4   3   48.13    2.99
   1  -4   3   47.89    3.13
   1  -4   3   47.47    3.27
   1  -4   3   48.86    3.25
  -2   4  -3   26.66    1.87
  -2   4  -3   27.99    1.80
  -2   4  -3   29.01    1.58
  -2   4  -3   27.01    1.68
  -2   4  -3   24.19    1.85
   2  -4   3   26.40    1.85
  -3   4  -3    7.91    0.61
  -3   4  -3    8.26    0.52
  -3   4  -3    7.96    0.54
  -4   4  -3   12.27    0.92
  -4   4  -3   14.58    0.96
  -4   4  -3   15.09    0.86
  -4   4  -3   13.40    0.88
  -5   4  -3    4.73    0.41
  -5   4  -3    5.50    0.38
  -5   4  -3    5.52    0.39
  -5   4  -3    5.96    0.32
  -5   4  -3    5.28    0.45
  -5   4  -3    5.37    0.31
  -5   4  -3    5.93    0.42
  -5   4  -3    5.15    0.31
  -6   4  -3   16.26    0.87
  -6   4  -3   15.48    1.00
  -6   4  -3   14.02    1.09
  -6   4  -3   16.74    1.04
  -6   4  -3   16.46    1.04
  -6   4  -3   15.48    0.87
  -7   4  -3    2.86    0.18
  -7   4  -3    2.71    0.28
  -7   4  -3    2.71    0.34
  -7   4  -3    2.65    0.28
  -7   4  -3    3.08    0.24
  -7   4  -3    2.42    0.27
  -8   4  -3    1.38    0.20
  -8   4  -3    1.81    0.21
  -8   4  -3    1.83    0.22
  -9   4  -3    0.11    0.12
  -9   4  -3    0.29    0.15
 -10   4  -3    1.43    0.18
 -10   4  -3    1.45    0.19
  -8  -3   3    6.45    0.39
  -8  -3   3    7.38    0.40
  -7  -3   3   -0.10    0.08
  -7  -3   3   -0.08    0.08
  -7  -3   3   -0.02    0.05
  -6  -3   3    2.69    0.20
  -6  -3   3    2.69    0.21
  -6  -3   3    2.59    0.24
  -6  -3   3    2.65    0.18
  -5  -3   3    0.88    0.09
  -5  -3   3    0.77    0.22
  -5  -3   3    0.97    0.15
  -5  -3   3    0.93    0.11
  -5  -3   3    0.77    0.10
  -5  -3   3    0.77    0.09
  -5  -3   3    0.88    0.22
  -5  -3   3    0.81    0.08
  -5  -3   3    1.09    0.10
  -4  -3   3    5.54    0.42
  -4  -3   3    4.79    0.47
  -4  -3   3    5.12    0.29
  -4  -3   3    4.85    0.29
  -4  -3   3    5.20    0.37
  -4  -3   3    5.18    0.29
  -4  -3   3    5.12    0.29
  -4  -3   3    5.01    0.30
  -4  -3   3    4.57    0.29
  -3  -3   3    6.72    0.50
  -3  -3   3    6.63    0.57
  -3  -3   3    7.40    0.52
  -3  -3   3    7.40    0.48
  -2  -3   3    7.58    0.63
  -2  -3   3    8.96    0.64
  -2  -3   3    8.68    0.58
  -2  -3   3    8.37    0.55
   1   3  -3    0.84    0.17
   1   3  -3    0.89    0.17
   1   3  -3    1.29    0.22
   1   3  -3    0.94    0.15
  -1  -3   3    1.42    0.19
  -1  -3   3    1.09    0.13
  -1  -3   3    1.27    0.20
  -1  -3   3    1.42    0.23
  -1  -3   3    1.32    0.15
   0   3  -3    4.97    0.42
   0   3  -3    3.49    0.26
   0   3  -3    4.00    0.31
   0  -3   3    3.80    0.28
   0  -3   3    4.03    0.35
   0  -3   3    4.13    0.29
   0  -3   3    4.13    0.39
   0  -3   3    5.01    0.41
  -1   3  -3    5.27    0.37
  -1   3  -3    4.91    0.42
  -1   3  -3    5.18    0.45
  -1   3  -3    5.06    0.33
  -1   3  -3    5.27    0.42
   1  -3   3    4.79    0.34
   1  -3   3    4.42    0.40
   1  -3   3    5.42    0.44
  -2   3  -3    4.49    0.43
  -2   3  -3    5.58    0.35
  -2   3  -3    5.09    0.37
  -2   3  -3    5.84    0.42
   2  -3   3    5.21    0.43
  -3   3  -3    2.81    0.25
  -3   3  -3    2.41    0.24
  -3   3  -3    2.21    0.23
  -3   3  -3    1.98    0.21
  -3   3  -3    2.43    0.20
  -3   3  -3    2.19    0.25
  -3   3  -3    1.79    0.17
  -3   3  -3    2.55    0.22
   3  -3   3    2.14    0.23
  -4   3  -3    8.05    0.49
  -4   3  -3    6.63    0.48
  -4   3  -3    7.07    0.52
  -4   3  -3    6.58    0.52
  -4   3  -3    8.50    0.50
  -4   3  -3    8.61    0.54
  -5   3  -3   33.71    1.99
  -6   3  -3    1.26    0.18
  -6   3  -3    1.36    0.10
  -6   3  -3    1.30    0.19
  -6   3  -3    1.41    0.14
  -6   3  -3    1.36    0.15
  -6   3  -3    1.22    0.20
  -6   3  -3    1.37    0.19
  -7   3  -3    3.61    0.39
  -7   3  -3    3.87    0.28
  -7   3  -3    3.90    0.34
  -7   3  -3    3.85    0.32
  -7   3  -3    4.38    0.34
  -8   3  -3    0.14    0.15
  -8   3  -3    0.01    0.12
  -8   3  -3    0.03    0.11
  -9   3  -3    1.77    0.20
  -9   3  -3    1.91    0.26
  -9   3  -3    1.87    0.19
 -10   3  -3    0.01    0.10
  -9  -2   3    0.51    0.08
  -8  -2   3    2.46    0.21
  -8  -2   3    2.56    0.19
  -8  -2   3    2.88    0.24
  -7  -2   3    8.99    0.52
  -7  -2   3    9.04    0.52
  -7  -2   3    9.44    0.64
  -7  -2   3    9.04    0.51
  -6  -2   3    0.49    0.10
  -6  -2   3    0.61    0.06
  -6  -2   3    0.52    0.11
  -6  -2   3    0.74    0.23
  -6  -2   3    0.52    0.10
  -6  -2   3    0.63    0.07
  -6  -2   3    0.63    0.09
  -6  -2   3    0.32    0.16
  -5  -2   3   49.90    2.65
  -5  -2   3   48.07    2.62
  -5  -2   3   45.78    2.58
  -5  -2   3   47.87    2.61
  -5  -2   3   45.27    3.09
  -5  -2   3   49.35    2.92
  -5  -2   3   48.16    2.94
  -5  -2   3   48.21    3.14
  -5  -2   3   48.54    2.56
  -4  -2   3    3.76    0.29
  -4  -2   3    3.81    0.37
  -4  -2   3    4.15    0.33
  -3  -2   3   29.55    1.82
  -3  -2   3   29.10    1.98
  -3  -2   3   30.93    1.85
   2   2  -3   34.58    2.35
   2   2  -3   31.37    2.31
  -2  -2   3   32.05    2.33
  -2  -2   3   34.51    2.27
  -2  -2   3   34.01    2.09
  -2  -2   3   34.04    2.31
  -2  -2   3   38.61    2.13
  -2  -2   3   37.65    2.24
   1   2  -3    5.91    0.44
   1   2  -3    6.12    0.54
   1   2  -3    7.91    0.53
   1   2  -3    6.22    0.50
  -1  -2   3    6.60    0.49
  -1  -2   3    5.87    0.52
  -1  -2   3    6.59    0.44
  -1  -2   3    6.58    0.42
   0   2  -3   91.97    5.56
   0   2  -3   93.49    5.92
   0  -2   3   95.16    6.26
   0  -2   3  107.03    6.36
   0  -2   3  100.71    6.38
   0  -2   3   96.58    5.92
  -1   2  -3  153.69    8.92
  -1   2  -3  163.52   10.18
  -1   2  -3  163.05   10.02
  -1   2  -3  165.18    9.52
  -1   2  -3  138.57   10.01
   1  -2   3  141.89    9.48
   1  -2   3  173.69   10.19
   1  -2   3  165.51   10.17
   1  -2   3  142.21   10.01
  -2   2  -3   49.41    3.18
  -2   2  -3   44.53    3.09
  -2   2  -3   53.67    3.12
  -2   2  -3   41.48    2.94
  -2   2  -3   50.67    2.94
  -2   2  -3   44.45    3.11
  -2   2  -3   47.77    3.17
  -2   2  -3   50.35    2.78
   2  -2   3   48.90    3.18
   2  -2   3   52.32    3.17
  -3   2  -3    2.92    0.24
  -3   2  -3    2.71    0.24
  -3   2  -3    2.69    0.24
  -3   2  -3    3.03    0.23
  -3   2  -3    2.96    0.23
  -3   2  -3    2.80    0.20
  -3   2  -3    2.65    0.22
  -3   2  -3    2.70    0.19
  -3   2  -3    2.43    0.23
   3  -2   3    2.76    0.22
   3  -2   3    2.63    0.23
  -4   2  -3    0.58    0.13
  -4   2  -3    0.50    0.12
  -4   2  -3    0.41    0.10
  -5   2  -3    2.84    0.27
  -5   2  -3    2.77    0.29
  -6   2  -3    9.64    0.71
  -6   2  -3    9.74    0.67
  -6   2  -3    9.97    0.57
  -6   2  -3   10.08    0.68
  -6   2  -3   10.79    0.71
  -6   2  -3   10.32    0.57
  -6   2  -3   10.21    0.69
  -6   2  -3   10.13    0.56
  -7   2  -3    4.02    0.33
  -7   2  -3    3.54    0.42
  -7   2  -3    4.34    0.29
  -7   2  -3    3.84    0.35
  -7   2  -3    4.43    0.27
  -8   2  -3   -0.09    0.11
  -8   2  -3   -0.04    0.10
  -8   2  -3    0.20    0.09
  -8   2  -3   -0.06    0.15
  -9   2  -3    1.60    0.20
  -9   2  -3    1.75    0.19
  -9   2  -3    2.05    0.25
 -10   2  -3    0.65    0.11
 -10   2  -3    0.37    0.08
  -9  -1   3   -0.03    0.09
  -9  -1   3   -0.01    0.08
  -8  -1   3    5.58    0.33
  -8  -1   3    4.92    0.41
  -8  -1   3    5.44    0.31
  -8  -1   3    5.47    0.34
  -7  -1   3    0.01    0.09
  -7  -1   3   -0.12    0.11
  -7  -1   3    0.03    0.06
  -7  -1   3   -0.08    0.08
  -6  -1   3  112.85    5.94
  -6  -1   3  107.69    5.87
  -6  -1   3  113.06    5.83
  -6  -1   3  101.90    7.04
  -6  -1   3  112.25    5.98
  -6  -1   3  110.94    6.55
  -6  -1   3  105.01    6.65
  -6  -1   3  110.61    7.03
  -5  -1   3    0.03    0.15
  -5  -1   3    0.10    0.09
  -5  -1   3    0.03    0.07
  -5  -1   3    0.14    0.05
  -5  -1   3    0.06    0.04
  -5  -1   3    0.15    0.06
  -5  -1   3    0.10    0.06
  -5  -1   3    0.04    0.05
  -5  -1   3    0.15    0.15
  -4  -1   3    1.38    0.21
  -4  -1   3    1.27    0.15
  -4  -1   3    1.38    0.17
   3   1  -3    2.13    0.23
   3   1  -3    2.06    0.30
  -3  -1   3    1.98    0.23
  -3  -1   3    2.67    0.27
  -3  -1   3    1.75    0.24
  -3  -1   3    2.10    0.18
  -3  -1   3    2.06    0.21
   2   1  -3    2.03    0.22
   2   1  -3    2.16    0.29
   2   1  -3    1.96    0.24
   2   1  -3    1.72    0.20
  -2  -1   3    2.13    0.17
  -2  -1   3    2.20    0.25
  -2  -1   3    2.15    0.22
  -2  -1   3    1.98    0.19
  -2  -1   3    2.28    0.26
   1   1  -3    4.17    0.34
   1   1  -3    3.74    0.29
  -1  -1   3    4.16    0.33
  -1  -1   3    4.13    0.33
   0   1  -3   12.86    0.79
   0   1  -3   13.03    0.85
   0  -1   3   12.74    0.85
   0  -1   3   12.02    0.84
   0  -1   3   11.80    0.78
  -1   1  -3  377.07   21.05
  -1   1  -3  350.07   22.32
  -1   1  -3  368.15   23.92
  -1   1  -3  335.00   23.48
  -1   1  -3  350.14   23.57
  -1   1  -3  386.20   22.36
  -1   1  -3  362.73   23.92
   1  -1   3  406.54   23.94
   1  -1   3  376.75   23.93
  -2   1  -3   10.87    0.74
  -2   1  -3   10.96    0.74
  -2   1  -3   11.27    0.68
  -2   1  -3   11.28    0.68
  -2   1  -3   10.51    0.66
  -2   1  -3   10.65    0.74
  -2   1  -3   11.85    0.72
  -2   1  -3   11.51    0.72
  -2   1  -3   11.20    0.72
  -2   1  -3   10.59    0.68
   2  -1   3   10.42    0.74
   2  -1   3   11.42    0.73
  -3   1  -3   12.81    0.82
  -3   1  -3   12.31    0.83
  -3   1  -3   11.83    0.75
  -3   1  -3   12.50    0.77
  -4   1  -3   53.01    3.13
  -4   1  -3   57.50    3.25
  -4   1  -3   55.94    3.48
  -4   1  -3   50.13    3.47
  -5   1  -3    9.72    0.56
  -5   1  -3   10.19    0.67
  -5   1  -3   10.26    0.64
  -6   1  -3    5.70    0.42
  -6   1  -3    5.37    0.37
  -6   1  -3    6.10    0.47
  -6   1  -3    6.20    0.35
  -6   1  -3    6.36    0.35
  -6   1  -3    5.86    0.35
  -6   1  -3    5.69    0.43
  -7   1  -3   79.20    4.11
  -7   1  -3   79.99    4.24
  -7   1  -3   67.62    4.63
  -7   1  -3   79.57    4.96
  -7   1  -3   79.97    4.14
  -7   1  -3   74.45    4.93
  -8   1  -3    0.83    0.13
  -8   1  -3    1.02    0.16
  -8   1  -3    0.74    0.11
  -8   1  -3    0.67    0.12
  -9   1  -3    0.90    0.11
  -9   0   3    3.19    0.29
  -9   0   3    3.25    0.23
  -8   0   3   -0.08    0.08
  -8   0   3    0.06    0.12
  -8   0   3   -0.01    0.06
  -8   0   3   -0.12    0.09
  -7   0   3   27.08    1.44
  -7   0   3   26.45    1.45
  -7   0   3   26.63    1.46
  -7   0   3   24.93    1.68
  -7   0   3   27.73    1.74
  -6   0   3   47.82    2.60
  -6   0   3   44.77    3.12
  -6   0   3   45.79    2.56
  -6   0   3   47.93    3.09
  -6   0   3   49.23    2.94
  -6   0   3   49.50    2.58
  -6   0   3   49.31    2.91
  -6   0   3   48.04    2.62
  -5   0   3   59.47    3.33
  -5   0   3   63.18    3.96
  -5   0   3   62.22    3.72
  -5   0   3   62.14    3.66
  -5   0   3   57.25    3.51
  -4   0   3    0.13    0.08
  -4   0   3    0.06    0.15
  -4   0   3    0.08    0.11
  -4   0   3    0.04    0.08
   3   0  -3   40.07    2.90
   3   0  -3   43.85    2.88
  -3   0   3   44.58    2.66
  -3   0   3   46.44    2.84
  -3   0   3   40.89    2.88
  -3   0   3   44.92    2.61
   2   0  -3  114.10    8.08
   2   0  -3  132.55    8.54
   2   0  -3  138.26    8.67
   2   0  -3  136.88    8.70
  -2   0   3  135.28    7.93
  -2   0   3  138.59    8.54
  -2   0   3  134.68    8.67
  -2   0   3  135.13    8.08
  -2   0   3  132.02    8.69
   1   0  -3  506.67   32.39
   1   0  -3  518.33   32.78
   1   0  -3  532.69   32.81
   1   0  -3  448.50   32.02
   1   0  -3  483.38   30.62
  -1   0   3  490.60   32.36
  -1   0   3  495.60   29.88
  -1   0   3  547.42   32.81
  -1   0   3  513.88   30.61
   0   0  -3  519.37   34.01
   0   0  -3  518.60   32.19
   0   0  -3  540.61   34.49
   0   0  -3  543.53   33.73
   0   0   3  466.83   33.96
   0   0   3  557.68   34.48
   0   0   3  565.25   34.50
  -1   0  -3   10.83    0.76
  -1   0  -3   11.74    0.76
  -1   0  -3   12.72    0.78
  -1   0  -3   11.60    0.69
  -1   0  -3   11.54    0.77
  -1   0  -3   12.00    0.70
  -1   0  -3   10.87    0.71
  -1   0  -3   11.88    0.76
  -1   0  -3   10.53    0.76
  -1   0  -3   11.49    0.71
   1   0   3   11.52    0.78
   1   0   3   12.20    0.77
  -2   0  -3   50.57    3.13
  -2   0  -3   46.90    2.91
  -2   0  -3   47.52    3.13
  -2   0  -3   50.38    2.81
  -3   0  -3   50.34    3.03
  -3   0  -3   50.68    3.26
  -3   0  -3   49.62    3.25
  -3   0  -3   52.36    2.92
  -4   0  -3   30.49    1.94
  -4   0  -3   29.84    1.74
  -4   0  -3   29.34    1.81
  -4   0  -3   29.53    1.94
  -5   0  -3   -0.07    0.12
  -5   0  -3    0.05    0.06
  -5   0  -3    0.13    0.13
  -5   0  -3   -0.10    0.09
  -5   0  -3    0.08    0.06
  -5   0  -3    0.10    0.07
  -5   0  -3    0.04    0.06
  -6   0  -3   34.12    1.82
  -6   0  -3   33.99    2.08
  -6   0  -3   32.31    1.98
  -6   0  -3   32.03    2.18
  -6   0  -3   36.34    1.88
  -6   0  -3   34.99    1.83
  -6   0  -3   32.56    2.19
  -7   0  -3   15.48    0.85
  -7   0  -3   14.85    0.83
  -7   0  -3   15.34    0.83
  -7   0  -3   14.40    1.00
  -8   0  -3    0.65    0.10
  -8   0  -3    0.73    0.14
  -8   0  -3    0.77    0.11
  -9   0  -3   -0.07    0.09
  -9   0  -3    0.08    0.10
  -9   0  -3   -0.12    0.07
 -10   1   3   -0.15    0.06
 -10   1   3    0.07    0.09
  -9   1   3   -0.04    0.11
  -9   1   3    0.04    0.10
  -8   1   3    5.29    0.38
  -8   1   3    4.50    0.30
  -8   1   3    4.39    0.28
  -7   1   3    0.11    0.09
  -7   1   3    0.01    0.08
  -7   1   3    0.04    0.06
  -7   1   3    0.05    0.15
  -7   1   3    0.07    0.08
  -7   1   3    0.00    0.20
  -7   1   3    0.05    0.09
  -7   1   3    0.07    0.04
  -7   1   3    0.07    0.12
  -6   1   3   46.34    2.66
  -6   1   3   42.96    2.35
  -6   1   3   43.81    2.36
  -6   1   3   43.76    2.32
  -6   1   3   41.35    2.63
  -6   1   3   44.27    2.79
  -6   1   3   40.09    2.77
  -6   1   3   43.21    2.31
  -6   1   3   40.41    2.52
  -6   1   3   44.33    2.84
  -5   1   3    3.09    0.29
  -5   1   3    2.89    0.25
  -5   1   3    3.07    0.36
  -5   1   3    3.20    0.27
  -4   1   3   24.07    1.66
  -4   1   3   24.55    1.54
  -4   1   3   25.58    1.51
   3  -1  -3   55.39    3.46
   3  -1  -3   44.84    3.20
   3  -1  -3   52.80    3.48
  -3   1   3   53.80    3.12
  -3   1   3   54.90    3.19
  -3   1   3   53.40    3.46
  -3   1   3   49.48    3.47
  -3   1   3   53.21    3.40
   2  -1  -3   12.31    0.86
   2  -1  -3   14.18    0.96
   2  -1  -3   13.83    0.93
   2  -1  -3   13.98    0.92
   2  -1  -3   12.07    0.84
  -2   1   3   14.78    0.92
  -2   1   3   13.52    0.84
  -2   1   3   12.59    0.95
  -2   1   3   13.37    0.81
   1  -1  -3   34.51    2.29
   1  -1  -3   35.67    2.21
   1  -1  -3   35.36    2.25
   1  -1  -3   32.96    2.12
   1  -1  -3   37.04    2.31
  -1   1   3   32.93    2.25
  -1   1   3   35.58    2.31
  -1   1   3   32.95    2.06
   0  -1  -3   11.33    0.85
   0  -1  -3   13.78    0.79
   0  -1  -3   13.19    0.85
   0  -1  -3   13.33    0.83
   0  -1  -3   12.43    0.87
   0  -1  -3   10.35    0.78
   0   1   3   13.57    0.87
   0   1   3   11.86    0.84
   0   1   3   14.12    0.88
  -1  -1  -3    0.51    0.11
  -1  -1  -3    0.55    0.07
  -1  -1  -3    0.51    0.06
  -1  -1  -3    0.54    0.11
  -1  -1  -3    0.58    0.10
  -1  -1  -3    0.49    0.07
  -1  -1  -3    0.56    0.11
  -1  -1  -3    0.40    0.10
  -1  -1  -3    0.50    0.10
   1   1   3    0.61    0.11
   1   1   3    0.57    0.12
  -2  -1  -3   22.98    1.42
  -2  -1  -3   23.07    1.40
  -2  -1  -3   23.52    1.52
  -2  -1  -3   23.70    1.52
  -3  -1  -3   54.18    3.50
  -3  -1  -3   52.15    3.24
  -3  -1  -3   56.75    3.49
  -4  -1  -3    0.17    0.11
  -4  -1  -3    0.14    0.10
  -5  -1  -3    1.62    0.21
  -5  -1  -3    1.65    0.14
  -5  -1  -3    1.63    0.15
  -5  -1  -3    1.80    0.24
  -5  -1  -3    1.74    0.14
  -5  -1  -3    1.53    0.18
  -5  -1  -3    1.84    0.25
  -5  -1  -3    1.71    0.16
  -6  -1  -3   19.35    1.16
  -6  -1  -3   20.58    1.07
  -6  -1  -3   21.13    1.09
  -6  -1  -3   17.92    1.28
  -6  -1  -3   17.67    1.24
  -6  -1  -3   19.67    1.06
  -7  -1  -3    4.39    0.28
  -7  -1  -3    3.88    0.34
  -7  -1  -3    4.63    0.29
  -7  -1  -3    4.33    0.29
  -8  -1  -3    2.01    0.19
  -9  -1  -3    2.56    0.17
 -10   2   3   -0.02    0.07
 -10   2   3    0.43    0.11
  -9   2   3    0.31    0.06
  -9   2   3    0.35    0.10
  -9   2   3    0.25    0.12
  -8   2   3   -0.15    0.12
  -8   2   3    0.03    0.10
  -8   2   3   -0.10    0.09
  -8   2   3    0.05    0.06
  -7   2   3    1.97    0.23
  -7   2   3    2.51    0.16
  -7   2   3    1.61    0.26
  -7   2   3    1.83    0.22
  -7   2   3    2.17    0.15
  -7   2   3    2.14    0.22
  -7   2   3    2.01    0.27
  -7   2   3    2.24    0.18
  -6   2   3    7.85    0.52
  -6   2   3    7.00    0.42
  -6   2   3    7.75    0.62
  -6   2   3    7.59    0.55
  -6   2   3    7.41    0.53
  -6   2   3    6.93    0.42
  -6   2   3    7.40    0.51
  -6   2   3    7.34    0.42
  -6   2   3    7.46    0.51
  -5   2   3   31.64    2.00
  -5   2   3   33.13    1.97
  -5   2   3   31.47    2.16
  -5   2   3   32.79    1.91
  -4   2   3   34.96    2.10
  -4   2   3   35.77    2.30
  -4   2   3   33.60    2.15
   3  -2  -3    2.86    0.35
   3  -2  -3    2.70    0.26
   3  -2  -3    2.83    0.33
   3  -2  -3    3.29    0.31
  -3   2   3    3.34    0.24
  -3   2   3    3.12    0.26
  -3   2   3    2.71    0.32
  -3   2   3    3.08    0.33
  -3   2   3    2.94    0.32
   2  -2  -3    6.12    0.51
   2  -2  -3    5.16    0.37
   2  -2  -3    4.94    0.44
  -2   2   3    4.69    0.37
  -2   2   3    5.22    0.43
  -2   2   3    5.25    0.46
  -2   2   3    5.11    0.34
  -2   2   3    4.83    0.44
   1  -2  -3  824.84   50.98
   1  -2  -3  742.86   48.69
   1  -2  -3  823.87   51.51
   1  -2  -3  810.42   52.12
  -1   2   3  787.12   51.45
  -1   2   3  822.04   52.12
   0  -2  -3    9.31    0.63
   0  -2  -3    9.32    0.61
   0  -2  -3    9.25    0.57
   0  -2  -3    9.09    0.61
   0  -2  -3    8.56    0.65
   0   2   3    9.00    0.65
   0   2   3    9.02    0.66
   0   2   3    7.26    0.62
  -1  -2  -3    1.22    0.13
  -1  -2  -3    1.05    0.11
  -1  -2  -3    1.36    0.17
  -1  -2  -3    0.98    0.14
  -1  -2  -3    1.06    0.14
  -1  -2  -3    1.34    0.19
  -1  -2  -3    1.31    0.17
  -1  -2  -3    0.99    0.10
  -1  -2  -3    1.16    0.16
   1   2   3    1.19    0.18
   1   2   3    1.19    0.18
  -2  -2  -3   16.79    0.99
  -2  -2  -3   14.29    0.91
  -2  -2  -3   14.41    0.90
  -2  -2  -3   15.86    0.91
  -2  -2  -3   14.54    1.00
  -2  -2  -3   13.51    0.98
  -2  -2  -3   14.86    0.99
   2   2   3   14.14    1.02
  -3  -2  -3    9.23    0.63
  -3  -2  -3    8.31    0.56
  -4  -2  -3    1.35    0.13
  -4  -2  -3    1.18    0.12
  -4  -2  -3    1.70    0.23
  -4  -2  -3    1.12    0.16
  -4  -2  -3    1.17    0.18
  -4  -2  -3    1.48    0.15
  -4  -2  -3    1.35    0.12
  -4  -2  -3    1.32    0.09
  -5  -2  -3    1.43    0.16
  -5  -2  -3    1.20    0.14
  -5  -2  -3    1.45    0.25
  -5  -2  -3    1.56    0.25
  -5  -2  -3    1.15    0.14
  -5  -2  -3    1.29    0.14
  -6  -2  -3    0.11    0.09
  -6  -2  -3    0.25    0.11
  -6  -2  -3    0.02    0.09
  -6  -2  -3    0.12    0.09
  -7  -2  -3   11.75    0.67
  -7  -2  -3   11.76    0.65
  -7  -2  -3   11.48    0.66
  -8  -2  -3   11.36    0.63
  -8  -2  -3   11.24    0.63
 -10   3   3    3.50    0.28
  -9   3   3    0.87    0.14
  -9   3   3    0.87    0.12
  -9   3   3    0.69    0.08
  -9   3   3    0.57    0.11
  -8   3   3    7.34    0.45
  -8   3   3    8.03    0.55
  -8   3   3    8.06    0.56
  -8   3   3    7.55    0.45
  -7   3   3    7.99    0.58
  -7   3   3    8.39    0.61
  -7   3   3    8.87    0.48
  -7   3   3    8.53    0.48
  -7   3   3    7.94    0.63
  -7   3   3    8.30    0.58
  -7   3   3    8.41    0.48
  -7   3   3    7.17    0.68
  -7   3   3    8.56    0.58
  -6   3   3    1.45    0.13
  -6   3   3    1.46    0.18
  -6   3   3    1.42    0.19
  -6   3   3    1.77    0.24
  -6   3   3    1.38    0.13
  -6   3   3    1.11    0.27
  -6   3   3    2.16    0.26
  -5   3   3   22.85    1.42
  -5   3   3   22.80    1.45
  -5   3   3   22.15    1.38
  -5   3   3   24.10    1.59
  -4   3   3   43.63    2.68
  -4   3   3   45.00    2.75
  -4   3   3   44.90    2.93
   3  -3  -3   32.71    2.28
   3  -3  -3   30.06    2.09
  -3   3   3   32.87    2.29
  -3   3   3   37.22    2.35
  -3   3   3   36.11    2.09
   2  -3  -3   37.10    2.51
   2  -3  -3   37.98    2.29
   2  -3  -3   35.71    2.49
   2  -3  -3   37.93    2.45
  -2   3   3   36.74    2.29
   1  -3  -3   37.40    2.77
   1  -3  -3   42.51    2.55
   1  -3  -3   43.89    2.72
  -1   3   3   38.71    2.78
  -1   3   3   44.76    2.57
   0  -3  -3   10.69    0.80
   0  -3  -3   11.44    0.74
   0  -3  -3   11.24    0.70
   0  -3  -3   11.33    0.77
   0   3   3    9.52    0.80
   0   3   3    9.83    0.80
  -1  -3  -3    5.38    0.35
  -1  -3  -3    4.43    0.33
  -1  -3  -3    5.42    0.39
  -1  -3  -3    5.10    0.41
  -2  -3  -3    9.51    0.66
  -2  -3  -3    9.45    0.66
  -2  -3  -3    9.59    0.59
  -2  -3  -3    8.57    0.59
  -3  -3  -3    1.07    0.18
  -3  -3  -3    1.14    0.08
  -3  -3  -3    1.42    0.14
  -3  -3  -3    1.77    0.23
  -3  -3  -3    1.31    0.12
  -3  -3  -3    1.11    0.15
  -3  -3  -3    1.37    0.10
  -3  -3  -3    1.34    0.12
  -3  -3  -3    1.16    0.12
  -4  -3  -3    0.33    0.08
  -4  -3  -3    0.30    0.07
  -4  -3  -3    0.32    0.04
  -4  -3  -3    0.54    0.20
  -4  -3  -3    0.38    0.08
  -4  -3  -3    0.36    0.08
  -5  -3  -3    1.51    0.17
  -5  -3  -3    1.67    0.17
  -5  -3  -3    1.79    0.20
  -5  -3  -3    2.25    0.32
  -5  -3  -3    1.44    0.16
  -6  -3  -3    0.59    0.10
  -6  -3  -3    0.74    0.11
  -6  -3  -3    0.58    0.11
  -7  -3  -3    1.27    0.12
  -7  -3  -3    1.01    0.12
  -8  -3  -3    4.81    0.28
 -10   4   3    0.10    0.09
 -10   4   3    0.08    0.09
  -9   4   3    1.32    0.15
  -9   4   3    0.97    0.15
  -9   4   3    0.80    0.10
  -8   4   3    0.05    0.08
  -8   4   3    0.15    0.12
  -8   4   3    0.11    0.06
  -8   4   3    0.08    0.12
  -7   4   3    1.85    0.25
  -7   4   3    1.70    0.17
  -7   4   3    1.69    0.21
  -7   4   3    2.13    0.29
  -7   4   3    1.67    0.22
  -7   4   3    1.78    0.15
  -6   4   3    0.15    0.16
  -6   4   3    0.30    0.09
  -6   4   3    0.23    0.26
  -6   4   3    0.16    0.15
  -6   4   3    0.17    0.08
  -6   4   3    0.21    0.07
  -5   4   3   12.64    0.82
  -5   4   3   11.30    0.69
  -5   4   3   11.42    0.71
  -5   4   3   13.29    0.94
  -5   4   3   13.36    0.80
  -4   4   3    7.58    0.55
  -4   4   3    7.58    0.64
   3  -4  -3  101.26    6.30
  -3   4   3   93.92    6.14
  -3   4   3   89.29    5.79
   2  -4  -3   -0.02    0.10
   2  -4  -3    0.03    0.15
   2  -4  -3    0.02    0.10
  -2   4   3    0.04    0.14
  -2   4   3    0.18    0.13
  -2   4   3    0.03    0.16
   1  -4  -3    1.38    0.28
   1  -4  -3    1.21    0.17
   1  -4  -3    0.94    0.17
   1  -4  -3    0.66    0.20
  -1   4   3    0.83    0.24
   0  -4  -3    8.12    0.64
   0  -4  -3    7.94    0.59
   0  -4  -3    8.40    0.56
  -1  -4  -3   14.01    0.94
  -1  -4  -3   13.28    0.97
  -2  -4  -3   25.01    1.34
  -2  -4  -3   24.48    1.33
  -2  -4  -3   23.35    1.36
  -2  -4  -3   23.39    1.35
  -2  -4  -3   23.02    1.44
  -2  -4  -3   25.38    1.64
  -2  -4  -3   26.17    1.64
  -2  -4  -3   25.45    1.52
  -3  -4  -3    2.19    0.16
  -3  -4  -3    2.19    0.14
  -3  -4  -3    1.90    0.25
  -3  -4  -3    1.82    0.15
  -3  -4  -3    2.16    0.13
  -3  -4  -3    2.42    0.18
  -3  -4  -3    2.49    0.19
  -3  -4  -3    2.25    0.29
  -3  -4  -3    1.96    0.17
  -4  -4  -3   -0.01    0.09
  -4  -4  -3   -0.01    0.05
  -4  -4  -3   -0.09    0.09
  -4  -4  -3    0.14    0.21
  -4  -4  -3   -0.06    0.07
  -4  -4  -3    0.12    0.07
  -5  -4  -3   12.45    0.74
  -5  -4  -3   14.52    0.75
  -5  -4  -3   12.57    0.76
  -5  -4  -3   13.75    0.81
  -6  -4  -3    0.26    0.09
  -6  -4  -3    0.23    0.09
  -6  -4  -3    0.36    0.08
  -7  -4  -3   -0.06    0.07
  -7  -4  -3    0.17    0.06
  -7  -4  -3    0.00    0.08
 -10   5   3    3.25    0.28
 -10   5   3    4.00    0.29
  -9   5   3    0.51    0.09
  -9   5   3    0.43    0.12
  -9   5   3    0.60    0.13
  -8   5   3    4.20    0.26
  -8   5   3    3.76    0.34
  -8   5   3    4.59    0.35
  -8   5   3    3.88    0.28
  -7   5   3    0.18    0.08
  -7   5   3    0.34    0.12
  -7   5   3    0.15    0.10
  -7   5   3    0.50    0.20
  -6   5   3    6.34    0.38
  -6   5   3    5.98    0.50
  -6   5   3    5.43    0.61
  -6   5   3    6.12    0.38
  -6   5   3    6.70    0.51
  -5   5   3    0.97    0.12
  -5   5   3    0.68    0.17
  -5   5   3    0.66    0.29
  -5   5   3    0.81    0.09
  -5   5   3    1.15    0.20
  -4   5   3    9.33    0.67
  -4   5   3    9.78    0.63
  -4   5   3    9.08    0.78
   2  -5  -3    0.89    0.16
   2  -5  -3    1.36    0.30
   1  -5  -3    3.50    0.32
   1  -5  -3    3.74    0.45
   1  -5  -3    3.69    0.34
   0  -5  -3    6.77    0.49
   0  -5  -3    6.66    0.58
   0  -5  -3    6.63    0.47
   0  -5  -3    5.57    0.37
  -1  -5  -3   42.10    2.50
  -1  -5  -3   41.89    2.21
  -1  -5  -3   38.93    2.22
  -1  -5  -3   41.88    2.66
  -1  -5  -3   38.72    2.36
  -1  -5  -3   39.17    2.30
  -1  -5  -3   42.13    2.69
  -1  -5  -3   39.25    2.24
  -2  -5  -3   74.75    4.12
  -2  -5  -3   76.70    4.10
  -2  -5  -3   77.05    4.90
  -2  -5  -3   74.08    4.39
  -2  -5  -3   74.90    4.60
  -2  -5  -3   76.21    4.05
  -2  -5  -3   71.81    4.15
  -2  -5  -3   77.36    4.89
  -3  -5  -3   -0.09    0.14
  -3  -5  -3    0.03    0.08
  -3  -5  -3    0.00    0.03
  -3  -5  -3    0.10    0.06
  -3  -5  -3    0.00    0.21
  -3  -5  -3    0.11    0.09
  -3  -5  -3    0.00    0.08
  -3  -5  -3   -0.04    0.08
  -4  -5  -3    4.36    0.31
  -4  -5  -3    3.92    0.27
  -4  -5  -3    3.90    0.24
  -4  -5  -3    3.71    0.27
  -5  -5  -3    3.72    0.26
  -5  -5  -3    3.65    0.25
  -6  -5  -3    0.25    0.07
  -6  -5  -3    0.18    0.08
 -10   6   3    7.73    0.53
  -9   6   3    2.95    0.27
  -9   6   3    2.87    0.22
  -8   6   3   -0.06    0.11
  -8   6   3   -0.07    0.10
  -8   6   3   -0.05    0.07
  -7   6   3    0.05    0.09
  -7   6   3    0.01    0.11
  -7   6   3    0.12    0.05
  -7   6   3    0.17    0.10
  -6   6   3    1.01    0.22
  -6   6   3    0.89    0.11
  -6   6   3    1.32    0.24
  -6   6   3    0.47    0.25
  -5   6   3   33.60    1.85
  -5   6   3   29.30    1.95
  -5   6   3   27.54    2.11
  -5   6   3   31.42    1.70
  -4   6   3    1.44    0.20
  -4   6   3    1.16    0.14
   3  -6  -3    8.03    0.61
  -3   6   3    7.93    0.55
   2  -6  -3    0.07    0.15
   2  -6  -3   -0.05    0.24
   2  -6  -3    0.13    0.13
   1  -6  -3    0.03    0.28
   1  -6  -3    0.03    0.07
   1  -6  -3    0.13    0.15
   1  -6  -3    0.13    0.16
   1  -6  -3    0.05    0.06
   0  -6  -3    6.49    0.39
   0  -6  -3    6.72    0.39
   0  -6  -3    7.16    0.64
   0  -6  -3    6.35    0.39
   0  -6  -3    6.77    0.54
  -1  -6  -3   24.00    1.60
  -1  -6  -3   21.83    1.49
  -1  -6  -3   24.34    1.28
  -1  -6  -3   23.44    1.29
  -1  -6  -3   24.48    1.30
  -1  -6  -3   23.29    1.34
  -1  -6  -3   22.68    1.31
  -1  -6  -3   24.02    1.65
  -2  -6  -3    3.69    0.35
  -2  -6  -3    4.59    0.26
  -2  -6  -3    4.33    0.44
  -2  -6  -3    4.62    0.29
  -2  -6  -3    4.21    0.31
  -2  -6  -3    4.70    0.28
  -2  -6  -3    4.39    0.29
  -3  -6  -3   10.18    0.58
  -3  -6  -3   10.41    0.57
  -3  -6  -3    9.55    0.58
  -4  -6  -3   40.56    2.10
  -4  -6  -3   37.21    2.14
  -4  -6  -3   38.28    2.11
  -5  -6  -3    1.08    0.11
  -5  -6  -3    0.95    0.12
  -9   7   3    0.03    0.10
  -9   7   3   -0.13    0.08
  -8   7   3    0.07    0.08
  -8   7   3    0.03    0.10
  -8   7   3    0.14    0.11
  -7   7   3   13.84    0.87
  -7   7   3   15.65    0.88
  -7   7   3   16.13    0.87
  -7   7   3   15.64    1.02
  -6   7   3    1.67    0.20
  -6   7   3    1.93    0.16
  -6   7   3    1.58    0.20
  -5   7   3    4.82    0.43
  -4   7   3    4.15    0.38
   3  -7  -3    0.25    0.06
   2  -7  -3    0.24    0.07
   2  -7  -3    0.57    0.19
   1  -7  -3   -0.08    0.32
   1  -7  -3    0.18    0.17
   1  -7  -3    0.05    0.06
   0  -7  -3   22.81    1.57
   0  -7  -3   23.81    1.36
   0  -7  -3   26.76    1.37
   0  -7  -3   22.02    1.66
   0  -7  -3   26.99    1.41
  -1  -7  -3    0.07    0.06
  -1  -7  -3    0.10    0.08
  -1  -7  -3   -0.04    0.09
  -2  -7  -3   14.23    0.84
  -2  -7  -3   15.18    0.83
  -2  -7  -3   15.53    0.83
  -2  -7  -3   14.40    0.82
  -3  -7  -3   14.83    0.77
  -3  -7  -3   12.93    0.78
  -3  -7  -3   13.63    0.76
  -4  -7  -3   14.04    0.78
  -5  -7  -3    0.20    0.06
  -9   8   3    3.16    0.23
  -9   8   3    3.42    0.26
  -8   8   3   -0.07    0.11
  -8   8   3   -0.07    0.07
  -8   8   3    0.01    0.09
  -7   8   3    0.01    0.10
  -7   8   3    0.04    0.06
  -7   8   3    0.02    0.09
  -6   8   3    9.93    0.73
  -6   8   3   11.66    0.64
  -6   8   3   10.96    0.64
  -5   8   3   12.52    0.74
  -4   8   3    7.98    0.49
   3  -8  -3    2.23    0.19
   2  -8  -3    0.39    0.08
   1  -8  -3   -0.01    0.07
   1  -8  -3   -0.01    0.07
   0  -8  -3    0.25    0.07
   0  -8  -3    0.30    0.10
   0  -8  -3    0.53    0.10
  -1  -8  -3    1.71    0.18
  -1  -8  -3    1.76    0.14
  -1  -8  -3    2.07    0.17
  -2  -8  -3    4.87    0.29
  -2  -8  -3    4.68    0.30
  -3  -8  -3    9.29    0.52
  -3  -8  -3    9.45    0.53
  -8   9   3    0.03    0.08
  -8   9   3    0.02    0.06
  -7   9   3    0.05    0.09
  -7   9   3    0.11    0.11
  -6   9   3    0.20    0.07
  -6   9   3    0.35    0.12
  -5   9   3    0.01    0.08
   4  -9  -3    6.63    0.39
  -4   9   3    5.56    0.38
   3  -9  -3   -0.04    0.08
   2  -9  -3    0.21    0.07
   2  -9  -3    0.15    0.07
   1  -9  -3    8.81    0.51
   1  -9  -3    8.99    0.52
   1  -9  -3    8.91    0.51
   0  -9  -3    2.18    0.15
   0  -9  -3    2.00    0.18
   0  -9  -3    1.98    0.18
  -1  -9  -3    2.35    0.18
  -1  -9  -3    2.23    0.14
  -1  -9  -3    2.44    0.18
  -2  -9  -3    3.93    0.24
  -2  -9  -3    3.87    0.24
  -7  10   3    1.23    0.16
  -7  10   3    0.70    0.09
  -6  10   3    1.93    0.15
  -6  10   3    1.26    0.16
   5 -10  -3    7.69    0.49
  -5  10   3    8.34    0.48
  -4  10   3    0.61    0.09
   3 -10  -3    5.31    0.32
   3 -10  -3    4.80    0.31
   2 -10  -3    0.05    0.07
   2 -10  -3    0.23    0.07
   1 -10  -3    1.34    0.14
   1 -10  -3    1.39    0.12
   0 -10  -3    0.00    0.07
   0 -10  -3    0.00    0.06
  -5  11   3    3.94    0.25
   4 -11  -3   15.01    0.74
  -4  11   3   12.14    0.78
   3 -11  -3   -0.01    0.05
  -1  11  -4    7.50    0.47
   1 -11   4    8.39    0.45
  -2  11  -4   17.49    1.01
  -3  11  -4    0.27    0.07
  -4  11  -4    0.19    0.11
  -4  11  -4    0.08    0.09
  -4  11  -4    0.14    0.06
   4 -11   4    0.12    0.07
  -5  11  -4    9.33    0.66
  -5  11  -4    9.11    0.53
  -6  11  -4    0.63    0.08
  -6  11  -4    1.02    0.13
  -1 -10   4    0.09    0.05
  -1 -10   4    0.05    0.06
   0 -10   4    4.71    0.29
  -2  10  -4   21.52    1.38
   2 -10   4   26.20    1.38
  -3  10  -4    1.81    0.18
  -4  10  -4    5.92    0.45
  -4  10  -4    5.55    0.37
  -4  10  -4    5.63    0.36
  -5  10  -4    0.32    0.07
  -5  10  -4    0.27    0.10
  -5  10  -4    0.22    0.13
  -6  10  -4    3.46    0.26
  -6  10  -4    3.78    0.33
  -6  10  -4    3.74    0.25
  -7  10  -4    0.89    0.15
  -7  10  -4    0.90    0.10
  -7  10  -4    0.75    0.08
  -8  10  -4    1.63    0.19
  -8  10  -4    1.37    0.12
  -3  -9   4    0.19    0.07
  -3  -9   4    0.15    0.06
  -2  -9   4    2.47    0.18
  -2  -9   4    2.50    0.17
  -2  -9   4    2.20    0.18
  -1  -9   4    0.15    0.06
  -1  -9   4    0.22    0.06
   0  -9   4    0.09    0.06
   1  -9   4    0.04    0.07
  -2   9  -4    0.18    0.08
   2  -9   4    0.26    0.07
  -3   9  -4    2.70    0.21
  -4   9  -4    6.67    0.43
  -4   9  -4    7.28    0.44
  -5   9  -4    9.98    0.73
  -5   9  -4    9.94    0.59
  -5   9  -4   10.05    0.59
  -6   9  -4    0.33    0.14
  -6   9  -4    0.38    0.10
  -7   9  -4   26.69    1.55
  -7   9  -4   29.63    1.92
  -7   9  -4   28.05    1.54
  -8   9  -4    0.99    0.16
  -8   9  -4    1.30    0.14
  -4  -8   4    9.76    0.54
  -4  -8   4    9.54    0.54
  -3  -8   4    5.53    0.34
  -3  -8   4    5.49    0.33
  -3  -8   4    5.92    0.34
  -2  -8   4    0.67    0.10
  -2  -8   4    0.59    0.06
  -2  -8   4    0.44    0.07
  -1  -8   4    0.11    0.06
  -1  -8   4    0.21    0.06
   0  -8   4   51.53    2.94
   1  -8   4    0.16    0.07
  -2   8  -4    8.00    0.49
  -3   8  -4    0.06    0.07
  -4   8  -4    6.74    0.39
  -4   8  -4    6.75    0.40
  -4   8  -4    5.14    0.54
  -5   8  -4    3.85    0.25
  -5   8  -4    3.83    0.27
  -6   8  -4    4.04    0.26
  -6   8  -4    3.32    0.35
  -7   8  -4    6.84    0.42
  -7   8  -4    7.77    0.57
  -7   8  -4    7.55    0.51
  -8   8  -4    0.09    0.07
  -8   8  -4    0.02    0.14
  -8   8  -4    0.14    0.10
  -9   8  -4    1.32    0.16
  -9   8  -4    1.28    0.19
  -5  -7   4    5.21    0.32
  -5  -7   4    5.41    0.31
  -4  -7   4    0.79    0.10
  -4  -7   4    0.80    0.10
  -4  -7   4    0.68    0.10
  -3  -7   4    1.61    0.16
  -3  -7   4    1.60    0.17
  -3  -7   4    1.54    0.14
  -2  -7   4    0.51    0.08
  -2  -7   4    0.70    0.07
  -2  -7   4    0.93    0.09
  -2  -7   4    0.95    0.26
  -1  -7   4   14.44    1.01
  -1  -7   4   13.06    1.17
  -1  -7   4   15.91    0.88
  -1  -7   4   16.09    0.85
   0  -7   4    3.16    0.21
  -2   7  -4    5.40    0.34
  -3   7  -4   11.70    0.69
  -3   7  -4   11.86    0.68
  -3   7  -4   11.95    0.95
  -4   7  -4   21.45    1.35
  -4   7  -4   19.59    1.48
  -4   7  -4   19.07    1.26
  -4   7  -4   22.31    1.15
  -4   7  -4   20.20    1.19
  -5   7  -4    8.31    0.49
  -5   7  -4    7.46    0.72
  -5   7  -4    8.27    0.62
  -5   7  -4    8.09    0.59
  -5   7  -4    8.45    0.49
  -5   7  -4    8.57    0.49
  -6   7  -4    9.16    0.67
  -6   7  -4    9.90    0.71
  -6   7  -4    9.68    0.73
  -6   7  -4   10.64    0.57
  -7   7  -4   55.34    3.15
  -7   7  -4   59.79    3.89
  -8   7  -4    1.41    0.20
  -8   7  -4    1.41    0.19
  -8   7  -4    1.54    0.14
  -9   7  -4    0.73    0.15
  -9   7  -4    1.27    0.17
  -6  -6   4    0.50    0.08
  -6  -6   4    0.74    0.09
  -5  -6   4    0.05    0.07
  -5  -6   4    0.00    0.08
  -4  -6   4    0.91    0.10
  -4  -6   4    0.58    0.11
  -4  -6   4    0.62    0.07
  -4  -6   4    0.64    0.10
  -3  -6   4   15.77    0.88
  -3  -6   4   16.23    0.91
  -3  -6   4   16.69    0.88
  -3  -6   4   15.08    1.06
  -3  -6   4   14.88    0.87
  -2  -6   4    5.42    0.31
  -2  -6   4    5.34    0.31
  -2  -6   4    5.32    0.47
  -2  -6   4    5.07    0.57
  -2  -6   4    4.98    0.31
  -2  -6   4    5.31    0.41
  -2  -6   4    4.75    0.31
  -1  -6   4    0.21    0.10
  -1  -6   4    0.61    0.28
  -1  -6   4    0.33    0.06
  -1  -6   4    0.27    0.05
   0  -6   4    7.93    0.70
  -2   6  -4    8.97    0.80
  -2   6  -4   11.04    0.74
  -3   6  -4   20.17    1.21
  -3   6  -4   20.09    1.42
  -3   6  -4   18.96    1.15
  -3   6  -4   21.35    1.30
  -4   6  -4    0.11    0.05
  -4   6  -4    0.10    0.07
  -4   6  -4    0.14    0.08
  -4   6  -4    0.32    0.24
  -4   6  -4    0.00    0.14
  -4   6  -4    0.32    0.16
  -5   6  -4    7.57    0.41
  -5   6  -4    7.10    0.41
  -5   6  -4    7.03    0.52
  -5   6  -4    6.70    0.51
  -5   6  -4    6.34    0.48
  -5   6  -4    6.55    0.61
  -5   6  -4    6.46    0.50
  -5   6  -4    7.09    0.53
  -5   6  -4    7.20    0.40
  -6   6  -4    0.17    0.21
  -6   6  -4    0.21    0.08
  -6   6  -4   -0.02    0.09
  -6   6  -4   -0.03    0.13
  -6   6  -4    0.15    0.13
  -6   6  -4    0.25    0.19
  -6   6  -4    0.20    0.06
  -6   6  -4    0.21    0.13
  -7   6  -4    4.39    0.40
  -7   6  -4    4.87    0.37
  -7   6  -4    4.34    0.39
  -8   6  -4   16.69    1.02
  -8   6  -4   14.17    1.03
  -8   6  -4   14.80    1.07
  -9   6  -4    0.22    0.12
  -9   6  -4    0.13    0.12
 -10   6  -4   -0.04    0.09
 -10   6  -4    0.51    0.10
  -7  -5   4    0.44    0.08
  -6  -5   4    0.11    0.06
  -6  -5   4   -0.03    0.09
  -5  -5   4    0.23    0.10
  -5  -5   4    0.27    0.08
  -5  -5   4    0.33    0.07
  -5  -5   4    0.20    0.05
  -4  -5   4   71.53    3.81
  -4  -5   4   73.10    3.79
  -4  -5   4   66.25    4.21
  -4  -5   4   72.97    3.72
  -4  -5   4   63.58    3.74
  -3  -5   4   12.78    0.75
  -3  -5   4   13.46    1.00
  -3  -5   4   13.63    0.87
  -3  -5   4   13.24    0.73
  -3  -5   4   13.89    0.90
  -3  -5   4   12.01    0.72
  -2  -5   4    1.93    0.25
  -2  -5   4    1.48    0.19
  -2  -5   4    1.17    0.11
  -2  -5   4    1.20    0.11
  -2  -5   4    1.13    0.27
  -1  -5   4    4.39    0.45
  -1  -5   4    4.14    0.32
  -1  -5   4    3.89    0.32
   0  -5   4    2.97    0.36
   0  -5   4    2.43    0.24
  -1   5  -4   11.37    0.71
  -1   5  -4   12.23    0.79
  -1   5  -4   12.83    0.88
   1  -5   4   10.08    0.90
  -2   5  -4   16.51    1.06
  -2   5  -4   16.90    1.16
  -2   5  -4   15.80    0.98
  -3   5  -4    1.71    0.21
  -3   5  -4    1.53    0.19
  -3   5  -4    1.36    0.24
  -4   5  -4    1.40    0.13
  -4   5  -4    1.72    0.23
  -4   5  -4    1.45    0.12
  -4   5  -4    1.86    0.22
  -4   5  -4    2.07    0.28
  -4   5  -4    1.58    0.22
  -5   5  -4    0.23    0.11
  -5   5  -4    0.07    0.15
  -5   5  -4    0.19    0.07
  -5   5  -4    0.21    0.05
  -5   5  -4    0.05    0.11
  -5   5  -4    0.41    0.20
  -5   5  -4    0.15    0.09
  -5   5  -4    0.27    0.12
  -6   5  -4   -0.26    0.09
  -6   5  -4    0.04    0.17
  -6   5  -4    0.02    0.14
  -6   5  -4    0.06    0.09
  -6   5  -4   -0.07    0.12
  -6   5  -4    0.07    0.12
  -6   5  -4   -0.03    0.06
  -6   5  -4   -0.02    0.04
  -7   5  -4   23.33    1.52
  -7   5  -4   25.09    1.53
  -7   5  -4   21.49    1.45
  -7   5  -4   22.78    1.60
  -8   5  -4    0.91    0.15
  -8   5  -4    0.69    0.15
  -8   5  -4    0.73    0.17
  -9   5  -4    8.34    0.55
  -9   5  -4    7.16    0.56
 -10   5  -4    2.68    0.25
 -10   5  -4    3.36    0.25
  -8  -4   4    3.48    0.22
  -7  -4   4    0.06    0.06
  -7  -4   4    0.16    0.09
  -6  -4   4    0.47    0.08
  -6  -4   4    0.29    0.08
  -6  -4   4    0.38    0.10
  -5  -4   4    5.51    0.32
  -5  -4   4    4.25    0.30
  -5  -4   4    5.26    0.30
  -5  -4   4    4.66    0.46
  -5  -4   4    4.95    0.29
  -4  -4   4    5.50    0.33
  -4  -4   4    5.65    0.32
  -4  -4   4    5.48    0.41
  -4  -4   4    5.36    0.32
  -4  -4   4    5.19    0.31
  -4  -4   4    5.43    0.32
  -4  -4   4    5.51    0.47
  -4  -4   4    4.94    0.31
  -4  -4   4    5.68    0.53
  -3  -4   4    5.08    0.31
  -3  -4   4    6.02    0.44
  -3  -4   4    4.96    0.31
  -3  -4   4    5.75    0.40
  -3  -4   4    4.98    0.30
  -3  -4   4    5.03    0.51
  -2  -4   4    1.39    0.18
  -2  -4   4    1.66    0.28
   1   4  -4    3.04    0.38
  -1  -4   4    3.74    0.28
  -1  -4   4    3.61    0.28
  -1  -4   4    3.65    0.39
   0   4  -4    7.82    0.68
   0   4  -4    8.57    0.60
   0   4  -4    9.22    0.73
   0  -4   4    8.91    0.58
   0  -4   4    9.27    0.58
   0  -4   4    8.31    0.66
  -1   4  -4   23.69    1.58
  -1   4  -4   24.73    1.41
  -1   4  -4   23.57    1.52
  -1   4  -4   23.03    1.30
  -1   4  -4   19.57    1.54
   1  -4   4   20.80    1.39
   1  -4   4   21.78    1.56
   1  -4   4   21.00    1.50
  -2   4  -4   84.18    4.80
  -2   4  -4   90.73    5.11
  -2   4  -4   81.28    5.53
  -2   4  -4   71.96    5.51
  -2   4  -4   96.31    5.42
   2  -4   4   77.05    5.52
  -3   4  -4    0.89    0.18
  -3   4  -4    1.24    0.15
  -3   4  -4    1.21    0.16
  -4   4  -4    0.89    0.17
  -4   4  -4    1.13    0.19
  -4   4  -4    1.05    0.17
  -4   4  -4    1.08    0.14
  -5   4  -4    3.63    0.22
  -5   4  -4    3.33    0.28
  -5   4  -4    3.36    0.29
  -5   4  -4    3.40    0.33
  -5   4  -4    3.56    0.27
  -5   4  -4    3.94    0.24
  -5   4  -4    3.52    0.21
  -5   4  -4    3.48    0.31
  -5   4  -4    3.87    0.33
  -6   4  -4   10.12    0.68
  -6   4  -4    9.85    0.55
  -6   4  -4    9.85    0.69
  -6   4  -4    9.21    0.72
  -6   4  -4   10.68    0.56
  -6   4  -4    9.98    0.68
  -7   4  -4    1.16    0.17
  -7   4  -4    1.43    0.15
  -7   4  -4    1.15    0.17
  -7   4  -4    0.93    0.24
  -7   4  -4    1.59    0.17
  -8   4  -4   11.79    0.84
  -8   4  -4   12.64    0.68
  -8   4  -4   12.02    0.81
  -8   4  -4   11.19    0.84
  -9   4  -4    7.30    0.56
  -9   4  -4    8.52    0.58
 -10   4  -4    0.17    0.11
 -10   4  -4    0.11    0.09
  -8  -3   4    0.18    0.08
  -7  -3   4    0.33    0.06
  -7  -3   4    0.28    0.08
  -7  -3   4    0.47    0.10
  -7  -3   4    0.32    0.10
  -6  -3   4    0.05    0.09
  -6  -3   4    0.00    0.04
  -6  -3   4    0.07    0.07
  -6  -3   4   -0.01    0.07
  -6  -3   4    0.06    0.10
  -5  -3   4    2.57    0.37
  -5  -3   4    2.43    0.18
  -5  -3   4    2.97    0.19
  -5  -3   4    2.67    0.20
  -5  -3   4    2.75    0.35
  -5  -3   4    2.69    0.18
  -5  -3   4    2.72    0.25
  -5  -3   4    2.49    0.23
  -4  -3   4   17.14    1.17
  -4  -3   4   15.73    0.94
  -4  -3   4   16.26    0.92
  -4  -3   4   17.41    1.07
  -4  -3   4   16.51    0.89
  -4  -3   4   16.74    0.91
  -4  -3   4   15.02    0.89
  -4  -3   4   16.94    1.05
  -4  -3   4   16.71    0.91
  -3  -3   4    0.69    0.15
  -3  -3   4    0.86    0.22
  -3  -3   4    0.86    0.13
  -2  -3   4   46.27    3.51
  -2  -3   4   54.39    3.24
  -2  -3   4   58.05    3.47
   1   3  -4    8.23    0.69
   1   3  -4    8.24    0.57
  -1  -3   4    8.62    0.55
  -1  -3   4    8.36    0.64
   0   3  -4    1.53    0.27
   0   3  -4    1.53    0.18
   0   3  -4    1.28    0.22
   0  -3   4    1.31    0.23
   0  -3   4    1.41    0.20
   0  -3   4    1.60    0.24
   0  -3   4    1.34    0.16
  -1   3  -4    7.53    0.47
  -1   3  -4    6.89    0.57
  -1   3  -4    7.67    0.60
  -1   3  -4    7.73    0.51
   1  -3   4    6.57    0.49
   1  -3   4    7.29    0.59
   1  -3   4    7.86    0.59
   1  -3   4    8.75    0.59
  -2   3  -4   28.87    2.01
  -2   3  -4   30.58    1.96
  -2   3  -4   28.04    2.00
  -2   3  -4   31.03    1.74
  -2   3  -4   31.46    1.84
   2  -3   4   28.99    1.99
   2  -3   4   29.70    2.01
  -3   3  -4   16.77    0.97
  -3   3  -4   14.48    1.07
  -3   3  -4   17.07    1.09
  -3   3  -4   16.31    1.12
  -3   3  -4   14.71    1.11
  -3   3  -4   17.95    1.01
  -3   3  -4   15.56    1.08
   3  -3   4   16.01    1.10
  -4   3  -4    1.89    0.22
  -4   3  -4    1.82    0.17
  -4   3  -4    2.07    0.23
  -4   3  -4    1.76    0.15
  -4   3  -4    2.27    0.22
  -4   3  -4    1.96    0.18
  -5   3  -4    0.01    0.09
  -5   3  -4    0.07    0.04
  -5   3  -4    0.06    0.11
  -5   3  -4    0.18    0.14
  -5   3  -4    0.16    0.08
  -5   3  -4   -0.07    0.09
  -6   3  -4    0.81    0.13
  -6   3  -4    0.60    0.10
  -6   3  -4    0.41    0.12
  -6   3  -4    0.56    0.12
  -6   3  -4    0.67    0.09
  -6   3  -4    0.63    0.18
  -7   3  -4    8.12    0.63
  -7   3  -4    9.34    0.62
  -7   3  -4    8.61    0.51
  -7   3  -4    9.04    0.61
  -7   3  -4    8.17    0.64
  -8   3  -4    3.16    0.29
  -8   3  -4    3.34    0.32
  -8   3  -4    3.20    0.26
  -9   3  -4    0.47    0.12
  -9   3  -4    0.84    0.16
  -9   3  -4    0.71    0.13
 -10   3  -4    0.17    0.10
  -9  -2   4   15.56    0.84
  -8  -2   4    8.20    0.58
  -8  -2   4    8.63    0.48
  -8  -2   4    7.72    0.47
  -8  -2   4    8.65    0.46
  -7  -2   4    3.32    0.31
  -7  -2   4    3.59    0.22
  -7  -2   4    3.57    0.23
  -7  -2   4    3.54    0.25
  -6  -2   4   28.57    1.62
  -6  -2   4   32.17    1.64
  -6  -2   4   29.66    1.63
  -6  -2   4   29.41    1.87
  -6  -2   4   28.44    1.85
  -6  -2   4   30.65    1.61
  -6  -2   4   29.78    1.94
  -5  -2   4    4.09    0.25
  -5  -2   4    4.15    0.33
  -5  -2   4    4.41    0.26
  -5  -2   4    4.27    0.26
  -5  -2   4    4.07    0.39
  -5  -2   4    4.17    0.25
  -5  -2   4    4.55    0.43
  -5  -2   4    4.32    0.32
  -4  -2   4    5.22    0.34
  -4  -2   4    6.20    0.51
  -4  -2   4    6.35    0.42
  -4  -2   4    6.11    0.44
  -3  -2   4    2.11    0.22
  -3  -2   4    2.02    0.20
  -3  -2   4    2.43    0.30
   2   2  -4   13.45    1.01
  -2  -2   4   14.41    0.90
  -2  -2   4   15.52    0.91
  -2  -2   4   14.13    1.04
  -2  -2   4   13.46    1.01
  -2  -2   4   15.32    1.00
   1   2  -4    0.77    0.13
   1   2  -4    0.82    0.21
  -1  -2   4    1.08    0.23
  -1  -2   4    1.13    0.18
  -1  -2   4    1.02    0.12
   0   2  -4    6.06    0.48
   0   2  -4    6.06    0.43
   0   2  -4    6.04    0.52
   0  -2   4    7.48    0.52
   0  -2   4    6.37    0.47
   0  -2   4    5.86    0.41
  -1   2  -4    1.66    0.18
  -1   2  -4    1.70    0.25
  -1   2  -4    1.60    0.17
   1  -2   4    1.59    0.24
   1  -2   4    1.48    0.20
   1  -2   4    1.88    0.19
  -2   2  -4   61.33    3.84
  -2   2  -4   59.24    3.63
  -2   2  -4   60.44    3.91
  -2   2  -4   54.18    3.63
  -2   2  -4   61.71    3.92
  -2   2  -4   61.60    3.43
  -2   2  -4   55.40    3.84
  -2   2  -4   54.50    3.82
   2  -2   4   66.96    3.91
   2  -2   4   61.33    3.92
  -3   2  -4    1.86    0.19
  -3   2  -4    1.98    0.20
  -3   2  -4    2.05    0.16
  -3   2  -4    2.21    0.19
  -3   2  -4    2.02    0.18
  -3   2  -4    1.97    0.21
  -3   2  -4    1.78    0.14
  -3   2  -4    1.88    0.22
   3  -2   4    1.79    0.18
   3  -2   4    2.03    0.17
  -4   2  -4   27.76    1.89
  -4   2  -4   29.76    1.77
  -4   2  -4   29.60    1.71
  -5   2  -4    0.02    0.09
  -5   2  -4    0.03    0.07
  -5   2  -4   -0.04    0.14
  -5   2  -4    0.03    0.13
  -5   2  -4    0.04    0.10
  -6   2  -4    2.67    0.19
  -6   2  -4    3.07    0.21
  -6   2  -4    2.82    0.26
  -6   2  -4    2.65    0.19
  -6   2  -4    2.99    0.31
  -6   2  -4    2.66    0.25
  -6   2  -4    2.71    0.27
  -7   2  -4   24.60    1.84
  -7   2  -4   25.52    1.75
  -7   2  -4   28.08    1.47
  -7   2  -4   28.51    1.77
  -7   2  -4   28.15    1.46
  -8   2  -4    0.16    0.10
  -8   2  -4   -0.16    0.14
  -8   2  -4   -0.05    0.11
  -8   2  -4    0.02    0.12
  -9   2  -4   -0.01    0.10
  -9   2  -4   -0.03    0.10
  -9   2  -4    0.02    0.13
  -9  -1   4    4.55    0.30
  -9  -1   4    5.31    0.37
  -8  -1   4   12.59    0.74
  -8  -1   4   15.12    0.91
  -8  -1   4   12.88    0.74
  -8  -1   4   13.12    0.74
  -7  -1   4   -0.06    0.11
  -7  -1   4   -0.06    0.09
  -7  -1   4   -0.02    0.06
  -7  -1   4   -0.05    0.08
  -6  -1   4   14.59    0.80
  -6  -1   4   14.10    0.94
  -6  -1   4   14.19    0.81
  -6  -1   4   14.36    0.97
  -6  -1   4   14.73    1.04
  -6  -1   4   15.08    0.80
  -6  -1   4   14.32    0.97
  -6  -1   4   15.31    0.81
  -5  -1   4  100.81    5.58
  -5  -1   4  108.42    6.26
  -5  -1   4  102.41    5.95
  -5  -1   4  104.25    5.72
  -5  -1   4  103.81    6.77
  -5  -1   4  111.79    5.68
  -5  -1   4  106.88    6.38
  -5  -1   4   99.03    5.62
  -4  -1   4    0.63    0.19
  -4  -1   4    0.62    0.11
  -4  -1   4    0.50    0.13
   3   1  -4   14.46    1.03
  -3  -1   4   15.09    0.93
  -3  -1   4   13.80    1.03
  -3  -1   4   15.19    0.91
  -3  -1   4   12.77    1.05
  -3  -1   4   16.26    1.02
   2   1  -4    5.12    0.43
   2   1  -4    4.46    0.38
   2   1  -4    4.20    0.44
   2   1  -4    4.15    0.34
  -2  -1   4    5.70    0.48
  -2  -1   4    4.41    0.32
  -2  -1   4    5.65    0.45
  -2  -1   4    4.50    0.38
  -2  -1   4    4.18    0.32
   1   1  -4   27.02    1.84
   1   1  -4   27.62    1.73
  -1  -1   4   26.17    1.83
  -1  -1   4   29.54    1.72
  -1  -1   4   29.13    1.87
  -1  -1   4   27.77    1.89
   0   1  -4   72.49    4.43
   0   1  -4   61.66    4.31
   0   1  -4   65.07    4.12
   0   1  -4   71.38    4.45
   0   1  -4   70.32    4.36
   0  -1   4   71.99    4.45
   0  -1   4   64.77    4.11
   0  -1   4   64.02    4.36
  -1   1  -4    3.17    0.29
  -1   1  -4    3.75    0.32
  -1   1  -4    3.46    0.27
  -1   1  -4    3.19    0.23
  -1   1  -4    3.42    0.28
  -1   1  -4    3.34    0.25
  -1   1  -4    3.16    0.27
  -1   1  -4    3.18    0.23
  -1   1  -4    3.32    0.24
   1  -1   4    3.64    0.31
   1  -1   4    3.63    0.27
  -2   1  -4   21.43    1.48
  -2   1  -4   22.58    1.51
  -2   1  -4   21.28    1.47
  -2   1  -4   22.10    1.47
  -2   1  -4   23.74    1.39
  -2   1  -4   22.97    1.39
  -2   1  -4   24.12    1.33
  -2   1  -4   23.11    1.50
  -2   1  -4   22.84    1.47
   2  -1   4   22.76    1.50
   2  -1   4   23.11    1.49
  -3   1  -4   52.62    3.44
  -3   1  -4   51.08    3.44
  -3   1  -4   55.52    3.09
  -3   1  -4   55.13    3.20
  -4   1  -4    0.07    0.10
  -4   1  -4   -0.05    0.10
  -4   1  -4    0.01    0.08
  -4   1  -4    0.19    0.11
  -5   1  -4    1.12    0.16
  -5   1  -4    1.30    0.12
  -5   1  -4    1.14    0.12
  -5   1  -4    1.18    0.14
  -5   1  -4    1.45    0.19
  -5   1  -4    1.43    0.19
  -6   1  -4    4.67    0.32
  -6   1  -4    5.36    0.30
  -6   1  -4    4.59    0.42
  -6   1  -4    5.07    0.30
  -6   1  -4    5.15    0.30
  -6   1  -4    4.83    0.38
  -6   1  -4    4.74    0.36
  -6   1  -4    4.37    0.39
  -7   1  -4   24.75    1.34
  -7   1  -4   23.02    1.60
  -7   1  -4   25.14    1.38
  -7   1  -4   24.76    1.34
  -7   1  -4   25.48    1.62
  -8   1  -4    1.70    0.19
  -8   1  -4    1.51    0.19
  -8   1  -4    1.18    0.18
  -8   1  -4    1.66    0.17
  -9   1  -4   13.65    0.93
  -9   1  -4   14.30    0.77
  -9   0   4    7.43    0.49
  -9   0   4    6.24    0.40
  -8   0   4    0.57    0.10
  -8   0   4    0.81    0.08
  -8   0   4    1.20    0.15
  -7   0   4    9.77    0.55
  -7   0   4    9.74    0.55
  -7   0   4    9.25    0.54
  -7   0   4    8.52    0.71
  -7   0   4   10.46    0.67
  -7   0   4    9.59    0.54
  -6   0   4   17.08    0.97
  -6   0   4   17.09    0.97
  -6   0   4   18.42    0.99
  -6   0   4   18.72    1.16
  -6   0   4   17.66    1.14
  -6   0   4   18.60    1.18
  -6   0   4   16.88    1.24
  -6   0   4   18.20    0.98
  -5   0   4   13.95    0.90
  -5   0   4   13.04    0.80
  -5   0   4   14.30    0.90
  -5   0   4   14.06    0.86
  -5   0   4   13.56    0.78
  -5   0   4   15.05    1.01
  -5   0   4   14.24    0.77
  -4   0   4  114.81    7.06
  -4   0   4  118.21    6.91
  -4   0   4  115.12    7.49
   3   0  -4  191.44   13.76
  -3   0   4  219.39   12.53
  -3   0   4  214.11   12.82
  -3   0   4  231.08   13.56
  -3   0   4  200.24   13.76
   2   0  -4   67.41    4.36
   2   0  -4   57.14    4.22
   2   0  -4   61.14    4.04
   2   0  -4   65.22    4.29
   2   0  -4   76.20    4.41
  -2   0   4   68.90    4.04
  -2   0   4   67.12    4.36
  -2   0   4   66.48    3.94
  -2   0   4   67.70    4.29
   1   0  -4    6.90    0.49
   1   0  -4    8.66    0.63
   1   0  -4    7.18    0.50
   1   0  -4    7.72    0.55
  -1   0   4    6.96    0.53
  -1   0   4    6.97    0.47
  -1   0   4    8.93    0.63
  -1   0   4    7.79    0.55
  -1   0   4    6.55    0.45
   0   0  -4   66.70    4.26
   0   0  -4   64.99    4.38
   0   0  -4   71.15    4.30
   0   0  -4   69.47    4.06
   0   0   4   68.98    4.38
   0   0   4   67.12    4.36
   0   0   4   58.56    4.29
  -1   0  -4   20.46    1.34
  -1   0  -4   22.47    1.35
  -1   0  -4   20.98    1.43
  -1   0  -4   22.01    1.43
  -1   0  -4   20.74    1.43
  -1   0  -4   21.57    1.44
  -1   0  -4   22.44    1.46
  -1   0  -4   24.45    1.47
   1   0   4   23.29    1.46
   1   0   4   21.99    1.47
  -2   0  -4    0.27    0.07
  -2   0  -4    0.24    0.11
  -2   0  -4    0.38    0.10
  -2   0  -4    0.21    0.09
  -3   0  -4   40.54    2.41
  -3   0  -4   40.05    2.59
  -3   0  -4   39.84    2.59
  -3   0  -4   40.14    2.32
  -4   0  -4   43.65    2.57
  -4   0  -4   44.61    2.66
  -4   0  -4   44.54    2.86
  -4   0  -4   44.30    2.87
  -5   0  -4    4.74    0.41
  -5   0  -4    5.50    0.31
  -5   0  -4    5.44    0.38
  -5   0  -4    5.11    0.31
  -5   0  -4    5.19    0.34
  -5   0  -4    4.93    0.39
  -5   0  -4    5.43    0.41
  -5   0  -4    5.79    0.48
  -5   0  -4    5.40    0.42
  -5   0  -4    5.81    0.32
  -6   0  -4    2.30    0.24
  -6   0  -4    2.43    0.25
  -6   0  -4    2.70    0.22
  -6   0  -4    2.38    0.31
  -6   0  -4    2.92    0.20
  -6   0  -4    2.58    0.20
  -6   0  -4    3.05    0.20
  -6   0  -4    2.68    0.30
  -7   0  -4    0.05    0.08
  -7   0  -4    0.13    0.09
  -7   0  -4    0.18    0.10
  -7   0  -4    0.15    0.12
  -7   0  -4    0.09    0.10
  -8   0  -4   21.56    1.43
  -8   0  -4   21.36    1.19
  -8   0  -4   22.41    1.19
  -9   0  -4   -0.03    0.08
 -10   1   4    2.05    0.19
  -9   1   4    0.07    0.12
  -9   1   4    0.04    0.09
  -9   1   4    0.08    0.06
  -8   1   4    0.91    0.11
  -8   1   4    0.69    0.08
  -8   1   4    0.62    0.12
  -7   1   4   14.09    1.00
  -7   1   4   13.56    0.95
  -7   1   4   14.72    0.82
  -7   1   4   14.98    0.82
  -7   1   4   15.78    0.83
  -7   1   4   15.84    0.99
  -7   1   4   14.94    0.98
  -7   1   4   14.43    0.82
  -6   1   4    0.53    0.21
  -6   1   4    0.62    0.10
  -6   1   4    0.49    0.08
  -6   1   4    0.41    0.07
  -6   1   4    0.62    0.15
  -6   1   4    0.48    0.13
  -6   1   4    0.66    0.19
  -6   1   4    0.39    0.06
  -6   1   4    0.46    0.08
  -6   1   4    0.55    0.09
  -5   1   4   16.90    1.09
  -5   1   4   17.19    1.08
  -5   1   4   16.90    1.04
  -5   1   4   17.32    1.21
  -4   1   4   17.97    1.24
  -4   1   4   18.06    1.13
  -4   1   4   17.85    1.11
   3  -1  -4    1.16    0.19
   3  -1  -4    0.81    0.15
  -3   1   4    0.95    0.22
  -3   1   4    0.84    0.12
  -3   1   4    1.01    0.18
  -3   1   4    0.86    0.19
  -3   1   4    1.13    0.14
   2  -1  -4   34.16    2.19
   2  -1  -4   36.00    2.32
   2  -1  -4   33.71    2.26
   2  -1  -4   32.63    2.12
   2  -1  -4   37.24    2.30
  -2   1   4   32.98    2.32
  -2   1   4   33.65    2.05
  -2   1   4   35.12    2.30
  -2   1   4   34.84    2.26
  -2   1   4   33.41    2.11
   1  -1  -4    0.46    0.16
   1  -1  -4    0.48    0.14
   1  -1  -4    0.41    0.12
   1  -1  -4    0.37    0.10
   1  -1  -4    0.54    0.12
  -1   1   4    0.32    0.14
  -1   1   4    0.33    0.09
  -1   1   4    0.32    0.20
  -1   1   4    0.36    0.12
  -1   1   4    0.41    0.05
   0  -1  -4    2.02    0.23
   0  -1  -4    1.48    0.14
   0  -1  -4    1.86    0.25
   0  -1  -4    1.51    0.18
   0  -1  -4    1.85    0.18
   0  -1  -4    1.79    0.19
   0  -1  -4    1.93    0.20
   0   1   4    1.75    0.21
   0   1   4    1.49    0.21
   0   1   4    1.40    0.22
  -1  -1  -4   26.15    1.57
  -1  -1  -4   27.11    1.71
  -1  -1  -4   25.30    1.67
  -1  -1  -4   24.44    1.53
  -1  -1  -4   23.23    1.57
  -1  -1  -4   23.31    1.67
  -1  -1  -4   27.05    1.67
  -1  -1  -4   24.93    1.70
  -1  -1  -4   28.76    1.68
   1   1   4   27.31    1.71
   1   1   4   24.40    1.72
  -2  -1  -4   26.89    1.70
  -2  -1  -4   28.40    1.84
  -2  -1  -4   28.74    1.72
  -2  -1  -4   29.28    1.85
  -3  -1  -4  282.15   17.97
  -3  -1  -4  318.61   19.37
  -3  -1  -4  309.36   19.28
  -4  -1  -4    0.25    0.06
  -4  -1  -4    0.19    0.07
  -4  -1  -4    0.12    0.11
  -4  -1  -4    0.37    0.14
  -5  -1  -4    1.32    0.21
  -5  -1  -4    1.60    0.16
  -5  -1  -4    1.53    0.14
  -5  -1  -4    1.55    0.14
  -5  -1  -4    1.57    0.18
  -5  -1  -4    1.19    0.20
  -5  -1  -4    1.60    0.14
  -5  -1  -4    1.73    0.25
  -6  -1  -4   10.53    0.67
  -6  -1  -4   11.27    0.61
  -6  -1  -4   11.30    0.90
  -6  -1  -4    9.98    0.73
  -6  -1  -4   10.52    0.61
  -6  -1  -4   11.56    0.63
  -7  -1  -4    5.07    0.31
  -7  -1  -4    4.77    0.31
  -7  -1  -4    4.75    0.31
  -8  -1  -4    0.02    0.09
  -8  -1  -4    0.05    0.08
 -10   2   4    0.60    0.12
  -9   2   4    0.33    0.07
  -9   2   4    0.30    0.09
  -9   2   4    0.22    0.12
  -8   2   4    1.24    0.12
  -8   2   4    1.35    0.19
  -8   2   4    1.13    0.15
  -8   2   4    1.03    0.13
  -7   2   4    0.60    0.09
  -7   2   4    0.63    0.12
  -7   2   4    0.65    0.15
  -7   2   4    0.58    0.08
  -7   2   4    0.63    0.07
  -7   2   4    0.40    0.22
  -7   2   4    0.40    0.11
  -7   2   4    0.42    0.20
  -6   2   4    0.87    0.09
  -6   2   4    1.14    0.28
  -6   2   4    0.73    0.19
  -6   2   4    1.20    0.20
  -6   2   4    1.06    0.13
  -6   2   4    1.07    0.10
  -6   2   4    1.01    0.17
  -6   2   4    0.93    0.11
  -5   2   4    1.64    0.27
  -5   2   4    2.09    0.24
  -5   2   4    1.90    0.22
  -4   2   4  135.51    8.02
  -4   2   4  136.40    8.70
  -4   2   4  132.76    8.21
   3  -2  -4   54.03    3.41
   3  -2  -4   48.33    3.35
   3  -2  -4   48.59    3.09
  -3   2   4   53.18    3.29
  -3   2   4   51.09    3.01
  -3   2   4   51.23    3.09
  -3   2   4   45.96    3.35
   2  -2  -4    1.54    0.20
   2  -2  -4    1.43    0.16
   2  -2  -4    2.05    0.27
  -2   2   4    1.10    0.23
  -2   2   4    1.32    0.18
   1  -2  -4  178.37   11.01
   1  -2  -4  181.75   10.90
   1  -2  -4  175.39   11.20
   1  -2  -4  176.76   10.41
  -1   2   4  166.31   11.19
  -1   2   4  154.32   10.41
  -1   2   4  162.46   11.01
  -1   2   4  176.71   11.20
   0  -2  -4    9.80    0.64
   0  -2  -4    9.14    0.70
   0  -2  -4   10.05    0.68
   0  -2  -4    9.67    0.73
   0  -2  -4    9.95    0.71
   0  -2  -4   10.24    0.68
   0   2   4    9.68    0.72
   0   2   4   10.10    0.74
  -1  -2  -4   54.58    3.74
  -1  -2  -4   60.53    3.75
  -1  -2  -4   55.66    3.81
  -1  -2  -4   61.56    3.53
  -1  -2  -4   66.15    3.73
  -1  -2  -4   53.05    3.44
  -1  -2  -4   56.29    3.82
  -1  -2  -4   62.74    3.74
  -1  -2  -4   51.36    3.53
   1   2   4   55.69    3.82
   1   2   4   60.61    3.83
  -2  -2  -4    5.21    0.35
  -2  -2  -4    5.10    0.39
  -2  -2  -4    6.39    0.45
  -2  -2  -4    6.15    0.42
  -2  -2  -4    5.13    0.35
  -2  -2  -4    5.74    0.40
   2   2   4    4.57    0.41
  -3  -2  -4   21.99    1.37
  -3  -2  -4   18.92    1.24
  -4  -2  -4    0.51    0.08
  -4  -2  -4    0.51    0.12
  -4  -2  -4    0.25    0.14
  -4  -2  -4    0.40    0.07
  -4  -2  -4    0.47    0.05
  -4  -2  -4    0.48    0.08
  -4  -2  -4    0.69    0.16
  -4  -2  -4    0.40    0.08
  -5  -2  -4    0.02    0.08
  -5  -2  -4    0.00    0.08
  -5  -2  -4    0.06    0.08
  -5  -2  -4   -0.07    0.18
  -5  -2  -4   -0.02    0.07
  -5  -2  -4    0.02    0.17
  -6  -2  -4    5.94    0.35
  -6  -2  -4    5.33    0.35
  -6  -2  -4    5.97    0.36
  -6  -2  -4    5.96    0.40
  -7  -2  -4    0.10    0.08
  -7  -2  -4    0.14    0.09
  -7  -2  -4    0.22    0.09
  -8  -2  -4   14.31    0.80
  -8  -2  -4   14.96    0.80
 -10   3   4    5.81    0.42
  -9   3   4    6.28    0.46
  -9   3   4    6.64    0.47
  -9   3   4    6.25    0.37
  -8   3   4    3.32    0.24
  -8   3   4    3.67    0.22
  -8   3   4    3.89    0.31
  -8   3   4    3.50    0.31
  -7   3   4   12.01    1.05
  -7   3   4   13.93    0.91
  -7   3   4   14.44    0.78
  -7   3   4   14.05    0.92
  -7   3   4   13.36    0.92
  -7   3   4   14.00    0.78
  -7   3   4   11.79    0.93
  -7   3   4   15.78    0.93
  -6   3   4    1.62    0.24
  -6   3   4    2.04    0.16
  -6   3   4    2.02    0.16
  -6   3   4    2.37    0.30
  -6   3   4    2.02    0.20
  -6   3   4    2.31    0.26
  -6   3   4    1.94    0.14
  -6   3   4    2.46    0.38
  -5   3   4    0.33    0.14
  -5   3   4    0.30    0.06
  -5   3   4    0.32    0.15
  -5   3   4    0.11    0.22
  -4   3   4    2.52    0.26
  -4   3   4    2.56    0.37
  -4   3   4    2.47    0.24
   3  -3  -4   20.35    1.30
  -3   3   4   19.61    1.44
  -3   3   4   17.65    1.44
  -3   3   4   23.10    1.29
   2  -3  -4   53.92    3.39
   2  -3  -4   49.26    3.46
   2  -3  -4   52.37    3.17
  -2   3   4   52.05    3.38
  -2   3   4   51.41    3.47
  -2   3   4   50.70    3.18
  -2   3   4   51.87    3.46
   1  -3  -4    4.02    0.32
   1  -3  -4    4.04    0.41
   1  -3  -4    3.82    0.39
  -1   3   4    3.58    0.42
  -1   3   4    3.43    0.38
   0  -3  -4    0.52    0.12
   0  -3  -4    0.53    0.18
   0  -3  -4    0.55    0.14
   0  -3  -4    0.89    0.19
   0  -3  -4    0.64    0.13
  -1  -3  -4    3.61    0.35
  -1  -3  -4    3.45    0.31
  -1  -3  -4    3.42    0.27
  -2  -3  -4    7.91    0.50
  -2  -3  -4    7.85    0.58
  -2  -3  -4    7.66    0.58
  -3  -3  -4   28.96    2.16
  -3  -3  -4   27.72    1.82
  -3  -3  -4   26.79    1.52
  -3  -3  -4   26.58    1.49
  -3  -3  -4   26.84    1.48
  -3  -3  -4   27.25    1.61
  -4  -3  -4    0.00    0.08
  -4  -3  -4    0.01    0.06
  -4  -3  -4    0.00    0.19
  -4  -3  -4   -0.01    0.17
  -4  -3  -4    0.02    0.04
  -4  -3  -4    0.01    0.08
  -4  -3  -4    0.11    0.08
  -5  -3  -4    8.00    0.45
  -5  -3  -4    7.43    0.48
  -5  -3  -4    7.12    0.42
  -5  -3  -4    7.52    0.44
  -5  -3  -4    6.27    0.60
  -6  -3  -4    1.58    0.16
  -6  -3  -4    0.98    0.12
  -6  -3  -4    1.26    0.15
  -7  -3  -4   -0.02    0.08
  -7  -3  -4    0.02    0.08
  -7  -3  -4    0.14    0.07
  -8  -3  -4   -0.05    0.05
 -10   4   4    1.57    0.17
 -10   4   4    1.77    0.18
  -9   4   4    6.15    0.44
  -9   4   4    5.99    0.44
  -9   4   4    5.62    0.35
  -8   4   4    0.78    0.09
  -8   4   4    0.73    0.14
  -8   4   4    0.59    0.10
  -8   4   4    0.90    0.15
  -7   4   4    4.60    0.43
  -7   4   4    4.03    0.40
  -7   4   4    4.35    0.30
  -7   4   4    4.82    0.29
  -7   4   4    4.73    0.37
  -7   4   4    4.45    0.35
  -6   4   4    2.38    0.32
  -6   4   4    3.20    0.34
  -6   4   4    2.91    0.24
  -6   4   4    2.87    0.19
  -6   4   4    3.05    0.44
  -6   4   4    2.69    0.20
  -6   4   4    2.69    0.20
  -5   4   4   26.70    1.56
  -5   4   4   26.50    1.50
  -5   4   4   27.78    1.64
  -5   4   4   27.84    1.73
  -4   4   4  166.22   10.62
  -4   4   4  162.86   10.03
   2  -4  -4  281.18   19.71
   2  -4  -4  321.93   19.37
   1  -4  -4    1.93    0.27
   1  -4  -4    2.15    0.24
   1  -4  -4    3.23    0.36
   0  -4  -4    1.28    0.17
   0  -4  -4    1.06    0.19
   0  -4  -4    1.34    0.24
  -1  -4  -4   15.30    1.05
  -1  -4  -4   14.50    1.02
  -2  -4  -4   38.27    2.16
  -2  -4  -4   39.83    2.42
  -2  -4  -4   39.37    2.59
  -2  -4  -4   38.03    2.18
  -2  -4  -4   39.34    2.31
  -2  -4  -4   41.09    2.15
  -2  -4  -4   39.32    2.13
  -2  -4  -4   40.57    2.60
  -3  -4  -4    0.22    0.08
  -3  -4  -4    0.46    0.21
  -3  -4  -4    0.43    0.09
  -3  -4  -4    0.34    0.09
  -3  -4  -4    0.39    0.06
  -4  -4  -4    2.00    0.19
  -4  -4  -4    2.11    0.14
  -4  -4  -4    1.55    0.27
  -4  -4  -4    2.01    0.19
  -4  -4  -4    1.99    0.21
  -5  -4  -4   15.96    0.84
  -5  -4  -4   14.19    0.86
  -5  -4  -4   14.99    0.91
  -6  -4  -4    3.38    0.25
  -6  -4  -4    3.71    0.24
  -7  -4  -4    0.11    0.08
  -7  -4  -4    0.02    0.07
 -10   5   4    2.93    0.23
 -10   5   4    2.45    0.16
  -9   5   4    7.32    0.54
  -9   5   4    7.97    0.45
  -8   5   4    0.09    0.11
  -8   5   4    0.01    0.09
  -8   5   4    0.02    0.07
  -7   5   4    0.55    0.22
  -7   5   4    0.43    0.11
  -7   5   4    0.44    0.06
  -7   5   4    0.63    0.13
  -7   5   4    0.42    0.09
  -6   5   4   23.72    1.86
  -6   5   4   27.61    1.47
  -6   5   4   29.50    1.48
  -6   5   4   24.42    1.70
  -6   5   4   26.37    1.63
  -5   5   4    7.40    0.57
  -5   5   4    8.06    0.56
  -5   5   4    7.43    0.69
  -5   5   4    7.19    0.44
  -5   5   4    7.19    0.45
  -4   5   4    1.13    0.13
  -4   5   4    1.18    0.33
   2  -5  -4    0.52    0.14
   2  -5  -4    0.75    0.28
   2  -5  -4    0.85    0.19
   1  -5  -4    7.60    0.64
   1  -5  -4    6.05    0.41
   1  -5  -4    7.26    0.51
   1  -5  -4    7.24    0.54
   0  -5  -4   16.94    1.03
   0  -5  -4   19.93    1.30
   0  -5  -4   19.14    1.24
   0  -5  -4   19.01    1.16
   0  -5  -4   17.54    1.00
   0  -5  -4   17.04    0.99
   0  -5  -4   17.31    1.01
  -1  -5  -4   33.98    1.90
  -1  -5  -4   30.07    1.95
  -1  -5  -4   34.38    1.83
  -1  -5  -4   33.72    2.22
  -1  -5  -4   35.12    2.25
  -1  -5  -4   33.44    1.85
  -2  -5  -4    6.82    0.39
  -2  -5  -4    5.77    0.56
  -2  -5  -4    6.32    0.56
  -2  -5  -4    6.75    0.40
  -2  -5  -4    6.88    0.38
  -2  -5  -4    6.64    0.38
  -2  -5  -4    6.69    0.42
  -2  -5  -4    6.60    0.46
  -3  -5  -4   17.88    1.09
  -3  -5  -4   16.06    1.27
  -3  -5  -4   19.23    1.01
  -3  -5  -4   18.66    1.03
  -3  -5  -4   19.20    1.01
  -4  -5  -4    3.26    0.27
  -4  -5  -4    3.34    0.24
  -4  -5  -4    2.94    0.23
  -4  -5  -4    3.08    0.20
  -5  -5  -4    1.37    0.15
  -5  -5  -4    1.39    0.16
  -6  -5  -4    0.11    0.08
  -6  -5  -4    0.36    0.08
 -10   6   4    0.14    0.07
 -10   6   4    0.00    0.05
  -9   6   4    6.71    0.39
  -9   6   4    6.36    0.47
  -8   6   4    0.11    0.08
  -8   6   4    0.09    0.10
  -8   6   4    0.08    0.11
  -7   6   4    0.57    0.13
  -7   6   4    0.56    0.07
  -7   6   4    0.58    0.10
  -6   6   4    1.08    0.23
  -6   6   4    0.85    0.25
  -6   6   4    1.05    0.13
  -5   6   4   46.32    2.69
  -5   6   4   47.85    2.78
  -4   6   4    0.11    0.15
  -4   6   4    0.01    0.08
   3  -6  -4    1.68    0.15
   3  -6  -4    2.11    0.30
  -3   6   4    2.19    0.25
   2  -6  -4    3.78    0.35
   2  -6  -4    3.48    0.24
   2  -6  -4    3.82    0.38
   2  -6  -4    3.87    0.51
   1  -6  -4   13.95    0.79
   1  -6  -4   13.79    0.79
   1  -6  -4   14.28    1.00
   1  -6  -4   14.69    0.95
   1  -6  -4   13.89    1.08
   1  -6  -4   13.85    0.81
   0  -6  -4   13.07    0.76
   0  -6  -4   12.31    1.02
   0  -6  -4   13.42    0.96
   0  -6  -4   13.96    0.77
   0  -6  -4   13.41    0.75
  -1  -6  -4    0.29    0.06
  -1  -6  -4    0.44    0.14
  -1  -6  -4    0.34    0.25
  -1  -6  -4    0.26    0.19
  -1  -6  -4    0.21    0.09
  -1  -6  -4    0.34    0.08
  -1  -6  -4    0.30    0.07
  -2  -6  -4    8.63    0.52
  -2  -6  -4    8.98    0.51
  -2  -6  -4    7.90    0.69
  -2  -6  -4    9.16    0.50
  -2  -6  -4    9.03    0.49
  -2  -6  -4    8.62    0.55
  -3  -6  -4    5.68    0.34
  -3  -6  -4    5.88    0.36
  -3  -6  -4    5.94    0.37
  -4  -6  -4    2.10    0.18
  -4  -6  -4    2.44    0.20
  -4  -6  -4    2.15    0.15
  -5  -6  -4   -0.02    0.08
  -5  -6  -4    0.15    0.07
  -9   7   4    0.24    0.10
  -9   7   4    0.04    0.09
  -8   7   4    0.64    0.12
  -8   7   4    0.81    0.13
  -8   7   4    0.45    0.09
  -7   7   4    0.54    0.07
  -7   7   4    0.53    0.12
  -7   7   4    0.57    0.11
  -6   7   4    2.47    0.19
  -6   7   4    2.26    0.24
  -6   7   4    2.49    0.23
  -5   7   4    0.59    0.20
   3  -7  -4    2.58    0.21
   3  -7  -4    3.17    0.35
   2  -7  -4    1.59    0.14
   2  -7  -4    1.54    0.25
   2  -7  -4    1.08    0.15
   1  -7  -4   10.97    0.99
   1  -7  -4   12.57    0.69
   1  -7  -4   11.40    0.87
   0  -7  -4    8.37    0.48
   0  -7  -4    6.71    0.64
   0  -7  -4    7.56    0.48
   0  -7  -4    9.22    0.48
   0  -7  -4    8.41    0.48
  -1  -7  -4   11.24    0.64
  -1  -7  -4   11.67    0.64
  -1  -7  -4   10.31    0.65
  -1  -7  -4   12.18    0.65
  -2  -7  -4    0.14    0.04
  -2  -7  -4    0.14    0.09
  -2  -7  -4    0.12    0.07
  -2  -7  -4    0.08    0.08
  -3  -7  -4   36.15    2.00
  -3  -7  -4   40.40    1.99
  -3  -7  -4   33.83    2.04
  -4  -7  -4    5.37    0.34
  -4  -7  -4    6.33    0.34
  -9   8   4    2.36    0.18
  -9   8   4    2.44    0.20
  -8   8   4    2.60    0.22
  -8   8   4    2.82    0.23
  -8   8   4    2.52    0.19
  -7   8   4    0.76    0.12
  -7   8   4    0.71    0.08
  -7   8   4    0.59    0.10
  -6   8   4    5.41    0.43
  -6   8   4    6.45    0.40
  -6   8   4    6.56    0.38
  -5   8   4    3.33    0.24
   4  -8  -4    6.07    0.40
  -4   8   4    6.46    0.39
   3  -8  -4    0.54    0.09
   2  -8  -4    5.71    0.36
   1  -8  -4    0.04    0.09
   1  -8  -4   -0.01    0.06
   1  -8  -4   -0.05    0.08
   0  -8  -4    7.54    0.44
   0  -8  -4    7.91    0.45
   0  -8  -4    7.16    0.45
  -1  -8  -4    8.98    0.50
  -1  -8  -4    9.03    0.51
  -1  -8  -4    8.69    0.51
  -2  -8  -4    2.52    0.18
  -2  -8  -4    2.76    0.20
  -3  -8  -4    4.76    0.27
  -3  -8  -4    4.63    0.28
  -8   9   4    2.34    0.17
  -7   9   4    0.20    0.09
  -7   9   4    0.54    0.11
  -6   9   4    3.72    0.23
  -6   9   4    2.76    0.25
   5  -9  -4    0.26    0.09
  -5   9   4    0.07    0.08
   4  -9  -4    1.49    0.16
  -4   9   4    1.29    0.15
   3  -9  -4    9.90    0.59
   2  -9  -4    0.01    0.07
   2  -9  -4   -0.04    0.06
   1  -9  -4    0.11    0.09
   1  -9  -4    0.27    0.09
   1  -9  -4    0.18    0.06
   0  -9  -4    1.98    0.17
   0  -9  -4    1.68    0.17
   0  -9  -4    2.11    0.14
  -1  -9  -4    0.73    0.08
  -1  -9  -4    0.52    0.08
  -2  -9  -4    0.90    0.10
  -2  -9  -4    0.79    0.08
  -7  10   4    0.98    0.12
   6 -10  -4    3.95    0.27
  -6  10   4    3.43    0.28
  -6  10   4    4.86    0.26
  -5  10   4    2.45    0.19
  -4  10   4    2.15    0.17
   3 -10  -4    3.93    0.25
   2 -10  -4    6.56    0.40
   2 -10  -4    7.32    0.40
   1 -10  -4    1.77    0.15
   1 -10  -4    1.82    0.13
   0 -10  -4    0.08    0.05
   0 -10  -4    0.11    0.06
  -1  11  -5    1.64    0.15
   1 -11   5    1.69    0.13
  -2  11  -5    0.95    0.12
  -3  11  -5    7.00    0.37
   3 -11   5    5.13    0.37
  -4  11  -5    0.04    0.07
  -4  11  -5    0.00    0.06
  -4  11  -5   -0.01    0.10
  -5  11  -5    1.02    0.13
  -5  11  -5    1.45    0.18
  -6  11  -5    0.04    0.10
  -6  11  -5    0.18    0.06
  -1 -10   5    4.74    0.29
  -1 -10   5    5.00    0.29
   0 -10   5    0.02    0.05
   0 -10   5   -0.01    0.05
  -1  10  -5   10.18    0.62
   1 -10   5   10.68    0.62
  -2  10  -5   39.42    2.34
   2 -10   5   42.22    2.34
  -3  10  -5    0.14    0.08
  -4  10  -5    5.47    0.44
  -4  10  -5    5.81    0.37
  -4  10  -5    5.66    0.35
  -5  10  -5    0.69    0.11
  -5  10  -5    0.94    0.15
  -6  10  -5    2.97    0.27
  -6  10  -5    2.96    0.21
  -6  10  -5    2.14    0.20
  -7  10  -5    3.08    0.28
  -7  10  -5    2.74    0.21
  -8  10  -5    1.06    0.15
  -8  10  -5    1.10    0.10
  -3  -9   5    1.03    0.11
  -3  -9   5    1.04    0.12
  -3  -9   5    1.13    0.08
  -2  -9   5    0.29    0.09
  -2  -9   5    0.13    0.05
  -1  -9   5    0.18    0.06
  -1  -9   5    0.15    0.06
   0  -9   5    0.16    0.07
   1  -9   5   11.49    0.68
  -2   9  -5    0.82    0.11
  -3   9  -5   21.86    1.27
  -4   9  -5    1.44    0.18
  -4   9  -5    1.21    0.15
  -4   9  -5    1.94    0.20
  -5   9  -5    2.18    0.20
  -5   9  -5    1.69    0.27
  -5   9  -5    1.91    0.15
  -5   9  -5    2.34    0.20
  -6   9  -5    1.02    0.11
  -6   9  -5    1.11    0.13
  -6   9  -5    1.00    0.16
  -7   9  -5    0.19    0.09
  -7   9  -5    0.22    0.15
  -8   9  -5    3.39    0.29
  -8   9  -5    2.96    0.21
  -4  -8   5    5.33    0.31
  -4  -8   5    4.90    0.30
  -3  -8   5    0.45    0.08
  -3  -8   5    0.37    0.09
  -3  -8   5    0.36    0.07
  -2  -8   5    4.25    0.27
  -2  -8   5    4.55    0.28
  -1  -8   5    0.20    0.07
  -1  -8   5    0.21    0.06
   0  -8   5    2.90    0.20
   1  -8   5    0.42    0.06
  -2   8  -5    2.59    0.20
  -3   8  -5    1.39    0.14
  -3   8  -5    1.38    0.14
  -4   8  -5    4.31    0.28
  -4   8  -5    3.65    0.26
  -5   8  -5    1.29    0.12
  -5   8  -5    1.41    0.17
  -5   8  -5    1.26    0.18
  -6   8  -5    0.15    0.09
  -6   8  -5    0.06    0.15
  -6   8  -5    0.14    0.08
  -7   8  -5    2.22    0.29
  -7   8  -5    2.69    0.23
  -7   8  -5    2.31    0.19
  -8   8  -5    1.27    0.18
  -8   8  -5    1.80    0.14
  -8   8  -5    1.31    0.18
  -9   8  -5    1.39    0.16
  -9   8  -5    1.48    0.19
  -5  -7   5    0.57    0.09
  -5  -7   5    0.38    0.07
  -4  -7   5    6.83    0.40
  -4  -7   5    6.72    0.40
  -4  -7   5    6.98    0.39
  -3  -7   5   39.80    2.12
  -3  -7   5   38.06    2.07
  -3  -7   5   37.74    2.11
  -2  -7   5    1.07    0.10
  -2  -7   5    0.70    0.27
  -2  -7   5    0.68    0.08
  -1  -7   5    2.92    0.20
  -1  -7   5    2.87    0.20
   0  -7   5    6.29    0.38
  -2   7  -5    5.75    0.36
  -3   7  -5   24.91    1.58
  -3   7  -5   25.03    1.39
  -3   7  -5   22.89    1.71
  -3   7  -5   23.68    1.35
  -4   7  -5   53.84    2.99
  -4   7  -5   54.73    2.88
  -4   7  -5   49.84    3.45
  -4   7  -5   50.67    3.06
  -4   7  -5   50.17    3.25
  -4   7  -5   54.31    3.49
  -5   7  -5   25.35    1.40
  -5   7  -5   27.56    1.37
  -5   7  -5   21.44    1.72
  -5   7  -5   24.89    1.69
  -5   7  -5   22.46    1.57
  -6   7  -5    3.65    0.29
  -6   7  -5    3.53    0.24
  -6   7  -5    4.05    0.36
  -6   7  -5    3.16    0.38
  -7   7  -5   17.26    1.06
  -7   7  -5   13.46    1.07
  -7   7  -5   17.20    1.13
  -8   7  -5    1.04    0.18
  -8   7  -5    1.61    0.17
  -8   7  -5    1.40    0.13
  -9   7  -5   11.90    0.87
  -9   7  -5   13.05    0.83
  -6  -6   5    3.77    0.24
  -6  -6   5    3.68    0.23
  -5  -6   5   -0.09    0.09
  -5  -6   5   -0.05    0.04
  -5  -6   5   -0.02    0.07
  -4  -6   5    4.90    0.32
  -4  -6   5    5.24    0.31
  -4  -6   5    5.32    0.32
  -3  -6   5    0.95    0.09
  -3  -6   5    0.62    0.08
  -3  -6   5    0.91    0.26
  -3  -6   5    0.75    0.09
  -2  -6   5   18.61    1.00
  -2  -6   5   18.09    1.17
  -2  -6   5   18.10    1.18
  -2  -6   5   17.53    1.03
  -2  -6   5   17.01    1.33
  -1  -6   5    3.38    0.32
  -1  -6   5    5.47    0.62
  -1  -6   5    3.47    0.23
  -2   6  -5   38.46    2.58
  -2   6  -5   52.66    2.85
  -2   6  -5   45.78    3.02
  -3   6  -5   41.77    2.39
  -3   6  -5   44.64    2.55
  -3   6  -5   41.02    2.74
  -3   6  -5   39.74    2.33
  -3   6  -5   37.26    2.24
  -4   6  -5   16.85    0.97
  -4   6  -5   16.11    1.08
  -4   6  -5   18.69    1.14
  -4   6  -5   17.38    1.00
  -4   6  -5   20.11    1.26
  -4   6  -5   15.67    1.21
  -5   6  -5    1.76    0.24
  -5   6  -5    1.64    0.22
  -5   6  -5    1.72    0.26
  -5   6  -5    1.90    0.21
  -5   6  -5    1.77    0.15
  -5   6  -5    1.87    0.19
  -5   6  -5    1.27    0.28
  -6   6  -5   20.74    1.42
  -6   6  -5   25.22    1.51
  -6   6  -5   23.12    1.52
  -6   6  -5   20.38    1.45
  -6   6  -5   24.52    1.60
  -6   6  -5   24.31    1.28
  -7   6  -5   13.56    0.90
  -7   6  -5   12.18    0.87
  -7   6  -5   12.02    0.84
  -8   6  -5    0.14    0.15
  -8   6  -5    0.12    0.14
  -8   6  -5    0.17    0.12
  -8   6  -5    0.18    0.06
  -9   6  -5   14.61    0.93
  -9   6  -5   13.03    0.98
  -9   6  -5   14.59    0.95
 -10   6  -5    0.33    0.09
  -7  -5   5    1.99    0.13
  -7  -5   5    2.45    0.17
  -6  -5   5   -0.09    0.06
  -6  -5   5   -0.12    0.09
  -5  -5   5    0.14    0.09
  -5  -5   5    0.13    0.07
  -5  -5   5    0.25    0.06
  -4  -5   5    0.85    0.26
  -4  -5   5    0.98    0.12
  -4  -5   5    1.00    0.11
  -4  -5   5    0.76    0.09
  -3  -5   5   24.68    1.56
  -3  -5   5   25.04    1.73
  -3  -5   5   25.04    1.36
  -3  -5   5   25.79    1.57
  -3  -5   5   22.93    1.35
  -3  -5   5   24.23    1.41
  -2  -5   5   -0.02    0.10
  -2  -5   5    0.15    0.18
  -2  -5   5   -0.01    0.05
  -2  -5   5    0.05    0.22
  -2  -5   5    0.03    0.05
  -1  -5   5   17.50    1.09
  -1  -5   5   16.16    1.22
   0  -5   5   -0.04    0.15
  -1   5  -5    5.10    0.41
  -1   5  -5    4.26    0.33
  -1   5  -5    5.52    0.49
  -2   5  -5    8.54    0.61
  -2   5  -5    8.72    0.69
  -2   5  -5    8.47    0.55
  -3   5  -5    2.30    0.25
  -3   5  -5    1.67    0.26
  -3   5  -5    2.44    0.26
  -4   5  -5    0.20    0.07
  -4   5  -5   -0.02    0.16
  -4   5  -5    0.18    0.04
  -4   5  -5    0.20    0.13
  -4   5  -5    0.16    0.10
  -4   5  -5    0.20    0.17
  -4   5  -5    0.22    0.06
  -4   5  -5    0.22    0.14
  -5   5  -5   12.53    0.68
  -5   5  -5   11.86    0.80
  -5   5  -5   12.61    0.81
  -5   5  -5   12.01    0.81
  -5   5  -5   12.09    0.89
  -5   5  -5   12.25    0.83
  -5   5  -5   12.42    0.86
  -6   5  -5    4.71    0.35
  -6   5  -5    5.10    0.37
  -6   5  -5    3.92    0.38
  -6   5  -5    4.41    0.42
  -7   5  -5    1.95    0.29
  -7   5  -5    1.63    0.22
  -7   5  -5    1.96    0.26
  -7   5  -5    2.01    0.27
  -8   5  -5   19.90    1.27
  -8   5  -5   19.55    1.33
  -8   5  -5   18.04    1.29
  -9   5  -5   32.52    2.02
  -9   5  -5   29.69    2.02
 -10   5  -5    0.27    0.09
 -10   5  -5    0.01    0.09
  -8  -4   5    0.14    0.06
  -7  -4   5    1.61    0.17
  -7  -4   5    1.83    0.14
  -6  -4   5    0.05    0.04
  -6  -4   5    0.04    0.09
  -6  -4   5   -0.01    0.07
  -5  -4   5    0.25    0.09
  -5  -4   5    0.13    0.09
  -5  -4   5    0.14    0.21
  -5  -4   5    0.17    0.07
  -5  -4   5    0.22    0.06
  -4  -4   5    0.65    0.08
  -4  -4   5    0.86    0.22
  -4  -4   5    0.82    0.09
  -4  -4   5    0.75    0.09
  -4  -4   5    0.78    0.16
  -4  -4   5    0.63    0.26
  -4  -4   5    0.80    0.08
  -3  -4   5    2.10    0.16
  -3  -4   5    2.17    0.15
  -3  -4   5    2.59    0.24
  -3  -4   5    2.46    0.30
  -3  -4   5    2.40    0.34
  -3  -4   5    2.31    0.16
  -2  -4   5   15.42    1.13
  -2  -4   5   16.02    1.01
   1   4  -5    9.11    0.84
  -1  -4   5   11.83    0.81
   0   4  -5    4.63    0.48
   0   4  -5    4.07    0.47
   0   4  -5    4.51    0.37
   0   4  -5    4.60    0.45
   0  -4   5    4.33    0.43
   0  -4   5    4.81    0.34
   0  -4   5    4.21    0.45
  -1   4  -5    0.30    0.18
  -1   4  -5    0.26    0.13
  -1   4  -5    0.15    0.12
  -1   4  -5    0.23    0.09
   1  -4   5    0.28    0.21
  -2   4  -5   96.38    5.84
  -2   4  -5   96.70    6.18
  -2   4  -5   88.85    6.31
  -2   4  -5  100.12    5.49
  -3   4  -5    0.08    0.15
  -3   4  -5   -0.06    0.11
  -3   4  -5    0.14    0.10
  -3   4  -5    0.03    0.14
  -4   4  -5    1.10    0.17
  -4   4  -5    0.99    0.18
  -4   4  -5    1.15    0.15
  -4   4  -5    1.25    0.19
  -5   4  -5    2.06    0.25
  -5   4  -5    1.48    0.11
  -5   4  -5    1.35    0.21
  -5   4  -5    1.66    0.21
  -5   4  -5    1.85    0.21
  -5   4  -5    1.91    0.16
  -5   4  -5    1.43    0.18
  -5   4  -5    1.57    0.16
  -6   4  -5    0.52    0.11
  -6   4  -5    0.50    0.13
  -6   4  -5    0.51    0.20
  -6   4  -5    0.46    0.11
  -6   4  -5    0.55    0.13
  -7   4  -5   -0.08    0.12
  -7   4  -5    0.09    0.20
  -7   4  -5    0.14    0.15
  -7   4  -5    0.13    0.12
  -7   4  -5    0.01    0.13
  -8   4  -5   -0.09    0.12
  -8   4  -5   -0.06    0.13
  -8   4  -5    0.14    0.10
  -8   4  -5    0.05    0.16
  -9   4  -5    0.07    0.14
  -9   4  -5    0.14    0.12
 -10   4  -5    3.74    0.30
  -8  -3   5    0.17    0.08
  -7  -3   5    0.54    0.07
  -7  -3   5    0.69    0.12
  -7  -3   5    0.53    0.10
  -6  -3   5    7.34    0.41
  -6  -3   5    6.98    0.42
  -6  -3   5    6.99    0.50
  -6  -3   5    7.06    0.41
  -5  -3   5   13.42    0.69
  -5  -3   5   12.40    0.87
  -5  -3   5   11.57    0.94
  -5  -3   5   12.76    0.70
  -5  -3   5   11.92    0.83
  -5  -3   5   12.57    0.70
  -5  -3   5   12.51    0.84
  -4  -3   5    4.36    0.27
  -4  -3   5    4.57    0.27
  -4  -3   5    4.17    0.27
  -4  -3   5    4.28    0.27
  -4  -3   5    4.54    0.40
  -4  -3   5    4.97    0.36
  -4  -3   5    4.31    0.47
  -3  -3   5    0.17    0.13
  -3  -3   5    0.10    0.19
  -3  -3   5    0.18    0.09
  -2  -3   5   13.37    0.88
  -2  -3   5    9.90    0.87
  -2  -3   5   12.54    0.78
   1   3  -5   47.66    2.94
   0   3  -5   34.15    2.26
   0   3  -5   33.22    2.03
   0  -3   5   31.43    2.23
   0  -3   5   31.51    2.01
   0  -3   5   32.15    2.20
   0  -3   5   33.23    2.16
  -1   3  -5   33.97    2.43
  -1   3  -5   36.13    2.24
  -1   3  -5   36.74    2.10
  -1   3  -5   38.50    2.39
  -1   3  -5   35.15    2.45
   1  -3   5   36.14    2.42
   1  -3   5   37.13    2.45
  -2   3  -5   45.38    2.77
  -2   3  -5   44.20    3.02
  -2   3  -5   50.01    2.62
  -2   3  -5   44.53    2.92
  -2   3  -5   41.28    2.99
  -2   3  -5   45.31    2.94
   2  -3   5   44.60    2.99
   2  -3   5   45.80    3.01
  -3   3  -5   13.35    0.92
  -3   3  -5   13.77    0.92
  -3   3  -5   13.50    0.83
  -3   3  -5   13.21    0.85
  -4   3  -5   13.87    0.97
  -4   3  -5   15.28    1.06
  -4   3  -5   15.75    1.04
  -4   3  -5   16.82    0.97
  -4   3  -5   16.53    0.97
  -4   3  -5   15.95    1.03
  -5   3  -5    9.72    0.58
  -5   3  -5   10.25    0.71
  -5   3  -5   11.27    0.70
  -5   3  -5   10.97    0.70
  -5   3  -5   10.95    0.59
  -5   3  -5    9.91    0.74
  -6   3  -5    0.40    0.12
  -6   3  -5    0.55    0.11
  -6   3  -5    0.34    0.18
  -6   3  -5    0.29    0.12
  -6   3  -5    0.37    0.11
  -6   3  -5    0.45    0.08
  -7   3  -5    6.99    0.52
  -7   3  -5    8.14    0.45
  -7   3  -5    7.10    0.56
  -7   3  -5    7.54    0.55
  -7   3  -5    6.76    0.55
  -8   3  -5   11.74    0.77
  -8   3  -5   11.97    0.79
  -8   3  -5    9.33    0.80
  -8   3  -5   11.99    0.64
  -9   3  -5   10.24    0.72
  -9   3  -5    9.84    0.59
  -9   3  -5   11.27    0.71
  -8  -2   5   22.25    1.18
  -8  -2   5   21.81    1.42
  -8  -2   5   21.03    1.19
  -7  -2   5    3.41    0.29
  -7  -2   5    2.94    0.20
  -7  -2   5    3.05    0.23
  -6  -2   5    2.42    0.20
  -6  -2   5    2.75    0.18
  -6  -2   5    2.33    0.24
  -6  -2   5    2.22    0.19
  -6  -2   5    2.51    0.17
  -6  -2   5    2.57    0.33
  -5  -2   5   33.88    1.95
  -5  -2   5   35.73    1.87
  -5  -2   5   33.17    1.88
  -5  -2   5   35.74    2.30
  -5  -2   5   33.76    2.11
  -5  -2   5   34.15    1.84
  -5  -2   5   33.05    2.13
  -4  -2   5    1.27    0.12
  -4  -2   5    1.55    0.28
  -4  -2   5    1.70    0.21
  -4  -2   5    1.22    0.10
  -4  -2   5    1.38    0.11
  -4  -2   5    1.34    0.18
  -3  -2   5    5.91    0.41
  -3  -2   5    5.68    0.42
  -3  -2   5    5.88    0.51
   2   2  -5   55.69    3.29
  -2  -2   5   51.69    2.99
  -2  -2   5   42.14    3.26
  -2  -2   5   47.63    2.92
  -2  -2   5   46.48    3.24
   1   2  -5    0.35    0.12
   1   2  -5    0.28    0.18
   1   2  -5    0.45    0.18
  -1  -2   5    0.24    0.15
  -1  -2   5    0.30    0.09
  -1  -2   5    0.49    0.21
   0   2  -5   47.51    3.08
   0   2  -5   49.15    2.83
   0   2  -5   47.07    3.01
   0  -2   5   42.83    2.81
   0  -2   5   43.77    3.00
  -1   2  -5   88.31    5.90
  -1   2  -5   97.53    5.47
  -1   2  -5   84.30    5.73
  -1   2  -5   90.14    5.15
   1  -2   5   87.11    5.90
   1  -2   5   91.40    5.87
  -2   2  -5   11.17    0.77
  -2   2  -5   10.33    0.70
  -2   2  -5   10.92    0.78
  -2   2  -5   10.79    0.80
  -2   2  -5   11.41    0.77
  -2   2  -5   12.46    0.69
  -2   2  -5   10.55    0.75
  -2   2  -5   11.77    0.71
   2  -2   5   11.00    0.77
   2  -2   5   11.19    0.79
  -3   2  -5   22.94    1.49
  -3   2  -5   21.85    1.51
  -3   2  -5   23.06    1.39
  -3   2  -5   25.47    1.35
  -3   2  -5   21.05    1.50
  -3   2  -5   21.80    1.38
  -3   2  -5   24.31    1.47
  -3   2  -5   22.57    1.47
   3  -2   5   20.96    1.49
  -4   2  -5   22.79    1.34
  -4   2  -5   21.88    1.48
  -5   2  -5    8.03    0.58
  -5   2  -5    8.46    0.56
  -5   2  -5    7.94    0.55
  -5   2  -5    8.27    0.46
  -5   2  -5    8.39    0.56
  -5   2  -5    7.48    0.45
  -6   2  -5   -0.08    0.16
  -6   2  -5    0.17    0.12
  -6   2  -5    0.02    0.09
  -6   2  -5   -0.04    0.10
  -6   2  -5    0.09    0.08
  -6   2  -5    0.02    0.06
  -6   2  -5   -0.04    0.11
  -7   2  -5    2.50    0.22
  -7   2  -5    2.33    0.19
  -7   2  -5    2.14    0.27
  -7   2  -5    2.56    0.20
  -7   2  -5    2.62    0.26
  -7   2  -5    2.12    0.27
  -8   2  -5    3.54    0.35
  -8   2  -5    3.37    0.26
  -8   2  -5    3.56    0.30
  -9   2  -5    3.00    0.22
  -9   2  -5    2.76    0.25
  -9   2  -5    3.05    0.27
  -9  -1   5   16.62    1.04
  -9  -1   5   15.00    0.86
  -8  -1   5    2.54    0.24
  -8  -1   5    2.30    0.19
  -8  -1   5    2.19    0.16
  -7  -1   5    0.27    0.11
  -7  -1   5    0.39    0.05
  -7  -1   5    0.31    0.09
  -7  -1   5    0.30    0.08
  -7  -1   5    0.27    0.07
  -6  -1   5    1.22    0.27
  -6  -1   5    1.38    0.12
  -6  -1   5    1.28    0.23
  -6  -1   5    1.32    0.15
  -6  -1   5    1.59    0.13
  -6  -1   5    1.50    0.19
  -6  -1   5    1.18    0.13
  -6  -1   5    1.64    0.20
  -5  -1   5   11.64    0.86
  -5  -1   5   11.07    0.62
  -5  -1   5   10.96    0.64
  -5  -1   5   10.42    0.61
  -5  -1   5   11.53    0.75
  -5  -1   5   11.40    0.62
  -5  -1   5   11.19    0.74
  -4  -1   5    9.90    0.66
  -4  -1   5   10.03    0.66
  -4  -1   5   10.15    0.77
   3   1  -5   12.31    0.99
  -3  -1   5   14.54    0.85
  -3  -1   5   14.01    0.97
  -3  -1   5   12.18    0.97
  -3  -1   5   14.15    0.87
   2   1  -5    8.80    0.60
   2   1  -5   10.22    0.70
   2   1  -5    8.77    0.72
  -2  -1   5    8.67    0.56
  -2  -1   5    8.69    0.67
  -2  -1   5    8.98    0.58
  -2  -1   5    7.93    0.69
   1   1  -5   13.13    0.96
   1   1  -5   14.57    0.89
   1   1  -5   14.34    0.97
  -1  -1   5   13.64    0.87
  -1  -1   5   14.18    0.97
  -1  -1   5   13.57    1.01
  -1  -1   5   12.76    0.95
   0   1  -5   24.52    1.76
   0   1  -5   27.12    1.81
   0   1  -5   27.39    1.79
   0   1  -5   29.12    1.68
   0   1  -5   29.65    1.85
   0  -1   5   24.60    1.67
   0  -1   5   28.06    1.85
  -1   1  -5    2.01    0.17
  -1   1  -5    1.88    0.16
  -1   1  -5    2.49    0.20
  -1   1  -5    2.16    0.24
  -1   1  -5    1.98    0.21
  -1   1  -5    2.50    0.22
  -1   1  -5    2.05    0.27
  -1   1  -5    2.45    0.25
  -1   1  -5    2.19    0.21
   1  -1   5    2.21    0.21
   1  -1   5    2.32    0.26
  -2   1  -5    8.72    0.62
  -2   1  -5    9.00    0.65
  -2   1  -5    9.08    0.63
  -2   1  -5    9.32    0.65
  -2   1  -5   10.04    0.59
  -2   1  -5    9.79    0.59
   2  -1   5    9.38    0.65
   2  -1   5    8.90    0.64
  -3   1  -5   24.75    1.42
  -3   1  -5   22.91    1.56
  -3   1  -5   24.56    1.58
  -4   1  -5   32.27    1.97
  -4   1  -5   33.95    1.92
  -4   1  -5   31.70    2.12
  -4   1  -5   32.41    2.11
  -5   1  -5   10.78    0.76
  -5   1  -5   11.66    0.75
  -5   1  -5   12.30    0.77
  -5   1  -5   11.73    0.81
  -5   1  -5   11.07    0.64
  -5   1  -5   11.18    0.69
  -5   1  -5   12.38    0.94
  -5   1  -5   11.56    0.65
  -5   1  -5   11.36    0.64
  -5   1  -5   11.69    0.78
  -6   1  -5    5.70    0.35
  -6   1  -5    5.88    0.35
  -6   1  -5    6.22    0.34
  -6   1  -5    5.53    0.43
  -6   1  -5    5.73    0.42
  -6   1  -5    5.54    0.37
  -6   1  -5    5.89    0.51
  -6   1  -5    5.43    0.45
  -7   1  -5    1.45    0.17
  -7   1  -5    1.59    0.16
  -7   1  -5    1.71    0.18
  -7   1  -5    1.36    0.16
  -7   1  -5    1.37    0.20
  -7   1  -5    1.33    0.17
  -8   1  -5   15.60    0.80
  -8   1  -5   14.89    0.98
  -8   1  -5   14.65    0.81
  -8   1  -5   12.97    0.96
  -9   1  -5    0.46    0.11
  -9   1  -5    0.63    0.10
  -9   0   5    3.61    0.28
  -9   0   5    3.34    0.22
  -9   0   5    3.11    0.20
  -8   0   5   14.57    0.85
  -8   0   5   15.58    0.84
  -8   0   5   15.79    1.02
  -7   0   5   89.21    4.75
  -7   0   5   87.48    4.83
  -7   0   5   98.03    5.73
  -7   0   5   77.83    5.35
  -7   0   5   84.99    4.78
  -7   0   5   95.28    4.87
  -6   0   5   11.52    0.61
  -6   0   5   10.30    0.73
  -6   0   5   10.73    0.60
  -6   0   5   10.75    0.61
  -6   0   5   11.29    0.74
  -6   0   5   10.62    0.84
  -6   0   5   11.40    0.76
  -6   0   5   10.39    0.60
  -5   0   5    5.36    0.31
  -5   0   5    5.55    0.51
  -5   0   5    4.99    0.31
  -5   0   5    4.76    0.31
  -5   0   5    5.44    0.41
  -5   0   5    5.59    0.39
  -5   0   5    5.23    0.38
  -4   0   5   16.92    1.27
  -4   0   5   18.71    1.14
  -4   0   5   18.79    1.16
   3   0  -5    4.92    0.47
  -3   0   5    4.43    0.49
  -3   0   5    6.25    0.49
  -3   0   5    5.62    0.48
  -3   0   5    6.25    0.39
  -3   0   5    6.16    0.40
   2   0  -5   99.16    6.46
   2   0  -5   97.18    6.50
   2   0  -5   98.24    6.01
   2   0  -5  101.64    6.28
  -2   0   5   97.36    6.00
  -2   0   5   97.73    6.47
  -2   0   5   95.39    6.49
  -2   0   5  102.06    5.86
   1   0  -5    5.40    0.40
   1   0  -5    5.58    0.49
   1   0  -5    6.19    0.46
   1   0  -5    5.45    0.40
  -1   0   5    4.94    0.49
  -1   0   5    5.00    0.34
  -1   0   5    5.30    0.43
  -1   0   5    5.30    0.37
   0   0  -5   23.63    1.54
   0   0  -5   24.57    1.62
   0   0  -5   25.32    1.47
   0   0  -5   25.19    1.57
   0   0   5   24.05    1.62
   0   0   5   20.15    1.56
   0   0   5   23.37    1.59
  -1   0  -5    1.10    0.16
  -1   0  -5    0.96    0.15
  -1   0  -5    1.01    0.14
  -1   0  -5    1.06    0.13
  -1   0  -5    1.06    0.14
  -1   0  -5    1.15    0.14
  -1   0  -5    1.21    0.17
  -1   0  -5    0.99    0.10
   1   0   5    1.27    0.16
   1   0   5    0.84    0.16
  -2   0  -5    3.74    0.28
  -2   0  -5    3.63    0.23
  -2   0  -5    3.68    0.32
  -2   0  -5    3.38    0.28
  -3   0  -5    2.29    0.20
  -3   0  -5    2.44    0.22
  -3   0  -5    2.53    0.27
  -3   0  -5    2.29    0.23
  -4   0  -5    3.03    0.26
  -4   0  -5    3.42    0.32
  -4   0  -5    3.14    0.28
  -4   0  -5    2.96    0.28
  -5   0  -5    2.45    0.28
  -5   0  -5    2.65    0.28
  -5   0  -5    2.61    0.24
  -5   0  -5    2.65    0.21
  -5   0  -5    2.97    0.19
  -5   0  -5    2.73    0.24
  -5   0  -5    2.75    0.19
  -5   0  -5    2.72    0.27
  -5   0  -5    3.01    0.19
  -5   0  -5    2.88    0.31
  -6   0  -5    0.02    0.11
  -6   0  -5    0.03    0.08
  -6   0  -5   -0.06    0.10
  -6   0  -5    0.01    0.11
  -6   0  -5    0.04    0.15
  -6   0  -5    0.01    0.08
  -6   0  -5    0.05    0.08
  -6   0  -5    0.06    0.09
  -7   0  -5    2.35    0.19
  -7   0  -5    2.17    0.19
  -7   0  -5    2.05    0.21
  -7   0  -5    1.78    0.24
  -7   0  -5    2.22    0.20
  -8   0  -5    0.54    0.11
  -8   0  -5    0.44    0.09
  -8   0  -5    0.63    0.13
  -9   0  -5    5.90    0.34
 -10   1   5    0.28    0.09
  -9   1   5    1.69    0.13
  -9   1   5    1.56    0.21
  -9   1   5    1.44    0.16
  -8   1   5    0.03    0.09
  -8   1   5    0.01    0.07
  -8   1   5   -0.06    0.10
  -7   1   5   20.16    1.39
  -7   1   5   19.58    1.37
  -7   1   5   23.20    1.41
  -7   1   5   22.04    1.18
  -7   1   5   20.92    1.16
  -7   1   5   21.61    1.18
  -6   1   5    6.63    0.39
  -6   1   5    6.80    0.49
  -6   1   5    6.67    0.62
  -6   1   5    7.12    0.53
  -6   1   5    6.76    0.39
  -6   1   5    6.86    0.48
  -6   1   5    6.79    0.50
  -6   1   5    6.42    0.39
  -6   1   5    6.99    0.39
  -5   1   5    0.72    0.25
  -5   1   5    0.57    0.07
  -5   1   5    1.04    0.18
  -5   1   5    0.71    0.15
  -5   1   5    0.63    0.08
  -4   1   5   18.92    1.30
  -4   1   5   17.86    1.18
  -4   1   5   18.99    1.15
   3  -1  -5   77.30    5.22
   3  -1  -5   78.48    5.19
  -3   1   5   79.46    5.11
  -3   1   5   83.07    4.81
  -3   1   5   67.14    5.21
  -3   1   5   86.02    4.69
   2  -1  -5    1.69    0.23
   2  -1  -5    1.61    0.27
   2  -1  -5    1.48    0.17
   2  -1  -5    1.57    0.18
  -2   1   5    1.54    0.22
  -2   1   5    1.61    0.14
  -2   1   5    1.56    0.18
   1  -1  -5    0.24    0.10
   1  -1  -5    0.40    0.12
   1  -1  -5    0.31    0.12
   1  -1  -5    0.23    0.15
   1  -1  -5    0.18    0.16
  -1   1   5    0.10    0.22
  -1   1   5    0.31    0.10
  -1   1   5    0.27    0.15
  -1   1   5    0.24    0.12
   0  -1  -5    2.77    0.31
   0  -1  -5    2.88    0.25
   0  -1  -5    3.07    0.27
   0  -1  -5    3.03    0.30
   0  -1  -5    2.50    0.25
   0  -1  -5    2.22    0.20
   0  -1  -5    3.15    0.24
   0   1   5    2.57    0.28
   0   1   5    2.96    0.33
  -1  -1  -5   13.14    0.81
  -1  -1  -5   12.80    0.88
  -1  -1  -5   13.58    0.90
  -1  -1  -5   12.47    0.87
  -1  -1  -5   12.66    0.87
  -1  -1  -5   11.60    0.80
  -1  -1  -5   12.88    0.88
  -1  -1  -5   13.69    0.88
   1   1   5   12.83    0.90
   1   1   5   13.48    0.92
  -2  -1  -5    4.33    0.29
  -2  -1  -5    4.32    0.32
  -2  -1  -5    4.62    0.29
  -2  -1  -5    4.90    0.36
  -2  -1  -5    4.58    0.32
  -2  -1  -5    4.73    0.38
   2   1   5    4.29    0.33
  -3  -1  -5   23.23    1.53
  -3  -1  -5   22.88    1.54
  -4  -1  -5    3.05    0.22
  -4  -1  -5    2.88    0.28
  -4  -1  -5    3.19    0.30
  -4  -1  -5    2.93    0.20
  -4  -1  -5    3.21    0.21
  -4  -1  -5    3.46    0.33
  -5  -1  -5   25.14    1.73
  -5  -1  -5   29.27    2.05
  -5  -1  -5   25.79    1.41
  -5  -1  -5   26.88    1.44
  -5  -1  -5   25.60    1.53
  -5  -1  -5   24.44    1.76
  -5  -1  -5   24.05    1.39
  -6  -1  -5   42.16    3.29
  -6  -1  -5   41.09    2.45
  -6  -1  -5   42.90    2.27
  -6  -1  -5   41.34    2.25
  -7  -1  -5    8.34    0.49
  -7  -1  -5    8.71    0.54
  -7  -1  -5    8.63    0.49
  -7  -1  -5    8.67    0.51
  -8  -1  -5    0.02    0.08
  -8  -1  -5    0.05    0.08
 -10   2   5    0.71    0.11
  -9   2   5    9.13    0.63
  -9   2   5    9.01    0.51
  -8   2   5    0.94    0.13
  -8   2   5    0.79    0.10
  -8   2   5    0.78    0.13
  -8   2   5    0.71    0.10
  -7   2   5   -0.09    0.08
  -7   2   5   -0.01    0.13
  -7   2   5   -0.06    0.06
  -7   2   5   -0.18    0.19
  -7   2   5   -0.20    0.10
  -7   2   5   -0.14    0.09
  -6   2   5   48.00    2.58
  -6   2   5   46.31    3.05
  -6   2   5   47.15    2.87
  -6   2   5   49.04    2.78
  -6   2   5   44.69    3.14
  -6   2   5   47.67    2.59
  -6   2   5   45.90    2.69
  -6   2   5   48.95    2.93
  -5   2   5   10.51    0.79
  -5   2   5   10.03    0.65
  -5   2   5    8.55    0.53
  -5   2   5   10.12    0.64
  -5   2   5    8.91    0.55
  -4   2   5    0.17    0.11
  -4   2   5    0.08    0.10
  -4   2   5    0.27    0.22
   3  -2  -5   28.08    1.75
   3  -2  -5   25.89    1.88
   3  -2  -5   27.41    1.91
  -3   2   5   28.75    1.68
  -3   2   5   29.11    1.88
   2  -2  -5   38.12    2.46
   2  -2  -5   36.96    2.29
   2  -2  -5   34.16    2.40
  -2   2   5   40.99    2.51
  -2   2   5   32.12    2.20
  -2   2   5   32.76    2.41
   1  -2  -5  118.96    7.23
   1  -2  -5  110.04    7.44
   1  -2  -5  109.03    7.42
   1  -2  -5  123.58    7.31
   1  -2  -5  120.82    6.90
  -1   2   5   96.35    6.90
  -1   2   5  100.84    7.32
  -1   2   5  128.16    7.50
   0  -2  -5    0.92    0.17
   0  -2  -5    0.84    0.15
   0  -2  -5    1.27    0.15
   0  -2  -5    0.90    0.18
   0  -2  -5    1.09    0.16
   0  -2  -5    0.93    0.18
   0   2   5    0.73    0.19
   0   2   5    0.50    0.19
  -1  -2  -5    0.02    0.11
  -1  -2  -5    0.06    0.12
  -1  -2  -5    0.00    0.10
  -1  -2  -5   -0.01    0.05
  -1  -2  -5   -0.03    0.08
  -1  -2  -5    0.00    0.13
  -1  -2  -5    0.04    0.08
  -2  -2  -5    9.09    0.62
  -2  -2  -5    7.54    0.52
  -2  -2  -5    8.24    0.59
  -2  -2  -5    8.39    0.58
  -3  -2  -5    0.28    0.15
  -3  -2  -5    0.13    0.12
  -3  -2  -5    0.17    0.07
  -3  -2  -5    0.21    0.04
  -3  -2  -5    0.19    0.06
  -4  -2  -5   13.64    1.00
  -4  -2  -5   11.95    0.67
  -4  -2  -5   12.31    0.73
  -4  -2  -5   12.20    0.87
  -4  -2  -5   10.16    0.85
  -4  -2  -5   12.67    0.69
  -5  -2  -5    9.30    0.59
  -5  -2  -5   11.41    0.89
  -5  -2  -5   11.19    0.66
  -5  -2  -5    9.79    0.79
  -5  -2  -5   11.12    0.60
  -5  -2  -5   10.93    0.62
  -6  -2  -5   17.06    0.99
  -6  -2  -5   18.66    1.00
  -6  -2  -5   18.93    1.10
  -7  -2  -5    3.76    0.24
  -7  -2  -5    3.54    0.25
  -7  -2  -5    3.41    0.24
  -8  -2  -5    0.12    0.07
 -10   3   5    3.12    0.25
  -9   3   5    2.20    0.23
  -9   3   5    2.13    0.17
  -9   3   5    2.07    0.22
  -8   3   5    6.78    0.39
  -8   3   5    6.33    0.38
  -8   3   5    6.19    0.48
  -8   3   5    6.66    0.48
  -7   3   5   17.59    1.27
  -7   3   5   16.52    1.28
  -7   3   5   20.16    1.30
  -7   3   5   21.88    1.10
  -7   3   5   21.61    1.30
  -7   3   5   20.34    1.10
  -7   3   5   19.32    1.25
  -6   3   5    1.07    0.19
  -6   3   5    1.47    0.14
  -6   3   5    1.66    0.15
  -6   3   5    1.35    0.34
  -6   3   5    1.45    0.17
  -6   3   5    1.57    0.24
  -6   3   5    1.51    0.13
  -6   3   5    1.97    0.26
  -5   3   5   19.27    1.15
  -5   3   5   20.75    1.44
  -5   3   5   19.58    1.25
  -5   3   5   19.65    1.11
  -5   3   5   21.43    1.30
  -4   3   5   11.83    0.82
  -4   3   5   12.81    0.93
   3  -3  -5   15.47    1.12
   3  -3  -5   19.17    1.29
  -3   3   5   17.35    1.11
   2  -3  -5    3.96    0.44
   2  -3  -5    4.77    0.37
   2  -3  -5    4.93    0.46
  -2   3   5    3.77    0.48
   1  -3  -5    5.47    0.40
   1  -3  -5    5.23    0.50
   1  -3  -5    5.41    0.53
  -1   3   5    4.73    0.52
   0  -3  -5   -0.07    0.12
   0  -3  -5   -0.02    0.11
   0  -3  -5    0.14    0.18
  -1  -3  -5    4.23    0.37
  -1  -3  -5    4.61    0.32
  -1  -3  -5    3.94    0.40
  -2  -3  -5    0.52    0.08
  -2  -3  -5    0.53    0.13
  -2  -3  -5    0.44    0.04
  -2  -3  -5    0.38    0.16
  -2  -3  -5    0.46    0.06
  -2  -3  -5    0.50    0.15
  -3  -3  -5    0.13    0.08
  -3  -3  -5    0.22    0.07
  -3  -3  -5    0.20    0.07
  -3  -3  -5    0.21    0.20
  -3  -3  -5    0.11    0.04
  -3  -3  -5    0.18    0.14
  -4  -3  -5    0.43    0.19
  -4  -3  -5    0.87    0.21
  -4  -3  -5    0.60    0.10
  -4  -3  -5    0.55    0.07
  -4  -3  -5    0.70    0.11
  -4  -3  -5    0.54    0.09
  -5  -3  -5   23.36    1.35
  -5  -3  -5   25.18    1.32
  -5  -3  -5   23.60    1.43
  -6  -3  -5    1.73    0.22
  -6  -3  -5    1.72    0.17
  -6  -3  -5    1.79    0.18
  -7  -3  -5    1.95    0.17
  -7  -3  -5    2.12    0.17
 -10   4   5    1.73    0.18
 -10   4   5    1.60    0.12
 -10   4   5    1.59    0.16
  -9   4   5    0.20    0.11
  -9   4   5    0.07    0.08
  -9   4   5    0.20    0.11
  -8   4   5   10.60    0.74
  -8   4   5   10.33    0.74
  -8   4   5   10.97    0.62
  -8   4   5   11.18    0.61
  -7   4   5    0.18    0.09
  -7   4   5    0.28    0.11
  -7   4   5    0.15    0.08
  -7   4   5    0.63    0.21
  -6   4   5   40.82    2.12
  -6   4   5   36.87    2.62
  -6   4   5   35.77    2.11
  -6   4   5   41.63    2.30
  -6   4   5   37.55    2.42
  -6   4   5   38.12    2.20
  -5   4   5    1.49    0.15
  -5   4   5    1.46    0.33
  -5   4   5    1.67    0.14
  -4   4   5    7.64    0.56
   2  -4  -5  324.11   17.22
   2  -4  -5  242.09   18.18
   1  -4  -5    0.47    0.23
   1  -4  -5    0.22    0.16
   1  -4  -5    0.46    0.14
   0  -4  -5    2.02    0.30
   0  -4  -5    1.55    0.23
   0  -4  -5    1.99    0.24
  -1  -4  -5    0.49    0.07
  -1  -4  -5    0.40    0.05
  -1  -4  -5    0.64    0.14
  -1  -4  -5    0.27    0.15
  -1  -4  -5    0.68    0.17
  -1  -4  -5    0.27    0.07
  -1  -4  -5    0.54    0.07
  -1  -4  -5    0.47    0.21
  -2  -4  -5    1.21    0.14
  -2  -4  -5    1.17    0.13
  -2  -4  -5    1.80    0.26
  -2  -4  -5    1.26    0.22
  -2  -4  -5    1.17    0.10
  -2  -4  -5    1.60    0.26
  -2  -4  -5    1.17    0.13
  -2  -4  -5    1.09    0.12
  -2  -4  -5    1.30    0.15
  -3  -4  -5    2.94    0.24
  -3  -4  -5    3.13    0.38
  -3  -4  -5    2.84    0.22
  -3  -4  -5    3.12    0.22
  -3  -4  -5    3.07    0.19
  -4  -4  -5    0.20    0.10
  -4  -4  -5    0.59    0.24
  -4  -4  -5    0.33    0.05
  -4  -4  -5    0.30    0.10
  -4  -4  -5    0.28    0.09
  -5  -4  -5    0.55    0.11
  -5  -4  -5    0.61    0.13
  -5  -4  -5    0.81    0.11
  -6  -4  -5    6.19    0.38
  -6  -4  -5    6.41    0.37
  -7  -4  -5    4.66    0.28
  -7  -4  -5    5.12    0.30
 -10   5   5    0.30    0.06
 -10   5   5    0.31    0.08
  -9   5   5    4.22    0.27
  -9   5   5    3.83    0.33
  -8   5   5    0.18    0.10
  -8   5   5    0.12    0.11
  -8   5   5    0.22    0.08
  -7   5   5    2.24    0.20
  -7   5   5    2.35    0.22
  -6   5   5    0.31    0.20
  -6   5   5    0.16    0.09
  -6   5   5    0.19    0.28
  -6   5   5    0.26    0.08
  -6   5   5    0.16    0.18
  -5   5   5    4.71    0.42
  -5   5   5    4.39    0.43
  -5   5   5    4.73    0.57
  -5   5   5    4.75    0.30
  -4   5   5    1.49    0.14
   2  -5  -5   11.70    0.77
   2  -5  -5    9.32    0.60
   2  -5  -5   10.54    0.72
   1  -5  -5   61.91    3.99
   1  -5  -5   56.49    3.45
   1  -5  -5   57.44    3.32
   1  -5  -5   63.92    3.73
   1  -5  -5   63.15    3.94
   0  -5  -5    0.43    0.06
   0  -5  -5    0.53    0.17
   0  -5  -5    0.39    0.19
   0  -5  -5    0.47    0.09
   0  -5  -5    0.47    0.08
   0  -5  -5    0.43    0.08
   0  -5  -5    0.52    0.27
  -1  -5  -5   57.13    3.10
  -1  -5  -5   56.25    3.02
  -1  -5  -5   52.98    3.27
  -1  -5  -5   60.69    3.06
  -1  -5  -5   53.00    3.68
  -2  -5  -5    2.67    0.17
  -2  -5  -5    2.62    0.21
  -2  -5  -5    2.75    0.20
  -2  -5  -5    2.52    0.34
  -2  -5  -5    2.88    0.19
  -2  -5  -5    2.49    0.34
  -2  -5  -5    2.53    0.23
  -2  -5  -5    2.82    0.22
  -3  -5  -5    8.75    0.50
  -3  -5  -5    8.57    0.54
  -3  -5  -5    7.78    0.68
  -3  -5  -5    8.63    0.51
  -3  -5  -5    8.47    0.48
  -4  -5  -5    9.76    0.54
  -4  -5  -5    9.73    0.62
  -4  -5  -5    9.52    0.57
  -4  -5  -5   10.04    0.56
  -5  -5  -5    3.74    0.26
  -5  -5  -5    3.92    0.26
  -6  -5  -5    1.58    0.13
  -6  -5  -5    1.54    0.14
 -10   6   5    1.62    0.12
  -9   6   5    0.32    0.11
  -9   6   5    0.44    0.10
  -8   6   5    0.39    0.10
  -8   6   5    0.62    0.09
  -8   6   5    0.61    0.13
  -7   6   5    0.40    0.11
  -7   6   5    0.31    0.12
  -7   6   5    0.35    0.07
  -7   6   5    0.36    0.12
  -6   6   5    0.13    0.19
  -6   6   5    0.15    0.11
  -5   6   5    8.13    0.49
  -5   6   5    7.99    0.60
   4  -6  -5   14.80    1.00
  -4   6   5   12.26    0.82
  -4   6   5   15.10    0.91
   3  -6  -5    1.63    0.27
   3  -6  -5    1.22    0.14
   2  -6  -5   25.12    1.39
   2  -6  -5   24.17    1.35
   2  -6  -5   22.95    1.73
   2  -6  -5   24.60    1.64
   2  -6  -5   23.71    1.56
   1  -6  -5    3.75    0.25
   1  -6  -5    3.75    0.25
   1  -6  -5    4.20    0.41
   1  -6  -5    3.84    0.24
   1  -6  -5    4.04    0.37
   1  -6  -5    3.49    0.24
   1  -6  -5    2.52    0.41
   0  -6  -5   28.01    1.50
   0  -6  -5   27.30    1.52
   0  -6  -5   27.35    1.85
   0  -6  -5   29.17    1.56
   0  -6  -5   23.52    1.88
  -1  -6  -5    0.49    0.09
  -1  -6  -5    0.79    0.08
  -1  -6  -5    1.25    0.28
  -1  -6  -5    0.80    0.09
  -1  -6  -5    0.79    0.16
  -1  -6  -5    0.74    0.10
  -2  -6  -5   14.87    0.80
  -2  -6  -5   13.21    0.86
  -2  -6  -5   15.20    0.80
  -2  -6  -5   13.95    0.82
  -2  -6  -5   14.31    0.79
  -3  -6  -5    0.59    0.11
  -3  -6  -5    1.00    0.09
  -3  -6  -5    0.74    0.11
  -3  -6  -5    1.08    0.14
  -4  -6  -5    5.57    0.33
  -4  -6  -5    5.03    0.33
  -5  -6  -5    8.99    0.48
  -5  -6  -5    7.97    0.48
  -9   7   5    0.80    0.11
  -9   7   5    0.59    0.10
  -8   7   5    0.03    0.09
  -8   7   5    0.06    0.08
  -8   7   5    0.22    0.11
  -7   7   5   15.00    0.87
  -7   7   5   15.81    1.00
  -7   7   5   14.17    0.85
  -6   7   5    1.15    0.14
   4  -7  -5    2.07    0.19
   3  -7  -5    1.69    0.27
   3  -7  -5    1.33    0.15
   2  -7  -5    7.04    0.43
   2  -7  -5    7.55    0.44
   2  -7  -5    6.87    0.59
   2  -7  -5    7.01    0.43
   1  -7  -5    0.06    0.06
   1  -7  -5   -0.02    0.20
   1  -7  -5    0.10    0.08
   1  -7  -5    0.12    0.09
   0  -7  -5    7.88    0.47
   0  -7  -5    8.79    0.48
   0  -7  -5    8.00    0.47
   0  -7  -5    7.47    0.47
  -1  -7  -5    7.78    0.46
  -1  -7  -5    8.00    0.44
  -1  -7  -5    6.97    0.46
  -1  -7  -5    8.16    0.46
  -2  -7  -5    0.39    0.10
  -2  -7  -5    0.33    0.08
  -2  -7  -5    0.28    0.09
  -3  -7  -5   23.87    1.26
  -3  -7  -5   24.34    1.26
  -3  -7  -5   21.07    1.29
  -4  -7  -5    3.86    0.22
  -4  -7  -5    3.06    0.21
  -8   8   5    0.41    0.08
  -8   8   5    0.59    0.10
  -7   8   5    0.38    0.11
  -7   8   5    0.31    0.07
  -7   8   5    0.21    0.10
  -6   8   5    1.17    0.14
  -6   8   5    0.62    0.12
  -6   8   5    1.09    0.13
  -5   8   5    0.08    0.08
   4  -8  -5    0.29    0.08
   3  -8  -5   10.27    0.62
   2  -8  -5    0.25    0.08
   1  -8  -5    2.21    0.15
   1  -8  -5    2.01    0.17
   1  -8  -5    1.96    0.19
   0  -8  -5   23.43    1.28
   0  -8  -5   23.49    1.29
   0  -8  -5   23.34    1.30
  -1  -8  -5    0.09    0.08
  -1  -8  -5    0.00    0.04
  -1  -8  -5    0.08    0.09
  -2  -8  -5    0.76    0.10
  -2  -8  -5    0.76    0.08
  -3  -8  -5    7.00    0.39
  -8   9   5    0.32    0.06
  -7   9   5    5.65    0.40
  -7   9   5    5.15    0.33
  -6   9   5    0.54    0.08
   5  -9  -5    2.03    0.18
  -5   9   5    1.59    0.16
   4  -9  -5   -0.02    0.07
  -4   9   5    0.02    0.07
   3  -9  -5    6.49    0.41
   3  -9  -5    7.22    0.42
   2  -9  -5    1.31    0.14
   2  -9  -5    1.41    0.12
   1  -9  -5    0.66    0.09
   1  -9  -5    0.44    0.09
   1  -9  -5    0.68    0.08
   0  -9  -5    8.41    0.46
   0  -9  -5    8.05    0.44
   0  -9  -5    7.36    0.46
  -1  -9  -5   10.93    0.63
  -1  -9  -5   12.02    0.64
   6 -10  -5    0.08    0.06
  -6  10   5    0.07    0.06
  -5  10   5    1.43    0.13
  -4  10   5    1.76    0.16
   3 -10  -5    6.79    0.36
   3 -10  -5    5.65    0.36
   2 -10  -5    9.58    0.54
   2 -10  -5    9.80    0.54
   1 -10  -5    1.15    0.11
   1 -10  -5    0.93    0.11
   1 -10  -5    1.13    0.08
  -1  11  -6    5.70    0.35
  -2  11  -6    0.48    0.07
  -3  11  -6    0.02    0.06
   3 -11   6   -0.02    0.06
  -4  11  -6    1.79    0.16
  -5  11  -6    0.13    0.07
  -5  11  -6    0.21    0.10
  -6  11  -6    8.35    0.52
  -6  11  -6    6.38    0.41
  -1 -10   6    0.55    0.07
  -1 -10   6    0.48    0.08
   0 -10   6    3.77    0.25
   0 -10   6    4.06    0.25
  -1  10  -6    6.40    0.41
   1 -10   6    7.05    0.41
  -2  10  -6    2.24    0.18
   2 -10   6    2.03    0.17
  -3  10  -6    3.22    0.22
  -4  10  -6    4.19    0.26
  -4  10  -6    3.90    0.29
  -4  10  -6    4.21    0.35
  -5  10  -6   -0.13    0.12
  -5  10  -6   -0.12    0.08
  -6  10  -6    0.06    0.08
  -6  10  -6   -0.07    0.07
  -6  10  -6   -0.03    0.12
  -7  10  -6    1.33    0.16
  -7  10  -6    1.10    0.11
  -3  -9   6    3.10    0.20
  -3  -9   6    2.87    0.19
  -3  -9   6    3.01    0.18
  -2  -9   6   -0.03    0.06
  -2  -9   6   -0.02    0.08
  -1  -9   6    0.51    0.07
  -1  -9   6    0.40    0.07
   0  -9   6    2.33    0.17
  -1   9  -6   56.96    3.27
   1  -9   6   57.14    3.26
  -2   9  -6    0.34    0.08
  -3   9  -6    0.88    0.14
  -3   9  -6    0.92    0.11
  -3   9  -6    0.92    0.16
  -4   9  -6    8.93    0.52
  -4   9  -6    9.06    0.52
  -4   9  -6    7.86    0.64
  -5   9  -6    5.71    0.45
  -5   9  -6    5.65    0.35
  -5   9  -6    5.30    0.35
  -6   9  -6    1.25    0.17
  -6   9  -6    1.10    0.12
  -6   9  -6    1.04    0.11
  -7   9  -6    1.82    0.24
  -7   9  -6    1.62    0.16
  -8   9  -6    0.16    0.12
  -8   9  -6    0.04    0.06
  -4  -8   6    4.43    0.28
  -4  -8   6    5.20    0.29
  -3  -8   6    0.07    0.07
  -3  -8   6    0.20    0.09
  -3  -8   6    0.17    0.06
  -2  -8   6    0.43    0.06
  -2  -8   6    0.69    0.08
  -1  -8   6    9.15    0.54
  -1   8  -6   26.23    1.52
  -2   8  -6   -0.03    0.06
  -3   8  -6    0.28    0.11
  -3   8  -6    0.12    0.07
  -4   8  -6    7.08    0.42
  -4   8  -6    6.57    0.39
  -4   8  -6    6.14    0.40
  -4   8  -6    5.76    0.49
  -5   8  -6    1.29    0.16
  -5   8  -6    1.07    0.12
  -5   8  -6    1.21    0.18
  -6   8  -6    0.32    0.10
  -6   8  -6    0.33    0.08
  -6   8  -6    0.36    0.15
  -7   8  -6    6.54    0.52
  -7   8  -6    8.03    0.58
  -7   8  -6    8.21    0.44
  -8   8  -6    2.02    0.15
  -8   8  -6    1.67    0.25
  -9   8  -6    0.82    0.14
  -5  -7   6    2.02    0.15
  -5  -7   6    1.79    0.16
  -4  -7   6    2.85    0.20
  -4  -7   6    2.72    0.18
  -4  -7   6    2.58    0.20
  -3  -7   6    5.64    0.33
  -3  -7   6    5.18    0.33
  -3  -7   6    5.19    0.32
  -3  -7   6    5.10    0.31
  -2  -7   6   16.59    0.98
  -2  -7   6   17.46    0.95
  -1  -7   6    0.01    0.06
   0  -7   6    2.78    0.19
  -1   7  -6   13.63    0.81
  -2   7  -6    8.15    0.49
  -3   7  -6   25.01    1.30
  -3   7  -6   22.03    1.51
  -3   7  -6   23.30    1.33
  -3   7  -6   21.77    1.64
  -4   7  -6    9.36    0.52
  -4   7  -6    9.33    0.52
  -4   7  -6    8.31    0.65
  -4   7  -6    7.82    0.72
  -4   7  -6    9.23    0.76
  -4   7  -6    7.72    0.61
  -4   7  -6    9.18    0.65
  -4   7  -6    8.81    0.52
  -5   7  -6    2.26    0.18
  -5   7  -6    2.11    0.17
  -5   7  -6    1.51    0.20
  -5   7  -6    1.74    0.28
  -5   7  -6    1.86    0.26
  -5   7  -6    2.16    0.29
  -6   7  -6    7.56    0.59
  -6   7  -6    7.53    0.45
  -6   7  -6    7.93    0.45
  -6   7  -6    7.94    0.55
  -7   7  -6    4.15    0.26
  -7   7  -6    4.21    0.39
  -8   7  -6    0.29    0.11
  -8   7  -6    0.37    0.15
  -8   7  -6    0.44    0.07
  -9   7  -6    2.35    0.25
  -9   7  -6    2.43    0.22
  -6  -6   6   15.69    0.86
  -6  -6   6   15.58    0.85
  -5  -6   6    4.69    0.30
  -5  -6   6    4.74    0.31
  -5  -6   6    5.06    0.28
  -4  -6   6    1.73    0.17
  -4  -6   6    1.56    0.14
  -4  -6   6    1.51    0.16
  -3  -6   6   19.56    1.12
  -3  -6   6   20.18    1.08
  -3  -6   6   18.66    1.28
  -3  -6   6   19.28    1.08
  -2  -6   6    5.99    0.35
  -2  -6   6    5.66    0.63
  -2  -6   6    5.23    0.45
  -2  -6   6    5.96    0.51
  -2  -6   6    5.96    0.35
  -1  -6   6   17.65    1.02
  -1   6  -6    2.25    0.17
  -2   6  -6   25.83    1.58
  -2   6  -6   23.37    1.40
  -2   6  -6   25.90    1.71
  -2   6  -6   23.17    1.36
  -3   6  -6   22.69    1.19
  -3   6  -6   21.81    1.39
  -3   6  -6   20.09    1.18
  -3   6  -6   20.98    1.46
  -3   6  -6   21.52    1.52
  -3   6  -6   21.32    1.23
  -3   6  -6   21.77    1.30
  -4   6  -6    7.21    0.57
  -4   6  -6    8.15    0.56
  -4   6  -6    7.18    0.64
  -4   6  -6    7.98    0.45
  -4   6  -6    8.46    0.67
  -4   6  -6    7.62    0.45
  -4   6  -6    7.90    0.57
  -5   6  -6   11.77    0.93
  -5   6  -6   13.82    0.89
  -5   6  -6   11.16    0.84
  -5   6  -6   12.65    0.84
  -5   6  -6   12.42    0.83
  -5   6  -6   11.53    1.02
  -5   6  -6   12.99    0.85
  -5   6  -6   13.69    0.71
  -6   6  -6   17.91    0.94
  -6   6  -6   18.36    1.14
  -6   6  -6   17.81    1.19
  -6   6  -6   18.54    0.95
  -6   6  -6   14.23    1.06
  -6   6  -6   15.37    1.13
  -7   6  -6    4.38    0.40
  -7   6  -6    4.80    0.39
  -7   6  -6    4.38    0.27
  -8   6  -6    0.24    0.14
  -8   6  -6    0.18    0.14
  -8   6  -6    0.12    0.12
  -9   6  -6    3.38    0.33
  -9   6  -6    4.21    0.32
  -9   6  -6    4.54    0.34
  -7  -5   6    4.42    0.25
  -7  -5   6    3.81    0.24
  -6  -5   6    1.61    0.14
  -6  -5   6    1.48    0.17
  -5  -5   6    0.62    0.07
  -5  -5   6    0.51    0.10
  -5  -5   6    0.74    0.10
  -4  -5   6   15.22    0.80
  -4  -5   6   13.44    0.99
  -4  -5   6   14.43    0.83
  -4  -5   6   13.79    0.81
  -4  -5   6   15.25    0.81
  -3  -5   6    1.21    0.33
  -3  -5   6    1.94    0.23
  -3  -5   6    1.71    0.15
  -3  -5   6    1.35    0.25
  -3  -5   6    1.69    0.13
  -3  -5   6    1.77    0.14
  -2  -5   6    2.24    0.28
  -2  -5   6    1.46    0.13
  -2  -5   6    1.64    0.22
  -2  -5   6    1.48    0.12
  -2  -5   6    1.96    0.34
  -1  -5   6    0.39    0.23
  -1   5  -6    0.89    0.14
  -1   5  -6    1.23    0.19
  -2   5  -6   11.87    0.86
  -2   5  -6   11.07    0.71
  -2   5  -6   11.10    0.77
  -3   5  -6    1.35    0.19
  -3   5  -6    1.24    0.11
  -3   5  -6    1.62    0.28
  -3   5  -6    1.21    0.23
  -3   5  -6    1.23    0.18
  -4   5  -6    0.93    0.17
  -4   5  -6    1.19    0.23
  -4   5  -6    0.92    0.14
  -4   5  -6    0.89    0.11
  -4   5  -6    0.90    0.21
  -4   5  -6    0.87    0.12
  -4   5  -6    0.97    0.14
  -4   5  -6    0.96    0.17
  -5   5  -6    8.31    0.57
  -5   5  -6    6.92    0.65
  -5   5  -6    7.41    0.53
  -5   5  -6    8.41    0.55
  -5   5  -6    7.15    0.57
  -5   5  -6    7.97    0.52
  -5   5  -6    7.74    0.43
  -5   5  -6    7.18    0.59
  -6   5  -6   82.16    4.60
  -6   5  -6   79.94    5.44
  -6   5  -6   86.91    5.46
  -6   5  -6   90.10    5.71
  -7   5  -6    7.42    0.52
  -7   5  -6    6.27    0.50
  -7   5  -6    6.23    0.52
  -7   5  -6    6.85    0.38
  -8   5  -6    3.53    0.30
  -8   5  -6    3.71    0.36
  -8   5  -6    2.91    0.32
  -9   5  -6    2.47    0.24
  -9   5  -6    1.90    0.23
  -9   5  -6    2.04    0.25
  -7  -4   6    0.23    0.08
  -7  -4   6    0.37    0.07
  -6  -4   6    7.69    0.47
  -6  -4   6    8.08    0.47
  -6  -4   6    8.65    0.46
  -6  -4   6    7.79    0.56
  -5  -4   6    5.78    0.35
  -5  -4   6    5.77    0.43
  -5  -4   6    5.89    0.36
  -5  -4   6    6.06    0.35
  -4  -4   6   15.17    1.04
  -4  -4   6   16.78    0.89
  -4  -4   6   15.45    0.88
  -4  -4   6   15.07    1.18
  -4  -4   6   16.43    1.06
  -4  -4   6   16.46    0.87
  -4  -4   6   15.61    0.91
  -3  -4   6    1.62    0.22
  -3  -4   6    1.80    0.13
  -3  -4   6    1.86    0.33
  -3  -4   6    1.54    0.13
  -3  -4   6    2.33    0.28
  -2  -4   6    0.98    0.16
  -2  -4   6    0.93    0.25
  -1  -4   6   27.04    1.76
  -1  -4   6   24.30    1.60
   0   4  -6    5.21    0.56
   0   4  -6    5.78    0.43
   0  -4   6    5.23    0.54
  -1   4  -6   15.52    1.05
  -1   4  -6   15.01    0.95
  -1   4  -6   14.42    0.88
  -1   4  -6   13.04    1.09
  -2   4  -6    0.32    0.17
  -2   4  -6    0.25    0.13
  -2   4  -6    0.27    0.12
  -3   4  -6    1.07    0.16
  -3   4  -6    0.86    0.20
  -3   4  -6    1.24    0.16
  -3   4  -6    0.97    0.19
  -4   4  -6    0.29    0.05
  -4   4  -6    0.16    0.15
  -4   4  -6    0.28    0.15
  -4   4  -6    0.37    0.11
  -4   4  -6    0.39    0.12
  -4   4  -6    0.47    0.15
  -4   4  -6    0.23    0.10
  -5   4  -6    0.02    0.12
  -5   4  -6   -0.14    0.13
  -5   4  -6   -0.15    0.11
  -5   4  -6    0.05    0.16
  -5   4  -6   -0.05    0.09
  -6   4  -6    2.04    0.27
  -6   4  -6    1.87    0.24
  -6   4  -6    2.20    0.27
  -6   4  -6    2.30    0.29
  -6   4  -6    2.69    0.21
  -6   4  -6    2.22    0.15
  -7   4  -6    0.77    0.17
  -7   4  -6    0.59    0.15
  -7   4  -6    0.75    0.25
  -7   4  -6    0.64    0.14
  -7   4  -6    0.67    0.12
  -8   4  -6    1.43    0.20
  -8   4  -6    1.35    0.18
  -8   4  -6    1.72    0.19
  -9   4  -6   -0.01    0.11
  -9   4  -6    0.07    0.13
  -8  -3   6    0.26    0.05
  -8  -3   6    0.36    0.08
  -8  -3   6    0.46    0.09
  -7  -3   6    0.65    0.11
  -7  -3   6    0.85    0.11
  -7  -3   6    0.49    0.07
  -6  -3   6    0.56    0.08
  -6  -3   6    0.37    0.06
  -6  -3   6    0.33    0.09
  -6  -3   6    0.28    0.10
  -5  -3   6   14.69    0.83
  -5  -3   6   15.66    0.83
  -5  -3   6   13.01    1.09
  -5  -3   6   14.19    0.99
  -5  -3   6   13.69    0.97
  -5  -3   6   15.57    0.85
  -5  -3   6   15.42    0.81
  -4  -3   6    7.82    0.45
  -4  -3   6    8.16    0.56
  -4  -3   6    7.81    0.45
  -4  -3   6    7.67    0.46
  -4  -3   6    8.13    0.68
  -4  -3   6    7.54    0.44
  -4  -3   6    8.21    0.59
  -3  -3   6    7.80    0.49
  -3  -3   6    8.71    0.58
  -3  -3   6    9.09    0.59
  -3  -3   6    8.73    0.70
  -2  -3   6    1.47    0.18
  -2  -3   6    1.57    0.26
  -2  -3   6    1.40    0.24
   1   3  -6    4.88    0.39
  -1  -3   6    5.33    0.46
  -1  -3   6    4.45    0.47
   0   3  -6   23.45    1.37
   0  -3   6   20.18    1.53
   0  -3   6   21.17    1.35
   0  -3   6   21.36    1.49
  -1   3  -6   15.60    1.26
  -1   3  -6   17.12    1.30
  -1   3  -6   19.76    1.16
  -1   3  -6   18.54    1.09
  -1   3  -6   20.12    1.26
   1  -3   6   18.25    1.30
  -2   3  -6   27.05    1.96
  -2   3  -6   30.93    1.76
  -2   3  -6   32.45    1.86
  -2   3  -6   29.47    1.98
  -3   3  -6    0.02    0.12
  -3   3  -6    0.12    0.14
  -3   3  -6    0.19    0.13
  -3   3  -6    0.14    0.09
  -4   3  -6    4.45    0.36
  -4   3  -6    4.08    0.38
  -5   3  -6    3.98    0.31
  -5   3  -6    3.82    0.23
  -5   3  -6    4.02    0.38
  -5   3  -6    3.71    0.34
  -5   3  -6    3.40    0.24
  -5   3  -6    4.41    0.32
  -5   3  -6    4.22    0.26
  -5   3  -6    4.29    0.37
  -6   3  -6    9.02    0.62
  -6   3  -6    9.38    0.63
  -6   3  -6    9.59    0.52
  -6   3  -6    7.85    0.74
  -6   3  -6    8.52    0.64
  -6   3  -6    9.24    0.66
  -7   3  -6    3.56    0.43
  -7   3  -6    5.06    0.32
  -7   3  -6    4.70    0.38
  -7   3  -6    5.17    0.40
  -7   3  -6    4.73    0.40
  -8   3  -6   20.69    1.31
  -8   3  -6   19.82    1.29
  -8   3  -6   18.70    1.35
  -8   3  -6   19.41    1.08
  -9   3  -6    0.42    0.13
  -9   3  -6    0.33    0.11
  -8  -2   6    1.27    0.12
  -8  -2   6    1.39    0.18
  -8  -2   6    1.44    0.15
  -7  -2   6    8.06    0.46
  -7  -2   6    7.61    0.46
  -7  -2   6    8.12    0.45
  -7  -2   6    8.00    0.57
  -6  -2   6   17.96    1.15
  -6  -2   6   17.59    0.96
  -6  -2   6   17.14    0.95
  -6  -2   6   15.72    1.14
  -6  -2   6   17.81    0.96
  -5  -2   6    1.15    0.13
  -5  -2   6    1.21    0.10
  -5  -2   6    0.83    0.16
  -5  -2   6    1.36    0.13
  -5  -2   6    1.24    0.12
  -5  -2   6    1.36    0.23
  -5  -2   6    0.82    0.24
  -4  -2   6    4.64    0.28
  -4  -2   6    4.56    0.49
  -4  -2   6    4.97    0.37
  -4  -2   6    4.39    0.27
  -4  -2   6    4.47    0.28
  -4  -2   6    5.00    0.39
  -4  -2   6    4.64    0.28
  -3  -2   6    0.67    0.24
  -3  -2   6    0.70    0.15
   2   2  -6   14.79    1.14
  -2  -2   6   15.55    1.14
  -2  -2   6   15.00    1.19
  -2  -2   6   17.28    1.00
  -2  -2   6   17.09    1.02
   1   2  -6   12.83    0.85
   1   2  -6   13.41    0.94
  -1  -2   6   12.92    0.93
  -1  -2   6   12.67    0.98
   0   2  -6   66.82    4.45
   0   2  -6   62.86    4.41
   0   2  -6   65.92    4.09
   0  -2   6   68.07    4.45
   0  -2   6   77.57    4.38
   0  -2   6   65.85    4.41
   0  -2   6   62.15    4.08
  -1   2  -6  401.97   27.46
  -1   2  -6  404.77   26.93
  -1   2  -6  422.37   25.69
  -1   2  -6  444.29   24.14
  -1   2  -6  429.27   27.49
   1  -2   6  427.15   27.46
   1  -2   6  430.09   27.49
  -2   2  -6   11.51    0.66
  -2   2  -6    9.33    0.71
  -2   2  -6   10.44    0.67
  -2   2  -6    9.35    0.66
  -2   2  -6   12.01    0.73
  -2   2  -6    9.93    0.73
  -2   2  -6   11.24    0.74
  -2   2  -6   10.55    0.77
   2  -2   6    9.98    0.73
  -3   2  -6   14.19    0.96
  -3   2  -6   13.83    0.86
  -3   2  -6   12.11    0.94
  -3   2  -6   14.12    0.86
  -3   2  -6   14.42    0.92
  -3   2  -6   14.15    0.92
  -3   2  -6   15.01    0.86
  -4   2  -6    0.17    0.14
  -4   2  -6    0.29    0.14
  -5   2  -6    4.70    0.30
  -5   2  -6    4.14    0.43
  -5   2  -6    5.18    0.37
  -5   2  -6    5.29    0.37
  -5   2  -6    4.85    0.44
  -5   2  -6    4.41    0.28
  -5   2  -6    4.91    0.39
  -5   2  -6    5.04    0.41
  -6   2  -6    4.75    0.46
  -6   2  -6    4.27    0.43
  -6   2  -6    5.25    0.32
  -6   2  -6    5.31    0.39
  -6   2  -6    5.14    0.30
  -6   2  -6    5.32    0.41
  -6   2  -6    4.92    0.40
  -7   2  -6    6.59    0.47
  -7   2  -6    5.68    0.46
  -7   2  -6    6.57    0.38
  -7   2  -6    6.53    0.39
  -7   2  -6    5.91    0.49
  -8   2  -6    0.55    0.11
  -8   2  -6    0.35    0.12
  -8   2  -6    0.64    0.16
  -9   2  -6    0.04    0.10
  -9   2  -6    0.24    0.11
  -9  -1   6    0.36    0.09
  -9  -1   6    0.34    0.07
  -8  -1   6    1.95    0.17
  -8  -1   6    1.84    0.23
  -8  -1   6    1.90    0.15
  -7  -1   6    9.37    0.53
  -7  -1   6    9.46    0.65
  -7  -1   6    9.54    0.53
  -7  -1   6    9.02    0.53
  -6  -1   6    0.23    0.10
  -6  -1   6    0.41    0.08
  -6  -1   6    0.46    0.20
  -6  -1   6    0.20    0.08
  -6  -1   6    0.23    0.13
  -6  -1   6    0.31    0.06
  -6  -1   6    0.09    0.23
  -5  -1   6    0.58    0.07
  -5  -1   6    0.74    0.18
  -5  -1   6    0.70    0.16
  -5  -1   6    0.51    0.26
  -5  -1   6    0.49    0.07
  -5  -1   6    0.54    0.08
  -5  -1   6    0.46    0.06
  -4  -1   6    1.53    0.20
  -4  -1   6    1.68    0.30
  -3  -1   6   65.85    5.02
  -3  -1   6   79.17    4.54
  -3  -1   6   77.36    4.95
  -3  -1   6   81.37    4.65
   2   1  -6   12.16    0.80
   2   1  -6   13.30    0.99
   2   1  -6   12.25    0.87
   2   1  -6   12.29    0.88
   2   1  -6   11.26    0.81
  -2  -1   6    9.89    0.90
  -2  -1   6   12.64    0.78
  -2  -1   6   12.66    0.75
  -2  -1   6   11.58    0.87
  -2  -1   6   12.08    0.88
   1   1  -6    1.17    0.18
   1   1  -6    1.31    0.16
   1   1  -6    1.12    0.16
  -1  -1   6    1.30    0.23
  -1  -1   6    0.97    0.23
  -1  -1   6    0.88    0.14
   0   1  -6    0.54    0.12
   0   1  -6    0.47    0.14
   0   1  -6    0.47    0.13
   0   1  -6    0.41    0.18
   0   1  -6    0.57    0.18
   0  -1   6    0.52    0.19
   0  -1   6    0.34    0.10
   0  -1   6    0.29    0.08
   0  -1   6    0.32    0.14
  -1   1  -6   20.72    1.22
  -1   1  -6   17.64    1.27
  -1   1  -6   19.48    1.15
  -1   1  -6   16.95    1.19
  -1   1  -6   17.00    1.22
  -1   1  -6   19.28    1.23
  -1   1  -6   17.33    1.24
   1  -1   6   18.06    1.24
   1  -1   6   18.65    1.27
  -2   1  -6    4.95    0.39
  -2   1  -6    5.10    0.36
  -2   1  -6    5.02    0.40
  -2   1  -6    4.85    0.36
  -2   1  -6    4.56    0.34
  -2   1  -6    5.38    0.33
   2  -1   6    4.40    0.36
  -3   1  -6    2.85    0.30
  -3   1  -6    2.96    0.27
  -3   1  -6    2.59    0.22
  -4   1  -6   38.37    2.28
  -4   1  -6   39.42    2.54
  -5   1  -6   18.70    1.34
  -5   1  -6   20.01    1.30
  -5   1  -6   20.29    1.08
  -5   1  -6   21.35    1.58
  -5   1  -6   20.38    1.36
  -5   1  -6   18.72    1.17
  -5   1  -6   19.81    1.11
  -5   1  -6   19.80    1.30
  -5   1  -6   19.40    1.08
  -5   1  -6   19.60    1.22
  -6   1  -6   22.50    1.19
  -6   1  -6   22.00    1.43
  -6   1  -6   21.11    1.29
  -6   1  -6   20.99    1.43
  -6   1  -6   22.36    1.19
  -6   1  -6   21.65    1.22
  -6   1  -6   22.34    1.74
  -6   1  -6   21.60    1.50
  -7   1  -6    5.16    0.45
  -7   1  -6    5.81    0.43
  -7   1  -6    5.90    0.36
  -7   1  -6    6.17    0.36
  -7   1  -6    5.66    0.38
  -7   1  -6    6.02    0.35
  -7   1  -6    5.97    0.45
  -8   1  -6   16.01    1.11
  -8   1  -6   17.94    0.93
  -8   1  -6   17.23    0.93
  -8   1  -6   16.64    1.12
  -9   1  -6    1.26    0.16
  -9   0   6    0.43    0.11
  -9   0   6    0.38    0.06
  -8   0   6    0.17    0.09
  -8   0   6    0.19    0.11
  -8   0   6    0.21    0.07
  -7   0   6    2.50    0.18
  -7   0   6    2.61    0.25
  -7   0   6    2.51    0.19
  -7   0   6    2.56    0.20
  -6   0   6    2.98    0.18
  -6   0   6    2.80    0.34
  -6   0   6    2.94    0.20
  -6   0   6    3.28    0.30
  -6   0   6    3.11    0.21
  -6   0   6    3.09    0.26
  -6   0   6    1.99    0.35
  -6   0   6    2.95    0.20
  -5   0   6    0.20    0.15
  -5   0   6    0.15    0.11
  -5   0   6    0.06    0.20
  -5   0   6    0.16    0.05
  -5   0   6    0.14    0.05
  -5   0   6    0.20    0.06
  -4   0   6   18.85    1.22
  -4   0   6   18.41    1.35
  -4   0   6   20.27    1.20
   3   0  -6    2.21    0.29
  -3   0   6    2.45    0.23
  -3   0   6    2.40    0.22
  -3   0   6    2.61    0.35
  -3   0   6    2.11    0.30
   2   0  -6   19.59    1.41
   2   0  -6   22.10    1.34
  -2   0   6   19.18    1.46
  -2   0   6   20.78    1.28
  -2   0   6   19.21    1.42
  -2   0   6   21.47    1.24
   1   0  -6    8.76    0.70
   1   0  -6    9.50    0.60
   1   0  -6    8.97    0.66
   1   0  -6    9.07    0.61
   1   0  -6    8.30    0.64
  -1   0   6    8.06    0.53
  -1   0   6    8.76    0.65
  -1   0   6    8.70    0.71
   0   0  -6   19.35    1.30
   0   0  -6   21.66    1.24
   0   0  -6   21.34    1.34
   0   0  -6   19.10    1.37
   0   0   6   17.89    1.35
   0   0   6   19.27    1.39
  -1   0  -6   95.66    5.33
  -1   0  -6   87.81    5.61
  -1   0  -6   91.28    5.60
  -1   0  -6   85.25    5.63
  -1   0  -6   79.20    5.32
  -1   0  -6   89.01    5.74
  -1   0  -6   88.57    5.72
  -1   0  -6   89.34    5.64
   1   0   6   89.34    5.73
   1   0   6   80.33    5.74
  -2   0  -6    1.37    0.16
  -2   0  -6    1.34    0.14
  -2   0  -6    1.48    0.12
  -2   0  -6    1.41    0.17
  -2   0  -6    1.42    0.11
  -2   0  -6    1.29    0.15
  -2   0  -6    1.72    0.24
   2   0   6    1.07    0.15
  -3   0  -6    5.50    0.44
  -3   0  -6    5.18    0.40
  -4   0  -6    5.31    0.45
  -4   0  -6    4.70    0.44
  -4   0  -6    5.12    0.36
  -4   0  -6    4.70    0.38
  -4   0  -6    4.54    0.39
  -4   0  -6    4.81    0.29
  -4   0  -6    5.02    0.32
  -5   0  -6    3.86    0.34
  -5   0  -6    3.79    0.25
  -5   0  -6    3.61    0.31
  -5   0  -6    3.56    0.24
  -5   0  -6    3.90    0.24
  -5   0  -6    3.91    0.31
  -5   0  -6    3.72    0.27
  -5   0  -6    3.71    0.36
  -5   0  -6    4.35    0.39
  -6   0  -6    0.11    0.08
  -6   0  -6    0.04    0.11
  -6   0  -6    0.20    0.12
  -6   0  -6    0.07    0.08
  -6   0  -6    0.24    0.09
  -6   0  -6    0.03    0.15
  -6   0  -6   -0.03    0.07
  -6   0  -6    0.14    0.12
  -7   0  -6    0.46    0.17
  -7   0  -6    0.59    0.10
  -7   0  -6    0.60    0.11
  -7   0  -6    0.62    0.11
  -7   0  -6    0.50    0.12
  -7   0  -6    0.38    0.10
  -8   0  -6    0.65    0.09
  -8   0  -6    0.75    0.10
  -9   1   6    1.48    0.20
  -9   1   6    1.46    0.13
  -8   1   6    1.79    0.24
  -8   1   6    2.11    0.17
  -8   1   6    2.18    0.14
  -7   1   6   27.64    1.45
  -7   1   6   23.51    1.66
  -7   1   6   27.84    1.72
  -7   1   6   24.50    1.71
  -7   1   6   27.66    1.46
  -6   1   6    8.32    0.48
  -6   1   6    8.02    0.60
  -6   1   6    8.30    0.57
  -6   1   6    6.72    0.70
  -6   1   6    8.12    0.59
  -6   1   6    8.21    0.47
  -6   1   6    8.70    0.47
  -6   1   6    8.00    0.59
  -5   1   6    0.13    0.05
  -5   1   6    0.10    0.06
  -5   1   6    0.02    0.06
  -5   1   6    0.17    0.25
  -5   1   6    0.05    0.13
  -5   1   6    0.03    0.10
  -4   1   6    1.34    0.26
  -4   1   6    1.96    0.22
  -4   1   6    1.86    0.21
   3  -1  -6   78.67    5.64
  -3   1   6   91.14    5.56
  -3   1   6   79.51    5.65
  -3   1   6   88.40    5.23
  -3   1   6   89.62    5.09
   2  -1  -6    0.43    0.17
   2  -1  -6    0.58    0.11
   2  -1  -6    0.56    0.15
  -2   1   6    0.55    0.08
  -2   1   6    0.80    0.13
   1  -1  -6    0.31    0.20
   1  -1  -6    0.19    0.11
   1  -1  -6    0.06    0.17
   1  -1  -6    0.21    0.11
   1  -1  -6    0.18    0.12
  -1   1   6    0.18    0.08
  -1   1   6    0.14    0.19
  -1   1   6    0.19    0.13
   0  -1  -6   36.17    2.09
   0  -1  -6   31.78    2.12
   0  -1  -6   33.94    1.98
   0  -1  -6   31.32    2.14
   0  -1  -6   29.10    2.16
   0   1   6   32.14    2.18
   0   1   6   29.64    2.15
  -1  -1  -6   40.95    2.44
  -1  -1  -6   36.23    2.49
  -1  -1  -6   35.11    2.47
  -1  -1  -6   39.47    2.29
  -1  -1  -6   34.90    2.43
  -1  -1  -6   41.21    2.43
  -1  -1  -6   39.47    2.43
  -1  -1  -6   34.65    2.28
   1   1   6   34.80    2.49
  -2  -1  -6   22.72    1.30
  -2  -1  -6   19.56    1.40
  -2  -1  -6   19.55    1.38
  -2  -1  -6   21.67    1.42
  -2  -1  -6   21.48    1.29
  -2  -1  -6   22.34    1.40
  -2  -1  -6   21.00    1.38
  -3  -1  -6   10.47    0.77
  -3  -1  -6   10.72    0.74
  -4  -1  -6    0.06    0.11
  -4  -1  -6    0.05    0.07
  -4  -1  -6   -0.07    0.14
  -4  -1  -6    0.12    0.09
  -4  -1  -6    0.00    0.19
  -4  -1  -6    0.05    0.06
  -4  -1  -6    0.01    0.07
  -4  -1  -6    0.09    0.13
  -5  -1  -6    0.41    0.10
  -5  -1  -6    0.33    0.08
  -5  -1  -6    0.39    0.18
  -5  -1  -6    0.45    0.11
  -5  -1  -6    0.45    0.13
  -5  -1  -6    0.13    0.16
  -5  -1  -6    0.48    0.09
  -5  -1  -6    0.34    0.08
  -6  -1  -6   28.78    1.54
  -6  -1  -6   29.58    1.63
  -6  -1  -6   28.21    2.19
  -6  -1  -6   29.00    1.50
  -6  -1  -6   25.38    1.49
  -6  -1  -6   24.63    1.88
  -7  -1  -6    0.34    0.09
  -7  -1  -6    0.45    0.09
  -7  -1  -6    0.20    0.11
  -7  -1  -6    0.47    0.10
  -8  -1  -6    7.70    0.44
 -10   2   6   19.52    1.27
  -9   2   6    0.02    0.11
  -9   2   6    0.02    0.07
  -8   2   6   28.13    1.85
  -8   2   6   28.97    1.84
  -8   2   6   29.62    1.56
  -8   2   6   26.20    1.55
  -7   2   6    9.59    0.79
  -7   2   6   11.19    0.65
  -7   2   6   11.65    0.77
  -7   2   6   12.17    0.77
  -7   2   6   11.80    0.65
  -6   2   6   12.30    0.83
  -6   2   6   12.03    0.69
  -6   2   6   12.30    0.68
  -6   2   6   11.51    0.81
  -6   2   6   11.50    0.97
  -6   2   6   12.02    0.80
  -6   2   6   12.56    0.81
  -6   2   6   12.02    0.70
  -5   2   6    0.09    0.13
  -5   2   6    0.24    0.15
  -5   2   6    0.17    0.07
  -5   2   6    0.07    0.24
  -5   2   6    0.23    0.06
  -4   2   6    3.01    0.28
  -4   2   6    2.77    0.25
  -4   2   6    2.43    0.34
  -3   2   6   -0.04    0.09
  -3   2   6    0.06    0.24
   2  -2  -6   10.24    0.66
   2  -2  -6   10.34    0.76
   2  -2  -6    9.97    0.66
   2  -2  -6   11.04    0.78
   2  -2  -6    8.80    0.77
  -2   2   6    9.31    0.74
  -2   2   6    8.82    0.83
  -2   2   6    8.25    0.64
   1  -2  -6   58.43    3.46
   1  -2  -6   48.60    3.59
   1  -2  -6   52.74    3.57
   1  -2  -6   61.88    3.31
  -1   2   6   46.60    3.60
   0  -2  -6    0.34    0.15
   0  -2  -6    0.29    0.13
   0  -2  -6    0.16    0.16
   0  -2  -6    0.26    0.14
  -1  -2  -6    0.11    0.09
  -1  -2  -6    0.06    0.14
  -1  -2  -6    0.03    0.14
  -1  -2  -6    0.04    0.13
  -2  -2  -6   22.74    1.45
  -2  -2  -6   23.08    1.50
  -2  -2  -6   20.49    1.36
  -2  -2  -6   22.59    1.48
  -3  -2  -6   -0.10    0.12
  -3  -2  -6   -0.01    0.07
  -3  -2  -6    0.07    0.11
  -3  -2  -6    0.04    0.14
  -3  -2  -6   -0.03    0.04
  -3  -2  -6    0.03    0.06
  -3  -2  -6   -0.02    0.07
  -4  -2  -6    2.48    0.27
  -4  -2  -6    2.68    0.32
  -4  -2  -6    2.32    0.19
  -4  -2  -6    2.29    0.18
  -4  -2  -6    2.49    0.21
  -4  -2  -6    2.53    0.31
  -5  -2  -6    4.70    0.33
  -5  -2  -6    4.65    0.46
  -5  -2  -6    4.73    0.30
  -5  -2  -6    3.61    0.42
  -5  -2  -6    4.38    0.29
  -6  -2  -6    0.09    0.10
  -6  -2  -6   -0.04    0.08
  -6  -2  -6    0.07    0.09
  -7  -2  -6   13.36    0.72
  -7  -2  -6   12.64    0.74
  -8  -2  -6    0.38    0.06
 -10   3   6    0.09    0.08
 -10   3   6   -0.05    0.04
  -9   3   6    0.61    0.12
  -9   3   6    0.65    0.09
  -9   3   6    0.63    0.12
  -8   3   6    0.16    0.07
  -8   3   6    0.21    0.09
  -8   3   6    0.20    0.12
  -8   3   6    0.27    0.11
  -7   3   6   -0.04    0.07
  -7   3   6    0.07    0.10
  -7   3   6   -0.05    0.09
  -7   3   6    0.01    0.17
  -6   3   6   13.11    0.72
  -6   3   6   12.65    0.74
  -6   3   6   12.34    0.84
  -6   3   6   12.33    0.87
  -6   3   6   12.69    0.72
  -6   3   6   12.63    0.85
  -6   3   6   13.12    1.02
  -5   3   6    3.28    0.23
  -5   3   6    3.42    0.23
  -5   3   6    3.38    0.34
  -4   3   6   25.84    1.74
  -4   3   6   24.26    1.59
   3  -3  -6   17.94    1.31
   2  -3  -6    2.22    0.24
   2  -3  -6    1.24    0.26
   2  -3  -6    2.10    0.31
   1  -3  -6    0.43    0.15
   1  -3  -6    0.41    0.22
   0  -3  -6    0.85    0.18
   0  -3  -6    1.56    0.22
   0  -3  -6    1.30    0.17
   0  -3  -6    1.51    0.25
  -1  -3  -6    0.09    0.11
  -1  -3  -6    0.10    0.14
  -1  -3  -6    0.13    0.16
  -2  -3  -6   46.83    2.61
  -2  -3  -6   52.73    3.70
  -2  -3  -6   45.67    3.07
  -2  -3  -6   47.76    3.09
  -2  -3  -6   48.58    2.57
  -2  -3  -6   46.86    2.76
  -2  -3  -6   42.44    2.54
  -3  -3  -6    4.69    0.27
  -3  -3  -6    4.76    0.30
  -3  -3  -6    4.55    0.29
  -3  -3  -6    4.77    0.45
  -3  -3  -6    5.13    0.46
  -3  -3  -6    4.66    0.32
  -4  -3  -6    6.78    0.59
  -4  -3  -6    6.60    0.43
  -4  -3  -6    6.48    0.40
  -4  -3  -6    6.35    0.38
  -4  -3  -6    5.48    0.54
  -5  -3  -6    4.87    0.31
  -5  -3  -6    4.78    0.32
  -6  -3  -6    0.47    0.09
  -6  -3  -6    0.86    0.13
  -6  -3  -6    0.87    0.11
  -7  -3  -6    1.27    0.12
  -7  -3  -6    1.12    0.13
 -10   4   6    4.43    0.26
  -9   4   6    1.59    0.16
  -9   4   6    1.63    0.19
  -9   4   6    1.68    0.20
  -8   4   6    9.23    0.51
  -8   4   6    8.87    0.61
  -8   4   6    7.76    0.60
  -8   4   6    9.07    0.51
  -7   4   6    1.77    0.29
  -7   4   6    2.00    0.19
  -7   4   6    1.99    0.19
  -6   4   6   13.21    1.20
  -6   4   6   16.65    0.92
  -6   4   6   15.60    1.03
  -6   4   6   17.34    0.89
  -6   4   6   14.87    1.07
  -5   4   6    0.53    0.20
  -5   4   6    0.67    0.10
  -5   4   6    0.61    0.31
  -5   4   6    0.47    0.07
  -4   4   6   57.91    3.31
   2  -4  -6   61.77    3.81
   1  -4  -6   -0.05    0.16
   1  -4  -6    0.50    0.26
   1  -4  -6    0.22    0.15
   0  -4  -6   -0.06    0.07
   0  -4  -6   -0.05    0.07
   0  -4  -6    0.00    0.22
   0  -4  -6   -0.03    0.15
   0  -4  -6   -0.10    0.06
   0  -4  -6   -0.06    0.14
   0  -4  -6   -0.02    0.04
  -1  -4  -6    0.60    0.19
  -1  -4  -6    0.50    0.08
  -1  -4  -6    0.58    0.23
  -1  -4  -6    0.62    0.07
  -1  -4  -6    0.72    0.08
  -1  -4  -6    0.45    0.09
  -1  -4  -6    0.52    0.08
  -1  -4  -6    0.79    0.17
  -1  -4  -6    0.63    0.15
  -2  -4  -6    0.32    0.08
  -2  -4  -6    0.43    0.08
  -2  -4  -6    0.37    0.16
  -2  -4  -6    0.37    0.09
  -2  -4  -6    0.33    0.10
  -2  -4  -6    0.55    0.23
  -2  -4  -6    0.32    0.06
  -2  -4  -6    0.67    0.19
  -2  -4  -6    0.30    0.04
  -3  -4  -6    2.46    0.20
  -3  -4  -6    2.68    0.17
  -3  -4  -6    2.39    0.21
  -3  -4  -6    2.78    0.23
  -3  -4  -6    1.86    0.31
  -4  -4  -6    1.46    0.18
  -4  -4  -6    1.61    0.16
  -4  -4  -6    1.55    0.18
  -5  -4  -6    3.25    0.25
  -5  -4  -6    3.70    0.25
  -5  -4  -6    3.57    0.29
  -6  -4  -6    0.02    0.08
  -6  -4  -6   -0.04    0.08
 -10   5   6    1.39    0.11
  -9   5   6    3.92    0.32
  -9   5   6    3.87    0.23
  -9   5   6    4.18    0.27
  -8   5   6    0.18    0.09
  -8   5   6    0.28    0.11
  -8   5   6    0.30    0.08
  -7   5   6   -0.12    0.09
  -7   5   6   -0.04    0.10
  -6   5   6    0.05    0.07
  -6   5   6   -0.04    0.18
  -6   5   6    0.13    0.09
  -6   5   6    0.05    0.19
  -5   5   6   13.50    0.79
   3  -5  -6   32.26    1.85
   2  -5  -6    6.26    0.49
   2  -5  -6    7.02    0.66
   2  -5  -6    5.76    0.37
   2  -5  -6    5.61    0.36
   2  -5  -6    6.70    0.53
   1  -5  -6    0.99    0.10
   1  -5  -6    1.18    0.21
   1  -5  -6    1.02    0.11
   1  -5  -6    0.98    0.29
   1  -5  -6    1.32    0.26
   1  -5  -6    1.16    0.11
   0  -5  -6   30.29    1.69
   0  -5  -6   30.31    2.10
   0  -5  -6   32.15    2.07
   0  -5  -6   29.42    1.70
   0  -5  -6   31.34    1.94
   0  -5  -6   31.77    1.72
   0  -5  -6   30.73    1.76
  -1  -5  -6    0.31    0.21
  -1  -5  -6    0.37    0.08
  -1  -5  -6    0.61    0.09
  -1  -5  -6    0.55    0.08
  -1  -5  -6    0.41    0.23
  -1  -5  -6    0.50    0.09
  -2  -5  -6   12.03    0.68
  -2  -5  -6   12.75    0.69
  -2  -5  -6   11.68    0.78
  -2  -5  -6   12.70    0.71
  -2  -5  -6   11.83    0.74
  -2  -5  -6   11.37    0.91
  -2  -5  -6   13.05    0.69
  -3  -5  -6    4.26    0.28
  -3  -5  -6    4.00    0.31
  -3  -5  -6    4.25    0.26
  -3  -5  -6    4.33    0.29
  -4  -5  -6    1.12    0.15
  -4  -5  -6    0.79    0.12
  -4  -5  -6    1.08    0.12
  -5  -5  -6    2.61    0.19
  -5  -5  -6    2.21    0.18
  -6  -5  -6    0.06    0.06
  -6  -5  -6   -0.14    0.06
  -9   6   6    0.54    0.09
  -9   6   6    0.89    0.09
  -9   6   6    0.94    0.12
  -8   6   6    0.47    0.09
  -8   6   6    0.44    0.11
  -8   6   6    0.33    0.10
  -7   6   6    0.58    0.10
  -6   6   6    1.02    0.13
  -6   6   6    1.08    0.12
  -5   6   6   16.00    0.92
  -5   6   6   15.43    1.02
   4  -6  -6   11.05    0.85
  -4   6   6   11.73    0.77
   3  -6  -6   25.57    1.72
   3  -6  -6   25.01    1.45
   2  -6  -6    2.07    0.18
   2  -6  -6    1.97    0.45
   2  -6  -6    1.90    0.16
   2  -6  -6    2.51    0.34
   2  -6  -6    2.16    0.32
   1  -6  -6   16.66    0.83
   1  -6  -6   15.08    0.83
   1  -6  -6   14.33    0.83
   1  -6  -6   14.31    1.06
   1  -6  -6   13.32    1.13
   1  -6  -6   13.49    0.99
   1  -6  -6   14.37    0.85
   0  -6  -6   25.60    1.47
   0  -6  -6   26.90    1.42
   0  -6  -6   25.03    1.76
   0  -6  -6   25.52    1.44
  -1  -6  -6    1.18    0.11
  -1  -6  -6    0.77    0.12
  -1  -6  -6    1.15    0.12
  -1  -6  -6    0.99    0.11
  -1  -6  -6    0.79    0.27
  -2  -6  -6    9.18    0.62
  -2  -6  -6    9.84    0.58
  -2  -6  -6   10.65    0.57
  -2  -6  -6   10.14    0.56
  -3  -6  -6    0.87    0.13
  -3  -6  -6    1.25    0.13
  -3  -6  -6    0.73    0.11
  -3  -6  -6    0.97    0.10
  -4  -6  -6   32.05    1.83
  -4  -6  -6   33.95    1.79
  -5  -6  -6    2.94    0.20
  -5  -6  -6    3.11    0.19
  -9   7   6    0.70    0.09
  -9   7   6    0.90    0.11
  -8   7   6   -0.04    0.07
  -8   7   6   -0.06    0.09
  -8   7   6    0.00    0.10
  -7   7   6    1.45    0.19
  -7   7   6    1.52    0.13
  -7   7   6    0.98    0.13
  -6   7   6    0.35    0.12
   4  -7  -6    0.85    0.10
   3  -7  -6    1.61    0.15
   3  -7  -6    1.06    0.25
   2  -7  -6    5.22    0.33
   2  -7  -6    5.47    0.34
   2  -7  -6    4.67    0.49
   2  -7  -6    5.11    0.33
   1  -7  -6    0.54    0.07
   1  -7  -6    0.45    0.09
   1  -7  -6    0.48    0.10
   0  -7  -6    0.24    0.09
   0  -7  -6    0.27    0.07
   0  -7  -6    0.27    0.09
   0  -7  -6    0.31    0.09
  -1  -7  -6    1.17    0.10
  -1  -7  -6    1.34    0.15
  -1  -7  -6    0.82    0.11
  -1  -7  -6    1.10    0.12
  -2  -7  -6    8.48    0.52
  -2  -7  -6    9.12    0.51
  -2  -7  -6    9.30    0.52
  -3  -7  -6    0.29    0.08
  -3  -7  -6    0.20    0.09
  -4  -7  -6    0.57    0.07
  -8   8   6    5.17    0.35
  -8   8   6    4.35    0.29
  -7   8   6    2.84    0.26
  -7   8   6    3.47    0.21
  -7   8   6    2.95    0.23
  -6   8   6    0.12    0.07
  -6   8   6    0.19    0.09
  -5   8   6    2.80    0.21
   4  -8  -6    2.34    0.20
   3  -8  -6   10.94    0.63
   3  -8  -6   10.69    0.64
   2  -8  -6   12.49    0.73
   1  -8  -6    2.70    0.21
   1  -8  -6    2.75    0.23
   1  -8  -6    3.10    0.20
   0  -8  -6    0.07    0.09
   0  -8  -6    0.04    0.09
   0  -8  -6    0.11    0.05
  -1  -8  -6    5.99    0.36
  -1  -8  -6    6.23    0.36
  -2  -8  -6    2.99    0.19
  -2  -8  -6    3.01    0.20
  -7   9   6   -0.10    0.09
   6  -9  -6    0.13    0.08
  -6   9   6    0.13    0.07
   5  -9  -6    0.02    0.08
  -5   9   6    0.06    0.07
   4  -9  -6    2.59    0.20
   3  -9  -6    2.56    0.19
   2  -9  -6    1.61    0.14
   2  -9  -6    1.58    0.15
   1  -9  -6   21.19    1.16
   1  -9  -6   20.90    1.15
   0  -9  -6   -0.01    0.07
   0  -9  -6    0.05    0.07
  -1  -9  -6    0.94    0.09
  -1  -9  -6    1.10    0.11
  -5  10   6    3.51    0.23
   4 -10  -6    0.58    0.07
  -4  10   6    0.90    0.11
   3 -10  -6    3.53    0.21
   3 -10  -6    3.43    0.21
   2 -10  -6    2.34    0.15
   2 -10  -6    2.15    0.14
  -1  11  -7    0.14    0.05
  -2  11  -7    8.19    0.52
   2 -11   7    9.47    0.52
  -3  11  -7    0.03    0.05
  -3  11  -7   -0.04    0.07
   3 -11   7    0.01    0.06
  -4  11  -7    0.42    0.08
  -5  11  -7    3.95    0.24
  -1 -10   7    7.66    0.43
  -1 -10   7    7.75    0.44
   0  10  -7    4.17    0.31
   0 -10   7    5.08    0.29
  -1  10  -7    8.87    0.53
   1 -10   7    8.98    0.53
  -2  10  -7    1.71    0.16
   2 -10   7    1.91    0.16
  -3  10  -7    0.04    0.10
  -3  10  -7    0.00    0.06
  -4  10  -7    0.84    0.11
  -5  10  -7    0.91    0.11
  -5  10  -7    0.74    0.14
  -5  10  -7    1.06    0.11
  -6  10  -7    0.16    0.08
  -6  10  -7    0.07    0.06
  -6  10  -7    0.38    0.12
  -7  10  -7   -0.04    0.07
  -7  10  -7   -0.04    0.11
  -3  -9   7    0.08    0.04
  -3  -9   7    0.15    0.07
  -2  -9   7    4.79    0.30
  -2  -9   7    4.99    0.30
  -1  -9   7    0.02    0.06
  -1  -9   7    0.05    0.06
   0  -9   7    1.37    0.14
  -1   9  -7    0.33    0.08
   1  -9   7    0.39    0.07
  -2   9  -7    6.71    0.41
  -3   9  -7    2.08    0.21
  -3   9  -7    1.93    0.24
  -3   9  -7    2.05    0.17
  -4   9  -7   10.80    0.82
  -4   9  -7   11.99    0.67
  -4   9  -7   11.64    0.67
  -5   9  -7    0.13    0.09
  -5   9  -7    0.13    0.13
  -5   9  -7    0.09    0.09
  -6   9  -7    0.30    0.07
  -6   9  -7    0.36    0.10
  -6   9  -7    0.38    0.13
  -7   9  -7    6.05    0.47
  -7   9  -7    6.07    0.36
  -8   9  -7    3.04    0.28
  -4  -8   7   -0.03    0.07
  -4  -8   7    0.07    0.06
  -4  -8   7    0.03    0.04
  -3  -8   7    7.82    0.46
  -3  -8   7    8.22    0.46
  -2  -8   7   21.07    1.21
  -1  -8   7    1.00    0.12
   0  -8   7   15.34    0.89
  -1   8  -7   32.40    1.86
  -2   8  -7    0.78    0.09
  -3   8  -7    0.14    0.11
  -3   8  -7    0.05    0.07
  -3   8  -7    0.11    0.11
  -4   8  -7    2.17    0.20
  -4   8  -7    1.70    0.24
  -4   8  -7    1.88    0.19
  -4   8  -7    1.90    0.15
  -5   8  -7   -0.01    0.08
  -5   8  -7   -0.02    0.08
  -5   8  -7    0.04    0.15
  -5   8  -7   -0.09    0.14
  -6   8  -7   -0.10    0.14
  -6   8  -7    0.02    0.07
  -6   8  -7    0.11    0.09
  -7   8  -7    1.45    0.14
  -7   8  -7    1.44    0.19
  -8   8  -7    1.02    0.13
  -8   8  -7    1.23    0.17
  -5  -7   7    0.18    0.06
  -5  -7   7    0.18    0.07
  -4  -7   7    0.04    0.06
  -4  -7   7    0.05    0.08
  -4  -7   7    0.04    0.08
  -3  -7   7    4.48    0.29
  -3  -7   7    4.17    0.27
  -3  -7   7    4.27    0.27
  -2  -7   7    2.45    0.18
   0  -7   7   13.42    0.79
  -1   7  -7    4.44    0.29
  -2   7  -7   35.30    1.99
  -2   7  -7   36.69    2.06
  -3   7  -7   15.15    0.81
  -3   7  -7   14.85    0.83
  -3   7  -7   12.43    1.09
  -3   7  -7   13.54    0.99
  -3   7  -7   15.19    0.82
  -3   7  -7   13.75    0.99
  -4   7  -7    7.87    0.74
  -4   7  -7    7.64    0.65
  -4   7  -7    9.89    0.52
  -4   7  -7    8.15    0.75
  -4   7  -7    9.29    0.65
  -4   7  -7    9.77    0.52
  -4   7  -7    7.26    0.63
  -4   7  -7    9.58    0.53
  -5   7  -7    0.06    0.18
  -5   7  -7    0.00    0.13
  -5   7  -7    0.09    0.15
  -5   7  -7    0.01    0.08
  -5   7  -7    0.07    0.09
  -6   7  -7    7.71    0.59
  -6   7  -7    7.88    0.55
  -6   7  -7    8.24    0.45
  -6   7  -7    7.15    0.44
  -7   7  -7    2.86    0.19
  -7   7  -7    2.77    0.31
  -7   7  -7    2.87    0.27
  -8   7  -7   -0.10    0.14
  -8   7  -7    0.04    0.11
  -9   7  -7    6.36    0.47
  -9   7  -7    6.33    0.45
  -6  -6   7    0.01    0.07
  -6  -6   7    0.12    0.06
  -5  -6   7    5.24    0.32
  -5  -6   7    5.33    0.33
  -5  -6   7    5.34    0.31
  -4  -6   7   10.31    0.58
  -4  -6   7    9.86    0.58
  -4  -6   7   10.28    0.58
  -3  -6   7   12.56    0.73
  -3  -6   7   12.50    0.71
  -2  -6   7    0.18    0.05
  -2  -6   7    0.14    0.06
  -2  -6   7    0.44    0.22
  -1  -6   7    3.21    0.21
  -1   6  -7   18.35    1.40
  -1   6  -7   18.59    1.07
  -2   6  -7    0.88    0.12
  -2   6  -7    0.97    0.29
  -2   6  -7    0.91    0.10
  -2   6  -7    1.02    0.20
  -2   6  -7    0.69    0.08
  -3   6  -7   40.01    2.50
  -3   6  -7   38.82    2.07
  -3   6  -7   37.60    2.22
  -3   6  -7   37.33    2.05
  -3   6  -7   33.37    2.54
  -3   6  -7   38.84    2.54
  -3   6  -7   36.65    2.14
  -3   6  -7   38.25    2.36
  -4   6  -7    0.04    0.23
  -4   6  -7    0.26    0.04
  -4   6  -7    0.37    0.24
  -4   6  -7    0.21    0.12
  -4   6  -7    0.12    0.15
  -4   6  -7    0.25    0.08
  -4   6  -7    0.31    0.18
  -4   6  -7    0.25    0.07
  -5   6  -7    0.23    0.07
  -5   6  -7    0.34    0.15
  -5   6  -7    0.05    0.13
  -5   6  -7    0.29    0.20
  -5   6  -7    0.30    0.17
  -5   6  -7    0.30    0.07
  -5   6  -7    0.23    0.11
  -5   6  -7    0.02    0.16
  -6   6  -7    5.35    0.43
  -6   6  -7    4.86    0.42
  -6   6  -7    5.21    0.30
  -6   6  -7    4.31    0.44
  -6   6  -7    4.81    0.38
  -7   6  -7    0.39    0.16
  -7   6  -7    0.47    0.07
  -7   6  -7    0.36    0.15
  -7   6  -7    0.36    0.13
  -8   6  -7   10.56    0.75
  -8   6  -7   10.80    0.71
  -8   6  -7    9.81    0.72
  -9   6  -7    3.63    0.27
  -9   6  -7    2.92    0.29
  -7  -5   7    0.27    0.06
  -7  -5   7    0.28    0.07
  -6  -5   7    1.17    0.14
  -6  -5   7    1.27    0.12
  -5  -5   7    1.31    0.13
  -5  -5   7    1.14    0.12
  -5  -5   7    1.33    0.15
  -4  -5   7   33.88    1.89
  -4  -5   7   33.71    1.95
  -4  -5   7   35.78    1.84
  -4  -5   7   33.33    1.87
  -3  -5   7    3.75    0.24
  -3  -5   7    3.73    0.24
  -3  -5   7    3.25    0.49
  -3  -5   7    3.51    0.34
  -3  -5   7    4.26    0.41
  -2  -5   7    0.98    0.21
  -2  -5   7    1.18    0.11
  -1   5  -7    2.71    0.32
  -1   5  -7    3.44    0.43
  -2   5  -7   57.17    3.42
  -2   5  -7   52.64    3.36
  -2   5  -7   62.08    3.65
  -2   5  -7   65.08    3.89
  -3   5  -7   12.62    0.66
  -3   5  -7   10.94    0.82
  -3   5  -7   12.61    0.77
  -3   5  -7   12.45    0.80
  -3   5  -7   12.08    0.89
  -3   5  -7   11.32    0.87
  -3   5  -7   11.35    0.66
  -3   5  -7   11.17    0.68
  -4   5  -7   14.70    1.17
  -4   5  -7   13.27    0.80
  -4   5  -7   14.16    1.00
  -4   5  -7   14.34    1.03
  -4   5  -7   13.91    0.80
  -4   5  -7   14.86    1.04
  -4   5  -7   15.49    0.94
  -4   5  -7   14.34    0.95
  -4   5  -7   14.20    0.97
  -4   5  -7   15.60    0.93
  -5   5  -7    3.72    0.36
  -5   5  -7    4.79    0.35
  -5   5  -7    3.89    0.36
  -5   5  -7    4.30    0.25
  -5   5  -7    3.75    0.40
  -5   5  -7    3.76    0.31
  -5   5  -7    3.79    0.24
  -5   5  -7    4.40    0.40
  -5   5  -7    4.43    0.32
  -6   5  -7   52.41    3.27
  -6   5  -7   49.84    2.76
  -6   5  -7   45.64    3.97
  -6   5  -7   51.47    3.44
  -6   5  -7   49.19    3.00
  -6   5  -7   55.95    3.29
  -7   5  -7    0.99    0.17
  -7   5  -7    0.73    0.16
  -8   5  -7   10.85    0.78
  -8   5  -7   10.77    0.74
  -9   5  -7    1.51    0.20
  -9   5  -7    1.72    0.22
  -9   5  -7    1.51    0.21
  -7  -4   7    3.63    0.24
  -7  -4   7    3.78    0.23
  -6  -4   7    0.17    0.09
  -6  -4   7    0.15    0.06
  -6  -4   7    0.11    0.06
  -6  -4   7    0.16    0.09
  -5  -4   7    1.79    0.21
  -5  -4   7    1.82    0.17
  -5  -4   7    1.85    0.17
  -5  -4   7    1.92    0.15
  -4  -4   7    0.59    0.08
  -4  -4   7    0.55    0.09
  -4  -4   7    0.56    0.21
  -4  -4   7    0.58    0.17
  -4  -4   7    0.54    0.07
  -4  -4   7    0.62    0.08
  -4  -4   7    0.36    0.27
  -3  -4   7   36.06    2.12
  -3  -4   7   35.36    2.05
  -3  -4   7   41.30    2.30
  -3  -4   7   37.48    2.53
  -3  -4   7   36.21    2.32
  -2  -4   7    0.12    0.11
  -2  -4   7    0.03    0.23
  -2  -4   7    0.10    0.05
  -2  -4   7    0.10    0.16
   0   4  -7    0.63    0.22
  -1   4  -7    0.12    0.14
  -1   4  -7    0.00    0.17
  -2   4  -7   13.22    0.80
  -2   4  -7   10.65    0.85
  -2   4  -7   12.16    0.75
  -2   4  -7   11.27    0.87
  -3   4  -7    8.33    0.56
  -3   4  -7    8.45    0.57
  -3   4  -7    8.31    0.63
  -3   4  -7    7.72    0.64
  -4   4  -7    3.22    0.37
  -4   4  -7    3.08    0.27
  -4   4  -7    3.03    0.19
  -4   4  -7    3.80    0.29
  -4   4  -7    3.18    0.20
  -4   4  -7    3.15    0.27
  -4   4  -7    3.32    0.33
  -4   4  -7    2.78    0.29
  -4   4  -7    3.29    0.32
  -4   4  -7    3.24    0.34
  -5   4  -7    7.97    0.55
  -5   4  -7    7.44    0.58
  -5   4  -7    7.91    0.58
  -5   4  -7    8.07    0.67
  -5   4  -7    8.32    0.56
  -5   4  -7    7.45    0.44
  -6   4  -7    1.75    0.26
  -6   4  -7    1.91    0.21
  -6   4  -7    1.56    0.26
  -6   4  -7    1.50    0.22
  -6   4  -7    1.59    0.12
  -6   4  -7    1.49    0.22
  -7   4  -7    8.91    0.63
  -7   4  -7    8.57    0.60
  -7   4  -7    7.98    0.63
  -8   4  -7    0.88    0.17
  -8   4  -7    1.77    0.24
  -8   4  -7    1.15    0.16
  -9   4  -7    4.76    0.35
  -9   4  -7    4.44    0.37
  -8  -3   7    2.71    0.18
  -8  -3   7    2.89    0.22
  -8  -3   7    2.52    0.17
  -7  -3   7    0.66    0.12
  -7  -3   7    0.51    0.09
  -7  -3   7    0.77    0.09
  -6  -3   7    0.31    0.10
  -6  -3   7    0.33    0.08
  -6  -3   7    0.39    0.11
  -6  -3   7    0.16    0.06
  -5  -3   7   29.39    1.59
  -5  -3   7   28.90    1.65
  -5  -3   7   29.51    1.56
  -5  -3   7   27.73    1.81
  -4  -3   7   49.34    3.24
  -4  -3   7   47.56    2.66
  -4  -3   7   52.92    2.96
  -4  -3   7   48.15    2.77
  -4  -3   7   48.28    3.01
  -4  -3   7   48.52    2.60
  -4  -3   7   45.22    2.64
  -3  -3   7    0.34    0.05
  -3  -3   7    0.54    0.17
  -3  -3   7    0.22    0.22
  -2  -3   7   27.76    1.75
  -2  -3   7   25.74    1.90
  -2  -3   7   30.19    1.72
   1   3  -7    1.21    0.19
  -1  -3   7    0.65    0.12
   0   3  -7    2.86    0.41
   0   3  -7    3.11    0.30
  -1   3  -7   16.07    1.17
  -1   3  -7   18.48    1.11
  -2   3  -7   14.04    0.87
  -2   3  -7   13.86    0.98
  -2   3  -7   14.24    0.90
  -2   3  -7   13.87    0.98
  -3   3  -7    0.18    0.13
  -3   3  -7    0.16    0.13
  -3   3  -7    0.16    0.15
  -3   3  -7    0.18    0.09
  -4   3  -7   21.31    1.22
  -4   3  -7   21.71    1.54
  -4   3  -7   22.05    1.52
  -4   3  -7   22.54    1.47
  -4   3  -7   21.14    1.23
  -4   3  -7   23.60    1.79
  -4   3  -7   24.11    1.47
  -4   3  -7   24.13    1.37
  -5   3  -7    2.71    0.32
  -5   3  -7    2.82    0.29
  -5   3  -7    2.95    0.28
  -5   3  -7    2.92    0.21
  -5   3  -7    2.96    0.26
  -5   3  -7    3.25    0.34
  -5   3  -7    2.57    0.17
  -5   3  -7    2.69    0.38
  -6   3  -7    0.36    0.12
  -6   3  -7    0.39    0.15
  -6   3  -7    0.33    0.10
  -6   3  -7    0.47    0.15
  -6   3  -7    0.45    0.15
  -6   3  -7    0.19    0.19
  -7   3  -7    0.32    0.13
  -7   3  -7    0.25    0.17
  -7   3  -7    0.45    0.14
  -7   3  -7    0.43    0.11
  -8   3  -7    2.05    0.23
  -8   3  -7    1.88    0.27
  -8   3  -7    1.75    0.23
  -9   3  -7   -0.07    0.11
  -9   3  -7   -0.02    0.09
  -8  -2   7    2.68    0.19
  -8  -2   7    2.48    0.18
  -8  -2   7    2.62    0.24
  -7  -2   7    3.58    0.32
  -7  -2   7    3.61    0.22
  -7  -2   7    3.57    0.25
  -7  -2   7    3.85    0.24
  -6  -2   7    8.55    0.51
  -6  -2   7    9.49    0.62
  -6  -2   7    8.58    0.51
  -6  -2   7    8.93    0.51
  -5  -2   7    4.65    0.30
  -5  -2   7    4.33    0.53
  -5  -2   7    4.92    0.29
  -5  -2   7    5.18    0.30
  -5  -2   7    4.86    0.30
  -5  -2   7    4.85    0.40
  -5  -2   7    4.95    0.43
  -4  -2   7    0.87    0.10
  -4  -2   7    0.84    0.17
  -4  -2   7    0.98    0.12
  -4  -2   7    0.67    0.14
  -4  -2   7    1.19    0.31
  -4  -2   7    0.95    0.11
  -4  -2   7    1.02    0.09
  -3  -2   7    4.88    0.38
   2   2  -7    6.11    0.58
  -2  -2   7    8.11    0.49
   1   2  -7    1.70    0.30
   1   2  -7    2.15    0.27
   1   2  -7    1.96    0.25
   1   2  -7    2.07    0.30
  -1  -2   7    1.41    0.29
  -1  -2   7    2.22    0.29
  -1  -2   7    1.74    0.19
   0   2  -7    1.17    0.18
   0   2  -7    0.92    0.24
   0   2  -7    0.97    0.20
   0   2  -7    0.97    0.18
   0  -2   7    0.59    0.20
  -1   2  -7   37.43    2.46
  -1   2  -7   37.01    2.56
  -1   2  -7   40.18    2.33
  -1   2  -7   37.62    2.48
  -1   2  -7   36.45    2.53
  -2   2  -7    4.66    0.36
  -2   2  -7    4.70    0.40
  -2   2  -7    4.92    0.42
  -2   2  -7    4.77    0.35
  -3   2  -7    5.11    0.38
  -3   2  -7    5.47    0.46
  -3   2  -7    5.17    0.39
  -3   2  -7    5.07    0.35
  -3   2  -7    5.31    0.41
  -3   2  -7    6.04    0.35
  -4   2  -7    2.67    0.29
  -4   2  -7    2.28    0.27
  -4   2  -7    2.35    0.32
  -4   2  -7    2.28    0.22
  -4   2  -7    2.06    0.14
  -4   2  -7    2.47    0.23
  -4   2  -7    2.34    0.25
  -5   2  -7    2.26    0.24
  -5   2  -7    2.29    0.18
  -5   2  -7    2.35    0.26
  -5   2  -7    2.21    0.24
  -5   2  -7    2.65    0.29
  -5   2  -7    2.58    0.32
  -5   2  -7    2.03    0.18
  -5   2  -7    2.57    0.32
  -6   2  -7    0.00    0.13
  -6   2  -7   -0.07    0.14
  -6   2  -7   -0.18    0.18
  -6   2  -7    0.09    0.10
  -6   2  -7   -0.03    0.08
  -6   2  -7   -0.03    0.11
  -6   2  -7   -0.12    0.13
  -7   2  -7    3.09    0.22
  -7   2  -7    3.48    0.24
  -7   2  -7    3.36    0.32
  -7   2  -7    3.38    0.29
  -7   2  -7    3.03    0.32
  -7   2  -7    2.65    0.33
  -8   2  -7    0.64    0.14
  -8   2  -7    0.63    0.14
  -8   2  -7    0.58    0.13
  -8   2  -7    0.35    0.10
  -9   2  -7   10.74    0.72
  -9  -1   7    0.16    0.04
  -9  -1   7    0.30    0.09
  -8  -1   7    0.26    0.09
  -8  -1   7    0.08    0.06
  -8  -1   7    0.10    0.10
  -7  -1   7    0.05    0.08
  -7  -1   7    0.03    0.07
  -7  -1   7    0.00    0.09
  -7  -1   7   -0.02    0.06
  -6  -1   7    0.33    0.08
  -6  -1   7    0.29    0.11
  -6  -1   7    0.29    0.14
  -6  -1   7    0.30    0.18
  -6  -1   7    0.38    0.08
  -6  -1   7    0.27    0.05
  -6  -1   7    0.31    0.07
  -5  -1   7   11.27    0.62
  -5  -1   7   10.90    0.74
  -5  -1   7   10.16    0.87
  -5  -1   7   11.06    0.75
  -5  -1   7   11.01    0.61
  -5  -1   7   10.55    0.63
  -4  -1   7    3.62    0.46
  -4  -1   7    2.68    0.26
  -4  -1   7    2.24    0.16
  -3  -1   7    0.73    0.22
  -3  -1   7    0.36    0.10
  -3  -1   7    0.72    0.13
   2   1  -7   73.13    4.48
   2   1  -7   77.58    4.76
   2   1  -7   69.42    4.83
   2   1  -7   73.49    4.67
   2   1  -7   77.56    4.93
  -2  -1   7   70.41    4.75
  -2  -1   7   80.51    4.35
  -2  -1   7   76.59    4.47
  -2  -1   7   61.42    4.86
  -2  -1   7   69.08    4.83
   1   1  -7    0.48    0.15
   1   1  -7    0.41    0.23
   1   1  -7    0.62    0.20
   1   1  -7    0.25    0.15
   1   1  -7    0.39    0.12
  -1  -1   7    0.38    0.17
  -1  -1   7    0.44    0.12
  -1  -1   7    0.26    0.16
  -1  -1   7    0.65    0.25
   0   1  -7   18.72    1.36
   0   1  -7   21.09    1.26
   0   1  -7   21.78    1.35
   0   1  -7   18.92    1.41
   0   1  -7   21.94    1.32
   0  -1   7   17.59    1.36
   0  -1   7   18.54    1.40
  -1   1  -7   46.72    2.79
  -1   1  -7   39.54    2.87
  -1   1  -7   40.43    2.84
  -1   1  -7   46.54    2.81
  -1   1  -7   44.22    2.64
  -1   1  -7   40.32    2.76
  -2   1  -7   50.88    2.79
  -2   1  -7   41.15    2.93
  -2   1  -7   46.13    2.96
  -2   1  -7   44.49    2.95
  -3   1  -7    8.98    0.66
  -3   1  -7    8.60    0.59
  -4   1  -7   83.49    5.23
  -4   1  -7   81.77    4.72
  -4   1  -7   75.68    5.25
  -4   1  -7   87.78    6.36
  -4   1  -7   75.93    4.75
  -4   1  -7   84.06    5.50
  -4   1  -7   83.15    5.26
  -5   1  -7    0.23    0.08
  -5   1  -7    0.23    0.06
  -5   1  -7    0.16    0.14
  -5   1  -7    0.24    0.12
  -5   1  -7    0.24    0.07
  -5   1  -7    0.29    0.13
  -5   1  -7   -0.02    0.18
  -5   1  -7    0.17    0.08
  -5   1  -7    0.35    0.11
  -6   1  -7    0.89    0.19
  -6   1  -7    1.10    0.11
  -6   1  -7    0.93    0.14
  -6   1  -7    0.77    0.15
  -6   1  -7    0.97    0.10
  -6   1  -7    0.99    0.12
  -6   1  -7    0.99    0.11
  -6   1  -7    1.38    0.17
  -7   1  -7    9.79    0.84
  -7   1  -7   10.17    0.58
  -7   1  -7   10.13    0.62
  -7   1  -7    9.96    0.69
  -7   1  -7   10.00    0.73
  -7   1  -7    9.98    0.70
  -7   1  -7   10.57    0.59
  -7   1  -7   10.44    0.57
  -8   1  -7   13.83    0.90
  -8   1  -7   13.10    0.90
  -8   1  -7   13.65    0.75
  -9   0   7    8.37    0.59
  -9   0   7    8.96    0.49
  -8   0   7    7.63    0.43
  -8   0   7    7.93    0.53
  -8   0   7    6.72    0.41
  -7   0   7    4.44    0.28
  -7   0   7    4.14    0.27
  -7   0   7    4.26    0.35
  -6   0   7    3.32    0.29
  -6   0   7    3.74    0.24
  -6   0   7    3.42    0.23
  -6   0   7    3.38    0.22
  -6   0   7    3.31    0.48
  -6   0   7    3.53    0.34
  -6   0   7    3.77    0.37
  -5   0   7   12.61    0.79
  -5   0   7   12.50    0.81
  -5   0   7   12.12    0.67
  -5   0   7   11.60    0.94
  -5   0   7   11.75    0.69
  -5   0   7   10.93    0.67
  -4   0   7    2.30    0.36
  -4   0   7    1.60    0.21
   3   0  -7   31.78    2.56
  -3   0   7   39.55    2.34
  -3   0   7   41.36    2.28
   2   0  -7    6.84    0.47
   2   0  -7    6.63    0.56
   2   0  -7    5.79    0.58
   2   0  -7    6.50    0.46
  -2   0   7    6.26    0.53
  -2   0   7    7.01    0.57
  -2   0   7    5.67    0.40
  -2   0   7    5.92    0.44
  -2   0   7    4.61    0.55
   1   0  -7    9.67    0.69
   1   0  -7   10.70    0.82
   1   0  -7   10.57    0.66
   1   0  -7   10.36    0.76
   1   0  -7   10.00    0.75
  -1   0   7    9.11    0.79
  -1   0   7    8.45    0.73
   0   0  -7   19.05    1.18
   0   0  -7   18.91    1.08
   0   0  -7   16.19    1.21
   0   0  -7   17.40    1.14
   0   0   7   14.96    1.19
   0   0   7   15.21    1.22
  -1   0  -7    6.73    0.48
  -1   0  -7    6.91    0.51
  -1   0  -7    6.82    0.51
  -1   0  -7    6.01    0.49
  -1   0  -7    6.60    0.45
  -2   0  -7    4.86    0.38
  -2   0  -7    5.42    0.34
  -2   0  -7    5.51    0.39
  -2   0  -7    5.65    0.44
  -2   0  -7    4.79    0.37
  -2   0  -7    4.87    0.33
  -3   0  -7  111.34    6.85
  -3   0  -7  102.49    6.85
  -4   0  -7    0.13    0.14
  -4   0  -7    0.21    0.06
  -4   0  -7    0.26    0.12
  -4   0  -7    0.35    0.10
  -4   0  -7    0.18    0.19
  -4   0  -7    0.33    0.10
  -4   0  -7    0.20    0.08
  -4   0  -7    0.28    0.06
  -4   0  -7    0.22    0.12
  -5   0  -7   21.97    1.25
  -5   0  -7   22.52    1.58
  -5   0  -7   22.56    1.58
  -5   0  -7   24.06    1.36
  -5   0  -7   23.37    1.29
  -5   0  -7   21.04    1.50
  -5   0  -7   21.61    1.50
  -5   0  -7   23.55    1.25
  -5   0  -7   26.66    1.84
  -6   0  -7    4.17    0.31
  -6   0  -7    3.90    0.27
  -6   0  -7    4.45    0.27
  -6   0  -7    4.06    0.36
  -6   0  -7    3.75    0.34
  -6   0  -7    4.28    0.42
  -6   0  -7    4.15    0.27
  -6   0  -7    4.16    0.33
  -7   0  -7   -0.23    0.15
  -7   0  -7   -0.10    0.13
  -7   0  -7   -0.12    0.12
  -7   0  -7    0.00    0.09
  -7   0  -7   -0.01    0.10
  -7   0  -7   -0.07    0.09
  -7   0  -7   -0.08    0.09
  -8   0  -7    5.76    0.31
  -8   0  -7    4.51    0.30
  -9   1   7    8.60    0.48
  -9   1   7    8.20    0.58
  -8   1   7    0.37    0.13
  -8   1   7    0.34    0.06
  -8   1   7    0.33    0.08
  -7   1   7    0.39    0.11
  -7   1   7    0.71    0.09
  -7   1   7    0.70    0.10
  -7   1   7    0.58    0.11
  -6   1   7    3.11    0.22
  -6   1   7    2.54    0.42
  -6   1   7    3.12    0.27
  -6   1   7    3.12    0.36
  -6   1   7    2.87    0.32
  -6   1   7    2.99    0.21
  -6   1   7    3.10    0.34
  -6   1   7    3.48    0.22
  -5   1   7    0.14    0.12
  -5   1   7    0.42    0.06
  -5   1   7    0.23    0.26
  -5   1   7    0.34    0.07
  -5   1   7    0.37    0.14
  -4   1   7    6.38    0.44
  -3   1   7    4.49    0.35
  -3   1   7    4.33    0.47
   2  -1  -7    6.48    0.48
   1  -1  -7   12.26    0.78
   1  -1  -7   11.23    0.75
   1  -1  -7   11.95    0.84
  -1   1   7    8.99    0.86
   0  -1  -7    0.07    0.17
   0  -1  -7    0.05    0.11
   0  -1  -7   -0.11    0.17
   0  -1  -7   -0.03    0.13
  -1  -1  -7    5.66    0.45
  -1  -1  -7    5.97    0.48
  -1  -1  -7    6.24    0.47
  -1  -1  -7    5.76    0.41
  -2  -1  -7   58.08    3.49
  -2  -1  -7   46.29    3.49
  -2  -1  -7   55.06    3.51
  -2  -1  -7   56.59    3.51
  -2  -1  -7   55.32    3.30
  -2  -1  -7   53.91    3.29
  -3  -1  -7   43.75    2.58
  -3  -1  -7   43.46    2.39
  -3  -1  -7   42.08    2.44
  -3  -1  -7   43.30    2.84
  -3  -1  -7   47.58    3.45
  -3  -1  -7   47.25    2.89
  -3  -1  -7   41.31    2.98
  -3  -1  -7   44.44    2.87
  -4  -1  -7    0.18    0.09
  -4  -1  -7    0.26    0.13
  -4  -1  -7    0.11    0.09
  -4  -1  -7    0.29    0.15
  -4  -1  -7    0.24    0.08
  -4  -1  -7    0.15    0.07
  -4  -1  -7    0.22    0.23
  -4  -1  -7    0.14    0.15
  -5  -1  -7    2.44    0.26
  -5  -1  -7    3.27    0.22
  -5  -1  -7    3.26    0.26
  -5  -1  -7    2.91    0.31
  -5  -1  -7    3.31    0.36
  -5  -1  -7    3.07    0.23
  -6  -1  -7    4.84    0.48
  -6  -1  -7    5.13    0.35
  -6  -1  -7    4.89    0.31
  -6  -1  -7    4.89    0.32
  -6  -1  -7    4.86    0.41
  -7  -1  -7    0.74    0.10
  -7  -1  -7    0.90    0.11
  -7  -1  -7    1.25    0.14
  -8  -1  -7    2.32    0.16
  -9   2   7   17.28    1.12
  -9   2   7   16.59    0.94
  -8   2   7   29.12    1.67
  -8   2   7   30.81    1.97
  -8   2   7   30.92    1.98
  -8   2   7   30.48    1.67
  -7   2   7    0.01    0.10
  -7   2   7    0.05    0.07
  -7   2   7    0.06    0.09
  -6   2   7    0.59    0.18
  -6   2   7    0.32    0.08
  -6   2   7    0.34    0.10
  -6   2   7    0.38    0.07
  -6   2   7    0.28    0.07
  -6   2   7    0.19    0.15
  -6   2   7    0.25    0.30
  -5   2   7   25.18    1.37
  -5   2   7   23.98    1.58
  -5   2   7   24.88    1.42
  -4   2   7    6.25    0.70
  -4   2   7    6.24    0.51
   2  -2  -7    0.02    0.12
   2  -2  -7    0.15    0.20
   2  -2  -7   -0.14    0.13
   1  -2  -7    1.08    0.19
   1  -2  -7    1.49    0.19
   0  -2  -7    1.94    0.26
   0  -2  -7    1.71    0.26
   0  -2  -7    1.88    0.27
   0  -2  -7    1.74    0.23
  -1  -2  -7    1.16    0.21
  -1  -2  -7    1.16    0.21
  -1  -2  -7    1.41    0.20
  -1  -2  -7    1.35    0.18
  -2  -2  -7    4.63    0.28
  -2  -2  -7    4.71    0.29
  -2  -2  -7    4.41    0.39
  -2  -2  -7    5.19    0.43
  -2  -2  -7    4.99    0.46
  -2  -2  -7    4.95    0.42
  -2  -2  -7    4.72    0.36
  -2  -2  -7    4.65    0.32
  -3  -2  -7   16.09    0.88
  -3  -2  -7   16.65    0.97
  -3  -2  -7   16.51    0.91
  -3  -2  -7   14.65    1.12
  -3  -2  -7   16.48    1.12
  -3  -2  -7   15.56    0.88
  -3  -2  -7   17.28    1.30
  -4  -2  -7    0.16    0.18
  -4  -2  -7    0.18    0.08
  -4  -2  -7    0.15    0.17
  -4  -2  -7    0.09    0.08
  -4  -2  -7    0.31    0.14
  -4  -2  -7    0.45    0.10
  -5  -2  -7    0.74    0.11
  -5  -2  -7    0.66    0.11
  -5  -2  -7    0.54    0.20
  -5  -2  -7    0.71    0.13
  -6  -2  -7    1.80    0.17
  -6  -2  -7    1.93    0.22
  -6  -2  -7    1.83    0.18
  -7  -2  -7   -0.06    0.07
  -7  -2  -7    0.06    0.08
 -10   3   7    5.19    0.29
  -9   3   7    0.15    0.09
  -9   3   7    0.00    0.08
  -9   3   7    0.05    0.10
  -8   3   7   34.71    2.23
  -8   3   7   35.45    1.89
  -8   3   7   34.05    1.89
  -8   3   7   33.23    2.23
  -7   3   7   -0.02    0.07
  -7   3   7    0.03    0.05
  -7   3   7    0.14    0.09
  -7   3   7    0.12    0.20
  -7   3   7    0.11    0.11
  -6   3   7    1.18    0.22
  -6   3   7    1.17    0.13
  -6   3   7    1.01    0.22
  -6   3   7    1.50    0.38
  -6   3   7    1.28    0.17
  -6   3   7    1.30    0.15
  -5   3   7    0.02    0.07
  -5   3   7    0.10    0.30
  -5   3   7   -0.14    0.17
  -5   3   7   -0.01    0.06
   2  -3  -7    8.17    0.70
   2  -3  -7    7.33    0.56
   1  -3  -7    0.25    0.17
   1  -3  -7    0.12    0.15
   1  -3  -7    0.22    0.23
   1  -3  -7    0.18    0.16
   0  -3  -7    5.56    0.49
   0  -3  -7    5.71    0.43
   0  -3  -7    5.41    0.53
   0  -3  -7    5.80    0.48
  -1  -3  -7    0.47    0.08
  -1  -3  -7    0.47    0.17
  -1  -3  -7    0.60    0.07
  -1  -3  -7    0.83    0.15
  -1  -3  -7    0.72    0.08
  -1  -3  -7    0.44    0.09
  -1  -3  -7    0.65    0.14
  -1  -3  -7    0.70    0.22
  -2  -3  -7   17.08    1.18
  -2  -3  -7   18.92    1.36
  -2  -3  -7   16.64    0.95
  -2  -3  -7   15.34    0.92
  -2  -3  -7   17.30    0.93
  -2  -3  -7   16.92    1.01
  -2  -3  -7   16.60    1.13
  -3  -3  -7   14.75    0.89
  -3  -3  -7   13.63    1.05
  -3  -3  -7   15.48    0.81
  -3  -3  -7   15.90    1.21
  -3  -3  -7   14.99    0.84
  -3  -3  -7   13.93    0.82
  -4  -3  -7   10.77    0.65
  -4  -3  -7   11.13    0.89
  -4  -3  -7   10.29    0.59
  -4  -3  -7    8.89    0.78
  -4  -3  -7   10.79    0.61
  -5  -3  -7   10.89    0.63
  -5  -3  -7   10.95    0.67
  -5  -3  -7   10.29    0.61
  -6  -3  -7    1.19    0.14
  -6  -3  -7    0.68    0.10
  -6  -3  -7    0.84    0.10
  -7  -3  -7   -0.13    0.08
  -7  -3  -7   -0.10    0.05
  -9   4   7    0.78    0.10
  -9   4   7    1.02    0.13
  -8   4   7    5.95    0.45
  -8   4   7    6.20    0.37
  -8   4   7    5.79    0.37
  -7   4   7    6.55    0.41
  -7   4   7    6.92    0.41
  -6   4   7    7.17    0.78
  -6   4   7    7.87    0.62
  -6   4   7    8.51    0.49
  -6   4   7    8.57    0.50
   3  -4  -7   11.22    0.66
   2  -4  -7   52.73    3.28
   2  -4  -7   57.80    3.56
   2  -4  -7   62.78    3.83
   1  -4  -7    2.26    0.18
   1  -4  -7    2.56    0.29
   1  -4  -7    2.00    0.18
   1  -4  -7    2.28    0.16
   1  -4  -7    2.54    0.33
   1  -4  -7    2.95    0.38
   0  -4  -7   -0.15    0.07
   0  -4  -7    0.01    0.18
   0  -4  -7   -0.01    0.06
   0  -4  -7   -0.01    0.04
   0  -4  -7   -0.11    0.07
   0  -4  -7   -0.04    0.22
   0  -4  -7   -0.10    0.07
   0  -4  -7    0.01    0.15
   0  -4  -7   -0.12    0.14
  -1  -4  -7    6.80    0.40
  -1  -4  -7    7.48    0.61
  -1  -4  -7    6.95    0.50
  -1  -4  -7    6.77    0.42
  -1  -4  -7    7.12    0.40
  -1  -4  -7    7.61    0.41
  -1  -4  -7    6.64    0.44
  -1  -4  -7    6.48    0.60
  -1  -4  -7    7.16    0.59
  -2  -4  -7   43.58    2.38
  -2  -4  -7   49.59    3.47
  -2  -4  -7   43.22    2.42
  -2  -4  -7   42.11    2.91
  -2  -4  -7   46.44    2.41
  -2  -4  -7   44.70    2.45
  -2  -4  -7   41.91    2.59
  -2  -4  -7   41.77    2.69
  -3  -4  -7   11.60    0.70
  -3  -4  -7   11.84    0.63
  -3  -4  -7   11.62    0.64
  -3  -4  -7   11.49    0.66
  -3  -4  -7    9.80    0.85
  -4  -4  -7    0.08    0.10
  -4  -4  -7    0.14    0.10
  -4  -4  -7    0.10    0.09
  -5  -4  -7   14.49    0.80
  -5  -4  -7   13.71    0.78
  -5  -4  -7   13.88    0.85
  -6  -4  -7    1.16    0.12
  -6  -4  -7    1.25    0.14
  -9   5   7    0.44    0.06
  -9   5   7    0.51    0.09
  -9   5   7    0.58    0.11
  -8   5   7    4.51    0.29
  -8   5   7    4.49    0.36
  -8   5   7    4.58    0.30
  -7   5   7    0.18    0.10
  -6   5   7    1.28    0.25
  -6   5   7    1.59    0.19
  -6   5   7    1.18    0.16
  -5   5   7    3.52    0.25
   3  -5  -7   14.78    0.89
   3  -5  -7   15.97    1.09
   2  -5  -7    7.49    0.59
   2  -5  -7    6.56    0.54
   2  -5  -7    6.70    0.41
   2  -5  -7    6.53    0.41
   2  -5  -7    7.11    0.70
   1  -5  -7   17.64    1.25
   1  -5  -7   18.28    1.17
   1  -5  -7   17.19    1.02
   1  -5  -7   17.56    0.99
   1  -5  -7   17.68    0.99
   1  -5  -7   18.37    1.31
   0  -5  -7   -0.01    0.20
   0  -5  -7    0.06    0.07
   0  -5  -7    0.32    0.26
   0  -5  -7    0.22    0.17
   0  -5  -7   -0.07    0.08
   0  -5  -7    0.13    0.04
   0  -5  -7    0.05    0.07
  -1  -5  -7    5.10    0.30
  -1  -5  -7    4.10    0.51
  -1  -5  -7    5.07    0.32
  -1  -5  -7    4.40    0.48
  -1  -5  -7    5.00    0.31
  -1  -5  -7    4.89    0.33
  -2  -5  -7    0.33    0.10
  -2  -5  -7    0.39    0.10
  -2  -5  -7    0.23    0.10
  -2  -5  -7    0.35    0.07
  -2  -5  -7    0.19    0.24
  -3  -5  -7    0.71    0.12
  -3  -5  -7    0.36    0.11
  -3  -5  -7    0.54    0.07
  -3  -5  -7    0.41    0.11
  -4  -5  -7    7.28    0.47
  -4  -5  -7    7.29    0.43
  -4  -5  -7    7.16    0.44
  -5  -5  -7    0.09    0.08
  -5  -5  -7    0.19    0.08
  -9   6   7    1.55    0.18
  -9   6   7    1.44    0.11
  -9   6   7    1.50    0.15
  -8   6   7    2.23    0.23
  -8   6   7    2.21    0.19
  -8   6   7    2.34    0.20
  -7   6   7   10.02    0.59
  -6   6   7   12.60    0.81
  -6   6   7   15.27    0.83
  -5   6   7    2.91    0.37
  -5   6   7    3.19    0.24
   4  -6  -7    2.30    0.34
   4  -6  -7    2.54    0.20
   3  -6  -7   52.39    3.39
   3  -6  -7   50.75    2.94
   2  -6  -7   12.24    0.98
   2  -6  -7   12.51    0.91
   2  -6  -7   14.24    0.75
   2  -6  -7   14.12    0.77
   2  -6  -7   11.59    1.06
   1  -6  -7   -0.05    0.08
   1  -6  -7   -0.23    0.08
   1  -6  -7    0.07    0.24
   1  -6  -7    0.00    0.05
   1  -6  -7    0.03    0.20
   1  -6  -7   -0.07    0.08
   0  -6  -7    0.95    0.11
   0  -6  -7    0.70    0.26
   0  -6  -7    0.69    0.10
   0  -6  -7    0.44    0.10
  -1  -6  -7   -0.11    0.09
  -1  -6  -7    0.02    0.08
  -1  -6  -7    0.01    0.05
  -1  -6  -7    0.07    0.09
  -2  -6  -7    2.47    0.21
  -2  -6  -7    2.04    0.21
  -2  -6  -7    2.30    0.20
  -2  -6  -7    2.31    0.17
  -3  -6  -7    2.80    0.17
  -3  -6  -7    2.55    0.24
  -3  -6  -7    2.83    0.21
  -3  -6  -7    2.73    0.22
  -4  -6  -7    0.90    0.11
  -4  -6  -7    1.14    0.13
  -9   7   7    0.25    0.08
  -8   7   7    3.97    0.26
  -8   7   7    4.01    0.31
  -7   7   7    2.20    0.16
  -7   7   7    1.94    0.22
  -7   7   7    1.75    0.20
   5  -7  -7    1.03    0.11
   4  -7  -7    2.40    0.20
   3  -7  -7    1.72    0.16
   3  -7  -7    1.60    0.19
   3  -7  -7    1.59    0.16
   2  -7  -7   25.78    1.50
   2  -7  -7   26.03    1.46
   2  -7  -7   26.74    1.46
   1  -7  -7    1.12    0.13
   1  -7  -7    1.10    0.10
   0  -7  -7    1.02    0.12
   0  -7  -7    0.93    0.12
   0  -7  -7    1.03    0.12
   0  -7  -7    1.21    0.12
  -1  -7  -7    0.37    0.08
  -1  -7  -7    0.43    0.10
  -1  -7  -7    0.14    0.09
  -1  -7  -7    0.27    0.04
  -2  -7  -7    4.94    0.31
  -2  -7  -7    5.85    0.33
  -2  -7  -7    5.20    0.33
  -3  -7  -7    2.98    0.20
  -3  -7  -7    3.14    0.20
  -8   8   7    0.52    0.08
  -7   8   7    1.23    0.16
  -7   8   7    1.55    0.13
  -7   8   7    1.57    0.18
   6  -8  -7    4.53    0.31
  -6   8   7    4.65    0.35
  -6   8   7    5.12    0.30
   5  -8  -7    3.18    0.23
  -5   8   7    3.20    0.23
   4  -8  -7    0.32    0.08
   3  -8  -7    6.92    0.42
   1  -8  -7    6.95    0.44
   1  -8  -7    6.84    0.44
   1  -8  -7    7.77    0.43
   1  -8  -7    8.19    0.43
   0  -8  -7    0.01    0.04
   0  -8  -7   -0.04    0.08
   0  -8  -7   -0.06    0.07
   0  -8  -7   -0.05    0.08
  -1  -8  -7    0.31    0.08
  -1  -8  -7    0.46    0.07
  -2  -8  -7   -0.01    0.06
   6  -9  -7    2.77    0.21
  -6   9   7    2.84    0.19
   5  -9  -7    1.54    0.14
  -5   9   7    1.03    0.14
   4  -9  -7   -0.01    0.06
   3  -9  -7    7.64    0.44
   2  -9  -7   18.39    1.02
   2  -9  -7   18.89    1.03
   1  -9  -7    2.51    0.20
   1  -9  -7    2.94    0.19
   1  -9  -7    2.82    0.17
   0  -9  -7    5.12    0.32
   0  -9  -7    5.91    0.32
  -1  11  -8    0.20    0.05
  -2  11  -8    0.08    0.05
   2 -11   8    0.09    0.05
  -3  11  -8    1.55    0.18
  -3  11  -8    1.78    0.14
  -4  11  -8    2.68    0.19
  -5  11  -8    0.14    0.05
  -1 -10   8    1.12    0.12
  -1 -10   8    0.89    0.10
   0  10  -8    0.12    0.06
  -1  10  -8    0.08    0.07
   1 -10   8    0.10    0.07
  -2  10  -8    8.53    0.51
  -3  10  -8    0.08    0.06
  -3  10  -8   -0.03    0.09
  -4  10  -8    3.13    0.21
  -4  10  -8    2.34    0.29
  -5  10  -8    4.61    0.33
  -5  10  -8    3.57    0.26
  -5  10  -8    4.25    0.27
  -6  10  -8    0.12    0.08
  -6  10  -8    0.17    0.12
  -7  10  -8    0.39    0.06
  -7  10  -8    0.43    0.10
  -3  -9   8    3.02    0.19
  -3  -9   8    3.37    0.20
  -2  -9   8    6.24    0.36
  -2  -9   8    6.09    0.36
  -1  -9   8    0.18    0.06
  -1  -9   8    0.10    0.05
   0   9  -8   -0.06    0.07
   0  -9   8   -0.03    0.05
  -1   9  -8    1.57    0.16
  -2   9  -8    8.31    0.50
  -3   9  -8    3.22    0.27
  -3   9  -8    3.77    0.24
  -4   9  -8   10.07    0.72
  -4   9  -8   10.30    0.59
  -4   9  -8   10.02    0.59
  -5   9  -8    3.26    0.29
  -5   9  -8    2.77    0.31
  -5   9  -8    3.04    0.22
  -5   9  -8    2.92    0.22
  -6   9  -8    0.99    0.17
  -6   9  -8    0.70    0.11
  -7   9  -8    0.18    0.07
  -7   9  -8    0.09    0.13
  -8   9  -8    0.07    0.10
  -4  -8   8    5.42    0.31
  -4  -8   8    5.29    0.31
  -4  -8   8    5.24    0.30
  -3  -8   8    7.09    0.42
  -3  -8   8    7.34    0.42
  -2  -8   8    1.80    0.14
  -2  -8   8    1.63    0.16
  -1  -8   8   11.55    0.68
   0   8  -8    0.32    0.08
   0  -8   8    0.23    0.06
  -1   8  -8   10.17    0.61
  -2   8  -8    0.13    0.07
  -2   8  -8    0.13    0.11
  -3   8  -8    1.12    0.15
  -3   8  -8    1.10    0.13
  -3   8  -8    1.26    0.13
  -4   8  -8    4.81    0.32
  -4   8  -8    4.68    0.40
  -4   8  -8    4.50    0.32
  -4   8  -8    5.28    0.30
  -5   8  -8    5.04    0.51
  -5   8  -8    6.06    0.34
  -5   8  -8    5.71    0.35
  -5   8  -8    5.39    0.45
  -6   8  -8   -0.05    0.13
  -6   8  -8    0.15    0.08
  -6   8  -8    0.08    0.05
  -7   8  -8   -0.05    0.13
  -7   8  -8   -0.06    0.07
  -8   8  -8    2.94    0.26
  -8   8  -8    4.11    0.31
  -5  -7   8    2.27    0.17
  -5  -7   8    2.40    0.17
  -4  -7   8    0.46    0.07
  -4  -7   8    0.31    0.07
  -4  -7   8    0.33    0.09
  -3  -7   8    4.81    0.31
  -3  -7   8    4.94    0.30
  -3  -7   8    4.75    0.30
  -2  -7   8    5.44    0.35
  -2  -7   8    6.04    0.35
  -1  -7   8    0.39    0.07
   0   7  -8   40.34    2.31
  -1   7  -8    3.04    0.22
  -2   7  -8    0.14    0.09
  -2   7  -8   -0.04    0.16
  -2   7  -8    0.29    0.21
  -2   7  -8    0.20    0.06
  -3   7  -8   83.52    5.73
  -3   7  -8   92.59    4.85
  -3   7  -8   78.67    5.59
  -3   7  -8   91.11    4.68
  -3   7  -8   82.39    5.53
  -3   7  -8   82.88    4.64
  -3   7  -8   84.15    5.25
  -4   7  -8    2.30    0.26
  -4   7  -8    2.31    0.20
  -4   7  -8    2.19    0.30
  -4   7  -8    2.41    0.15
  -4   7  -8    1.89    0.36
  -4   7  -8    2.49    0.20
  -5   7  -8    0.61    0.09
  -5   7  -8    0.37    0.15
  -5   7  -8    0.57    0.18
  -5   7  -8    0.54    0.08
  -6   7  -8    4.86    0.41
  -6   7  -8    4.43    0.36
  -6   7  -8    4.65    0.29
  -7   7  -8    0.48    0.11
  -7   7  -8    0.45    0.07
  -7   7  -8    0.38    0.15
  -8   7  -8    0.97    0.13
  -8   7  -8    0.94    0.17
  -9   7  -8    1.36    0.16
  -9   7  -8    1.49    0.19
  -6  -6   8    0.20    0.07
  -6  -6   8    0.16    0.06
  -5  -6   8    0.18    0.09
  -5  -6   8    0.15    0.07
  -5  -6   8    0.13    0.06
  -4  -6   8    3.42    0.24
  -4  -6   8    3.33    0.24
  -4  -6   8    3.35    0.23
  -4  -6   8    3.60    0.21
  -3  -6   8    3.21    0.23
  -3  -6   8    3.50    0.22
  -2  -6   8    4.87    0.30
  -2  -6   8    4.72    0.46
  -1  -6   8    2.05    0.15
  -1   6  -8   -0.10    0.14
  -1   6  -8   -0.03    0.05
  -2   6  -8    8.24    0.50
  -2   6  -8    9.11    0.75
  -2   6  -8    8.48    0.51
  -2   6  -8    8.83    0.65
  -3   6  -8    4.23    0.49
  -3   6  -8    3.98    0.24
  -3   6  -8    4.01    0.33
  -3   6  -8    3.63    0.47
  -3   6  -8    3.82    0.26
  -3   6  -8    3.86    0.26
  -3   6  -8    3.74    0.38
  -3   6  -8    3.62    0.37
  -4   6  -8    0.82    0.24
  -4   6  -8    1.11    0.20
  -4   6  -8    1.38    0.17
  -4   6  -8    0.99    0.29
  -4   6  -8    1.39    0.13
  -4   6  -8    1.50    0.26
  -4   6  -8    1.20    0.21
  -4   6  -8    1.52    0.15
  -5   6  -8    2.76    0.28
  -5   6  -8    2.66    0.31
  -5   6  -8    2.97    0.21
  -5   6  -8    2.62    0.25
  -5   6  -8    1.92    0.30
  -5   6  -8    3.12    0.34
  -5   6  -8    2.83    0.19
  -6   6  -8    4.97    0.49
  -6   6  -8    4.99    0.40
  -6   6  -8    5.68    0.32
  -6   6  -8    5.59    0.45
  -7   6  -8   10.48    0.58
  -7   6  -8   11.36    0.76
  -7   6  -8    9.54    0.71
  -8   6  -8    0.05    0.11
  -8   6  -8    0.04    0.13
  -9   6  -8    5.82    0.41
  -9   6  -8    5.58    0.42
  -7  -5   8    2.11    0.14
  -6  -5   8    0.06    0.06
  -6  -5   8    0.02    0.08
  -6  -5   8    0.08    0.04
  -5  -5   8    0.00    0.07
  -5  -5   8    0.00    0.09
  -5  -5   8    0.11    0.10
  -5  -5   8    0.06    0.06
  -4  -5   8    6.03    0.37
  -4  -5   8    5.76    0.36
  -4  -5   8    5.95    0.37
  -4  -5   8    6.40    0.36
  -3  -5   8    6.01    0.37
  -3  -5   8    6.36    0.53
  -3  -5   8    6.35    0.38
  -2  -5   8    1.54    0.13
  -2  -5   8    1.81    0.26
   0   5  -8   14.65    0.85
  -1   5  -8    0.49    0.25
  -1   5  -8    0.28    0.06
  -2   5  -8    4.07    0.25
  -2   5  -8    4.82    0.38
  -2   5  -8    4.00    0.35
  -2   5  -8    3.78    0.26
  -2   5  -8    4.37    0.46
  -2   5  -8    3.79    0.26
  -2   5  -8    3.81    0.46
  -3   5  -8   47.00    2.95
  -3   5  -8   45.39    2.61
  -3   5  -8   44.20    2.44
  -3   5  -8   47.38    2.76
  -3   5  -8   40.46    2.99
  -3   5  -8   46.90    2.93
  -3   5  -8   43.22    2.53
  -3   5  -8   41.07    2.42
  -4   5  -8   34.62    2.64
  -4   5  -8   31.30    2.17
  -4   5  -8   35.72    2.25
  -4   5  -8   33.74    2.01
  -4   5  -8   32.74    2.28
  -4   5  -8   32.75    2.23
  -4   5  -8   35.16    1.85
  -4   5  -8   33.92    2.09
  -4   5  -8   32.32    1.84
  -5   5  -8    2.21    0.32
  -5   5  -8    2.76    0.34
  -5   5  -8    2.53    0.18
  -5   5  -8    2.44    0.25
  -5   5  -8    3.12    0.30
  -5   5  -8    2.51    0.30
  -6   5  -8    2.28    0.32
  -6   5  -8    2.57    0.29
  -6   5  -8    1.88    0.27
  -6   5  -8    1.94    0.28
  -6   5  -8    1.65    0.24
  -6   5  -8    1.87    0.15
  -7   5  -8    0.55    0.15
  -7   5  -8    0.78    0.16
  -8   5  -8    2.14    0.23
  -8   5  -8    1.89    0.25
  -8   5  -8    2.03    0.25
  -9   5  -8    1.66    0.18
  -9   5  -8    1.63    0.20
  -7  -4   8   11.47    0.76
  -7  -4   8   11.60    0.64
  -7  -4   8   11.09    0.63
  -6  -4   8    2.21    0.20
  -6  -4   8    2.46    0.17
  -6  -4   8    2.21    0.23
  -6  -4   8    2.25    0.16
  -5  -4   8    4.24    0.25
  -5  -4   8    4.04    0.27
  -5  -4   8    4.21    0.27
  -5  -4   8    4.20    0.27
  -4  -4   8   10.66    0.61
  -4  -4   8   10.52    0.60
  -4  -4   8   10.61    0.58
  -4  -4   8    9.43    0.74
  -3  -4   8    6.37    0.69
  -3  -4   8    7.51    0.56
  -3  -4   8    7.67    0.44
  -3  -4   8    8.36    0.58
  -3  -4   8    7.70    0.45
  -2  -4   8    4.93    0.30
   0   4  -8    1.44    0.20
   0   4  -8    1.26    0.24
  -1   4  -8   19.28    1.37
  -1   4  -8   20.74    1.41
  -1   4  -8   20.27    1.30
  -2   4  -8    3.53    0.41
  -2   4  -8    3.83    0.33
  -2   4  -8    3.60    0.34
  -2   4  -8    3.56    0.43
  -3   4  -8    2.74    0.30
  -3   4  -8    2.28    0.16
  -3   4  -8    2.51    0.26
  -3   4  -8    2.24    0.17
  -3   4  -8    2.64    0.29
  -3   4  -8    2.74    0.33
  -3   4  -8    2.70    0.36
  -3   4  -8    2.21    0.24
  -3   4  -8    2.38    0.23
  -4   4  -8    0.32    0.14
  -4   4  -8    0.47    0.20
  -4   4  -8    0.17    0.10
  -4   4  -8    0.23    0.05
  -4   4  -8    0.38    0.16
  -4   4  -8    0.32    0.13
  -4   4  -8    0.52    0.13
  -4   4  -8    0.36    0.06
  -4   4  -8    0.41    0.11
  -4   4  -8    0.27    0.18
  -5   4  -8   57.22    3.71
  -5   4  -8   61.14    4.51
  -5   4  -8   56.21    3.90
  -5   4  -8   55.81    3.14
  -5   4  -8   61.79    3.73
  -5   4  -8   53.67    3.38
  -6   4  -8    2.42    0.32
  -6   4  -8    2.26    0.29
  -6   4  -8    3.10    0.29
  -6   4  -8    2.16    0.30
  -6   4  -8    1.92    0.25
  -7   4  -8    0.75    0.14
  -7   4  -8    0.66    0.15
  -8   4  -8    0.18    0.12
  -8   4  -8    0.08    0.14
  -8   4  -8    0.25    0.13
  -9   4  -8    0.18    0.10
  -8  -3   8    3.47    0.22
  -8  -3   8    3.84    0.27
  -7  -3   8    0.97    0.11
  -7  -3   8    1.11    0.09
  -7  -3   8    1.16    0.14
  -7  -3   8    1.23    0.13
  -6  -3   8    1.15    0.12
  -6  -3   8    1.09    0.13
  -6  -3   8    1.17    0.15
  -5  -3   8    2.89    0.21
  -5  -3   8    2.88    0.20
  -5  -3   8    2.76    0.19
  -5  -3   8    2.55    0.20
  -4  -3   8    0.40    0.06
  -4  -3   8    0.26    0.06
  -4  -3   8    0.18    0.11
  -4  -3   8    0.40    0.19
  -4  -3   8    0.51    0.27
  -4  -3   8    0.40    0.07
  -3  -3   8    0.07    0.10
  -3  -3   8    0.12    0.05
  -3  -3   8    0.17    0.25
  -3  -3   8    0.07    0.15
  -2  -3   8    4.54    0.37
   1   3  -8   31.78    2.06
   1   3  -8   33.82    2.23
   0   3  -8    7.20    0.58
   0   3  -8    7.43    0.54
  -1   3  -8   37.92    2.57
  -1   3  -8   40.45    2.44
  -2   3  -8  218.76   12.50
  -2   3  -8  215.44   14.02
  -2   3  -8  211.24   13.27
  -2   3  -8  228.64   13.92
  -3   3  -8    2.99    0.30
  -3   3  -8    2.81    0.30
  -3   3  -8    2.54    0.17
  -3   3  -8    2.94    0.24
  -3   3  -8    2.59    0.35
  -3   3  -8    2.35    0.18
  -3   3  -8    2.99    0.25
  -3   3  -8    2.94    0.30
  -4   3  -8    8.43    0.49
  -4   3  -8    9.33    0.61
  -4   3  -8    9.69    0.74
  -4   3  -8    8.46    0.68
  -4   3  -8    8.62    0.62
  -4   3  -8    8.53    0.64
  -4   3  -8    8.19    0.60
  -5   3  -8   25.37    1.48
  -5   3  -8   26.68    1.83
  -5   3  -8   28.91    1.78
  -5   3  -8   27.00    1.86
  -5   3  -8   29.00    2.16
  -5   3  -8   26.41    1.65
  -5   3  -8   26.95    1.77
  -6   3  -8    1.27    0.18
  -6   3  -8    1.13    0.16
  -6   3  -8    0.50    0.22
  -6   3  -8    1.54    0.19
  -6   3  -8    1.25    0.20
  -7   3  -8    0.52    0.14
  -7   3  -8    0.49    0.16
  -7   3  -8    0.27    0.15
  -7   3  -8    0.59    0.15
  -8   3  -8    3.60    0.31
  -8   3  -8    3.12    0.29
  -8   3  -8    3.26    0.30
  -9   3  -8    2.67    0.24
  -8  -2   8    0.12    0.09
  -8  -2   8    0.05    0.06
  -7  -2   8    7.16    0.42
  -7  -2   8    7.13    0.52
  -7  -2   8    7.51    0.42
  -7  -2   8    7.53    0.43
  -6  -2   8   -0.03    0.09
  -6  -2   8    0.04    0.06
  -6  -2   8   -0.07    0.08
  -6  -2   8    0.01    0.08
  -5  -2   8   36.69    1.95
  -5  -2   8   35.02    2.19
  -5  -2   8   33.52    2.23
  -5  -2   8   35.73    2.03
  -5  -2   8   39.50    1.96
  -5  -2   8   37.12    1.91
  -5  -2   8   29.98    2.42
  -4  -2   8    1.96    0.15
  -4  -2   8    1.83    0.24
  -4  -2   8    1.40    0.21
  -4  -2   8    1.75    0.14
  -4  -2   8    1.46    0.30
  -3  -2   8    0.48    0.23
  -3  -2   8    0.97    0.16
  -3  -2   8    0.66    0.14
   2   2  -8   14.83    1.06
  -2  -2   8   15.98    0.97
   1   2  -8   60.69    3.55
   1   2  -8   56.59    3.47
   1   2  -8   47.75    3.63
  -1  -2   8   49.10    3.64
   0   2  -8    1.68    0.21
   0   2  -8    1.63    0.24
   0   2  -8    1.41    0.23
  -1   2  -8    0.72    0.15
  -1   2  -8    0.55    0.17
  -1   2  -8    0.60    0.20
  -2   2  -8    3.74    0.31
  -2   2  -8    4.31    0.39
  -2   2  -8    3.90    0.36
  -3   2  -8    5.53    0.40
  -3   2  -8    5.67    0.49
  -3   2  -8    6.26    0.44
  -3   2  -8    6.06    0.37
  -3   2  -8    5.12    0.36
  -3   2  -8    5.64    0.41
  -4   2  -8    8.83    0.62
  -4   2  -8    9.73    0.70
  -4   2  -8    9.42    0.61
  -4   2  -8    9.54    0.61
  -4   2  -8    8.35    0.64
  -4   2  -8    9.43    0.75
  -4   2  -8    8.48    0.49
  -4   2  -8    7.82    0.49
  -4   2  -8    8.45    0.54
  -5   2  -8    1.38    0.17
  -5   2  -8    1.25    0.26
  -5   2  -8    1.55    0.18
  -5   2  -8    0.99    0.11
  -5   2  -8    1.09    0.12
  -5   2  -8    0.75    0.22
  -5   2  -8    1.32    0.16
  -6   2  -8   12.16    0.71
  -6   2  -8   12.67    1.05
  -6   2  -8   12.01    0.91
  -6   2  -8   13.36    0.87
  -6   2  -8   13.66    0.87
  -7   2  -8    2.65    0.27
  -7   2  -8    2.24    0.25
  -7   2  -8    1.96    0.19
  -7   2  -8    1.86    0.27
  -7   2  -8    2.41    0.27
  -8   2  -8    0.12    0.12
  -8   2  -8    0.12    0.11
  -8   2  -8    0.01    0.12
  -9  -1   8    0.15    0.07
  -9  -1   8    0.10    0.04
  -8  -1   8   10.84    0.69
  -8  -1   8    9.31    0.57
  -7  -1   8   -0.02    0.09
  -7  -1   8    0.05    0.06
  -7  -1   8    0.08    0.08
  -6  -1   8   40.93    2.86
  -6  -1   8   47.45    2.57
  -6  -1   8   50.32    2.59
  -6  -1   8   48.71    2.68
  -5  -1   8    2.42    0.30
  -5  -1   8    2.34    0.28
  -5  -1   8    2.31    0.18
  -5  -1   8    2.18    0.17
  -5  -1   8    2.42    0.17
  -5  -1   8    1.74    0.35
  -4  -1   8    8.64    0.60
  -4  -1   8    8.44    0.49
  -4  -1   8    9.02    0.74
  -4  -1   8    8.70    0.58
  -4  -1   8    7.88    0.50
  -3  -1   8   12.02    0.98
  -3  -1   8   13.76    0.87
  -3  -1   8   13.46    0.84
   2   1  -8   76.37    4.80
   2   1  -8   76.94    5.11
   2   1  -8   81.56    5.01
  -2  -1   8   77.86    4.66
   1   1  -8   22.68    1.40
   1   1  -8   23.76    1.52
   1   1  -8   19.22    1.57
   1   1  -8   25.56    1.47
  -1  -1   8   17.89    1.57
   0   1  -8   17.29    1.15
   0   1  -8   16.39    1.09
   0   1  -8   17.24    1.19
  -1   1  -8    7.37    0.55
  -1   1  -8    8.09    0.61
  -1   1  -8    8.46    0.55
  -1   1  -8    8.60    0.62
  -2   1  -8   15.77    0.94
  -2   1  -8   14.10    1.04
  -3   1  -8   29.40    2.01
  -3   1  -8   27.35    1.91
  -3   1  -8   33.11    1.97
  -3   1  -8   31.83    2.33
  -3   1  -8   26.67    1.61
  -4   1  -8   20.92    1.55
  -4   1  -8   19.00    1.34
  -4   1  -8   20.35    1.34
  -4   1  -8   19.01    1.27
  -4   1  -8   18.39    1.15
  -4   1  -8   19.03    1.27
  -5   1  -8    6.03    0.39
  -5   1  -8    6.70    0.49
  -5   1  -8    7.13    0.52
  -5   1  -8    6.08    0.58
  -5   1  -8    6.51    0.43
  -5   1  -8    6.36    0.39
  -5   1  -8    7.44    0.60
  -5   1  -8    6.85    0.48
  -6   1  -8   23.16    1.34
  -6   1  -8   25.08    1.63
  -6   1  -8   24.68    1.38
  -6   1  -8   24.84    1.70
  -6   1  -8   24.96    1.62
  -6   1  -8   24.77    1.47
  -6   1  -8   26.30    1.97
  -7   1  -8    0.29    0.12
  -7   1  -8    0.23    0.09
  -7   1  -8    0.14    0.13
  -7   1  -8    0.20    0.09
  -7   1  -8    0.14    0.12
  -7   1  -8    0.19    0.15
  -7   1  -8    0.25    0.10
  -9   0   8    7.21    0.41
  -9   0   8    7.29    0.50
  -8   0   8    0.13    0.08
  -8   0   8    0.01    0.10
  -8   0   8    0.07    0.05
  -7   0   8   17.30    1.17
  -7   0   8   17.30    0.98
  -7   0   8   18.22    0.98
  -6   0   8    0.88    0.22
  -6   0   8    0.52    0.07
  -6   0   8    0.52    0.08
  -6   0   8    0.38    0.18
  -6   0   8    0.75    0.10
  -5   0   8    5.17    0.41
  -5   0   8    5.22    0.32
  -5   0   8    6.05    0.67
  -5   0   8    5.09    0.32
  -5   0   8    5.17    0.44
  -4   0   8    0.93    0.14
  -4   0   8    0.60    0.07
  -4   0   8    0.43    0.12
  -4   0   8    0.66    0.26
   2   0  -8   14.43    0.93
   2   0  -8   13.63    1.04
   2   0  -8   13.84    0.95
   1   0  -8   25.49    1.69
   1   0  -8   27.91    1.62
   1   0  -8   22.67    1.80
   1   0  -8   26.30    1.75
   0   0  -8   17.84    1.12
   0   0  -8   17.71    1.19
   0   0  -8   17.20    1.22
  -1   0  -8    0.20    0.15
  -1   0  -8    0.09    0.11
  -1   0  -8    0.06    0.11
  -1   0  -8   -0.02    0.14
  -2   0  -8    5.41    0.45
  -2   0  -8    4.79    0.39
  -2   0  -8    5.44    0.34
  -2   0  -8    4.82    0.37
  -2   0  -8    4.67    0.32
  -3   0  -8    0.40    0.13
  -3   0  -8    0.55    0.11
  -3   0  -8    0.41    0.18
  -3   0  -8    0.38    0.05
  -3   0  -8    0.38    0.13
  -3   0  -8    0.50    0.09
  -3   0  -8    0.55    0.13
  -4   0  -8   12.25    0.76
  -4   0  -8   11.39    0.84
  -4   0  -8   12.70    0.93
  -4   0  -8   14.01    1.03
  -4   0  -8   11.73    0.71
  -4   0  -8   13.01    0.84
  -4   0  -8   12.73    0.89
  -5   0  -8    3.75    0.34
  -5   0  -8    4.27    0.27
  -5   0  -8    4.30    0.31
  -5   0  -8    4.34    0.34
  -5   0  -8    4.99    0.44
  -5   0  -8    3.24    0.48
  -5   0  -8    4.08    0.38
  -6   0  -8    0.04    0.11
  -6   0  -8    0.05    0.13
  -6   0  -8    0.03    0.08
  -6   0  -8    0.15    0.17
  -6   0  -8    0.04    0.08
  -6   0  -8   -0.14    0.12
  -6   0  -8    0.02    0.11
  -7   0  -8    4.22    0.37
  -7   0  -8    4.42    0.28
  -7   0  -8    4.11    0.42
  -7   0  -8    4.71    0.28
  -7   0  -8    4.72    0.32
  -9   1   8    5.54    0.32
  -9   1   8    5.17    0.39
  -8   1   8    0.28    0.11
  -8   1   8    0.50    0.09
  -8   1   8    0.50    0.07
  -7   1   8    0.42    0.09
  -7   1   8    0.52    0.11
  -7   1   8    0.40    0.11
  -7   1   8    0.53    0.09
  -6   1   8    0.00    0.06
  -6   1   8    0.03    0.29
  -6   1   8    0.08    0.08
  -6   1   8    0.20    0.18
  -6   1   8   -0.08    0.10
  -6   1   8    0.00    0.08
  -5   1   8   -0.01    0.08
  -5   1   8   -0.01    0.06
  -5   1   8   -0.25    0.28
  -5   1   8    0.12    0.17
  -4   1   8    1.89    0.16
  -4   1   8    1.91    0.35
  -4   1   8    2.43    0.31
   2  -1  -8    0.08    0.18
   2  -1  -8    0.13    0.13
   1  -1  -8   -0.05    0.14
   1  -1  -8    0.02    0.14
   1  -1  -8   -0.03    0.21
   0  -1  -8    0.40    0.15
   0  -1  -8    0.40    0.14
   0  -1  -8    0.78    0.21
  -1  -1  -8    5.56    0.45
  -1  -1  -8    5.63    0.40
  -1  -1  -8    5.85    0.48
  -1  -1  -8    5.41    0.47
  -2  -1  -8    2.09    0.25
  -2  -1  -8    2.17    0.17
  -2  -1  -8    1.94    0.18
  -2  -1  -8    1.73    0.19
  -2  -1  -8    2.20    0.21
  -2  -1  -8    1.79    0.15
  -2  -1  -8    2.31    0.25
  -2  -1  -8    1.93    0.14
  -2  -1  -8    2.10    0.24
  -2  -1  -8    1.70    0.25
  -3  -1  -8    9.43    0.56
  -3  -1  -8    9.70    0.53
  -3  -1  -8    9.53    0.70
  -3  -1  -8    9.74    0.70
  -3  -1  -8    9.63    0.75
  -3  -1  -8    9.86    0.60
  -3  -1  -8    9.44    0.66
  -3  -1  -8   10.10    0.81
  -4  -1  -8    2.08    0.20
  -4  -1  -8    2.11    0.26
  -4  -1  -8    2.03    0.29
  -4  -1  -8    1.88    0.22
  -4  -1  -8    2.46    0.36
  -4  -1  -8    1.96    0.17
  -4  -1  -8    1.41    0.23
  -5  -1  -8    8.73    0.71
  -5  -1  -8    8.36    0.52
  -5  -1  -8    7.54    0.60
  -5  -1  -8    7.93    0.46
  -5  -1  -8    8.00    0.48
  -6  -1  -8    0.63    0.11
  -6  -1  -8    0.41    0.18
  -6  -1  -8    0.53    0.12
  -6  -1  -8    0.32    0.09
  -7  -1  -8    5.24    0.34
  -7  -1  -8    4.77    0.30
  -7  -1  -8    5.01    0.31
  -9   2   8    0.00    0.07
  -9   2   8    0.00    0.08
  -8   2   8   10.60    0.59
  -8   2   8   10.37    0.71
  -8   2   8   10.20    0.60
  -8   2   8   10.39    0.70
  -7   2   8    4.54    0.30
  -7   2   8    4.64    0.30
  -7   2   8    4.37    0.28
  -7   2   8    4.56    0.35
  -6   2   8    0.46    0.17
  -6   2   8    0.64    0.34
  -6   2   8    0.79    0.12
  -6   2   8    0.62    0.08
  -6   2   8    0.59    0.09
  -5   2   8    0.72    0.09
  -5   2   8    0.92    0.22
  -5   2   8    0.96    0.11
  -5   2   8    0.75    0.33
  -4   2   8    1.69    0.15
   2  -2  -8    1.62    0.21
   2  -2  -8    1.42    0.29
   2  -2  -8    1.94    0.24
   1  -2  -8    2.27    0.28
   1  -2  -8    2.31    0.30
   1  -2  -8    2.72    0.36
   0  -2  -8   17.70    1.25
   0  -2  -8   17.60    1.22
   0  -2  -8   17.75    1.14
   0  -2  -8   18.06    1.21
  -1  -2  -8    2.59    0.31
  -1  -2  -8    2.30    0.23
  -1  -2  -8    2.40    0.32
  -1  -2  -8    2.45    0.27
  -1  -2  -8    1.99    0.16
  -1  -2  -8    2.45    0.18
  -1  -2  -8    2.40    0.20
  -1  -2  -8    2.41    0.29
  -1  -2  -8    2.25    0.16
  -2  -2  -8   41.48    2.99
  -2  -2  -8   39.48    2.52
  -2  -2  -8   35.96    2.58
  -2  -2  -8   36.61    2.07
  -2  -2  -8   38.33    2.51
  -2  -2  -8   37.63    2.11
  -2  -2  -8   37.31    2.23
  -3  -2  -8   14.40    0.86
  -3  -2  -8   15.58    1.09
  -3  -2  -8   16.48    1.26
  -3  -2  -8   16.10    0.94
  -3  -2  -8   15.32    1.09
  -3  -2  -8   15.24    0.85
  -3  -2  -8   15.90    0.88
  -4  -2  -8   28.46    2.07
  -4  -2  -8   21.79    1.74
  -4  -2  -8   26.98    1.46
  -4  -2  -8   25.82    1.41
  -4  -2  -8   26.65    1.54
  -5  -2  -8   -0.11    0.18
  -5  -2  -8   -0.01    0.09
  -5  -2  -8    0.10    0.08
  -5  -2  -8    0.10    0.10
  -6  -2  -8    3.21    0.23
  -6  -2  -8    3.18    0.26
  -6  -2  -8    2.87    0.21
  -7  -2  -8    0.49    0.09
  -7  -2  -8    0.41    0.07
  -9   3   8    9.54    0.70
  -9   3   8   10.62    0.70
  -9   3   8   11.32    0.60
  -8   3   8   16.93    0.95
  -8   3   8   17.26    0.95
  -8   3   8   16.98    1.12
  -8   3   8   16.83    1.12
  -7   3   8   15.89    1.08
  -7   3   8   16.04    0.95
  -7   3   8   17.20    0.93
  -6   3   8    4.97    0.31
  -6   3   8    4.60    0.35
  -6   3   8    4.19    0.44
  -6   3   8    4.60    0.30
  -5   3   8    0.96    0.10
   3  -3  -8    2.94    0.21
   2  -3  -8    0.17    0.26
   2  -3  -8    0.20    0.17
   2  -3  -8    0.26    0.06
   1  -3  -8    5.00    0.42
   1  -3  -8    5.21    0.44
   1  -3  -8    5.12    0.46
   1  -3  -8    5.11    0.54
   1  -3  -8    4.43    0.30
   1  -3  -8    4.67    0.29
   0  -3  -8   10.40    0.63
   0  -3  -8   10.87    0.62
   0  -3  -8   10.95    0.62
   0  -3  -8   12.40    0.83
   0  -3  -8   10.92    0.85
   0  -3  -8   11.81    0.81
   0  -3  -8   10.02    0.66
   0  -3  -8   11.61    0.75
  -1  -3  -8    7.54    0.44
  -1  -3  -8    7.93    0.65
  -1  -3  -8    7.19    0.48
  -1  -3  -8    8.21    0.61
  -1  -3  -8    7.34    0.43
  -1  -3  -8    7.70    0.53
  -1  -3  -8    7.84    0.45
  -1  -3  -8    7.40    0.62
  -2  -3  -8    2.52    0.17
  -2  -3  -8    2.35    0.21
  -2  -3  -8    2.26    0.33
  -2  -3  -8    2.12    0.17
  -2  -3  -8    2.39    0.19
  -2  -3  -8    2.57    0.30
  -3  -3  -8    3.30    0.23
  -3  -3  -8    3.49    0.39
  -3  -3  -8    3.40    0.28
  -3  -3  -8    3.45    0.40
  -3  -3  -8    3.57    0.21
  -3  -3  -8    3.68    0.26
  -4  -3  -8   16.08    1.00
  -4  -3  -8   16.97    1.35
  -4  -3  -8   17.04    0.94
  -4  -3  -8   16.33    0.91
  -5  -3  -8   45.29    2.46
  -5  -3  -8   45.55    2.53
  -5  -3  -8   45.97    2.67
  -6  -3  -8    2.48    0.18
  -6  -3  -8    2.82    0.20
  -6  -3  -8    2.64    0.24
  -9   4   8    4.96    0.35
  -9   4   8    4.34    0.26
  -9   4   8    4.35    0.29
  -8   4   8   11.17    0.65
  -8   4   8   11.16    0.64
  -8   4   8   11.54    0.77
  -7   4   8   43.63    2.42
  -7   4   8   41.01    2.34
  -6   4   8    0.02    0.08
  -6   4   8    0.04    0.10
  -6   4   8    0.25    0.19
  -5   4   8    3.28    0.23
   3  -4  -8    2.07    0.17
   2  -4  -8   25.98    1.56
   2  -4  -8   26.89    1.51
   2  -4  -8   28.30    1.92
   2  -4  -8   27.91    1.83
   1  -4  -8    0.00    0.07
   1  -4  -8    0.27    0.28
   1  -4  -8   -0.07    0.05
   1  -4  -8    0.08    0.21
   1  -4  -8   -0.03    0.16
   1  -4  -8   -0.12    0.08
   0  -4  -8    4.96    0.36
   0  -4  -8    6.12    0.52
   0  -4  -8    6.06    0.45
   0  -4  -8    5.60    0.34
   0  -4  -8    5.32    0.56
   0  -4  -8    6.03    0.52
   0  -4  -8    5.53    0.33
   0  -4  -8    5.76    0.35
   0  -4  -8    6.01    0.35
  -1  -4  -8   22.20    1.32
  -1  -4  -8   25.89    1.35
  -1  -4  -8   24.34    1.67
  -1  -4  -8   23.76    1.44
  -1  -4  -8   21.40    1.65
  -1  -4  -8   25.92    1.34
  -1  -4  -8   24.77    1.37
  -1  -4  -8   26.29    1.94
  -2  -4  -8   13.55    0.77
  -2  -4  -8   12.94    0.74
  -2  -4  -8   13.76    0.74
  -2  -4  -8   12.18    0.98
  -2  -4  -8   15.04    1.10
  -2  -4  -8   12.44    0.81
  -3  -4  -8    0.46    0.10
  -3  -4  -8    0.60    0.06
  -3  -4  -8    0.58    0.10
  -3  -4  -8    0.55    0.12
  -4  -4  -8    8.43    0.49
  -4  -4  -8    8.44    0.51
  -4  -4  -8    8.64    0.55
  -5  -4  -8    2.92    0.22
  -5  -4  -8    3.05    0.26
  -5  -4  -8    3.03    0.20
  -6  -4  -8    7.69    0.44
  -9   5   8    1.16    0.10
  -9   5   8    1.39    0.17
  -9   5   8    1.25    0.15
  -8   5   8    0.78    0.10
  -8   5   8    0.87    0.13
  -8   5   8    0.70    0.12
  -7   5   8    0.02    0.10
  -6   5   8    3.69    0.26
  -6   5   8    3.67    0.29
  -5   5   8    0.31    0.10
   4  -5  -8    0.56    0.09
   3  -5  -8   -0.24    0.23
   3  -5  -8    0.13    0.07
   2  -5  -8    0.87    0.26
   2  -5  -8    0.54    0.08
   2  -5  -8    0.91    0.36
   2  -5  -8    0.67    0.10
   1  -5  -8   16.85    0.95
   1  -5  -8   16.34    1.13
   1  -5  -8   17.70    0.95
   1  -5  -8   16.68    0.98
   1  -5  -8   17.30    1.22
   1  -5  -8   15.71    1.27
   1  -5  -8   17.99    0.96
   0  -5  -8   12.35    1.02
   0  -5  -8   12.22    0.73
   0  -5  -8   13.80    0.75
   0  -5  -8   13.97    0.76
   0  -5  -8   13.40    0.98
   0  -5  -8   12.89    0.89
   0  -5  -8   13.51    0.75
  -1  -5  -8   13.87    0.72
  -1  -5  -8   12.25    0.78
  -1  -5  -8   12.30    0.71
  -1  -5  -8   13.75    0.74
  -1  -5  -8   11.55    0.94
  -2  -5  -8    0.18    0.09
  -2  -5  -8    0.23    0.07
  -2  -5  -8    0.19    0.11
  -2  -5  -8    0.07    0.10
  -3  -5  -8    0.37    0.10
  -3  -5  -8    0.39    0.10
  -3  -5  -8    0.42    0.11
  -3  -5  -8    0.39    0.06
  -4  -5  -8    0.82    0.13
  -4  -5  -8    0.83    0.10
  -4  -5  -8    0.76    0.11
  -5  -5  -8   11.95    0.68
  -5  -5  -8   12.96    0.70
  -9   6   8    2.29    0.15
  -9   6   8    2.61    0.19
  -9   6   8    2.66    0.21
  -8   6   8    2.39    0.19
  -8   6   8    2.10    0.22
  -7   6   8    8.19    0.49
  -6   6   8    2.69    0.22
   5  -6  -8    5.54    0.37
  -5   6   8    6.17    0.38
   4  -6  -8    0.21    0.26
   3  -6  -8   56.11    3.06
   3  -6  -8   60.60    3.18
   3  -6  -8   49.54    3.65
   2  -6  -8    0.78    0.11
   2  -6  -8    0.81    0.09
   2  -6  -8    0.45    0.25
   2  -6  -8    0.83    0.11
   1  -6  -8    0.05    0.08
   1  -6  -8   -0.02    0.08
   1  -6  -8    0.15    0.05
   1  -6  -8   -0.05    0.09
   1  -6  -8   -0.05    0.24
   0  -6  -8    1.59    0.17
   0  -6  -8    1.73    0.16
   0  -6  -8    1.52    0.17
  -1  -6  -8    4.54    0.28
  -1  -6  -8    4.15    0.25
  -1  -6  -8    4.36    0.28
  -1  -6  -8    4.18    0.30
  -2  -6  -8    2.45    0.20
  -2  -6  -8    2.17    0.20
  -2  -6  -8    2.23    0.21
  -2  -6  -8    2.25    0.16
  -3  -6  -8    9.84    0.55
  -3  -6  -8    8.68    0.58
  -3  -6  -8    9.92    0.53
  -4  -6  -8    1.77    0.13
  -4  -6  -8    1.78    0.14
  -8   7   8    0.31    0.08
  -8   7   8    0.44    0.10
  -7   7   8    4.68    0.36
  -7   7   8    5.05    0.29
  -7   7   8    4.14    0.31
   5  -7  -8    2.40    0.20
   4  -7  -8   21.17    1.22
   3  -7  -8    7.06    0.43
   3  -7  -8    7.22    0.44
   3  -7  -8    7.26    0.44
   2  -7  -8    3.98    0.27
   2  -7  -8    4.10    0.25
   2  -7  -8    3.57    0.27
   1  -7  -8    1.26    0.16
   1  -7  -8    1.21    0.15
   1  -7  -8    1.29    0.13
   0  -7  -8    3.03    0.22
   0  -7  -8    3.24    0.23
   0  -7  -8    3.13    0.19
   0  -7  -8    2.80    0.23
  -1  -7  -8    0.89    0.11
  -1  -7  -8    1.03    0.11
  -1  -7  -8    1.10    0.13
  -2  -7  -8    0.57    0.06
  -2  -7  -8    0.68    0.09
  -2  -7  -8    0.59    0.09
  -3  -7  -8    4.19    0.26
   7  -8  -8    1.24    0.14
  -7   8   8    1.03    0.11
  -7   8   8    1.12    0.14
   6  -8  -8    4.81    0.29
  -6   8   8    4.20    0.28
  -6   8   8    4.03    0.32
   5  -8  -8    8.16    0.47
  -5   8   8    7.27    0.47
   4  -8  -8    1.81    0.20
   4  -8  -8    2.06    0.17
   3  -8  -8    3.71    0.22
   3  -8  -8    2.79    0.22
   2  -8  -8    0.25    0.08
   2  -8  -8    0.38    0.09
   2  -8  -8    0.39    0.09
   1  -8  -8    7.43    0.41
   1  -8  -8    7.63    0.41
   1  -8  -8    6.87    0.42
   1  -8  -8    6.49    0.42
   0  -8  -8    1.31    0.13
   0  -8  -8    1.03    0.13
   0  -8  -8    1.13    0.14
  -1  -8  -8    1.06    0.11
  -1  -8  -8    0.87    0.10
  -1  -8  -8    1.21    0.11
   6  -9  -8   -0.04    0.05
  -6   9   8    0.00    0.05
   5  -9  -8    0.62    0.07
  -5   9   8    0.34    0.07
   4  -9  -8   11.12    0.62
   4  -9  -8   10.16    0.60
   3  -9  -8    1.16    0.11
   3  -9  -8    1.25    0.11
   2  -9  -8    1.13    0.13
   2  -9  -8    1.55    0.11
   2  -9  -8    1.63    0.12
   1  -9  -8    5.10    0.28
   1  -9  -8    4.56    0.29
  -3  11  -9   -0.02    0.06
  -3  11  -9   -0.06    0.09
  -4  11  -9    1.79    0.14
  -1 -10   9    3.72    0.23
   0  10  -9    0.14    0.07
   0 -10   9    0.29    0.06
  -1  10  -9   -0.04    0.06
   1 -10   9   -0.01    0.05
  -2  10  -9    3.88    0.30
  -2  10  -9    4.61    0.28
  -3  10  -9    0.72    0.07
  -3  10  -9    0.74    0.10
  -4  10  -9    0.73    0.09
  -4  10  -9    0.72    0.15
  -5  10  -9    3.92    0.25
  -5  10  -9    4.08    0.26
  -5  10  -9    4.15    0.33
  -6  10  -9    1.29    0.13
  -6  10  -9    1.37    0.18
  -2  -9   9    3.71    0.24
  -2  -9   9    4.23    0.25
  -1  -9   9    9.71    0.57
   0   9  -9    4.28    0.30
   0  -9   9    4.94    0.30
  -1   9  -9    5.06    0.32
   1  -9   9    5.02    0.32
  -2   9  -9    0.07    0.06
  -2   9  -9    0.06    0.12
  -3   9  -9    0.04    0.06
  -3   9  -9    0.09    0.10
  -4   9  -9    7.17    0.41
  -4   9  -9    6.03    0.59
  -4   9  -9    6.98    0.50
  -5   9  -9    8.26    0.79
  -5   9  -9    9.18    0.55
  -5   9  -9   11.03    0.56
  -5   9  -9   10.06    0.70
  -6   9  -9    2.61    0.25
  -6   9  -9    2.18    0.18
  -7   9  -9    5.41    0.33
  -7   9  -9    6.04    0.43
  -4  -8   9    6.89    0.38
  -4  -8   9    6.71    0.38
  -3  -8   9   -0.02    0.07
  -3  -8   9   -0.06    0.05
  -2  -8   9   17.41    0.98
  -2  -8   9   16.40    0.95
  -1  -8   9    0.42    0.07
   0   8  -9    0.09    0.07
   0  -8   9    0.13    0.05
  -1   8  -9   21.31    1.23
  -2   8  -9    0.21    0.11
  -2   8  -9    0.13    0.07
  -3   8  -9    0.79    0.12
  -3   8  -9    0.88    0.11
  -4   8  -9    0.10    0.10
  -4   8  -9    0.01    0.12
  -4   8  -9    0.03    0.08
  -4   8  -9    0.01    0.16
  -5   8  -9    0.56    0.14
  -5   8  -9    0.44    0.17
  -5   8  -9    0.36    0.08
  -5   8  -9    0.54    0.09
  -6   8  -9    4.80    0.29
  -6   8  -9    4.58    0.39
  -7   8  -9    1.50    0.21
  -7   8  -9    1.56    0.13
  -8   8  -9    2.05    0.22
  -5  -7   9    3.70    0.22
  -5  -7   9    3.70    0.22
  -4  -7   9    1.84    0.16
  -4  -7   9    1.63    0.14
  -3  -7   9    2.90    0.21
  -3  -7   9    2.98    0.20
  -3  -7   9    3.28    0.22
  -2  -7   9    4.67    0.29
  -1  -7   9   15.51    0.90
   0   7  -9   20.30    1.18
  -1   7  -9   21.41    1.24
  -2   7  -9    0.23    0.19
  -2   7  -9    0.41    0.27
  -2   7  -9    0.48    0.07
  -2   7  -9    0.64    0.11
  -3   7  -9    4.11    0.25
  -3   7  -9    3.27    0.32
  -3   7  -9    4.08    0.27
  -3   7  -9    3.61    0.50
  -3   7  -9    3.97    0.27
  -4   7  -9    3.20    0.44
  -4   7  -9    3.02    0.22
  -4   7  -9    2.65    0.36
  -4   7  -9    2.78    0.29
  -4   7  -9    3.09    0.22
  -5   7  -9    3.31    0.22
  -5   7  -9    3.45    0.24
  -5   7  -9    3.19    0.32
  -5   7  -9    3.21    0.37
  -6   7  -9    0.83    0.17
  -6   7  -9    0.81    0.09
  -6   7  -9    0.75    0.13
  -6   7  -9    0.48    0.15
  -7   7  -9    2.12    0.25
  -7   7  -9    1.64    0.20
  -7   7  -9    1.83    0.13
  -8   7  -9    0.35    0.13
  -8   7  -9    0.48    0.11
  -6  -6   9    2.61    0.17
  -6  -6   9    2.90    0.18
  -5  -6   9    0.68    0.09
  -5  -6   9    1.12    0.11
  -5  -6   9    1.17    0.14
  -4  -6   9    0.59    0.06
  -4  -6   9    0.49    0.10
  -4  -6   9    0.55    0.08
  -3  -6   9   11.39    0.65
  -3  -6   9   11.27    0.66
  -2  -6   9    5.97    0.52
  -2  -6   9    6.29    0.38
  -1  -6   9    0.09    0.05
   0   6  -9   43.32    2.48
  -1   6  -9    5.52    0.35
  -1   6  -9    5.81    0.35
  -1   6  -9    5.46    0.51
  -2   6  -9    0.25    0.09
  -2   6  -9    0.40    0.20
  -2   6  -9    0.09    0.16
  -2   6  -9    0.20    0.06
  -2   6  -9    0.35    0.10
  -2   6  -9    0.35    0.24
  -3   6  -9    1.01    0.31
  -3   6  -9    1.67    0.33
  -3   6  -9    1.19    0.15
  -3   6  -9    1.21    0.14
  -3   6  -9    0.83    0.21
  -3   6  -9    0.90    0.15
  -3   6  -9    1.16    0.10
  -4   6  -9   16.82    1.19
  -4   6  -9   17.71    1.13
  -4   6  -9   14.11    1.19
  -4   6  -9   15.18    1.06
  -4   6  -9   17.67    0.91
  -4   6  -9   16.82    0.91
  -4   6  -9   14.68    1.04
  -4   6  -9   15.78    1.32
  -5   6  -9    2.20    0.17
  -5   6  -9    2.05    0.14
  -5   6  -9    1.90    0.31
  -5   6  -9    1.85    0.28
  -5   6  -9    1.90    0.22
  -5   6  -9    1.78    0.30
  -6   6  -9   32.14    2.08
  -6   6  -9   31.15    1.67
  -6   6  -9   26.98    2.40
  -6   6  -9   31.51    1.98
  -7   6  -9    6.82    0.48
  -7   6  -9    6.51    0.52
  -8   6  -9    4.81    0.38
  -8   6  -9    5.31    0.41
  -9   6  -9   -0.01    0.08
  -6  -5   9    0.09    0.07
  -6  -5   9    0.11    0.07
  -6  -5   9    0.04    0.05
  -5  -5   9    0.28    0.09
  -5  -5   9    0.29    0.08
  -5  -5   9    0.30    0.07
  -5  -5   9    0.33    0.10
  -4  -5   9    0.05    0.06
  -4  -5   9    0.02    0.09
  -4  -5   9    0.04    0.06
  -3  -5   9    0.61    0.08
  -3  -5   9    0.44    0.21
  -3  -5   9    0.55    0.09
  -2  -5   9    2.88    0.20
  -2  -5   9    3.08    0.35
   0   5  -9    2.09    0.16
  -1   5  -9   14.14    0.79
  -1   5  -9   13.66    1.06
  -1   5  -9   14.44    0.96
  -1   5  -9   12.87    0.81
  -1   5  -9   15.08    1.03
  -2   5  -9    0.03    0.10
  -2   5  -9   -0.02    0.07
  -2   5  -9    0.01    0.16
  -2   5  -9   -0.02    0.05
  -2   5  -9    0.09    0.23
  -2   5  -9    0.04    0.22
  -2   5  -9    0.02    0.06
  -3   5  -9    2.06    0.28
  -3   5  -9    2.51    0.31
  -3   5  -9    2.28    0.18
  -3   5  -9    2.50    0.30
  -3   5  -9    2.05    0.25
  -3   5  -9    2.35    0.14
  -3   5  -9    2.13    0.17
  -3   5  -9    1.99    0.22
  -3   5  -9    2.81    0.37
  -3   5  -9    2.17    0.32
  -4   5  -9    1.60    0.30
  -4   5  -9    1.22    0.24
  -4   5  -9    1.39    0.18
  -4   5  -9    1.22    0.21
  -4   5  -9    1.32    0.12
  -4   5  -9    1.39    0.14
  -4   5  -9    1.12    0.23
  -4   5  -9    1.21    0.15
  -4   5  -9    1.33    0.19
  -5   5  -9   35.23    2.43
  -5   5  -9   32.04    2.14
  -5   5  -9   33.86    1.95
  -5   5  -9   37.92    2.31
  -5   5  -9   38.93    2.82
  -6   5  -9    4.26    0.27
  -6   5  -9    4.38    0.37
  -6   5  -9    5.04    0.40
  -6   5  -9    4.64    0.44
  -7   5  -9    0.02    0.12
  -7   5  -9    0.02    0.12
  -8   5  -9    0.15    0.14
  -8   5  -9    0.09    0.12
  -9   5  -9    3.01    0.24
  -7  -4   9    0.34    0.06
  -7  -4   9    0.36    0.07
  -7  -4   9    0.47    0.08
  -6  -4   9   12.72    0.69
  -6  -4   9   12.15    0.68
  -6  -4   9   12.09    0.83
  -5  -4   9    0.00    0.08
  -5  -4   9    0.06    0.07
  -5  -4   9   -0.06    0.09
  -5  -4   9   -0.04    0.05
  -4  -4   9    9.69    0.55
  -4  -4   9    9.48    0.54
  -4  -4   9    9.08    0.53
  -4  -4   9    8.72    0.68
  -3  -4   9    0.01    0.05
  -3  -4   9    0.11    0.18
  -2  -4   9    2.60    0.19
  -2  -4   9    3.11    0.31
   1   4  -9    6.73    0.41
   0   4  -9    2.13    0.29
   0   4  -9    2.56    0.39
   0   4  -9    1.41    0.22
   0   4  -9    1.55    0.14
  -1   4  -9    1.20    0.25
  -1   4  -9    1.33    0.15
  -1   4  -9    1.63    0.13
  -1   4  -9    1.73    0.24
  -1   4  -9    1.52    0.28
  -2   4  -9   20.06    1.27
  -2   4  -9   17.56    1.09
  -2   4  -9   20.07    1.13
  -2   4  -9   21.71    1.38
  -2   4  -9   19.57    1.38
  -2   4  -9   19.71    1.09
  -3   4  -9    0.02    0.18
  -3   4  -9    0.03    0.12
  -3   4  -9    0.02    0.20
  -3   4  -9   -0.04    0.16
  -3   4  -9    0.07    0.07
  -3   4  -9    0.12    0.06
  -3   4  -9    0.03    0.10
  -3   4  -9    0.04    0.15
  -3   4  -9    0.06    0.13
  -4   4  -9    1.58    0.29
  -4   4  -9    1.95    0.29
  -4   4  -9    1.91    0.26
  -4   4  -9    2.35    0.23
  -4   4  -9    2.40    0.25
  -4   4  -9    2.20    0.14
  -4   4  -9    2.16    0.20
  -4   4  -9    2.15    0.16
  -4   4  -9    2.27    0.29
  -5   4  -9    2.81    0.30
  -5   4  -9    2.94    0.33
  -5   4  -9    2.81    0.27
  -5   4  -9    1.83    0.35
  -5   4  -9    2.48    0.32
  -5   4  -9    2.60    0.18
  -6   4  -9   -0.05    0.13
  -6   4  -9    0.09    0.16
  -6   4  -9    0.37    0.16
  -6   4  -9    0.00    0.12
  -7   4  -9    0.52    0.13
  -7   4  -9    0.46    0.14
  -7   4  -9    0.26    0.14
  -7   4  -9    0.34    0.14
  -8   4  -9    1.56    0.21
  -8   4  -9    1.84    0.24
  -9   4  -9    4.00    0.30
  -8  -3   9    0.25    0.05
  -7  -3   9    7.90    0.53
  -7  -3   9    7.73    0.44
  -7  -3   9    7.20    0.43
  -6  -3   9    0.15    0.07
  -6  -3   9    0.22    0.08
  -6  -3   9    0.03    0.10
  -6  -3   9    0.22    0.09
  -5  -3   9   42.16    2.34
  -5  -3   9   42.39    2.44
  -5  -3   9   43.47    2.29
  -4  -3   9    2.20    0.27
  -4  -3   9    1.81    0.43
  -4  -3   9    1.87    0.15
  -4  -3   9    1.91    0.26
  -4  -3   9    1.99    0.17
  -4  -3   9    1.75    0.15
  -3  -3   9    1.91    0.15
  -3  -3   9    2.12    0.27
   2   3  -9   17.45    1.25
  -2  -3   9   18.70    1.14
   1   3  -9    6.14    0.54
   1   3  -9    6.42    0.63
   1   3  -9    6.60    0.51
   0   3  -9   14.60    1.09
   0   3  -9   16.38    1.03
  -1   3  -9   69.32    4.60
  -1   3  -9   73.15    4.38
  -2   3  -9    8.02    0.47
  -2   3  -9    8.94    0.58
  -2   3  -9    9.02    0.66
  -2   3  -9    7.57    0.47
  -2   3  -9    8.07    0.65
  -2   3  -9    8.26    0.69
  -3   3  -9    6.44    0.50
  -3   3  -9    6.17    0.45
  -3   3  -9    6.59    0.48
  -3   3  -9    6.53    0.44
  -3   3  -9    6.23    0.37
  -3   3  -9    6.50    0.56
  -3   3  -9    5.43    0.40
  -3   3  -9    6.08    0.36
  -3   3  -9    7.25    0.56
  -4   3  -9    0.30    0.19
  -4   3  -9    0.20    0.21
  -4   3  -9    0.30    0.06
  -4   3  -9    0.28    0.11
  -4   3  -9    0.15    0.15
  -4   3  -9    0.37    0.14
  -4   3  -9    0.41    0.12
  -5   3  -9  101.47    6.69
  -5   3  -9   97.15    6.01
  -5   3  -9  108.63    6.66
  -5   3  -9   99.34    6.99
  -5   3  -9  112.91    8.10
  -6   3  -9    2.47    0.27
  -6   3  -9    2.36    0.27
  -6   3  -9    2.17    0.30
  -6   3  -9    2.08    0.25
  -7   3  -9    2.99    0.30
  -7   3  -9    3.20    0.31
  -7   3  -9    2.83    0.32
  -7   3  -9    2.99    0.29
  -8   3  -9    3.04    0.26
  -8   3  -9    2.37    0.26
  -8  -2   9    0.07    0.08
  -8  -2   9    0.00    0.07
  -7  -2   9    1.54    0.13
  -7  -2   9    1.56    0.15
  -7  -2   9    1.53    0.20
  -6  -2   9    1.00    0.09
  -6  -2   9    0.85    0.10
  -6  -2   9    0.85    0.13
  -5  -2   9    0.97    0.10
  -5  -2   9    0.85    0.21
  -5  -2   9    0.58    0.21
  -5  -2   9    0.66    0.08
  -4  -2   9   21.01    1.14
  -4  -2   9   20.80    1.33
  -4  -2   9   20.99    1.29
  -4  -2   9   21.10    1.18
  -4  -2   9   17.23    1.47
  -3  -2   9    1.47    0.12
  -3  -2   9    1.18    0.17
   2   2  -9   36.30    2.37
  -2  -2   9   35.89    2.18
   1   2  -9    0.07    0.21
   1   2  -9    0.18    0.17
   1   2  -9   -0.05    0.14
   0   2  -9   61.15    3.91
   0   2  -9   59.96    3.73
  -1   2  -9    6.80    0.56
  -1   2  -9    6.99    0.58
  -1   2  -9    6.53    0.50
  -2   2  -9   12.95    0.91
  -2   2  -9   12.02    0.92
  -2   2  -9   13.49    0.83
  -3   2  -9    7.91    0.60
  -3   2  -9    8.52    0.65
  -3   2  -9    8.14    0.56
  -3   2  -9    7.45    0.46
  -3   2  -9    9.53    0.70
  -3   2  -9    8.08    0.45
  -3   2  -9    7.92    0.51
  -4   2  -9   36.41    2.37
  -4   2  -9   33.87    2.25
  -4   2  -9   32.46    2.04
  -4   2  -9   32.48    1.89
  -4   2  -9   38.27    2.74
  -4   2  -9   38.41    2.32
  -4   2  -9   32.48    2.26
  -5   2  -9   47.90    3.57
  -5   2  -9   46.72    3.08
  -5   2  -9   45.28    2.94
  -5   2  -9   45.87    2.93
  -5   2  -9   41.47    2.98
  -5   2  -9   44.93    2.66
  -6   2  -9    0.07    0.09
  -6   2  -9   -0.02    0.13
  -6   2  -9    0.14    0.15
  -6   2  -9   -0.02    0.15
  -6   2  -9    0.11    0.13
  -7   2  -9    0.16    0.13
  -7   2  -9    0.07    0.14
  -7   2  -9    0.20    0.12
  -7   2  -9    0.23    0.15
  -8   2  -9    1.31    0.19
  -8   2  -9    1.35    0.18
  -8  -1   9    0.71    0.12
  -8  -1   9    0.62    0.09
  -7  -1   9    1.62    0.21
  -7  -1   9    1.61    0.16
  -7  -1   9    1.69    0.15
  -6  -1   9    9.25    0.55
  -6  -1   9    9.66    0.55
  -6  -1   9    9.47    0.56
  -5  -1   9   31.58    1.68
  -5  -1   9   28.77    1.92
  -5  -1   9   28.91    1.89
  -5  -1   9   31.48    1.74
  -4  -1   9   13.02    0.79
  -4  -1   9   13.64    0.92
  -4  -1   9   13.41    1.06
  -4  -1   9   14.14    0.88
   2   1  -9    5.31    0.46
   2   1  -9    5.48    0.46
   2   1  -9    7.06    0.64
   1   1  -9    0.26    0.16
   1   1  -9    0.29    0.28
   1   1  -9    0.23    0.13
   0   1  -9   18.15    1.18
   0   1  -9   17.31    1.24
   0   1  -9   19.57    1.29
  -1   1  -9    9.46    0.72
  -1   1  -9    9.93    0.65
  -1   1  -9    9.20    0.71
  -2   1  -9    6.74    0.43
  -2   1  -9    6.53    0.53
  -2   1  -9    6.33    0.35
  -2   1  -9    5.48    0.35
  -3   1  -9    4.33    0.31
  -3   1  -9    3.50    0.33
  -3   1  -9    3.38    0.22
  -3   1  -9    4.34    0.38
  -3   1  -9    3.75    0.42
  -3   1  -9    3.58    0.27
  -4   1  -9   53.03    3.62
  -4   1  -9   56.59    3.45
  -4   1  -9   47.42    3.46
  -4   1  -9   53.47    3.50
  -4   1  -9   53.22    3.13
  -4   1  -9   57.53    4.19
  -5   1  -9   15.53    1.20
  -5   1  -9   15.65    0.98
  -5   1  -9   12.96    1.07
  -5   1  -9   14.27    0.88
  -5   1  -9   13.26    0.98
  -5   1  -9   15.62    1.04
  -6   1  -9    2.41    0.28
  -6   1  -9    2.90    0.32
  -6   1  -9    3.32    0.29
  -6   1  -9    3.28    0.36
  -6   1  -9    2.92    0.24
  -7   1  -9   12.24    1.02
  -7   1  -9   12.54    0.84
  -7   1  -9   12.82    0.76
  -7   1  -9   12.83    0.89
  -9   0   9    0.09    0.06
  -9   0   9    0.09    0.08
  -8   0   9    0.02    0.10
  -8   0   9    0.04    0.07
  -8   0   9    0.05    0.05
  -7   0   9    6.52    0.37
  -7   0   9    5.79    0.45
  -7   0   9    5.87    0.37
  -6   0   9    0.21    0.09
  -6   0   9    0.31    0.07
  -6   0   9    0.19    0.08
  -5   0   9    3.89    0.27
  -5   0   9    3.79    0.26
  -5   0   9    5.05    0.45
  -4   0   9   -0.02    0.06
   2   0  -9    4.49    0.40
   2   0  -9    4.64    0.41
   2   0  -9    5.45    0.61
   1   0  -9    9.22    0.64
   1   0  -9    9.12    0.67
   1   0  -9    8.32    0.73
   0   0  -9   37.72    2.58
   0   0  -9   39.37    2.41
   0   0  -9   39.52    2.54
  -1   0  -9    5.14    0.44
  -1   0  -9    5.16    0.45
  -1   0  -9    4.98    0.37
  -1   0  -9    4.32    0.39
  -2   0  -9    0.02    0.11
  -2   0  -9   -0.04    0.09
  -2   0  -9    0.03    0.04
  -2   0  -9    0.00    0.16
  -2   0  -9    0.11    0.05
  -2   0  -9    0.13    0.12
  -2   0  -9    0.00    0.09
  -2   0  -9    0.13    0.10
  -2   0  -9    0.00    0.13
  -3   0  -9    0.15    0.19
  -3   0  -9    0.36    0.05
  -3   0  -9    0.31    0.10
  -3   0  -9    0.26    0.11
  -3   0  -9    0.21    0.14
  -3   0  -9    0.21    0.07
  -3   0  -9    0.19    0.13
  -4   0  -9    7.46    0.44
  -4   0  -9    6.92    0.65
  -4   0  -9    7.86    0.65
  -4   0  -9    7.67    0.53
  -4   0  -9    6.90    0.57
  -4   0  -9    7.43    0.48
  -5   0  -9   -0.31    0.26
  -5   0  -9    0.35    0.11
  -5   0  -9    0.53    0.15
  -5   0  -9    0.40    0.12
  -5   0  -9    0.47    0.09
  -5   0  -9    0.36    0.18
  -6   0  -9    1.11    0.11
  -6   0  -9    1.01    0.20
  -6   0  -9    0.82    0.14
  -6   0  -9    1.21    0.17
  -6   0  -9    1.00    0.13
  -7   0  -9    0.78    0.10
  -7   0  -9    0.75    0.17
  -7   0  -9    0.75    0.12
  -9   1   9    2.82    0.19
  -9   1   9    2.63    0.23
  -8   1   9    1.47    0.14
  -8   1   9    1.56    0.16
  -7   1   9   -0.07    0.08
  -7   1   9    0.00    0.05
  -7   1   9   -0.04    0.08
  -7   1   9   -0.05    0.09
  -6   1   9    0.38    0.09
  -6   1   9    0.46    0.08
  -6   1   9    0.51    0.12
  -5   1   9    1.07    0.14
  -5   1   9    1.30    0.15
  -4   1   9   18.81    1.09
   2  -1  -9    0.31    0.24
   2  -1  -9    0.45    0.16
   2  -1  -9    0.24    0.16
   1  -1  -9    3.18    0.32
   1  -1  -9    3.26    0.44
   1  -1  -9    3.46    0.35
   0  -1  -9    4.01    0.33
   0  -1  -9    3.85    0.39
   0  -1  -9    3.27    0.43
   0  -1  -9    3.51    0.35
  -1  -1  -9   17.66    1.09
  -1  -1  -9   16.36    1.19
  -1  -1  -9   17.19    1.19
  -1  -1  -9   17.73    0.95
  -1  -1  -9   17.49    1.20
  -1  -1  -9   17.33    1.17
  -1  -1  -9   17.02    0.95
  -1  -1  -9   16.65    1.02
  -2  -1  -9    2.55    0.37
  -2  -1  -9    2.62    0.29
  -2  -1  -9    2.67    0.17
  -2  -1  -9    2.84    0.30
  -2  -1  -9    2.39    0.19
  -2  -1  -9    2.50    0.15
  -2  -1  -9    2.59    0.22
  -2  -1  -9    2.61    0.20
  -2  -1  -9    2.90    0.28
  -3  -1  -9   25.44    1.92
  -3  -1  -9   23.66    1.35
  -3  -1  -9   24.99    1.66
  -3  -1  -9   24.35    1.43
  -3  -1  -9   25.00    1.67
  -3  -1  -9   24.36    1.32
  -3  -1  -9   21.50    1.61
  -4  -1  -9   21.26    1.27
  -4  -1  -9   20.69    1.47
  -4  -1  -9   20.39    1.50
  -4  -1  -9   20.99    1.19
  -4  -1  -9   22.90    1.71
  -5  -1  -9    1.86    0.18
  -5  -1  -9    1.82    0.27
  -5  -1  -9    1.96    0.30
  -5  -1  -9    1.84    0.22
  -6  -1  -9    7.25    0.70
  -6  -1  -9    8.60    0.49
  -6  -1  -9    8.76    0.53
  -7  -1  -9   11.33    0.67
  -7  -1  -9   10.59    0.62
  -9   2   9    5.23    0.37
  -9   2   9    4.91    0.31
  -8   2   9    3.94    0.27
  -8   2   9    3.91    0.31
  -8   2   9    4.12    0.32
  -8   2   9    4.12    0.26
  -7   2   9    0.35    0.07
  -7   2   9    0.41    0.12
  -7   2   9    0.18    0.08
  -7   2   9    0.24    0.10
  -6   2   9    1.06    0.13
  -6   2   9    0.78    0.10
  -6   2   9    0.97    0.12
  -5   2   9    2.33    0.19
  -4   2   9   18.46    1.08
   3  -2  -9   17.52    1.01
   2  -2  -9    3.70    0.35
   2  -2  -9    3.88    0.47
   2  -2  -9    3.31    0.35
   2  -2  -9    3.12    0.22
   1  -2  -9    0.04    0.16
   1  -2  -9   -0.02    0.15
   1  -2  -9   -0.02    0.08
   1  -2  -9    0.03    0.25
   1  -2  -9   -0.10    0.05
   0  -2  -9   11.99    0.76
   0  -2  -9   13.86    0.88
   0  -2  -9   14.56    0.95
   0  -2  -9   12.60    0.80
   0  -2  -9   13.67    0.75
   0  -2  -9   14.90    1.00
   0  -2  -9   14.06    0.96
   0  -2  -9   12.27    0.74
  -1  -2  -9    1.15    0.24
  -1  -2  -9    1.89    0.27
  -1  -2  -9    1.22    0.12
  -1  -2  -9    1.18    0.13
  -1  -2  -9    0.98    0.12
  -1  -2  -9    1.59    0.25
  -1  -2  -9    1.30    0.14
  -1  -2  -9    1.46    0.22
  -1  -2  -9    1.46    0.18
  -2  -2  -9   11.27    0.87
  -2  -2  -9   11.78    0.93
  -2  -2  -9   11.16    0.65
  -2  -2  -9   11.52    0.69
  -2  -2  -9   10.91    0.63
  -2  -2  -9   11.85    0.81
  -2  -2  -9   10.56    0.83
  -3  -2  -9    2.94    0.23
  -3  -2  -9    2.87    0.19
  -3  -2  -9    3.34    0.32
  -3  -2  -9    3.12    0.36
  -3  -2  -9    3.31    0.26
  -3  -2  -9    2.74    0.35
  -4  -2  -9    0.29    0.18
  -4  -2  -9    0.09    0.10
  -4  -2  -9    0.14    0.11
  -5  -2  -9    3.77    0.31
  -5  -2  -9    4.28    0.28
  -5  -2  -9    3.82    0.42
  -6  -2  -9    0.47    0.12
  -6  -2  -9    0.48    0.10
  -7  -2  -9   -0.10    0.07
  -9   3   9    0.61    0.09
  -9   3   9    0.41    0.08
  -8   3   9    0.00    0.09
  -8   3   9    0.05    0.08
  -8   3   9    0.03    0.10
  -8   3   9    0.20    0.11
  -7   3   9    2.00    0.21
  -7   3   9    2.11    0.20
  -7   3   9    2.02    0.17
  -6   3   9    2.41    0.20
  -6   3   9    2.46    0.21
  -5   3   9    0.04    0.08
   3  -3  -9    8.97    0.53
   2  -3  -9    0.39    0.30
   2  -3  -9    0.27    0.07
   2  -3  -9    0.42    0.09
   2  -3  -9    0.62    0.27
   1  -3  -9    1.11    0.11
   1  -3  -9    1.11    0.11
   1  -3  -9    1.38    0.25
   1  -3  -9    1.41    0.23
   1  -3  -9    1.28    0.15
   1  -3  -9    1.50    0.26
   1  -3  -9    0.94    0.11
   1  -3  -9    1.59    0.33
   0  -3  -9    0.00    0.08
   0  -3  -9   -0.01    0.08
   0  -3  -9    0.31    0.22
   0  -3  -9    0.07    0.23
   0  -3  -9    0.11    0.04
   0  -3  -9   -0.13    0.21
   0  -3  -9    0.25    0.16
   0  -3  -9   -0.03    0.07
   0  -3  -9    0.04    0.12
  -1  -3  -9   32.13    2.02
  -1  -3  -9   33.88    1.81
  -1  -3  -9   31.91    1.91
  -1  -3  -9   32.72    1.78
  -1  -3  -9   32.18    2.17
  -1  -3  -9   33.28    2.56
  -1  -3  -9   31.21    2.17
  -1  -3  -9   32.63    1.79
  -2  -3  -9    9.17    0.78
  -2  -3  -9   10.60    0.58
  -2  -3  -9   11.10    0.87
  -2  -3  -9   10.32    0.60
  -2  -3  -9    9.85    0.64
  -3  -3  -9   31.82    1.63
  -3  -3  -9   29.32    1.58
  -3  -3  -9   30.09    2.30
  -3  -3  -9   24.46    1.95
  -3  -3  -9   28.94    1.72
  -4  -3  -9    1.53    0.17
  -4  -3  -9    1.67    0.26
  -4  -3  -9    1.54    0.18
  -5  -3  -9    6.53    0.44
  -5  -3  -9    6.69    0.40
  -6  -3  -9    0.34    0.09
  -6  -3  -9    0.25    0.11
  -9   4   9   28.00    1.69
  -9   4   9   25.81    1.43
  -9   4   9   24.41    1.43
  -8   4   9    1.32    0.15
  -8   4   9    1.49    0.19
  -8   4   9    0.84    0.11
  -7   4   9    1.11    0.13
  -7   4   9    0.79    0.12
  -6   4   9   11.25    0.65
  -6   4   9   10.35    0.64
  -5   4   9    8.39    0.51
   4  -4  -9   17.55    1.02
   3  -4  -9    0.43    0.07
   2  -4  -9   -0.17    0.19
   2  -4  -9    0.27    0.33
   2  -4  -9    0.24    0.22
   2  -4  -9    0.04    0.09
   2  -4  -9    0.04    0.06
   1  -4  -9    1.25    0.34
   1  -4  -9    1.17    0.11
   1  -4  -9    1.03    0.12
   1  -4  -9    1.17    0.23
   1  -4  -9    0.93    0.11
   1  -4  -9    1.22    0.28
   0  -4  -9    0.23    0.09
   0  -4  -9    0.23    0.17
   0  -4  -9    0.48    0.18
   0  -4  -9    0.22    0.09
   0  -4  -9    0.33    0.09
   0  -4  -9    0.06    0.23
   0  -4  -9    0.42    0.23
   0  -4  -9    0.27    0.07
  -1  -4  -9   10.69    0.83
  -1  -4  -9   10.36    0.57
  -1  -4  -9    9.44    0.77
  -1  -4  -9    9.09    0.61
  -1  -4  -9    9.64    0.58
  -2  -4  -9    0.75    0.12
  -2  -4  -9    0.99    0.21
  -2  -4  -9    0.58    0.12
  -2  -4  -9    0.74    0.09
  -2  -4  -9    0.34    0.28
  -3  -4  -9    0.18    0.08
  -3  -4  -9    0.13    0.05
  -3  -4  -9    0.09    0.11
  -3  -4  -9    0.07    0.11
  -4  -4  -9    0.76    0.10
  -4  -4  -9    0.75    0.11
  -4  -4  -9    0.57    0.11
  -5  -4  -9    5.77    0.38
  -5  -4  -9    5.73    0.35
  -9   5   9    7.15    0.46
  -9   5   9    6.89    0.39
  -9   5   9    6.37    0.38
  -8   5   9    0.26    0.11
  -8   5   9    0.19    0.08
  -7   5   9    2.17    0.18
  -7   5   9    2.48    0.22
  -6   5   9    4.22    0.29
  -5   5   9   10.97    0.66
   4  -5  -9    0.04    0.08
   3  -5  -9    8.62    0.71
   3  -5  -9    8.94    0.52
   3  -5  -9    8.18    0.51
   2  -5  -9   10.47    0.83
   2  -5  -9   11.73    0.89
   2  -5  -9   13.27    0.68
   2  -5  -9    9.60    0.99
   2  -5  -9   12.15    0.69
   1  -5  -9    1.39    0.13
   1  -5  -9    1.21    0.13
   1  -5  -9    1.50    0.14
   1  -5  -9    1.41    0.31
   1  -5  -9    1.35    0.12
   1  -5  -9    1.23    0.26
   0  -5  -9    1.92    0.33
   0  -5  -9    2.26    0.20
   0  -5  -9    2.12    0.20
   0  -5  -9    2.27    0.18
  -1  -5  -9    9.01    0.59
  -1  -5  -9    9.86    0.55
  -1  -5  -9    9.18    0.54
  -1  -5  -9    9.52    0.53
  -1  -5  -9    9.90    0.56
  -2  -5  -9    2.72    0.25
  -2  -5  -9    3.02    0.22
  -2  -5  -9    3.21    0.24
  -2  -5  -9    2.98    0.20
  -3  -5  -9   27.68    1.55
  -3  -5  -9   29.71    1.59
  -3  -5  -9   28.29    1.68
  -4  -5  -9    2.88    0.24
  -4  -5  -9    3.27    0.22
  -8   6   9    1.16    0.14
  -8   6   9    1.48    0.18
  -7   6   9    1.21    0.13
  -6   6   9    5.61    0.36
   5  -6  -9   -0.12    0.09
  -5   6   9   -0.08    0.10
   4  -6  -9    3.71    0.26
   3  -6  -9   14.05    0.81
   3  -6  -9   13.88    0.80
   2  -6  -9    0.61    0.12
   2  -6  -9    0.59    0.10
   2  -6  -9    0.47    0.11
   2  -6  -9    0.80    0.08
   1  -6  -9    0.60    0.09
   1  -6  -9    0.36    0.09
   1  -6  -9    0.44    0.11
   1  -6  -9    0.48    0.11
   0  -6  -9    0.42    0.09
   0  -6  -9    0.35    0.09
   0  -6  -9    0.22    0.10
  -1  -6  -9    0.27    0.09
  -1  -6  -9    0.18    0.08
  -1  -6  -9    0.19    0.09
  -2  -6  -9   11.62    0.67
  -2  -6  -9   12.25    0.69
  -2  -6  -9   12.27    0.67
  -3  -6  -9    1.38    0.13
  -3  -6  -9    1.54    0.15
  -8   7   9    6.12    0.39
  -8   7   9    4.93    0.33
  -7   7   9    0.00    0.09
  -7   7   9    0.01    0.05
  -7   7   9   -0.04    0.07
   6  -7  -9    0.00    0.07
   5  -7  -9    2.60    0.20
   4  -7  -9    6.50    0.40
   3  -7  -9    1.63    0.19
   3  -7  -9    1.56    0.17
   3  -7  -9    1.90    0.15
   2  -7  -9    0.33    0.09
   2  -7  -9    0.26    0.10
   2  -7  -9    0.30    0.05
   2  -7  -9    0.20    0.10
   1  -7  -9   -0.17    0.08
   1  -7  -9   -0.01    0.09
   1  -7  -9   -0.06    0.09
   0  -7  -9    0.22    0.08
   0  -7  -9    0.24    0.09
   0  -7  -9    0.17    0.09
   0  -7  -9    0.13    0.04
  -1  -7  -9    0.19    0.09
  -1  -7  -9    0.20    0.07
  -1  -7  -9    0.26    0.08
  -2  -7  -9    0.00    0.06
   7  -8  -9    3.52    0.25
  -7   8   9    4.29    0.24
   6  -8  -9    0.64    0.08
  -6   8   9    0.64    0.07
   5  -8  -9    0.22    0.07
  -5   8   9    0.07    0.07
   4  -8  -9   26.41    1.42
   4  -8  -9   26.36    1.46
   4  -8  -9   23.83    1.42
   3  -8  -9    0.70    0.10
   3  -8  -9    0.62    0.08
   2  -8  -9    0.06    0.06
   2  -8  -9    0.08    0.09
   2  -8  -9    0.00    0.07
   2  -8  -9   -0.08    0.07
   1  -8  -9    0.02    0.04
   1  -8  -9   -0.10    0.07
   1  -8  -9    0.00    0.08
   1  -8  -9    0.09    0.07
   0  -8  -9   -0.06    0.06
   0  -8  -9    0.02    0.06
   0  -8  -9    0.14    0.07
  -5   9   9    1.08    0.12
   4  -9  -9    0.42    0.06
   3  -9  -9   20.43    1.13
   2  -9  -9    5.09    0.28
   0  10 -10    1.02    0.12
   0 -10  10    1.25    0.11
  -1  10 -10    1.52    0.13
   1 -10  10    1.48    0.13
  -2  10 -10    0.87    0.10
  -2  10 -10    0.75    0.08
  -3  10 -10    1.16    0.20
  -3  10 -10    1.62    0.15
  -4  10 -10    3.02    0.20
  -4  10 -10    2.38    0.27
  -4  10 -10    2.79    0.19
  -5  10 -10    0.19    0.08
  -5  10 -10    0.28    0.10
  -6  10 -10    0.26    0.07
  -2  -9  10    2.46    0.16
  -2  -9  10    2.22    0.16
   1   9 -10    0.18    0.06
  -1  -9  10    0.22    0.06
   0   9 -10    0.15    0.07
   0  -9  10    0.23    0.06
  -1   9 -10    0.29    0.07
  -2   9 -10    0.66    0.08
  -2   9 -10    0.60    0.11
  -3   9 -10    0.03    0.05
  -3   9 -10    0.03    0.09
  -4   9 -10    0.35    0.16
  -4   9 -10    0.35    0.09
  -4   9 -10    0.39    0.09
  -5   9 -10    9.97    0.62
  -5   9 -10   11.14    0.78
  -5   9 -10   12.09    0.63
  -6   9 -10    1.30    0.14
  -6   9 -10    1.55    0.19
  -7   9 -10    0.50    0.11
  -3  -8  10    0.19    0.08
  -3  -8  10    0.17    0.06
  -2  -8  10    7.17    0.43
  -2  -8  10    7.54    0.44
   1   8 -10    0.13    0.07
  -1  -8  10    0.17    0.06
   0   8 -10   -0.06    0.07
   0  -8  10    0.01    0.05
  -1   8 -10    1.93    0.17
  -2   8 -10    0.50    0.08
  -2   8 -10    0.48    0.11
  -3   8 -10    3.72    0.23
  -3   8 -10    3.44    0.26
  -3   8 -10    3.36    0.26
  -4   8 -10   48.80    2.56
  -4   8 -10   42.56    3.65
  -4   8 -10   48.24    3.15
  -4   8 -10   46.44    2.55
  -5   8 -10    0.65    0.10
  -5   8 -10    0.77    0.14
  -5   8 -10    0.62    0.17
  -5   8 -10    0.65    0.08
  -6   8 -10    0.02    0.12
  -6   8 -10   -0.17    0.13
  -6   8 -10    0.00    0.07
  -7   8 -10    1.66    0.19
  -8   8 -10    0.99    0.13
  -4  -7  10    0.00    0.07
  -4  -7  10    0.05    0.06
  -3  -7  10   58.52    3.26
  -3  -7  10   54.69    3.14
  -3  -7  10   58.12    3.06
  -2  -7  10    0.48    0.07
   1   7 -10    1.41    0.15
  -1  -7  10    1.45    0.14
   0   7 -10    1.29    0.14
  -1   7 -10   11.82    1.00
  -1   7 -10   13.37    0.77
  -1   7 -10   13.65    0.76
  -2   7 -10    2.40    0.22
  -2   7 -10    2.49    0.41
  -2   7 -10    2.68    0.19
  -3   7 -10    2.35    0.21
  -3   7 -10    2.52    0.26
  -3   7 -10    2.24    0.20
  -3   7 -10    2.70    0.47
  -3   7 -10    2.45    0.17
  -4   7 -10    8.28    0.75
  -4   7 -10    8.15    0.51
  -4   7 -10    9.48    0.51
  -4   7 -10    8.74    0.64
  -5   7 -10   -0.05    0.05
  -5   7 -10   -0.02    0.08
  -5   7 -10   -0.10    0.13
  -5   7 -10   -0.02    0.16
  -6   7 -10    1.05    0.16
  -6   7 -10    0.93    0.18
  -6   7 -10    0.87    0.13
  -6   7 -10    1.39    0.13
  -7   7 -10    2.35    0.22
  -8   7 -10    4.70    0.36
  -8   7 -10    4.10    0.32
  -5  -6  10    0.98    0.11
  -5  -6  10    0.80    0.09
  -4  -6  10    9.87    0.56
  -4  -6  10    9.04    0.54
  -4  -6  10    9.65    0.55
  -3  -6  10    0.12    0.07
  -3  -6  10   -0.03    0.06
  -2  -6  10    2.56    0.19
   1   6 -10    7.45    0.45
   1   6 -10    7.05    0.67
   0   6 -10   53.75    3.06
   0   6 -10   53.09    3.52
  -1   6 -10    1.82    0.33
  -1   6 -10    2.79    0.22
  -1   6 -10    2.99    0.20
  -1   6 -10    2.99    0.39
  -2   6 -10    4.44    0.30
  -2   6 -10    4.43    0.30
  -2   6 -10    4.82    0.29
  -2   6 -10    4.53    0.52
  -2   6 -10    4.43    0.52
  -2   6 -10    4.73    0.45
  -3   6 -10    9.93    0.81
  -3   6 -10    9.17    0.69
  -3   6 -10    9.65    0.55
  -3   6 -10    9.75    0.55
  -3   6 -10    8.62    0.69
  -3   6 -10    9.21    0.55
  -3   6 -10   10.39    0.82
  -4   6 -10    1.65    0.15
  -4   6 -10    1.69    0.25
  -4   6 -10    1.72    0.20
  -4   6 -10    1.48    0.16
  -4   6 -10    1.25    0.32
  -5   6 -10    0.14    0.08
  -5   6 -10    0.18    0.17
  -5   6 -10    0.15    0.11
  -5   6 -10    0.18    0.14
  -6   6 -10    2.17    0.29
  -6   6 -10    2.21    0.24
  -6   6 -10    2.21    0.28
  -6   6 -10    2.16    0.16
  -7   6 -10    4.78    0.37
  -7   6 -10    5.09    0.41
  -8   6 -10    0.08    0.09
  -8   6 -10    0.10    0.14
  -6  -5  10    0.39    0.06
  -6  -5  10    0.50    0.07
  -6  -5  10    0.39    0.07
  -5  -5  10    2.80    0.26
  -5  -5  10    3.22    0.21
  -5  -5  10    3.09    0.22
  -4  -5  10   11.82    0.71
  -4  -5  10   12.19    0.68
  -4  -5  10   12.63    0.70
  -3  -5  10   18.24    1.06
   2   5 -10    0.20    0.23
  -2  -5  10    0.33    0.19
   1   5 -10   23.98    1.67
   1   5 -10   24.28    1.39
   0   5 -10    3.59    0.45
   0   5 -10    3.54    0.24
  -1   5 -10   20.53    1.11
  -1   5 -10   19.29    1.31
  -1   5 -10   19.84    1.40
  -1   5 -10   20.64    1.14
  -1   5 -10   18.22    1.43
  -2   5 -10   -0.07    0.24
  -2   5 -10    0.00    0.17
  -2   5 -10   -0.01    0.05
  -2   5 -10    0.00    0.08
  -2   5 -10    0.06    0.07
  -2   5 -10   -0.08    0.24
  -3   5 -10    4.17    0.34
  -3   5 -10    4.38    0.28
  -3   5 -10    4.06    0.36
  -3   5 -10    4.81    0.28
  -3   5 -10    4.42    0.39
  -3   5 -10    4.44    0.45
  -3   5 -10    4.62    0.52
  -3   5 -10    4.58    0.47
  -4   5 -10    2.35    0.27
  -4   5 -10    2.30    0.25
  -4   5 -10    2.95    0.38
  -4   5 -10    2.51    0.17
  -4   5 -10    2.51    0.34
  -4   5 -10    2.54    0.19
  -4   5 -10    2.46    0.25
  -4   5 -10    2.44    0.32
  -5   5 -10   -0.29    0.19
  -5   5 -10   -0.03    0.15
  -5   5 -10    0.10    0.17
  -5   5 -10   -0.02    0.06
  -5   5 -10    0.03    0.12
  -6   5 -10   16.44    1.11
  -6   5 -10   16.99    1.35
  -7   5 -10    1.13    0.15
  -7   5 -10    0.79    0.16
  -8   5 -10    4.46    0.37
  -8   5 -10    4.63    0.35
  -7  -4  10    0.46    0.07
  -7  -4  10    0.46    0.08
  -6  -4  10    0.22    0.10
  -6  -4  10    0.18    0.06
  -6  -4  10    0.21    0.08
  -5  -4  10    0.91    0.12
  -5  -4  10    1.17    0.11
  -5  -4  10    1.06    0.11
  -4  -4  10    9.71    0.56
  -4  -4  10    9.55    0.55
  -4  -4  10    9.20    0.53
  -3  -4  10    7.92    0.47
   2   4 -10    0.15    0.20
  -2  -4  10    0.17    0.16
   1   4 -10    3.85    0.45
   1   4 -10    3.68    0.25
   0   4 -10    0.88    0.19
   0   4 -10    0.91    0.26
   0   4 -10    0.63    0.08
   0   4 -10    1.22    0.35
   0   4 -10    0.86    0.10
  -1   4 -10    0.12    0.16
  -1   4 -10    0.13    0.20
  -1   4 -10   -0.01    0.05
  -1   4 -10   -0.22    0.22
  -1   4 -10    0.00    0.07
  -1   4 -10    0.00    0.07
  -2   4 -10    3.95    0.25
  -2   4 -10    3.72    0.32
  -2   4 -10    4.35    0.47
  -2   4 -10    4.66    0.40
  -2   4 -10    3.85    0.45
  -2   4 -10    3.11    0.30
  -2   4 -10    3.62    0.24
  -2   4 -10    3.89    0.23
  -2   4 -10    3.90    0.37
  -3   4 -10   12.96    0.74
  -3   4 -10   15.18    1.09
  -3   4 -10   13.46    0.99
  -3   4 -10   12.87    0.95
  -3   4 -10   12.62    0.93
  -3   4 -10   12.77    0.87
  -3   4 -10   12.54    0.88
  -3   4 -10   13.34    0.74
  -4   4 -10    3.75    0.46
  -4   4 -10    3.64    0.33
  -4   4 -10    4.38    0.36
  -4   4 -10    4.11    0.41
  -4   4 -10    3.64    0.25
  -5   4 -10   11.49    0.65
  -5   4 -10   12.13    0.98
  -5   4 -10   11.87    0.80
  -5   4 -10   11.82    0.85
  -6   4 -10    0.04    0.15
  -6   4 -10    0.05    0.12
  -6   4 -10    0.03    0.14
  -7   4 -10    0.06    0.15
  -7   4 -10    0.05    0.12
  -7   4 -10    0.15    0.13
  -8   4 -10    0.53    0.15
  -8   4 -10    0.49    0.12
  -7  -3  10    0.33    0.06
  -7  -3  10    0.26    0.07
  -7  -3  10    0.45    0.10
  -6  -3  10    0.12    0.10
  -6  -3  10    0.07    0.06
  -6  -3  10    0.10    0.07
  -5  -3  10   17.83    1.06
  -5  -3  10   18.79    1.03
  -4  -3  10   44.02    2.25
  -4  -3  10   33.81    2.40
  -3  -3  10   10.20    0.62
  -3  -3  10   10.90    0.72
   2   3 -10    0.14    0.19
  -2  -3  10    0.16    0.14
   1   3 -10   22.61    1.50
   1   3 -10   21.27    1.42
   1   3 -10   22.67    1.57
   1   3 -10   20.96    1.25
   0   3 -10    7.64    0.61
   0   3 -10    6.31    0.40
   0   3 -10    6.52    0.40
   0   3 -10    7.10    0.53
  -1   3 -10    8.42    0.52
  -1   3 -10    9.41    0.74
  -1   3 -10    9.83    0.71
  -1   3 -10    8.76    0.51
  -1   3 -10    9.52    0.64
  -1   3 -10    7.93    0.51
  -2   3 -10    1.36    0.25
  -2   3 -10    1.36    0.18
  -2   3 -10    1.27    0.14
  -2   3 -10    1.21    0.15
  -2   3 -10    1.22    0.12
  -2   3 -10    1.50    0.23
  -2   3 -10    1.13    0.19
  -2   3 -10    0.96    0.23
  -3   3 -10   28.83    1.88
  -3   3 -10   30.63    2.24
  -3   3 -10   28.49    1.92
  -3   3 -10   30.22    1.84
  -3   3 -10   28.90    1.75
  -3   3 -10   29.14    1.55
  -3   3 -10   26.78    1.93
  -3   3 -10   25.78    1.67
  -3   3 -10   26.61    1.56
  -4   3 -10    3.12    0.20
  -4   3 -10    3.58    0.32
  -4   3 -10    3.12    0.30
  -4   3 -10    3.12    0.36
  -4   3 -10    2.79    0.24
  -4   3 -10    3.31    0.43
  -5   3 -10    4.04    0.42
  -5   3 -10    3.67    0.33
  -5   3 -10    3.99    0.37
  -5   3 -10    4.01    0.47
  -6   3 -10    0.12    0.16
  -6   3 -10    0.15    0.13
  -6   3 -10    0.07    0.16
  -7   3 -10    1.71    0.21
  -7   3 -10    1.73    0.22
  -7   3 -10    1.59    0.24
  -8   3 -10    0.81    0.14
  -8   3 -10    0.76    0.12
  -8  -2  10    4.51    0.33
  -8  -2  10    4.55    0.27
  -7  -2  10    0.64    0.10
  -7  -2  10    0.60    0.08
  -7  -2  10    0.88    0.12
  -6  -2  10    3.32    0.23
  -6  -2  10    2.88    0.22
  -6  -2  10    3.21    0.21
  -5  -2  10    1.16    0.11
  -5  -2  10    0.91    0.10
  -4  -2  10   16.23    0.94
  -3  -2  10    3.18    0.22
   2   2 -10   21.65    1.47
   1   2 -10    9.97    0.76
   1   2 -10   12.27    0.82
   1   2 -10   13.34    0.98
   1   2 -10    9.91    0.64
   0   2 -10    0.25    0.06
   0   2 -10    0.64    0.27
   0   2 -10    0.54    0.21
   0   2 -10    0.22    0.16
  -1   2 -10    3.33    0.21
  -1   2 -10    3.64    0.22
  -1   2 -10    3.75    0.41
  -1   2 -10    3.87    0.34
  -1   2 -10    3.11    0.23
  -2   2 -10    0.38    0.11
  -2   2 -10    0.18    0.06
  -2   2 -10    0.24    0.18
  -2   2 -10    0.20    0.07
  -2   2 -10    0.22    0.14
  -2   2 -10    0.29    0.12
  -2   2 -10    0.32    0.17
  -2   2 -10    0.27    0.10
  -2   2 -10    0.28    0.13
  -3   2 -10    6.07    0.42
  -3   2 -10    5.38    0.33
  -3   2 -10    5.80    0.51
  -3   2 -10    5.23    0.37
  -3   2 -10    5.82    0.44
  -3   2 -10    5.65    0.53
  -4   2 -10   46.47    2.80
  -4   2 -10   50.43    3.09
  -4   2 -10   43.92    2.60
  -4   2 -10   47.11    3.15
  -4   2 -10   46.17    3.24
  -4   2 -10   53.39    3.76
  -5   2 -10    6.15    0.63
  -5   2 -10    7.20    0.63
  -5   2 -10    7.82    0.52
  -5   2 -10    6.76    0.46
  -5   2 -10    7.09    0.56
  -6   2 -10    1.45    0.23
  -6   2 -10    1.59    0.19
  -6   2 -10    1.86    0.23
  -6   2 -10    1.85    0.21
  -7   2 -10    0.26    0.14
  -7   2 -10    0.29    0.12
  -7   2 -10    0.25    0.13
  -8   2 -10    2.71    0.27
  -8  -1  10    0.06    0.09
  -8  -1  10    0.09    0.07
  -7  -1  10    4.45    0.27
  -7  -1  10    4.10    0.27
  -7  -1  10    3.89    0.33
  -6  -1  10    6.55    0.41
  -6  -1  10    6.88    0.41
  -5  -1  10   -0.08    0.08
  -5  -1  10   -0.08    0.07
  -4  -1  10    2.69    0.20
   2   1 -10    2.31    0.31
   2   1 -10    2.31    0.31
   2   1 -10    2.64    0.45
   1   1 -10    0.64    0.28
   1   1 -10    1.09    0.26
   1   1 -10    1.09    0.21
   0   1 -10    0.47    0.23
   0   1 -10    0.10    0.05
   0   1 -10    0.11    0.15
   0   1 -10    0.13    0.17
  -1   1 -10    1.20    0.18
  -1   1 -10    0.93    0.21
  -1   1 -10    0.98    0.12
  -1   1 -10    1.26    0.21
  -1   1 -10    0.96    0.10
  -1   1 -10    1.24    0.25
  -1   1 -10    1.01    0.08
  -2   1 -10   10.76    0.81
  -2   1 -10   10.80    0.87
  -2   1 -10   11.16    0.72
  -2   1 -10   10.39    0.76
  -2   1 -10   10.57    0.65
  -2   1 -10   10.48    0.59
  -2   1 -10    9.98    0.59
  -2   1 -10   11.00    0.69
  -3   1 -10   51.36    3.67
  -3   1 -10   46.75    3.08
  -3   1 -10   44.66    3.02
  -3   1 -10   45.36    2.55
  -3   1 -10   45.46    2.74
  -3   1 -10   47.70    3.17
  -4   1 -10   89.59    6.39
  -4   1 -10   75.51    5.30
  -4   1 -10   79.70    5.25
  -4   1 -10   80.90    4.77
  -4   1 -10   83.36    5.52
  -5   1 -10   15.89    1.24
  -5   1 -10   15.30    0.92
  -5   1 -10   12.82    1.11
  -5   1 -10   14.87    1.07
  -5   1 -10   16.43    1.02
  -6   1 -10    8.30    0.72
  -6   1 -10    8.21    0.53
  -6   1 -10    7.86    0.59
  -6   1 -10    8.97    0.62
  -7   1 -10    1.50    0.23
  -7   1 -10    1.80    0.17
  -7   1 -10    1.62    0.22
  -8   0  10   15.56    0.88
  -8   0  10   15.34    1.04
  -8   0  10   16.31    0.87
  -7   0  10    0.02    0.09
  -7   0  10   -0.12    0.09
  -7   0  10   -0.10    0.08
  -6   0  10    2.29    0.20
  -6   0  10    2.27    0.18
  -5   0  10    0.17    0.09
  -5   0  10    0.20    0.07
  -4   0  10    1.08    0.13
   2   0 -10   38.80    2.29
   2   0 -10   34.13    2.38
   2   0 -10   34.92    2.20
   2   0 -10   31.82    1.99
   1   0 -10    0.96    0.20
   1   0 -10    0.78    0.10
   1   0 -10    1.26    0.29
   1   0 -10    0.86    0.18
   0   0 -10    3.81    0.44
   0   0 -10    3.63    0.34
   0   0 -10    3.43    0.23
   0   0 -10    4.27    0.40
   0   0 -10    3.42    0.22
   0   0 -10    3.42    0.33
  -1   0 -10    1.85    0.24
  -1   0 -10    2.45    0.30
  -1   0 -10    1.84    0.24
  -1   0 -10    1.73    0.16
  -1   0 -10    2.05    0.23
  -1   0 -10    1.85    0.14
  -1   0 -10    2.07    0.28
  -1   0 -10    2.27    0.25
  -1   0 -10    2.03    0.19
  -2   0 -10   -0.04    0.13
  -2   0 -10   -0.11    0.13
  -2   0 -10    0.01    0.09
  -2   0 -10   -0.05    0.19
  -2   0 -10    0.03    0.06
  -2   0 -10   -0.03    0.06
  -2   0 -10    0.04    0.04
  -2   0 -10   -0.04    0.09
  -3   0 -10    0.61    0.17
  -3   0 -10    0.37    0.06
  -3   0 -10    0.32    0.15
  -3   0 -10    0.36    0.11
  -3   0 -10    0.32    0.08
  -3   0 -10    0.41    0.22
  -4   0 -10    0.34    0.11
  -4   0 -10    0.30    0.26
  -4   0 -10    0.43    0.15
  -4   0 -10    0.34    0.17
  -4   0 -10    0.69    0.13
  -4   0 -10    0.63    0.09
  -5   0 -10    7.32    0.65
  -5   0 -10    7.46    0.57
  -5   0 -10    7.41    0.44
  -5   0 -10    7.11    0.48
  -6   0 -10    3.86    0.25
  -6   0 -10    3.71    0.39
  -6   0 -10    3.98    0.35
  -6   0 -10    3.84    0.29
  -7   0 -10    8.62    0.48
  -7   0 -10    6.82    0.64
  -9   1  10    1.91    0.17
  -9   1  10    2.04    0.15
  -8   1  10   -0.05    0.09
  -8   1  10    0.00    0.06
  -8   1  10   -0.05    0.08
  -7   1  10    8.48    0.61
  -7   1  10    9.06    0.52
  -7   1  10    9.03    0.52
  -7   1  10    8.62    0.52
  -6   1  10   -0.13    0.10
  -6   1  10   -0.10    0.07
  -5   1  10    2.20    0.19
  -4   1  10    1.70    0.16
   3  -1 -10   19.82    1.15
   2  -1 -10    0.06    0.27
   2  -1 -10    0.06    0.18
   2  -1 -10   -0.01    0.06
   1  -1 -10   23.37    1.41
   1  -1 -10   19.66    1.21
   1  -1 -10   22.15    1.55
   1  -1 -10   21.18    1.26
   1  -1 -10   23.92    1.49
   0  -1 -10   20.43    1.22
   0  -1 -10   18.20    1.18
   0  -1 -10   21.12    1.15
   0  -1 -10   22.75    1.42
   0  -1 -10   21.48    1.40
   0  -1 -10   19.09    1.14
   0  -1 -10   22.30    1.33
   0  -1 -10   21.09    1.45
  -1  -1 -10    0.11    0.19
  -1  -1 -10    0.12    0.16
  -1  -1 -10    0.10    0.12
  -1  -1 -10    0.11    0.14
  -1  -1 -10    0.08    0.09
  -1  -1 -10    0.04    0.06
  -1  -1 -10    0.12    0.08
  -1  -1 -10    0.09    0.12
  -1  -1 -10    0.01    0.19
  -1  -1 -10    0.12    0.06
  -2  -1 -10    7.53    0.66
  -2  -1 -10    8.31    0.59
  -2  -1 -10    7.92    0.44
  -2  -1 -10    7.69    0.50
  -2  -1 -10    7.44    0.46
  -2  -1 -10    8.29    0.67
  -2  -1 -10    7.11    0.59
  -3  -1 -10    0.56    0.11
  -3  -1 -10   -0.01    0.15
  -3  -1 -10    0.28    0.25
  -3  -1 -10    0.45    0.06
  -3  -1 -10    0.10    0.16
  -3  -1 -10    0.25    0.09
  -4  -1 -10   12.64    1.08
  -4  -1 -10   15.33    1.18
  -4  -1 -10   13.80    1.02
  -4  -1 -10   14.74    0.88
  -4  -1 -10   15.14    0.82
  -5  -1 -10   13.38    1.10
  -5  -1 -10   13.35    0.76
  -5  -1 -10   13.28    0.81
  -5  -1 -10   13.23    0.94
  -6  -1 -10    4.90    0.49
  -6  -1 -10    5.60    0.33
  -6  -1 -10    5.54    0.37
  -7  -1 -10    2.63    0.18
  -7  -1 -10    3.00    0.22
  -9   2  10    0.20    0.08
  -9   2  10    0.08    0.05
  -8   2  10    9.83    0.55
  -8   2  10    9.46    0.55
  -8   2  10    9.59    0.65
  -7   2  10    0.07    0.06
  -7   2  10    0.11    0.09
  -7   2  10    0.05    0.10
  -6   2  10    1.76    0.19
  -6   2  10    1.67    0.17
  -6   2  10    1.61    0.21
  -5   2  10    1.39    0.16
   3  -2 -10   13.36    0.78
   2  -2 -10   26.80    1.79
   2  -2 -10   24.82    1.40
   2  -2 -10   22.72    1.44
   2  -2 -10   27.12    1.62
   1  -2 -10    3.88    0.26
   1  -2 -10    4.21    0.39
   1  -2 -10    4.30    0.42
   1  -2 -10    3.85    0.26
   1  -2 -10    4.19    0.29
   1  -2 -10    3.77    0.25
   1  -2 -10    4.22    0.43
   1  -2 -10    4.99    0.53
   0  -2 -10   -0.15    0.20
   0  -2 -10    0.10    0.17
   0  -2 -10   -0.02    0.07
   0  -2 -10   -0.09    0.08
   0  -2 -10   -0.09    0.04
   0  -2 -10   -0.10    0.07
   0  -2 -10   -0.13    0.21
   0  -2 -10    0.00    0.21
  -1  -2 -10   -0.08    0.18
  -1  -2 -10   -0.03    0.13
  -1  -2 -10   -0.18    0.21
  -1  -2 -10   -0.07    0.08
  -1  -2 -10    0.02    0.18
  -1  -2 -10   -0.11    0.07
  -1  -2 -10   -0.07    0.06
  -1  -2 -10   -0.05    0.09
  -1  -2 -10    0.00    0.12
  -2  -2 -10    7.05    0.40
  -2  -2 -10    6.06    0.57
  -2  -2 -10    6.58    0.62
  -2  -2 -10    6.96    0.42
  -2  -2 -10    7.39    0.61
  -2  -2 -10    7.00    0.46
  -3  -2 -10   10.11    0.58
  -3  -2 -10   10.86    0.61
  -3  -2 -10   10.82    0.66
  -3  -2 -10   10.11    0.88
  -4  -2 -10    0.03    0.18
  -4  -2 -10    0.06    0.09
  -4  -2 -10    0.00    0.12
  -5  -2 -10   -0.09    0.10
  -5  -2 -10    0.05    0.09
  -5  -2 -10    0.13    0.16
  -6  -2 -10   18.00    1.08
  -6  -2 -10   18.16    1.01
  -9   3  10    1.02    0.12
  -8   3  10    4.19    0.26
  -8   3  10    3.95    0.32
  -8   3  10    3.99    0.27
  -7   3  10    4.23    0.30
  -7   3  10    4.40    0.28
  -6   3  10    2.17    0.21
  -6   3  10    1.79    0.18
  -5   3  10    2.03    0.19
   4  -3 -10    3.10    0.24
   3  -3 -10    0.86    0.10
   2  -3 -10    0.66    0.22
   2  -3 -10    0.76    0.11
   2  -3 -10    0.61    0.08
   2  -3 -10    0.94    0.34
   1  -3 -10    5.95    0.52
   1  -3 -10    5.76    0.37
   1  -3 -10    5.57    0.34
   1  -3 -10    5.87    0.35
   1  -3 -10    5.39    0.35
   1  -3 -10    5.63    0.47
   1  -3 -10    5.74    0.61
   0  -3 -10   -0.05    0.08
   0  -3 -10   -0.06    0.07
   0  -3 -10   -0.01    0.23
   0  -3 -10   -0.02    0.08
   0  -3 -10    0.00    0.22
   0  -3 -10   -0.02    0.16
   0  -3 -10   -0.06    0.09
  -1  -3 -10    0.18    0.16
  -1  -3 -10   -0.07    0.13
  -1  -3 -10    0.06    0.06
  -1  -3 -10    0.06    0.10
  -1  -3 -10    0.01    0.08
  -1  -3 -10    0.07    0.17
  -1  -3 -10    0.03    0.09
  -1  -3 -10    0.13    0.20
  -2  -3 -10   23.97    1.91
  -2  -3 -10   30.00    1.56
  -2  -3 -10   29.14    1.59
  -2  -3 -10   28.88    1.68
  -2  -3 -10   29.46    2.25
  -3  -3 -10    5.32    0.52
  -3  -3 -10    5.27    0.31
  -3  -3 -10    5.46    0.38
  -3  -3 -10    5.85    0.36
  -4  -3 -10   10.53    0.60
  -4  -3 -10   10.04    0.86
  -4  -3 -10   10.02    0.64
  -5  -3 -10    0.01    0.09
  -5  -3 -10    0.06    0.10
  -6  -3 -10    0.25    0.07
  -6  -3 -10    0.22    0.08
  -8   4  10    2.03    0.21
  -8   4  10    1.77    0.17
  -7   4  10    1.43    0.15
  -7   4  10    1.47    0.18
  -6   4  10    1.81    0.18
  -5   4  10    0.20    0.10
   4  -4 -10   16.99    0.99
   3  -4 -10    5.90    0.35
   3  -4 -10    5.27    0.36
   2  -4 -10    1.81    0.29
   2  -4 -10    2.83    0.37
   2  -4 -10    2.05    0.19
   2  -4 -10    2.09    0.16
   2  -4 -10    1.97    0.43
   1  -4 -10    0.78    0.11
   1  -4 -10    0.83    0.10
   1  -4 -10    0.78    0.09
   1  -4 -10    0.83    0.21
   1  -4 -10    0.72    0.31
   1  -4 -10    0.56    0.25
   0  -4 -10    8.97    0.50
   0  -4 -10    7.83    0.54
   0  -4 -10    7.97    0.69
   0  -4 -10    8.91    0.49
   0  -4 -10    9.38    0.51
   0  -4 -10    7.62    0.61
  -1  -4 -10    0.50    0.11
  -1  -4 -10    0.75    0.10
  -1  -4 -10    0.86    0.20
  -1  -4 -10    0.62    0.27
  -1  -4 -10    0.64    0.12
  -2  -4 -10    0.04    0.10
  -2  -4 -10    0.08    0.07
  -2  -4 -10    0.03    0.10
  -3  -4 -10    2.52    0.21
  -3  -4 -10    2.46    0.23
  -4  -4 -10    2.46    0.23
  -4  -4 -10    2.61    0.20
  -5  -4 -10    5.29    0.34
  -5  -4 -10    5.29    0.32
  -8   5  10   -0.05    0.07
  -8   5  10    0.00    0.09
  -7   5  10    2.84    0.21
  -7   5  10    2.59    0.23
  -6   5  10    2.02    0.19
   5  -5 -10    0.81    0.11
  -5   5  10    0.94    0.13
   4  -5 -10    0.63    0.09
   3  -5 -10   16.23    0.87
   3  -5 -10   12.81    1.11
   3  -5 -10   14.73    0.85
   2  -5 -10    0.06    0.09
   2  -5 -10    0.14    0.25
   2  -5 -10    0.16    0.09
   2  -5 -10    0.10    0.06
   1  -5 -10   37.89    2.01
   1  -5 -10   35.88    2.00
   1  -5 -10   35.61    2.03
   0  -5 -10    2.53    0.20
   0  -5 -10    2.17    0.21
   0  -5 -10    2.50    0.18
  -1  -5 -10    0.18    0.10
  -1  -5 -10    0.17    0.08
  -1  -5 -10    0.10    0.10
  -2  -5 -10    0.97    0.13
  -2  -5 -10    0.57    0.11
  -2  -5 -10    0.91    0.11
  -3  -5 -10    2.59    0.19
  -3  -5 -10    2.08    0.21
  -4  -5 -10   16.35    0.89
  -4  -5 -10   15.29    0.94
  -8   6  10    7.71    0.49
  -8   6  10    9.55    0.58
  -7   6  10   -0.04    0.08
   6  -6 -10    0.01    0.08
  -6   6  10    0.12    0.09
   5  -6 -10    2.91    0.22
  -5   6  10    3.12    0.24
   4  -6 -10    0.77    0.09
   3  -6 -10    4.14    0.29
   3  -6 -10    4.05    0.27
   2  -6 -10    3.58    0.23
   2  -6 -10    3.31    0.26
   2  -6 -10    3.63    0.26
   2  -6 -10    3.92    0.26
   1  -6 -10    1.68    0.18
   1  -6 -10    1.52    0.18
   1  -6 -10    1.96    0.16
   0  -6 -10    5.84    0.36
   0  -6 -10    6.07    0.37
   0  -6 -10    6.06    0.34
  -1  -6 -10    2.13    0.19
  -1  -6 -10    2.10    0.16
  -2  -6 -10   -0.02    0.08
  -2  -6 -10    0.08    0.04
  -3  -6 -10    3.26    0.21
   7  -7 -10    5.06    0.31
  -7   7  10    5.39    0.35
  -7   7  10    4.94    0.29
  -7   7  10    4.07    0.30
   6  -7 -10    0.32    0.08
   5  -7 -10    1.42    0.15
   4  -7 -10    2.32    0.17
   4  -7 -10    1.95    0.18
   4  -7 -10    2.17    0.20
   3  -7 -10    0.49    0.10
   3  -7 -10    0.51    0.09
   2  -7 -10   13.21    0.72
   2  -7 -10   11.93    0.71
   1  -7 -10    0.96    0.11
   1  -7 -10    0.73    0.09
   1  -7 -10    0.70    0.10
   0  -7 -10    0.54    0.08
   0  -7 -10    0.49    0.09
  -1  -7 -10    0.01    0.08
  -1  -7 -10    0.05    0.05
   6  -8 -10    3.91    0.24
  -6   8  10    3.37    0.23
   5  -8 -10    0.45    0.06
  -5   8  10    0.19    0.07
   4  -8 -10   10.42    0.61
   4  -8 -10   11.25    0.62
   3  -8 -10    1.19    0.12
   2  -8 -10    0.80    0.10
   2  -8 -10    1.10    0.12
   2  -8 -10    1.24    0.10
   1  -8 -10    0.37    0.07
   1  -8 -10    0.26    0.07
   0  -8 -10    0.41    0.05
   0  10 -11    0.84    0.10
   0 -10  11    0.96    0.10
  -1  10 -11    0.12    0.05
   1 -10  11    0.19    0.05
  -2  10 -11   -0.04    0.07
  -2  10 -11   -0.04    0.11
  -3  10 -11    1.37    0.20
  -3  10 -11    1.70    0.14
  -4  10 -11    0.26    0.10
  -4  10 -11    0.26    0.07
  -4  10 -11    0.13    0.06
  -5  10 -11   13.13    0.73
  -2  -9  11    3.80    0.23
   1   9 -11    1.23    0.13
  -1  -9  11    1.41    0.13
   0   9 -11    0.45    0.08
   0  -9  11    0.47    0.06
  -1   9 -11    0.17    0.06
  -2   9 -11    0.63    0.11
  -2   9 -11    0.64    0.07
  -3   9 -11   -0.01    0.08
  -3   9 -11    0.05    0.15
  -4   9 -11   18.84    0.96
  -4   9 -11   17.73    0.96
  -4   9 -11   15.04    1.37
  -5   9 -11    0.13    0.12
  -5   9 -11    0.22    0.08
  -5   9 -11    0.32    0.11
  -6   9 -11    2.67    0.25
  -6   9 -11    2.96    0.18
  -3  -8  11    6.08    0.35
  -3  -8  11    6.09    0.35
  -2  -8  11    5.28    0.33
  -2  -8  11    5.64    0.32
   1   8 -11    1.77    0.17
  -1  -8  11    1.95    0.16
   0   8 -11    0.06    0.07
  -1   8 -11   -0.06    0.10
  -1   8 -11   -0.03    0.07
  -2   8 -11    1.33    0.14
  -2   8 -11    1.39    0.13
  -3   8 -11    2.65    0.34
  -3   8 -11    2.88    0.22
  -3   8 -11    2.63    0.22
  -4   8 -11    0.57    0.08
  -4   8 -11    0.76    0.11
  -4   8 -11    0.80    0.15
  -4   8 -11    0.77    0.19
  -5   8 -11    2.67    0.19
  -5   8 -11    2.52    0.26
  -5   8 -11    2.21    0.29
  -6   8 -11    5.84    0.33
  -6   8 -11    5.41    0.43
  -7   8 -11   -0.02    0.11
  -4  -7  11   -0.04    0.06
  -4  -7  11   -0.02    0.06
  -3  -7  11    0.35    0.09
  -3  -7  11    0.35    0.08
  -3  -7  11    0.37    0.07
  -2  -7  11   14.86    0.86
   1   7 -11    5.38    0.34
   0   7 -11    3.09    0.22
  -1   7 -11    1.03    0.13
  -1   7 -11    1.23    0.14
  -2   7 -11    4.89    0.31
  -2   7 -11    4.98    0.33
  -3   7 -11    7.51    0.44
  -3   7 -11    7.07    0.66
  -3   7 -11    7.71    0.45
  -4   7 -11    4.09    0.26
  -4   7 -11    3.69    0.34
  -4   7 -11    3.39    0.24
  -4   7 -11    3.64    0.41
  -5   7 -11   -0.17    0.15
  -5   7 -11    0.01    0.13
  -5   7 -11    0.09    0.07
  -6   7 -11    4.29    0.23
  -6   7 -11    3.59    0.32
  -6   7 -11    3.17    0.29
  -6   7 -11    3.13    0.35
  -7   7 -11    1.60    0.18
  -7   7 -11    2.19    0.23
  -8   7 -11   -0.01    0.10
  -5  -6  11    0.62    0.06
  -5  -6  11    0.61    0.07
  -4  -6  11    0.63    0.09
  -4  -6  11    0.51    0.08
  -3  -6  11    8.88    0.53
  -3  -6  11    8.78    0.50
  -2  -6  11    7.00    0.43
   1   6 -11    0.03    0.07
   0   6 -11    0.44    0.07
   0   6 -11    0.34    0.25
  -1   6 -11    0.14    0.09
  -1   6 -11    0.06    0.06
  -1   6 -11   -0.04    0.21
  -1   6 -11    0.34    0.27
  -2   6 -11    1.27    0.29
  -2   6 -11    1.41    0.17
  -2   6 -11    1.41    0.16
  -2   6 -11    1.62    0.13
  -2   6 -11    0.86    0.30
  -3   6 -11    1.09    0.31
  -3   6 -11    1.01    0.11
  -3   6 -11    1.24    0.16
  -3   6 -11    1.09    0.12
  -3   6 -11    1.12    0.23
  -4   6 -11    6.14    0.36
  -4   6 -11    6.30    0.58
  -4   6 -11    5.97    0.37
  -4   6 -11    6.32    0.49
  -5   6 -11    8.66    0.63
  -5   6 -11    8.26    0.49
  -5   6 -11    8.15    0.59
  -5   6 -11    9.14    0.74
  -6   6 -11    8.75    0.46
  -6   6 -11    7.51    0.70
  -6   6 -11    8.56    0.58
  -6   6 -11    8.09    0.61
  -7   6 -11    4.05    0.32
  -7   6 -11    4.08    0.34
  -8   6 -11   -0.04    0.08
  -8   6 -11   -0.10    0.12
  -6  -5  11    1.72    0.14
  -6  -5  11    1.77    0.12
  -5  -5  11    0.87    0.12
  -5  -5  11    1.09    0.13
  -4  -5  11    1.11    0.12
  -4  -5  11    0.87    0.10
  -4  -5  11    1.02    0.11
  -3  -5  11    2.37    0.18
  -3  -5  11    2.47    0.18
  -2  -5  11    5.04    0.46
  -2  -5  11    5.56    0.34
   1   5 -11   66.74    4.42
   1   5 -11   68.05    3.87
  -1  -5  11   68.67    4.09
   0   5 -11    0.85    0.29
   0   5 -11    0.62    0.08
   0   5 -11    0.65    0.11
  -1   5 -11    0.25    0.21
  -1   5 -11    0.06    0.25
  -1   5 -11   -0.01    0.20
  -1   5 -11    0.19    0.09
  -1   5 -11    0.20    0.06
  -1   5 -11    0.19    0.09
  -2   5 -11   11.29    0.62
  -2   5 -11   11.11    0.86
  -2   5 -11    9.45    0.85
  -2   5 -11   12.48    0.90
  -2   5 -11    9.33    0.76
  -2   5 -11   10.34    0.61
  -2   5 -11   10.02    0.61
  -3   5 -11    1.38    0.33
  -3   5 -11    1.01    0.29
  -3   5 -11    1.51    0.24
  -3   5 -11    1.21    0.15
  -3   5 -11    1.47    0.14
  -3   5 -11    1.00    0.20
  -3   5 -11    1.36    0.18
  -4   5 -11    3.91    0.22
  -4   5 -11    3.71    0.25
  -4   5 -11    3.84    0.42
  -4   5 -11    3.77    0.35
  -4   5 -11    3.71    0.32
  -4   5 -11    3.77    0.48
  -5   5 -11    0.94    0.21
  -5   5 -11    0.99    0.11
  -5   5 -11    0.82    0.14
  -5   5 -11    0.56    0.15
  -6   5 -11    6.92    0.65
  -6   5 -11    7.71    0.53
  -6   5 -11    7.80    0.57
  -7   5 -11    1.06    0.15
  -7   5 -11    1.10    0.18
  -8   5 -11    0.10    0.09
  -8   5 -11    0.15    0.12
  -6  -4  11    7.32    0.41
  -6  -4  11    6.81    0.41
  -5  -4  11    0.20    0.06
  -5  -4  11    0.04    0.07
  -4  -4  11    7.34    0.44
  -4  -4  11    7.32    0.44
  -3  -4  11    2.14    0.17
   2   4 -11    0.80    0.10
   2   4 -11    0.76    0.28
   1   4 -11   37.81    2.54
   1   4 -11   38.54    2.19
   0   4 -11   -0.09    0.17
   0   4 -11    0.10    0.06
   0   4 -11    0.21    0.09
   0   4 -11    0.12    0.23
   0   4 -11   -0.02    0.24
  -1   4 -11    0.02    0.08
  -1   4 -11    0.11    0.25
  -1   4 -11    0.09    0.08
  -1   4 -11    0.13    0.19
  -1   4 -11    0.22    0.23
  -1   4 -11    0.09    0.06
  -1   4 -11    0.16    0.15
  -2   4 -11    0.52    0.09
  -2   4 -11    1.05    0.29
  -2   4 -11    0.59    0.07
  -2   4 -11    0.48    0.23
  -2   4 -11    0.55    0.12
  -2   4 -11    0.56    0.18
  -2   4 -11    0.53    0.18
  -2   4 -11    0.60    0.09
  -3   4 -11    0.43    0.14
  -3   4 -11    0.36    0.12
  -3   4 -11    0.70    0.26
  -3   4 -11    0.40    0.18
  -3   4 -11    0.46    0.07
  -3   4 -11    0.59    0.15
  -3   4 -11    0.51    0.08
  -3   4 -11    0.56    0.20
  -4   4 -11    2.06    0.34
  -4   4 -11    1.97    0.27
  -4   4 -11    2.28    0.31
  -4   4 -11    2.06    0.25
  -4   4 -11    1.82    0.16
  -5   4 -11   20.29    1.20
  -5   4 -11   22.30    1.76
  -5   4 -11   22.76    1.52
  -5   4 -11   22.63    1.44
  -6   4 -11    1.12    0.20
  -6   4 -11    1.87    0.23
  -6   4 -11    1.55    0.26
  -7   4 -11    2.03    0.25
  -7   4 -11    1.65    0.22
  -7   4 -11    1.56    0.23
  -8   4 -11    0.40    0.12
  -8   4 -11    0.32    0.10
  -7  -3  11    1.50    0.12
  -7  -3  11    1.61    0.18
  -7  -3  11    1.50    0.14
  -6  -3  11    0.13    0.07
  -6  -3  11    0.19    0.10
  -6  -3  11    0.20    0.08
  -5  -3  11    0.95    0.11
  -5  -3  11    0.86    0.09
  -4  -3  11    3.09    0.22
  -3  -3  11    6.54    0.40
   2   3 -11    2.29    0.18
   2   3 -11    2.40    0.34
   1   3 -11   29.76    1.78
   1   3 -11   24.14    1.68
   1   3 -11   24.79    1.50
   0   3 -11   34.46    2.11
   0   3 -11   28.96    1.73
   0   3 -11   30.84    1.72
   0   3 -11   30.54    1.79
   0   3 -11   33.39    2.46
   0   3 -11   29.60    1.98
  -1   3 -11   13.65    0.93
  -1   3 -11   12.47    0.84
  -1   3 -11   11.06    0.68
  -1   3 -11   13.50    1.00
  -1   3 -11   11.50    0.70
  -1   3 -11   11.64    0.69
  -2   3 -11    1.26    0.14
  -2   3 -11    1.44    0.21
  -2   3 -11    0.92    0.24
  -2   3 -11    1.40    0.13
  -2   3 -11    1.59    0.21
  -2   3 -11    1.66    0.25
  -2   3 -11    1.12    0.25
  -3   3 -11   17.05    0.98
  -3   3 -11   16.75    1.06
  -3   3 -11   20.75    1.44
  -3   3 -11   17.62    1.27
  -3   3 -11   17.19    1.20
  -3   3 -11   17.52    0.98
  -3   3 -11   16.68    1.11
  -3   3 -11   19.04    1.24
  -3   3 -11   17.68    1.18
  -4   3 -11    0.23    0.06
  -4   3 -11    0.38    0.10
  -4   3 -11    0.38    0.14
  -4   3 -11    0.13    0.17
  -4   3 -11    0.44    0.13
  -4   3 -11   -0.04    0.23
  -5   3 -11   23.82    1.73
  -5   3 -11   25.74    2.00
  -5   3 -11   25.93    1.65
  -6   3 -11    5.24    0.44
  -6   3 -11    4.57    0.47
  -6   3 -11    5.16    0.40
  -7   3 -11    0.50    0.14
  -7   3 -11    0.69    0.16
  -7   3 -11    0.24    0.12
  -8   3 -11    1.49    0.20
  -8  -2  11    5.79    0.33
  -7  -2  11   10.45    0.58
  -7  -2  11   10.52    0.58
  -7  -2  11    9.93    0.70
  -6  -2  11   13.18    0.76
  -6  -2  11   13.44    0.77
  -5  -2  11    4.74    0.30
  -5  -2  11    4.58    0.30
  -4  -2  11   -0.01    0.07
   2   2 -11    6.10    0.40
   2   2 -11    7.22    0.58
   1   2 -11   51.06    2.85
   1   2 -11   53.16    3.23
   1   2 -11   48.83    3.46
   1   2 -11   55.67    3.39
   1   2 -11   50.40    2.96
   0   2 -11    3.05    0.21
   0   2 -11    3.14    0.22
   0   2 -11    3.76    0.43
   0   2 -11    3.31    0.35
   0   2 -11    3.83    0.34
   0   2 -11    2.64    0.22
   0   2 -11    3.05    0.43
  -1   2 -11    5.85    0.52
  -1   2 -11    5.92    0.44
  -1   2 -11    5.70    0.49
  -1   2 -11    5.03    0.33
  -1   2 -11    5.48    0.33
  -1   2 -11    5.24    0.32
  -2   2 -11    0.46    0.13
  -2   2 -11    0.52    0.15
  -2   2 -11    0.51    0.07
  -2   2 -11    0.45    0.20
  -2   2 -11    0.44    0.07
  -2   2 -11    0.62    0.16
  -2   2 -11    0.48    0.21
  -2   2 -11    0.50    0.11
  -3   2 -11    0.03    0.10
  -3   2 -11   -0.03    0.13
  -3   2 -11   -0.06    0.15
  -3   2 -11    0.17    0.12
  -3   2 -11    0.16    0.21
  -3   2 -11    0.03    0.06
  -4   2 -11    0.70    0.12
  -4   2 -11    0.81    0.14
  -4   2 -11    0.77    0.09
  -4   2 -11    0.65    0.17
  -4   2 -11    0.30    0.24
  -4   2 -11    0.82    0.20
  -5   2 -11   16.85    1.11
  -5   2 -11   14.78    1.04
  -5   2 -11   14.85    0.94
  -5   2 -11   16.04    1.27
  -6   2 -11   -0.04    0.15
  -6   2 -11   -0.08    0.09
  -6   2 -11    0.17    0.12
  -6   2 -11   -0.04    0.15
  -7   2 -11    1.98    0.25
  -7   2 -11    2.31    0.25
  -8  -1  11    6.64    0.39
  -8  -1  11    6.82    0.47
  -7  -1  11    1.64    0.15
  -7  -1  11    1.60    0.20
  -7  -1  11    1.56    0.17
  -6  -1  11   19.57    1.12
  -6  -1  11   20.45    1.15
  -5  -1  11    0.37    0.08
  -5  -1  11    0.36    0.09
  -4  -1  11    0.85    0.10
   2   1 -11   69.58    3.94
   2   1 -11   68.57    4.59
   1   1 -11    2.65    0.21
   1   1 -11    3.88    0.41
   1   1 -11    2.77    0.20
   1   1 -11    2.94    0.38
   1   1 -11    3.66    0.49
   0   1 -11   26.33    1.58
   0   1 -11   28.28    1.76
   0   1 -11   28.57    1.91
   0   1 -11   27.99    1.86
   0   1 -11   27.86    1.53
   0   1 -11   26.14    1.52
   0   1 -11   28.91    2.18
  -1   1 -11   42.90    2.28
  -1   1 -11   42.11    2.59
  -1   1 -11   42.91    2.75
  -1   1 -11   40.94    2.77
  -1   1 -11   41.46    2.29
  -1   1 -11   41.11    2.45
  -1   1 -11   45.35    3.27
  -1   1 -11   37.36    2.82
  -2   1 -11    0.96    0.09
  -2   1 -11    0.80    0.09
  -2   1 -11    0.97    0.14
  -2   1 -11    0.68    0.23
  -2   1 -11    0.87    0.17
  -2   1 -11    0.91    0.12
  -2   1 -11    0.91    0.16
  -3   1 -11    0.11    0.15
  -3   1 -11   -0.03    0.10
  -3   1 -11    0.11    0.15
  -3   1 -11    0.13    0.22
  -3   1 -11    0.03    0.06
  -4   1 -11   63.38    3.99
  -4   1 -11   68.65    4.86
  -4   1 -11   53.57    4.04
  -4   1 -11   60.67    4.19
  -4   1 -11   63.32    3.63
  -5   1 -11    3.99    0.44
  -5   1 -11    4.39    0.35
  -5   1 -11    4.03    0.31
  -5   1 -11    4.34    0.38
  -6   1 -11    7.17    0.66
  -6   1 -11    7.83    0.57
  -6   1 -11    7.90    0.49
  -7   1 -11    0.24    0.13
  -7   1 -11    0.30    0.14
  -8   0  11    0.06    0.08
  -8   0  11    0.12    0.07
  -8   0  11    0.23    0.06
  -7   0  11    3.12    0.22
  -7   0  11    2.86    0.27
  -6   0  11    6.49    0.40
  -6   0  11    6.58    0.40
  -5   0  11    4.09    0.28
  -4   0  11    0.71    0.08
   3   0 -11    2.28    0.18
   2   0 -11    3.75    0.24
   2   0 -11    3.09    0.47
   1   0 -11    7.92    0.48
   1   0 -11    7.86    0.48
   1   0 -11    8.97    0.75
   1   0 -11    8.67    0.62
   1   0 -11    7.73    0.49
   1   0 -11    9.63    0.67
   0   0 -11    0.04    0.07
   0   0 -11    0.03    0.07
   0   0 -11    0.08    0.12
   0   0 -11    0.07    0.19
   0   0 -11    0.16    0.16
   0   0 -11    0.06    0.16
   0   0 -11    0.04    0.24
   0   0 -11    0.15    0.04
   0   0 -11   -0.02    0.12
  -1   0 -11    0.03    0.07
  -1   0 -11    0.06    0.13
  -1   0 -11    0.06    0.07
  -1   0 -11    0.22    0.21
  -1   0 -11    0.13    0.06
  -1   0 -11    0.02    0.13
  -1   0 -11   -0.08    0.20
  -1   0 -11   -0.04    0.09
  -1   0 -11    0.18    0.14
  -2   0 -11    5.83    0.54
  -2   0 -11    5.96    0.38
  -2   0 -11    5.64    0.33
  -2   0 -11    5.43    0.31
  -2   0 -11    5.93    0.51
  -2   0 -11    5.24    0.37
  -2   0 -11    4.97    0.33
  -2   0 -11    6.13    0.46
  -3   0 -11    2.24    0.36
  -3   0 -11    3.61    0.37
  -3   0 -11    2.97    0.22
  -3   0 -11    3.60    0.34
  -3   0 -11    3.12    0.20
  -3   0 -11    3.42    0.28
  -4   0 -11    0.77    0.31
  -4   0 -11    1.14    0.15
  -4   0 -11    0.90    0.20
  -4   0 -11    1.13    0.11
  -4   0 -11    1.07    0.18
  -5   0 -11   13.27    0.93
  -5   0 -11   12.13    1.07
  -5   0 -11   14.02    0.80
  -5   0 -11   12.90    0.75
  -6   0 -11    3.19    0.35
  -6   0 -11    3.24    0.26
  -6   0 -11    3.30    0.31
  -7   0 -11    8.49    0.52
  -8   1  11    0.25    0.09
  -8   1  11    0.16    0.07
  -8   1  11    0.08    0.07
  -7   1  11    9.48    0.54
  -7   1  11    8.76    0.64
  -7   1  11    9.53    0.54
  -6   1  11    4.72    0.37
  -6   1  11    4.62    0.31
  -6   1  11    4.99    0.32
  -5   1  11    7.88    0.48
   3  -1 -11    4.36    0.28
   2  -1 -11   18.60    1.07
   2  -1 -11   19.57    1.23
   2  -1 -11   17.89    1.04
   2  -1 -11   18.07    1.38
   1  -1 -11    6.45    0.41
   1  -1 -11    7.40    0.54
   1  -1 -11    6.83    0.41
   1  -1 -11    7.41    0.59
   1  -1 -11    7.05    0.67
   1  -1 -11    6.57    0.41
   0  -1 -11    0.62    0.18
   0  -1 -11    0.62    0.11
   0  -1 -11    0.53    0.26
   0  -1 -11    0.44    0.08
   0  -1 -11    0.79    0.24
   0  -1 -11    0.70    0.09
   0  -1 -11    0.50    0.05
   0  -1 -11    0.26    0.20
  -1  -1 -11    2.42    0.19
  -1  -1 -11    2.44    0.17
  -1  -1 -11    2.38    0.31
  -1  -1 -11    2.87    0.29
  -1  -1 -11    2.36    0.23
  -1  -1 -11    2.33    0.33
  -1  -1 -11    2.43    0.35
  -1  -1 -11    2.66    0.27
  -1  -1 -11    2.21    0.18
  -1  -1 -11    2.53    0.29
  -2  -1 -11    0.06    0.11
  -2  -1 -11   -0.10    0.06
  -2  -1 -11   -0.08    0.14
  -2  -1 -11    0.10    0.14
  -2  -1 -11   -0.13    0.08
  -2  -1 -11    0.00    0.23
  -3  -1 -11    1.81    0.35
  -3  -1 -11    1.89    0.28
  -3  -1 -11    1.20    0.19
  -3  -1 -11    2.00    0.22
  -3  -1 -11    1.64    0.12
  -3  -1 -11    1.87    0.17
  -4  -1 -11    0.04    0.09
  -4  -1 -11    0.34    0.14
  -4  -1 -11    0.00    0.11
  -4  -1 -11   -0.16    0.16
  -5  -1 -11    2.26    0.30
  -5  -1 -11    2.06    0.19
  -5  -1 -11    2.34    0.23
  -6  -1 -11    5.15    0.33
  -6  -1 -11    4.11    0.43
  -6  -1 -11    4.89    0.29
  -8   2  11    1.26    0.16
  -8   2  11    1.23    0.13
  -8   2  11    1.34    0.16
  -7   2  11    0.15    0.07
  -7   2  11    0.01    0.10
  -7   2  11    0.00    0.09
  -6   2  11    3.51    0.26
  -6   2  11    3.09    0.24
  -6   2  11    3.09    0.27
  -5   2  11    0.46    0.10
   4  -2 -11    4.47    0.30
   3  -2 -11    1.11    0.11
   2  -2 -11    0.07    0.30
   2  -2 -11   -0.03    0.09
   2  -2 -11    0.00    0.06
   2  -2 -11    0.07    0.19
   2  -2 -11   -0.04    0.09
   1  -2 -11   27.25    1.47
   1  -2 -11   27.39    1.57
   1  -2 -11   26.42    1.47
   1  -2 -11   27.40    1.80
   1  -2 -11   26.09    1.52
   1  -2 -11   25.90    1.86
   1  -2 -11   25.96    1.79
   1  -2 -11   26.04    1.70
   0  -2 -11    0.14    0.10
   0  -2 -11    0.51    0.24
   0  -2 -11    0.17    0.08
   0  -2 -11    0.09    0.16
   0  -2 -11    0.19    0.24
   0  -2 -11    0.11    0.07
   0  -2 -11    0.16    0.22
  -1  -2 -11    1.78    0.29
  -1  -2 -11    2.42    0.19
  -1  -2 -11    2.61    0.34
  -1  -2 -11    2.74    0.38
  -1  -2 -11    2.17    0.23
  -1  -2 -11    2.74    0.17
  -1  -2 -11    2.56    0.30
  -1  -2 -11    2.33    0.20
  -1  -2 -11    2.39    0.25
  -2  -2 -11    1.72    0.22
  -2  -2 -11    1.38    0.27
  -2  -2 -11    2.10    0.37
  -2  -2 -11    1.72    0.19
  -2  -2 -11    1.96    0.15
  -2  -2 -11    1.84    0.28
  -3  -2 -11    5.88    0.40
  -3  -2 -11    5.99    0.54
  -3  -2 -11    5.34    0.33
  -3  -2 -11    6.26    0.37
  -4  -2 -11    9.09    0.52
  -4  -2 -11    8.12    0.74
  -4  -2 -11    8.75    0.56
  -5  -2 -11    2.55    0.33
  -5  -2 -11    3.19    0.25
  -5  -2 -11    3.11    0.22
  -6  -2 -11    0.58    0.07
  -6  -2 -11    0.32    0.10
  -8   3  11    2.94    0.21
  -8   3  11    3.09    0.25
  -7   3  11    0.10    0.09
  -7   3  11    0.13    0.07
  -6   3  11    4.41    0.30
  -5   3  11   12.79    0.76
   4  -3 -11    6.42    0.40
   3  -3 -11   10.25    0.63
   3  -3 -11   10.90    0.63
   2  -3 -11    0.55    0.33
   2  -3 -11    0.55    0.10
   2  -3 -11    0.51    0.08
   2  -3 -11    0.55    0.24
   2  -3 -11    1.05    0.28
   1  -3 -11    2.57    0.33
   1  -3 -11    2.81    0.23
   1  -3 -11    2.81    0.22
   1  -3 -11    2.68    0.18
   1  -3 -11    2.76    0.21
   1  -3 -11    2.22    0.40
   1  -3 -11    2.96    0.39
   0  -3 -11   23.85    1.74
   0  -3 -11   27.36    1.44
   0  -3 -11   28.01    1.42
   0  -3 -11   26.47    1.42
   0  -3 -11   22.53    1.62
   0  -3 -11   25.09    1.52
  -1  -3 -11    2.13    0.29
  -1  -3 -11    2.13    0.33
  -1  -3 -11    1.94    0.23
  -1  -3 -11    2.11    0.15
  -1  -3 -11    2.30    0.18
  -1  -3 -11    2.12    0.20
  -2  -3 -11    0.36    0.11
  -2  -3 -11    0.39    0.07
  -2  -3 -11    0.38    0.11
  -2  -3 -11    0.47    0.18
  -3  -3 -11    0.91    0.13
  -3  -3 -11    1.01    0.21
  -3  -3 -11    0.69    0.12
  -4  -3 -11    8.09    0.52
  -4  -3 -11    8.36    0.49
  -5  -3 -11    9.22    0.57
  -5  -3 -11    9.49    0.54
  -8   4  11    0.76    0.09
  -8   4  11    0.99    0.12
  -7   4  11    0.60    0.09
  -7   4  11    0.59    0.11
  -6   4  11    0.47    0.09
   5  -4 -11    1.32    0.16
  -5   4  11    1.39    0.17
   4  -4 -11    1.40    0.16
   3  -4 -11    1.29    0.15
   3  -4 -11    1.37    0.15
   3  -4 -11    1.80    0.35
   2  -4 -11    0.96    0.12
   2  -4 -11    0.91    0.12
   2  -4 -11    1.06    0.13
   2  -4 -11    0.98    0.28
   1  -4 -11   25.47    1.50
   1  -4 -11   22.28    1.78
   1  -4 -11   28.07    1.46
   1  -4 -11   26.94    1.47
   1  -4 -11   27.81    1.45
   0  -4 -11    4.19    0.35
   0  -4 -11    4.96    0.32
   0  -4 -11    5.06    0.33
   0  -4 -11    5.45    0.30
  -1  -4 -11    9.04    0.51
  -1  -4 -11    9.29    0.54
  -1  -4 -11    8.51    0.56
  -2  -4 -11    0.28    0.06
  -2  -4 -11    0.27    0.11
  -2  -4 -11    0.14    0.10
  -3  -4 -11    2.78    0.21
  -3  -4 -11    2.54    0.24
  -4  -4 -11    3.99    0.30
  -4  -4 -11    4.46    0.27
  -8   5  11   -0.03    0.07
  -8   5  11    0.09    0.09
  -7   5  11    0.06    0.08
   6  -5 -11    1.00    0.11
  -6   5  11    0.80    0.12
   5  -5 -11    1.47    0.16
  -5   5  11    1.63    0.18
   4  -5 -11    0.96    0.10
   3  -5 -11    2.87    0.23
   3  -5 -11    2.84    0.20
   2  -5 -11    4.34    0.27
   2  -5 -11    4.04    0.30
   2  -5 -11    4.96    0.30
   1  -5 -11    0.70    0.11
   1  -5 -11    0.74    0.09
   1  -5 -11    0.65    0.11
   0  -5 -11    4.23    0.29
   0  -5 -11    4.44    0.30
  -1  -5 -11    2.62    0.23
  -1  -5 -11    2.85    0.22
  -1  -5 -11    2.64    0.19
  -2  -5 -11    0.53    0.11
  -2  -5 -11    0.52    0.06
  -2  -5 -11    0.61    0.10
  -3  -5 -11   -0.11    0.08
  -3  -5 -11   -0.01    0.08
   7  -6 -11    1.73    0.15
  -7   6  11    1.38    0.15
   6  -6 -11    1.22    0.12
  -6   6  11    1.13    0.12
   5  -6 -11    0.72    0.10
  -5   6  11    0.71    0.12
   4  -6 -11    2.34    0.21
   4  -6 -11    2.53    0.18
   3  -6 -11    1.92    0.19
   3  -6 -11    2.08    0.15
   3  -6 -11    1.79    0.19
   2  -6 -11    8.07    0.45
   2  -6 -11    7.86    0.46
   2  -6 -11    7.10    0.46
   1  -6 -11    0.21    0.10
   1  -6 -11    0.31    0.09
   0  -6 -11   10.25    0.58
   0  -6 -11    9.78    0.57
  -1  -6 -11    4.83    0.29
  -1  -6 -11    5.19    0.31
  -2  -6 -11    1.27    0.13
   6  -7 -11    3.21    0.22
   5  -7 -11    0.08    0.07
   5  -7 -11    0.07    0.09
   4  -7 -11    8.47    0.49
   4  -7 -11    7.72    0.49
   4  -7 -11    9.03    0.49
   3  -7 -11    6.46    0.39
   3  -7 -11    6.48    0.39
   2  -7 -11    2.01    0.17
   2  -7 -11    2.11    0.18
   1  -7 -11   -0.01    0.03
   1  -7 -11   -0.02    0.08
   1  -7 -11    0.04    0.08
   0  -7 -11    5.81    0.36
   0  -7 -11    6.73    0.37
  -1  -7 -11    1.33    0.12
   3  -8 -11    2.34    0.15
   3  -8 -11    2.20    0.16
   2  -8 -11    4.24    0.26
  -1  10 -12    3.23    0.30
  -2  10 -12    1.41    0.20
  -2  10 -12    2.10    0.14
  -3  10 -12   -0.05    0.05
  -3  10 -12   -0.12    0.09
  -4  10 -12    0.09    0.08
   1   9 -12    2.65    0.20
  -1  -9  12    3.39    0.20
  -1  -9  12    3.21    0.19
   0   9 -12    2.69    0.19
   0  -9  12    2.67    0.19
  -1   9 -12    0.35    0.08
  -1   9 -12    0.57    0.07
  -2   9 -12    2.21    0.27
  -2   9 -12    2.41    0.19
  -3   9 -12    1.31    0.14
  -3   9 -12    1.26    0.19
  -3   9 -12    1.75    0.16
  -4   9 -12    0.24    0.12
  -4   9 -12    0.27    0.08
  -4   9 -12    0.30    0.06
  -5   9 -12   10.27    0.93
  -5   9 -12   13.04    0.65
  -6   9 -12    6.21    0.35
  -3  -8  12    3.64    0.22
   2   8 -12    6.26    0.42
  -2  -8  12    6.98    0.39
  -2  -8  12    7.54    0.41
   1   8 -12    0.02    0.07
  -1  -8  12    0.02    0.06
   0   8 -12    5.66    0.35
  -1   8 -12    2.08    0.16
  -1   8 -12    1.82    0.20
  -2   8 -12    0.19    0.09
  -2   8 -12    0.25    0.16
  -2   8 -12    0.19    0.06
  -3   8 -12    1.54    0.16
  -3   8 -12    1.32    0.21
  -3   8 -12    1.51    0.15
  -4   8 -12    0.47    0.16
  -4   8 -12    0.46    0.09
  -4   8 -12    0.46    0.07
  -5   8 -12    3.21    0.28
  -5   8 -12    3.47    0.21
  -5   8 -12    2.83    0.32
  -6   8 -12    1.12    0.10
  -6   8 -12    1.01    0.14
  -7   8 -12   11.24    0.78
  -4  -7  12    0.06    0.04
  -3  -7  12    0.13    0.06
  -3  -7  12    0.17    0.07
  -3  -7  12    0.19    0.07
   2   7 -12    0.30    0.09
  -2  -7  12    0.46    0.07
   1   7 -12    1.31    0.15
   0   7 -12   15.99    0.93
  -1   7 -12   -0.01    0.10
  -1   7 -12    0.05    0.07
  -2   7 -12    5.80    0.52
  -2   7 -12    5.10    0.35
  -2   7 -12    4.97    0.34
  -2   7 -12    5.89    0.33
  -3   7 -12    0.68    0.20
  -3   7 -12    0.62    0.10
  -3   7 -12    0.67    0.11
  -4   7 -12    0.43    0.09
  -4   7 -12    0.31    0.18
  -4   7 -12    0.39    0.07
  -4   7 -12    0.50    0.14
  -5   7 -12    2.16    0.25
  -5   7 -12    2.13    0.30
  -5   7 -12    2.60    0.18
  -6   7 -12    5.18    0.27
  -6   7 -12    3.90    0.42
  -6   7 -12    4.99    0.38
  -7   7 -12   15.11    1.04
  -5  -6  12   10.14    0.57
  -4  -6  12    0.10    0.05
  -4  -6  12    0.10    0.06
  -3  -6  12    1.89    0.17
  -3  -6  12    2.09    0.16
   2   6 -12    0.72    0.10
  -2  -6  12    1.07    0.13
   1   6 -12    0.18    0.08
   0   6 -12    7.83    0.49
   0   6 -12    8.28    0.49
  -1   6 -12    0.37    0.07
  -1   6 -12    0.39    0.10
  -2   6 -12    0.48    0.06
  -2   6 -12    0.51    0.19
  -2   6 -12    0.37    0.10
  -2   6 -12    0.45    0.10
  -3   6 -12    9.04    0.50
  -3   6 -12    7.77    0.50
  -3   6 -12    9.00    0.75
  -4   6 -12    3.13    0.38
  -4   6 -12    3.21    0.23
  -4   6 -12    3.23    0.31
  -4   6 -12    3.36    0.20
  -5   6 -12    0.02    0.07
  -5   6 -12   -0.10    0.10
  -5   6 -12   -0.10    0.14
  -5   6 -12    0.11    0.16
  -6   6 -12   14.41    0.96
  -6   6 -12   13.61    1.17
  -6   6 -12   15.59    1.02
  -7   6 -12    1.83    0.24
  -7   6 -12    2.71    0.23
  -7   6 -12    2.85    0.26
  -6  -5  12    2.04    0.13
  -5  -5  12    2.20    0.17
  -5  -5  12    2.17    0.21
  -4  -5  12    1.31    0.13
  -4  -5  12    1.17    0.14
  -3  -5  12    2.10    0.17
   2   5 -12    1.51    0.16
  -2  -5  12    1.43    0.14
   1   5 -12    4.06    0.53
   1   5 -12    4.94    0.31
   0   5 -12   26.27    1.48
   0   5 -12   26.45    1.43
   0   5 -12   23.70    1.77
  -1   5 -12    0.02    0.24
  -1   5 -12    0.24    0.06
  -1   5 -12    0.25    0.17
  -1   5 -12    0.29    0.10
  -1   5 -12    0.28    0.10
  -1   5 -12    0.08    0.20
  -2   5 -12    1.38    0.24
  -2   5 -12    1.55    0.11
  -2   5 -12    1.42    0.16
  -2   5 -12    1.50    0.17
  -2   5 -12    1.66    0.35
  -2   5 -12    1.26    0.24
  -3   5 -12    2.55    0.19
  -3   5 -12    2.33    0.27
  -3   5 -12    2.76    0.35
  -3   5 -12    2.57    0.39
  -3   5 -12    2.66    0.20
  -4   5 -12    0.48    0.19
  -4   5 -12    0.49    0.15
  -4   5 -12    0.31    0.12
  -4   5 -12    0.38    0.08
  -5   5 -12    3.67    0.34
  -5   5 -12    3.49    0.31
  -5   5 -12    3.72    0.22
  -5   5 -12    3.21    0.39
  -6   5 -12    1.06    0.17
  -6   5 -12    0.94    0.17
  -6   5 -12    0.97    0.15
  -7   5 -12    0.00    0.14
  -7   5 -12    0.11    0.10
  -7   5 -12    0.11    0.11
  -8   5 -12    5.30    0.39
  -6  -4  12    1.10    0.12
  -6  -4  12    1.23    0.16
  -5  -4  12    4.31    0.26
  -5  -4  12    3.73    0.27
  -4  -4  12    1.01    0.10
  -3  -4  12    3.34    0.23
   2   4 -12    0.06    0.08
   1   4 -12   12.00    0.74
   1   4 -12   13.48    0.97
   0   4 -12    0.39    0.15
   0   4 -12    0.36    0.07
   0   4 -12    0.33    0.09
   0   4 -12    0.56    0.29
   0   4 -12    0.39    0.27
   0   4 -12    0.40    0.21
  -1   4 -12    3.75    0.47
  -1   4 -12    3.51    0.25
  -1   4 -12    4.05    0.47
  -1   4 -12    3.55    0.23
  -1   4 -12    4.04    0.39
  -1   4 -12    3.28    0.38
  -1   4 -12    3.39    0.25
  -2   4 -12    4.04    0.25
  -2   4 -12    4.49    0.41
  -2   4 -12    3.69    0.36
  -2   4 -12    3.51    0.44
  -2   4 -12    3.47    0.25
  -2   4 -12    3.07    0.28
  -3   4 -12    0.91    0.12
  -3   4 -12    1.40    0.31
  -3   4 -12    1.05    0.11
  -3   4 -12    0.87    0.10
  -3   4 -12    0.97    0.16
  -3   4 -12    1.10    0.22
  -3   4 -12    0.80    0.17
  -4   4 -12    0.26    0.13
  -4   4 -12    0.09    0.14
  -4   4 -12    0.20    0.07
  -4   4 -12    0.20    0.19
  -5   4 -12   -0.06    0.15
  -5   4 -12    0.06    0.17
  -5   4 -12    0.27    0.13
  -6   4 -12   12.14    0.81
  -6   4 -12   10.63    0.93
  -6   4 -12   11.10    0.77
  -7   4 -12    0.91    0.16
  -7   4 -12    0.49    0.13
  -7   4 -12    0.68    0.12
  -8   4 -12    2.03    0.21
  -7  -3  12    1.65    0.12
  -7  -3  12    1.82    0.17
  -7  -3  12    1.58    0.14
  -6  -3  12    2.72    0.20
  -6  -3  12    2.73    0.24
  -5  -3  12    0.44    0.09
  -5  -3  12    0.55    0.08
  -4  -3  12   15.41    0.90
  -3  -3  12    3.20    0.23
   2   3 -12   52.72    3.02
   1   3 -12   50.26    3.18
   1   3 -12   49.06    2.66
   1   3 -12   51.18    2.76
   1   3 -12   42.17    3.03
   0   3 -12   28.00    1.87
   0   3 -12   25.82    1.57
   0   3 -12   25.45    1.76
   0   3 -12   28.17    1.52
   0   3 -12   29.25    2.16
  -1   3 -12    3.43    0.45
  -1   3 -12    3.38    0.23
  -1   3 -12    2.94    0.35
  -1   3 -12    3.07    0.20
  -1   3 -12    3.29    0.23
  -1   3 -12    3.75    0.36
  -1   3 -12    3.09    0.43
  -2   3 -12    0.07    0.11
  -2   3 -12    0.07    0.15
  -2   3 -12    0.18    0.07
  -2   3 -12    0.16    0.16
  -2   3 -12    0.15    0.24
  -2   3 -12    0.24    0.13
  -2   3 -12    0.20    0.07
  -2   3 -12    0.16    0.20
  -3   3 -12    1.99    0.35
  -3   3 -12    2.95    0.34
  -3   3 -12    2.69    0.24
  -3   3 -12    2.74    0.19
  -3   3 -12    2.61    0.15
  -3   3 -12    2.49    0.29
  -4   3 -12    6.23    0.52
  -4   3 -12    7.03    0.59
  -4   3 -12    6.50    0.43
  -4   3 -12    6.18    0.62
  -4   3 -12    6.57    0.48
  -4   3 -12    6.26    0.37
  -5   3 -12   13.24    1.19
  -5   3 -12   16.45    1.04
  -5   3 -12   14.25    0.98
  -6   3 -12    2.49    0.32
  -6   3 -12    2.80    0.31
  -6   3 -12    3.22    0.27
  -7   3 -12    1.79    0.21
  -7   3 -12    1.14    0.20
  -7  -2  12    3.04    0.26
  -7  -2  12    3.36    0.21
  -7  -2  12    3.11    0.22
  -6  -2  12    0.04    0.06
  -6  -2  12    0.00    0.08
  -5  -2  12    5.54    0.35
  -5  -2  12    5.38    0.35
  -4  -2  12    0.26    0.08
   3   2 -12    0.82    0.10
   2   2 -12    0.24    0.07
   1   2 -12    0.71    0.11
   1   2 -12    0.72    0.28
   1   2 -12    1.00    0.13
   1   2 -12    0.90    0.29
   1   2 -12    0.98    0.27
   0   2 -12   -0.04    0.08
   0   2 -12    0.04    0.09
   0   2 -12   -0.04    0.18
   0   2 -12    0.14    0.23
   0   2 -12    0.14    0.25
   0   2 -12    0.05    0.14
   0   2 -12   -0.02    0.05
  -1   2 -12   21.09    1.34
  -1   2 -12   23.15    1.62
  -1   2 -12   25.49    1.30
  -1   2 -12   22.99    1.50
  -1   2 -12   26.28    1.87
  -1   2 -12   22.15    1.30
  -2   2 -12    2.28    0.25
  -2   2 -12    2.12    0.23
  -2   2 -12    2.75    0.33
  -2   2 -12    2.43    0.17
  -2   2 -12    2.01    0.32
  -2   2 -12    2.49    0.31
  -2   2 -12    2.17    0.28
  -2   2 -12    2.44    0.18
  -3   2 -12   24.55    1.66
  -3   2 -12   23.34    1.67
  -3   2 -12   22.42    1.32
  -3   2 -12   26.76    1.93
  -3   2 -12   23.73    1.43
  -4   2 -12    4.45    0.32
  -4   2 -12    4.14    0.25
  -4   2 -12    4.33    0.39
  -4   2 -12    4.25    0.44
  -5   2 -12   30.63    1.83
  -5   2 -12   30.67    2.12
  -5   2 -12   31.79    2.45
  -6   2 -12    0.37    0.15
  -6   2 -12    0.27    0.10
  -6   2 -12    0.13    0.14
  -7   2 -12    1.63    0.18
  -7   2 -12    1.17    0.19
  -8  -1  12    0.26    0.08
  -7  -1  12    1.08    0.13
  -7  -1  12    1.31    0.18
  -6  -1  12   30.31    1.75
  -6  -1  12   32.79    1.81
  -5  -1  12    0.11    0.08
  -4  -1  12    6.38    0.40
   3   1 -12    2.81    0.21
   2   1 -12   43.57    2.49
   1   1 -12    7.11    0.69
   1   1 -12    7.01    0.40
   1   1 -12    5.52    0.40
   1   1 -12    7.41    0.60
   1   1 -12    6.67    0.54
   1   1 -12    6.66    0.40
   0   1 -12   30.70    1.76
   0   1 -12   28.40    1.69
   0   1 -12   32.20    2.43
   0   1 -12   30.25    2.12
   0   1 -12   30.73    1.95
   0   1 -12   30.40    1.71
   0   1 -12   33.81    2.08
  -1   1 -12    4.73    0.39
  -1   1 -12    5.01    0.51
  -1   1 -12    4.60    0.43
  -1   1 -12    4.42    0.29
  -1   1 -12    4.49    0.38
  -1   1 -12    4.65    0.28
  -1   1 -12    4.58    0.33
  -2   1 -12   49.94    2.60
  -2   1 -12   42.57    2.91
  -2   1 -12   46.48    3.13
  -2   1 -12   54.50    3.73
  -2   1 -12   48.02    2.79
  -2   1 -12   44.08    3.09
  -2   1 -12   46.35    3.22
  -2   1 -12   48.49    2.61
  -3   1 -12   11.75    0.73
  -3   1 -12   12.03    0.98
  -3   1 -12   12.01    0.85
  -3   1 -12   12.07    0.66
  -3   1 -12   10.58    0.91
  -4   1 -12   20.20    1.38
  -4   1 -12   19.41    1.18
  -4   1 -12   19.79    1.59
  -5   1 -12    0.61    0.16
  -5   1 -12    0.74    0.17
  -5   1 -12    0.73    0.13
  -6   1 -12    2.01    0.27
  -6   1 -12    2.44    0.21
  -6   1 -12    2.25    0.26
  -7   1 -12    4.41    0.38
  -8   0  12    0.13    0.08
  -8   0  12    0.13    0.05
  -8   0  12    0.21    0.05
  -7   0  12    0.01    0.08
  -7   0  12   -0.03    0.09
  -6   0  12    1.81    0.19
  -6   0  12    1.63    0.16
  -5   0  12    6.82    0.42
  -4   0  12    0.64    0.10
   3   0 -12   -0.16    0.08
   2   0 -12    2.28    0.41
   2   0 -12    1.78    0.28
   2   0 -12    2.19    0.17
   2   0 -12    1.85    0.19
   1   0 -12    2.04    0.18
   1   0 -12    1.66    0.37
   1   0 -12    1.73    0.29
   1   0 -12    1.89    0.27
   1   0 -12    1.80    0.15
   1   0 -12    1.79    0.18
   0   0 -12    3.55    0.48
   0   0 -12    3.51    0.22
   0   0 -12    4.07    0.45
   0   0 -12    3.74    0.36
   0   0 -12    3.51    0.25
   0   0 -12    3.59    0.28
   0   0 -12    3.61    0.24
  -1   0 -12   11.85    0.69
  -1   0 -12   10.49    0.79
  -1   0 -12   10.76    0.84
  -1   0 -12   11.85    0.87
  -1   0 -12   11.57    0.91
  -1   0 -12   11.19    0.74
  -1   0 -12   11.20    0.63
  -1   0 -12   10.21    0.64
  -1   0 -12   10.99    0.63
  -2   0 -12    0.23    0.23
  -2   0 -12    0.26    0.11
  -2   0 -12    0.25    0.07
  -2   0 -12    0.29    0.15
  -2   0 -12    0.40    0.17
  -3   0 -12   12.82    1.13
  -3   0 -12   15.79    0.86
  -3   0 -12   16.35    0.95
  -3   0 -12   15.94    1.26
  -3   0 -12   16.05    1.10
  -4   0 -12    0.49    0.16
  -4   0 -12    0.49    0.13
  -4   0 -12    0.54    0.19
  -5   0 -12    0.14    0.15
  -5   0 -12    0.24    0.11
  -5   0 -12    0.26    0.14
  -6   0 -12    0.37    0.14
  -6   0 -12    0.66    0.11
  -8   1  12    1.67    0.14
  -8   1  12    1.70    0.15
  -8   1  12    1.92    0.17
  -7   1  12    1.81    0.14
  -7   1  12    1.63    0.20
  -7   1  12    1.67    0.17
  -6   1  12    3.41    0.25
  -6   1  12    3.72    0.26
  -6   1  12    3.38    0.30
  -5   1  12    1.91    0.18
   4  -1 -12   11.01    0.65
   3  -1 -12   18.46    1.07
   2  -1 -12   28.66    1.84
   2  -1 -12   29.30    1.59
   2  -1 -12   25.31    2.01
   2  -1 -12   30.13    1.64
   1  -1 -12    0.13    0.05
   1  -1 -12    0.11    0.21
   1  -1 -12   -0.09    0.17
   1  -1 -12    0.13    0.09
   1  -1 -12    0.08    0.10
   1  -1 -12   -0.05    0.22
   1  -1 -12    0.11    0.08
   1  -1 -12    0.20    0.29
   0  -1 -12    0.69    0.26
   0  -1 -12    0.49    0.24
   0  -1 -12    0.54    0.11
   0  -1 -12    0.68    0.09
   0  -1 -12    0.62    0.09
   0  -1 -12    0.95    0.24
   0  -1 -12    0.80    0.19
  -1  -1 -12    1.13    0.18
  -1  -1 -12    1.28    0.19
  -1  -1 -12    1.24    0.15
  -1  -1 -12    1.30    0.15
  -1  -1 -12    1.05    0.24
  -1  -1 -12    1.01    0.14
  -1  -1 -12    1.39    0.12
  -1  -1 -12    1.50    0.32
  -2  -1 -12    6.38    0.42
  -2  -1 -12    6.13    0.36
  -2  -1 -12    5.27    0.58
  -2  -1 -12    6.13    0.55
  -2  -1 -12    5.92    0.37
  -3  -1 -12    3.68    0.23
  -3  -1 -12    3.92    0.27
  -3  -1 -12    4.03    0.31
  -3  -1 -12    3.91    0.41
  -4  -1 -12    2.88    0.26
  -4  -1 -12    2.98    0.21
  -4  -1 -12    2.70    0.34
  -5  -1 -12    0.03    0.10
  -5  -1 -12    0.08    0.15
  -5  -1 -12    0.04    0.08
  -6  -1 -12    1.17    0.16
  -8   2  12    0.03    0.06
  -7   2  12    1.14    0.13
  -7   2  12    1.04    0.12
  -7   2  12    0.91    0.11
  -6   2  12    0.40    0.09
  -5   2  12    6.34    0.40
   4  -2 -12    0.33    0.08
   3  -2 -12   15.08    0.94
   3  -2 -12   17.16    0.99
   3  -2 -12   17.30    0.96
   2  -2 -12    0.71    0.32
   2  -2 -12    0.36    0.11
   2  -2 -12    0.45    0.10
   2  -2 -12    0.35    0.07
   2  -2 -12    0.40    0.22
   1  -2 -12    0.56    0.20
   1  -2 -12    0.49    0.10
   1  -2 -12    0.35    0.09
   1  -2 -12    0.46    0.25
   1  -2 -12    0.41    0.11
   1  -2 -12    0.50    0.28
   1  -2 -12    0.41    0.06
   1  -2 -12    0.18    0.25
   0  -2 -12   22.78    1.27
   0  -2 -12   24.70    1.37
   0  -2 -12   23.59    1.29
   0  -2 -12   25.22    1.28
   0  -2 -12   21.54    1.59
   0  -2 -12   21.42    1.47
   0  -2 -12   21.06    1.57
  -1  -2 -12   -0.03    0.26
  -1  -2 -12    0.16    0.15
  -1  -2 -12   -0.05    0.11
  -1  -2 -12    0.01    0.05
  -1  -2 -12    0.03    0.08
  -1  -2 -12   -0.10    0.09
  -2  -2 -12    3.09    0.35
  -2  -2 -12    2.88    0.27
  -2  -2 -12    3.16    0.21
  -2  -2 -12    3.05    0.24
  -3  -2 -12    5.90    0.37
  -3  -2 -12    5.93    0.55
  -3  -2 -12    5.86    0.41
  -4  -2 -12   -0.10    0.15
  -4  -2 -12    0.06    0.09
  -4  -2 -12   -0.07    0.11
  -5  -2 -12    1.64    0.14
  -5  -2 -12    1.68    0.18
  -8   3  12    2.77    0.20
  -8   3  12    3.26    0.24
  -7   3  12    1.13    0.13
  -7   3  12    1.25    0.15
  -6   3  12   -0.07    0.09
   5  -3 -12    6.47    0.41
  -5   3  12    6.63    0.42
   4  -3 -12   10.10    0.60
   3  -3 -12    9.26    0.56
   3  -3 -12    9.49    0.56
   2  -3 -12   10.50    0.66
   2  -3 -12   11.01    0.62
   2  -3 -12   11.07    0.62
   2  -3 -12    9.16    0.81
   2  -3 -12   10.77    0.62
   1  -3 -12   15.07    0.91
   1  -3 -12   14.84    0.87
   1  -3 -12   15.89    0.85
   1  -3 -12   13.66    1.09
   1  -3 -12   15.99    0.86
   0  -3 -12    7.52    0.45
   0  -3 -12    5.96    0.63
   0  -3 -12    8.17    0.47
   0  -3 -12    7.65    0.49
   0  -3 -12    8.06    0.44
  -1  -3 -12   10.96    0.61
  -1  -3 -12   10.47    0.59
  -1  -3 -12    9.88    0.86
  -1  -3 -12   10.04    0.65
  -2  -3 -12   14.64    1.25
  -2  -3 -12   14.93    0.85
  -2  -3 -12   16.26    0.88
  -2  -3 -12   15.71    0.93
  -3  -3 -12    0.28    0.11
  -3  -3 -12    0.32    0.17
  -3  -3 -12    0.18    0.11
  -4  -3 -12    4.95    0.30
  -4  -3 -12    4.62    0.33
  -5  -3 -12    1.15    0.12
  -5  -3 -12    1.10    0.14
  -8   4  12    0.20    0.07
  -8   4  12    0.04    0.07
  -7   4  12    0.59    0.08
  -7   4  12    0.64    0.10
   6  -4 -12    4.14    0.29
  -6   4  12    4.58    0.30
   5  -4 -12   19.55    1.06
  -5   4  12   16.87    1.06
   4  -4 -12    1.99    0.18
   3  -4 -12    8.54    0.51
   3  -4 -12    8.56    0.51
   2  -4 -12    1.55    0.15
   2  -4 -12    1.43    0.17
   2  -4 -12    1.43    0.13
   1  -4 -12    0.24    0.08
   1  -4 -12    0.29    0.10
   1  -4 -12    0.26    0.11
   0  -4 -12    3.35    0.28
   0  -4 -12    3.74    0.23
   0  -4 -12    3.64    0.25
   0  -4 -12    3.62    0.26
  -1  -4 -12    5.92    0.36
  -1  -4 -12    5.55    0.38
  -1  -4 -12    5.30    0.33
  -2  -4 -12   -0.01    0.05
  -2  -4 -12    0.05    0.10
  -2  -4 -12   -0.07    0.10
  -3  -4 -12    0.38    0.09
  -3  -4 -12    0.32    0.10
  -4  -4 -12    0.22    0.08
   7  -5 -12    2.59    0.18
  -7   5  12    2.01    0.18
   6  -5 -12    0.73    0.09
  -6   5  12    0.53    0.08
   5  -5 -12   -0.01    0.07
  -5   5  12    0.03    0.08
   4  -5 -12    0.09    0.10
   4  -5 -12    0.23    0.07
   3  -5 -12    0.44    0.07
   3  -5 -12    0.29    0.10
   2  -5 -12    1.13    0.13
   2  -5 -12    1.42    0.17
   2  -5 -12    1.52    0.18
   1  -5 -12    1.81    0.18
   1  -5 -12    1.65    0.15
   1  -5 -12    1.66    0.18
   0  -5 -12    0.66    0.10
   0  -5 -12    0.57    0.10
  -1  -5 -12    9.18    0.55
  -1  -5 -12   10.36    0.57
  -2  -5 -12    2.47    0.19
  -2  -5 -12    2.17    0.19
  -3  -5 -12    2.90    0.19
   7  -6 -12    0.16    0.06
  -7   6  12    0.09    0.08
   6  -6 -12   -0.12    0.06
  -6   6  12   -0.09    0.08
   5  -6 -12   -0.06    0.06
  -5   6  12   -0.05    0.08
   4  -6 -12    0.54    0.10
   4  -6 -12    0.91    0.11
   3  -6 -12    0.04    0.08
   3  -6 -12    0.10    0.10
   2  -6 -12    3.96    0.28
   2  -6 -12    4.43    0.29
   2  -6 -12    4.44    0.27
   1  -6 -12   11.90    0.66
   1  -6 -12   11.26    0.65
   0  -6 -12    0.12    0.07
   0  -6 -12    0.03    0.09
  -1  -6 -12    1.25    0.13
  -1  -6 -12    0.95    0.09
   6  -7 -12    0.15    0.05
  -6   7  12    0.09    0.05
   5  -7 -12   -0.01    0.06
   5  -7 -12    0.03    0.07
   5  -7 -12    0.10    0.05
   4  -7 -12    4.74    0.29
   4  -7 -12    4.69    0.29
   3  -7 -12    0.16    0.08
   2  -7 -12    5.51    0.36
   2  -7 -12    6.38    0.35
   2  -7 -12    6.58    0.37
   1  -7 -12    1.69    0.14
   1  -7 -12    1.59    0.14
   0  -7 -12    1.20    0.11
   0  -7 -12    0.91    0.09
   1   9 -13    0.76    0.09
  -1  -9  13    0.91    0.09
   0   9 -13    0.09    0.10
   0   9 -13    0.29    0.05
   0  -9  13    0.28    0.06
  -1   9 -13    0.19    0.12
  -1   9 -13    0.14    0.07
  -2   9 -13    2.32    0.27
  -2   9 -13    2.92    0.19
  -3   9 -13    5.97    0.36
  -3   9 -13    6.95    0.37
  -3   9 -13    5.85    0.53
  -4   9 -13    8.49    0.69
  -4   9 -13    8.41    0.48
  -5   9 -13    1.25    0.15
   2   8 -13   16.96    1.01
  -2  -8  13   17.94    1.00
   1   8 -13    1.63    0.22
   1   8 -13    1.56    0.15
  -1  -8  13    1.88    0.14
   0   8 -13    0.04    0.06
   0   8 -13    0.08    0.13
  -1   8 -13    1.46    0.12
  -1   8 -13    1.33    0.16
  -2   8 -13   11.50    0.66
  -3   8 -13    5.66    0.50
  -3   8 -13    5.21    0.33
  -3   8 -13    5.69    0.34
  -4   8 -13   11.25    1.03
  -4   8 -13   14.24    0.72
  -5   8 -13    0.04    0.06
  -5   8 -13   -0.10    0.11
  -6   8 -13    0.45    0.10
  -6   8 -13    0.09    0.08
   3   7 -13    1.99    0.17
  -3  -7  13    2.55    0.16
  -3  -7  13    1.94    0.16
   2   7 -13    2.02    0.18
  -2  -7  13    2.27    0.17
   1   7 -13    0.56    0.08
  -1  -7  13    0.58    0.07
   0   7 -13    0.98    0.12
   0   7 -13    0.55    0.09
  -1   7 -13   19.05    1.10
  -1   7 -13   20.42    1.12
  -1   7 -13   19.07    1.56
  -2   7 -13    0.00    0.08
  -2   7 -13   -0.08    0.16
  -2   7 -13    0.10    0.08
  -3   7 -13    6.63    0.58
  -3   7 -13    5.90    0.38
  -3   7 -13    6.72    0.39
  -4   7 -13    0.96    0.11
  -4   7 -13    1.26    0.20
  -5   7 -13    0.03    0.06
  -5   7 -13   -0.10    0.13
  -5   7 -13    0.02    0.12
  -6   7 -13    0.22    0.12
  -6   7 -13    0.09    0.09
  -7   7 -13   22.10    1.50
  -4  -6  13    0.03    0.06
  -4  -6  13    0.01    0.05
  -3  -6  13    0.33    0.07
   2   6 -13    1.50    0.16
  -2  -6  13    1.53    0.15
   1   6 -13    0.04    0.08
   0   6 -13   10.11    0.83
   0   6 -13    9.94    0.58
   0   6 -13    9.69    0.59
  -1   6 -13    0.55    0.17
  -1   6 -13    0.58    0.07
  -1   6 -13    0.45    0.10
  -2   6 -13    1.52    0.24
  -2   6 -13    1.37    0.16
  -2   6 -13    1.59    0.17
  -3   6 -13    6.92    0.42
  -3   6 -13    7.20    0.41
  -3   6 -13    6.72    0.63
  -4   6 -13    4.17    0.35
  -4   6 -13    4.14    0.27
  -4   6 -13    4.31    0.43
  -5   6 -13    4.47    0.46
  -5   6 -13    4.92    0.40
  -5   6 -13    5.11    0.29
  -6   6 -13    0.17    0.12
  -6   6 -13    0.25    0.12
  -7   6 -13    0.30    0.11
  -7   6 -13    0.61    0.13
  -5  -5  13    0.60    0.08
  -5  -5  13    0.68    0.11
  -4  -5  13   17.61    1.05
  -4  -5  13   19.86    1.08
   3   5 -13    3.34    0.25
  -3  -5  13    3.76    0.24
   2   5 -13    0.12    0.08
  -2  -5  13    0.11    0.07
   1   5 -13   12.54    0.76
   1   5 -13   13.27    1.06
   0   5 -13    0.77    0.18
   0   5 -13    0.72    0.12
   0   5 -13    1.14    0.13
  -1   5 -13    2.19    0.22
  -1   5 -13    2.97    0.34
  -1   5 -13    2.75    0.18
  -1   5 -13    2.68    0.21
  -2   5 -13    2.25    0.18
  -2   5 -13    1.92    0.18
  -2   5 -13    2.31    0.33
  -2   5 -13    1.58    0.21
  -3   5 -13   13.97    1.01
  -3   5 -13   14.28    0.81
  -3   5 -13   14.72    0.81
  -3   5 -13   14.80    1.19
  -4   5 -13    1.59    0.19
  -4   5 -13    1.30    0.23
  -4   5 -13    1.36    0.14
  -5   5 -13    0.26    0.16
  -5   5 -13    0.28    0.15
  -5   5 -13    0.44    0.06
  -6   5 -13   -0.03    0.12
  -6   5 -13   -0.02    0.14
  -7   5 -13    1.08    0.15
  -7   5 -13    1.26    0.19
  -6  -4  13    0.00    0.06
  -6  -4  13   -0.03    0.08
  -5  -4  13    2.35    0.17
  -5  -4  13    2.36    0.19
  -4  -4  13    1.19    0.14
   3   4 -13    0.42    0.09
  -3  -4  13    0.29    0.07
   2   4 -13    0.06    0.08
   1   4 -13    9.23    0.81
   1   4 -13    9.34    0.79
   1   4 -13   10.12    0.57
   1   4 -13    9.41    0.57
   0   4 -13    2.43    0.39
   0   4 -13    1.59    0.30
   0   4 -13    2.41    0.18
   0   4 -13    2.51    0.32
   0   4 -13    2.60    0.21
  -1   4 -13    0.28    0.09
  -1   4 -13    0.23    0.06
  -1   4 -13    0.27    0.17
  -1   4 -13    0.33    0.10
  -1   4 -13    0.28    0.25
  -2   4 -13    3.44    0.24
  -2   4 -13    3.20    0.45
  -2   4 -13    3.23    0.38
  -2   4 -13    3.25    0.27
  -2   4 -13    3.35    0.23
  -3   4 -13    0.22    0.19
  -3   4 -13    0.29    0.05
  -3   4 -13    0.18    0.10
  -3   4 -13    0.27    0.08
  -3   4 -13    0.28    0.14
  -4   4 -13    5.21    0.45
  -4   4 -13    5.70    0.33
  -4   4 -13    5.53    0.53
  -5   4 -13    1.05    0.18
  -5   4 -13    0.87    0.20
  -6   4 -13    3.90    0.35
  -6   4 -13    4.05    0.38
  -7   4 -13    1.16    0.15
  -7   4 -13    0.70    0.13
  -6  -3  13   11.09    0.63
  -5  -3  13   21.90    1.29
  -5  -3  13   24.52    1.34
  -4  -3  13    0.02    0.07
   3   3 -13   12.31    0.79
  -3  -3  13   14.39    0.79
   2   3 -13   34.83    2.00
   1   3 -13    6.20    0.38
   1   3 -13    5.98    0.39
   1   3 -13    5.98    0.59
   0   3 -13    0.99    0.12
   0   3 -13    1.64    0.24
   0   3 -13    0.89    0.26
   0   3 -13    1.40    0.13
   0   3 -13    1.12    0.13
   0   3 -13    1.56    0.32
  -1   3 -13    1.76    0.18
  -1   3 -13    1.91    0.28
  -1   3 -13    1.31    0.29
  -1   3 -13    1.90    0.18
  -1   3 -13    1.38    0.31
  -1   3 -13    1.77    0.26
  -1   3 -13    1.97    0.12
  -2   3 -13    0.39    0.26
  -2   3 -13    0.43    0.17
  -2   3 -13    0.28    0.07
  -2   3 -13    0.17    0.11
  -2   3 -13    0.17    0.17
  -2   3 -13    0.36    0.14
  -2   3 -13    0.30    0.09
  -3   3 -13    5.69    0.34
  -3   3 -13    5.55    0.39
  -3   3 -13    5.64    0.45
  -3   3 -13    5.29    0.59
  -3   3 -13    5.60    0.53
  -4   3 -13    0.37    0.19
  -4   3 -13    0.49    0.07
  -4   3 -13    0.31    0.11
  -4   3 -13    0.50    0.17
  -5   3 -13    4.41    0.44
  -5   3 -13    4.24    0.39
  -6   3 -13    1.16    0.19
  -6   3 -13    1.53    0.21
  -7   3 -13    1.89    0.21
  -7   3 -13    1.37    0.19
  -7  -2  13    5.07    0.29
  -7  -2  13    4.89    0.36
  -6  -2  13    0.55    0.09
  -6  -2  13    0.60    0.07
  -6  -2  13    0.72    0.12
  -5  -2  13    1.58    0.16
  -4  -2  13    3.94    0.27
   3   2 -13    6.38    0.40
   2   2 -13    9.61    0.57
   1   2 -13   15.34    1.14
   1   2 -13   13.95    1.21
   1   2 -13   14.86    1.08
   1   2 -13   17.30    0.90
   1   2 -13   16.22    0.92
   0   2 -13    1.19    0.29
   0   2 -13    1.38    0.16
   0   2 -13    0.83    0.10
   0   2 -13    1.09    0.24
   0   2 -13    1.17    0.11
   0   2 -13    1.12    0.18
  -1   2 -13   -0.04    0.23
  -1   2 -13    0.01    0.09
  -1   2 -13   -0.11    0.11
  -1   2 -13   -0.06    0.15
  -1   2 -13   -0.11    0.15
  -1   2 -13   -0.02    0.08
  -2   2 -13   13.58    0.80
  -2   2 -13   14.55    1.07
  -2   2 -13   15.52    1.17
  -2   2 -13   15.22    0.80
  -2   2 -13   14.73    0.87
  -2   2 -13   13.27    1.00
  -2   2 -13   13.34    0.92
  -3   2 -13    0.24    0.18
  -3   2 -13    0.20    0.28
  -3   2 -13    0.19    0.07
  -3   2 -13    0.11    0.11
  -3   2 -13    0.22    0.15
  -4   2 -13   46.33    2.73
  -4   2 -13   46.80    3.65
  -4   2 -13   46.53    3.16
  -5   2 -13    0.16    0.10
  -5   2 -13    0.07    0.15
  -5   2 -13    0.22    0.15
  -6   2 -13    0.23    0.13
  -6   2 -13    0.18    0.13
  -7   2 -13    0.42    0.11
  -7  -1  13    0.05    0.07
  -7  -1  13    0.01    0.09
  -6  -1  13    0.40    0.09
  -6  -1  13    0.18    0.10
  -6  -1  13    0.21    0.07
  -5  -1  13    1.58    0.16
   4   1 -13    0.21    0.08
  -4  -1  13    0.22    0.07
   3   1 -13    5.18    0.33
   2   1 -13    0.15    0.07
   2   1 -13    0.12    0.11
   1   1 -13    6.43    0.58
   1   1 -13    7.47    0.64
   1   1 -13    6.24    0.70
   1   1 -13    7.59    0.44
   1   1 -13    7.27    0.43
   0   1 -13    0.53    0.27
   0   1 -13    0.58    0.16
   0   1 -13    0.71    0.13
   0   1 -13    0.63    0.26
   0   1 -13    0.62    0.10
   0   1 -13    0.61    0.10
   0   1 -13    0.61    0.06
   0   1 -13    0.50    0.19
  -1   1 -13    7.20    0.61
  -1   1 -13    8.45    0.48
  -1   1 -13    8.53    0.48
  -1   1 -13    7.52    0.58
  -1   1 -13    8.81    0.53
  -1   1 -13    8.35    0.71
  -1   1 -13    8.83    0.71
  -2   1 -13   20.36    1.15
  -2   1 -13   22.93    1.25
  -2   1 -13   21.33    1.67
  -2   1 -13   21.90    1.44
  -2   1 -13   19.07    1.14
  -2   1 -13   19.28    1.46
  -3   1 -13    8.60    0.72
  -3   1 -13    8.09    0.54
  -3   1 -13    8.05    0.47
  -3   1 -13    8.50    0.63
  -4   1 -13   11.93    1.05
  -4   1 -13   13.47    0.91
  -4   1 -13   12.70    0.78
  -5   1 -13    0.26    0.11
  -5   1 -13    0.17    0.13
  -5   1 -13    0.26    0.15
  -6   1 -13    0.35    0.13
  -6   1 -13    0.50    0.10
  -6   1 -13    0.42    0.14
  -7   0  13    2.91    0.20
  -7   0  13    2.71    0.24
  -6   0  13    0.29    0.06
  -6   0  13    0.38    0.10
  -6   0  13    0.41    0.11
  -5   0  13    2.04    0.19
   4   0 -13    2.94    0.23
  -4   0  13    3.17    0.24
   3   0 -13    1.21    0.14
   2   0 -13   15.98    1.33
   2   0 -13   18.34    0.97
   2   0 -13   15.73    1.16
   2   0 -13   17.51    0.99
   1   0 -13    7.02    0.62
   1   0 -13    6.83    0.70
   1   0 -13    6.31    0.56
   1   0 -13    7.39    0.42
   1   0 -13    7.10    0.42
   1   0 -13    6.91    0.43
   0   0 -13    0.86    0.13
   0   0 -13    0.92    0.10
   0   0 -13    0.55    0.29
   0   0 -13    0.80    0.27
   0   0 -13    0.75    0.20
   0   0 -13    0.65    0.11
  -1   0 -13    3.68    0.23
  -1   0 -13    3.77    0.37
  -1   0 -13    3.78    0.25
  -1   0 -13    3.16    0.32
  -1   0 -13    3.62    0.29
  -1   0 -13    3.15    0.46
  -2   0 -13    0.99    0.14
  -2   0 -13    0.73    0.17
  -2   0 -13    0.88    0.10
  -2   0 -13    0.77    0.19
  -2   0 -13    1.16    0.31
  -3   0 -13   16.10    1.29
  -3   0 -13   16.48    0.97
  -3   0 -13   15.25    0.87
  -3   0 -13   15.98    1.12
  -4   0 -13    0.00    0.11
  -4   0 -13    0.16    0.14
  -4   0 -13    0.00    0.14
  -5   0 -13    2.02    0.27
  -5   0 -13    2.42    0.21
  -6   0 -13   -0.06    0.11
  -6   0 -13    0.10    0.08
  -8   1  13    4.61    0.27
  -7   1  13   16.17    1.08
  -7   1  13   17.61    0.94
  -7   1  13   15.43    0.92
  -6   1  13    3.33    0.24
  -6   1  13    3.42    0.28
   5  -1 -13    0.08    0.09
  -5   1  13    0.00    0.09
   4  -1 -13    0.51    0.09
   3  -1 -13    2.27    0.18
   2  -1 -13    0.04    0.06
   2  -1 -13    0.08    0.10
   2  -1 -13    0.04    0.11
   1  -1 -13   10.41    0.58
   1  -1 -13   11.15    0.63
   1  -1 -13    9.92    0.59
   1  -1 -13    9.97    0.59
   1  -1 -13    8.70    0.72
   0  -1 -13   29.38    2.23
   0  -1 -13   32.99    1.83
   0  -1 -13   36.47    1.84
   0  -1 -13   33.27    1.85
   0  -1 -13   34.03    1.97
  -1  -1 -13    0.66    0.10
  -1  -1 -13    0.73    0.10
  -1  -1 -13    0.61    0.07
  -1  -1 -13    0.70    0.14
  -1  -1 -13    0.81    0.17
  -1  -1 -13    0.33    0.26
  -2  -1 -13    4.13    0.28
  -2  -1 -13    4.39    0.42
  -2  -1 -13    4.30    0.33
  -2  -1 -13    4.15    0.26
  -3  -1 -13   30.06    2.50
  -3  -1 -13   31.41    1.76
  -3  -1 -13   33.61    1.87
  -4  -1 -13    1.62    0.26
  -4  -1 -13    1.61    0.20
  -4  -1 -13    1.62    0.15
  -5  -1 -13   -0.06    0.12
  -5  -1 -13    0.02    0.10
  -8   2  13    1.99    0.14
  -7   2  13    9.01    0.56
  -7   2  13   10.25    0.56
  -6   2  13    0.10    0.08
   5  -2 -13    0.75    0.10
  -5   2  13    0.68    0.11
   4  -2 -13   19.11    1.11
   3  -2 -13    0.06    0.11
   3  -2 -13    0.09    0.11
   3  -2 -13    0.06    0.07
   2  -2 -13   10.30    0.59
   2  -2 -13   11.01    0.59
   2  -2 -13    7.97    0.77
   2  -2 -13    9.32    0.59
   2  -2 -13   10.62    0.62
   1  -2 -13    0.12    0.09
   1  -2 -13    0.40    0.26
   1  -2 -13    0.11    0.11
   1  -2 -13    0.19    0.10
   1  -2 -13    0.15    0.05
   0  -2 -13    9.72    0.60
   0  -2 -13    9.42    0.55
   0  -2 -13    9.77    0.56
   0  -2 -13    9.26    0.54
  -1  -2 -13   15.87    1.37
  -1  -2 -13   16.55    0.95
  -1  -2 -13   18.44    1.03
  -1  -2 -13   17.63    0.97
  -2  -2 -13    0.15    0.10
  -2  -2 -13    0.07    0.16
  -2  -2 -13    0.11    0.07
  -2  -2 -13   -0.02    0.12
  -3  -2 -13    2.88    0.34
  -3  -2 -13    3.19    0.26
  -3  -2 -13    3.16    0.23
  -4  -2 -13    0.89    0.12
  -4  -2 -13    1.12    0.18
  -4  -2 -13    1.11    0.13
  -5  -2 -13    4.68    0.31
  -8   3  13    4.12    0.25
  -7   3  13    1.04    0.12
  -7   3  13    1.32    0.14
   6  -3 -13    4.18    0.28
  -6   3  13    4.20    0.29
   5  -3 -13    0.94    0.11
   4  -3 -13    1.78    0.17
   3  -3 -13    0.08    0.11
   3  -3 -13    0.10    0.07
   2  -3 -13   10.60    0.68
   2  -3 -13   11.09    0.64
   2  -3 -13   11.53    0.64
   2  -3 -13   10.75    0.64
   1  -3 -13    0.26    0.11
   1  -3 -13    0.24    0.08
   1  -3 -13    0.11    0.11
   1  -3 -13    0.19    0.09
   0  -3 -13   38.39    2.10
   0  -3 -13   38.22    2.07
   0  -3 -13   36.88    2.08
   0  -3 -13   37.96    2.22
  -1  -3 -13    9.16    0.58
  -1  -3 -13    7.93    0.77
  -1  -3 -13   10.11    0.54
  -1  -3 -13    9.32    0.52
  -2  -3 -13    0.23    0.06
  -2  -3 -13    0.16    0.10
  -2  -3 -13    0.37    0.10
  -2  -3 -13    0.21    0.16
  -3  -3 -13    1.08    0.13
  -3  -3 -13    0.89    0.11
  -4  -3 -13    2.77    0.19
  -4  -3 -13    2.69    0.21
   7  -4 -13    6.20    0.37
  -7   4  13    5.83    0.36
   6  -4 -13   -0.14    0.07
  -6   4  13   -0.07    0.08
   5  -4 -13    2.13    0.18
  -5   4  13    2.02    0.20
   4  -4 -13   -0.06    0.07
   4  -4 -13   -0.02    0.10
   3  -4 -13    0.72    0.12
   3  -4 -13    0.74    0.08
   2  -4 -13    4.72    0.31
   2  -4 -13    4.46    0.31
   2  -4 -13    4.92    0.30
   1  -4 -13    0.07    0.09
   1  -4 -13    0.04    0.10
   1  -4 -13    0.00    0.08
   0  -4 -13    4.19    0.33
   0  -4 -13    4.91    0.29
   0  -4 -13    4.74    0.31
  -1  -4 -13    1.10    0.13
  -1  -4 -13    1.17    0.13
  -1  -4 -13    1.46    0.13
  -2  -4 -13   -0.02    0.09
  -2  -4 -13    0.11    0.09
  -3  -4 -13    1.00    0.12
  -3  -4 -13    0.63    0.10
   7  -5 -13    1.73    0.14
   6  -5 -13    7.93    0.46
  -6   5  13    7.40    0.47
   5  -5 -13    0.46    0.08
  -5   5  13    0.45    0.09
   4  -5 -13    0.85    0.11
   4  -5 -13    0.90    0.11
   3  -5 -13    0.48    0.10
   3  -5 -13    0.61    0.06
   3  -5 -13    0.70    0.12
   2  -5 -13    1.11    0.13
   2  -5 -13    1.11    0.13
   2  -5 -13    1.32    0.15
   1  -5 -13   32.59    1.84
   1  -5 -13   34.62    1.82
   1  -5 -13   32.06    1.81
   0  -5 -13    0.69    0.11
   0  -5 -13    1.13    0.13
  -1  -5 -13    1.21    0.14
  -1  -5 -13    1.10    0.10
  -2  -5 -13    1.14    0.13
   6  -6 -13    1.25    0.11
   5  -6 -13    1.12    0.11
   5  -6 -13    1.17    0.11
  -5   6  13    1.05    0.12
   4  -6 -13   -0.02    0.07
   4  -6 -13    0.11    0.09
   3  -6 -13    0.14    0.10
   3  -6 -13    0.05    0.07
   2  -6 -13    2.44    0.19
   2  -6 -13    2.27    0.18
   1  -6 -13    0.09    0.09
   1  -6 -13    0.14    0.07
   0  -6 -13    3.60    0.22
   0  -6 -13    2.92    0.20
  -1  -6 -13    1.49    0.13
   4  -7 -13    0.47    0.08
   3  -7 -13    1.01    0.11
   2  -7 -13    0.49    0.08
  -1   9 -14    6.46    0.38
  -1   9 -14    6.77    0.55
  -2   9 -14    3.39    0.34
  -2   9 -14    4.16    0.23
  -3   9 -14    5.82    0.34
  -3   9 -14    5.88    0.33
  -4   9 -14    8.11    0.40
  -4   9 -14    6.11    0.57
   2   8 -14    2.59    0.18
  -2  -8  14    2.94    0.18
   1   8 -14    0.93    0.10
  -1  -8  14    1.13    0.11
   0   8 -14    6.32    0.34
   0   8 -14    5.15    0.49
   0   8 -14    5.49    0.35
  -1   8 -14    1.72    0.23
  -1   8 -14    1.84    0.16
  -2   8 -14    0.49    0.15
  -2   8 -14    0.66    0.10
  -2   8 -14    0.61    0.09
  -3   8 -14    0.52    0.07
  -3   8 -14    0.51    0.14
  -3   8 -14    0.54    0.09
  -4   8 -14    8.13    0.46
  -4   8 -14    7.90    0.67
  -5   8 -14    0.04    0.05
  -5   8 -14    0.00    0.09
   3   7 -14    0.24    0.06
  -3  -7  14    0.32    0.05
   2   7 -14    0.76    0.08
  -2  -7  14    0.57    0.07
   1   7 -14    4.09    0.25
   1   7 -14    3.45    0.37
  -1  -7  14    4.09    0.26
   0   7 -14    3.45    0.37
   0   7 -14    3.76    0.24
  -1   7 -14    5.65    0.57
  -1   7 -14    7.13    0.38
  -1   7 -14    6.35    0.39
  -2   7 -14    0.86    0.18
  -2   7 -14    0.77    0.10
  -2   7 -14    0.89    0.10
  -3   7 -14    0.33    0.07
  -3   7 -14    0.32    0.08
  -3   7 -14    0.34    0.16
  -4   7 -14    1.82    0.27
  -4   7 -14    2.25    0.16
  -5   7 -14   10.64    0.51
  -5   7 -14    7.50    0.74
  -5   7 -14    9.05    0.64
  -6   7 -14    0.60    0.11
  -6   7 -14    0.69    0.11
   4   6 -14    4.57    0.31
  -4  -6  14    5.24    0.30
  -4  -6  14    5.49    0.37
   3   6 -14    0.42    0.08
  -3  -6  14    0.52    0.07
   2   6 -14    0.21    0.08
  -2  -6  14    0.14    0.07
   1   6 -14    0.07    0.13
   1   6 -14    0.06    0.07
   0   6 -14   10.04    0.57
   0   6 -14   10.44    0.57
   0   6 -14    8.69    0.81
  -1   6 -14    0.22    0.06
  -1   6 -14    0.25    0.09
  -1   6 -14    0.22    0.16
  -1   6 -14    0.20    0.10
  -2   6 -14    0.21    0.10
  -2   6 -14    0.18    0.17
  -2   6 -14    0.11    0.08
  -3   6 -14    0.12    0.08
  -3   6 -14    0.04    0.16
  -3   6 -14    0.07    0.06
  -4   6 -14    5.41    0.41
  -4   6 -14    4.64    0.48
  -4   6 -14    5.54    0.32
  -5   6 -14    0.13    0.05
  -5   6 -14    0.10    0.13
  -5   6 -14    0.07    0.10
  -6   6 -14   15.54    0.99
  -6   6 -14   13.20    1.14
  -5  -5  14    1.65    0.15
  -5  -5  14    1.29    0.11
   4   5 -14   -0.03    0.09
  -4  -5  14    0.02    0.06
   3   5 -14    0.50    0.09
  -3  -5  14    0.40    0.08
   2   5 -14    2.20    0.18
   1   5 -14    5.33    0.34
   1   5 -14    4.90    0.47
   1   5 -14    5.03    0.32
   0   5 -14    2.49    0.32
   0   5 -14    2.52    0.18
   0   5 -14    2.45    0.21
  -1   5 -14    3.69    0.40
  -1   5 -14    3.78    0.26
  -1   5 -14    3.85    0.27
  -1   5 -14    3.80    0.23
  -2   5 -14    5.05    0.50
  -2   5 -14    5.18    0.32
  -2   5 -14    5.83    0.33
  -2   5 -14    4.95    0.35
  -3   5 -14    0.02    0.05
  -3   5 -14   -0.07    0.17
  -3   5 -14    0.00    0.08
  -4   5 -14    2.62    0.17
  -4   5 -14    2.02    0.26
  -4   5 -14    2.05    0.32
  -5   5 -14    7.26    0.49
  -5   5 -14    5.46    0.55
  -6   5 -14    2.53    0.29
  -6   5 -14    3.37    0.27
  -7   5 -14    0.72    0.12
  -5  -4  14    1.30    0.13
  -5  -4  14    1.14    0.11
   4   4 -14    0.12    0.07
  -4  -4  14    0.19    0.07
   3   4 -14   -0.01    0.08
  -3  -4  14    0.01    0.08
   2   4 -14    0.23    0.08
   1   4 -14   18.45    1.03
   1   4 -14   17.04    1.00
   0   4 -14   16.86    1.26
   0   4 -14   15.88    0.90
   0   4 -14   15.48    0.88
   0   4 -14   13.77    0.87
  -1   4 -14    0.04    0.09
  -1   4 -14    0.03    0.16
  -1   4 -14    0.11    0.09
  -1   4 -14   -0.01    0.12
  -2   4 -14    4.44    0.31
  -2   4 -14    4.51    0.34
  -2   4 -14    5.35    0.48
  -2   4 -14    4.99    0.30
  -3   4 -14    4.46    0.27
  -3   4 -14    4.01    0.30
  -3   4 -14    3.86    0.36
  -3   4 -14    4.21    0.44
  -4   4 -14    2.08    0.26
  -4   4 -14    1.99    0.15
  -4   4 -14    1.99    0.29
  -5   4 -14    2.89    0.32
  -5   4 -14    2.54    0.28
  -6   4 -14   12.76    0.81
  -6   4 -14   10.34    0.93
  -7   4 -14    0.56    0.11
  -6  -3  14    5.35    0.38
  -6  -3  14    5.29    0.32
  -5  -3  14    8.57    0.47
  -5  -3  14    7.12    0.46
   4   3 -14    4.39    0.30
  -4  -3  14    4.35    0.29
   3   3 -14    6.84    0.42
   2   3 -14   44.32    2.54
   1   3 -14   19.02    1.14
   1   3 -14   20.44    1.11
   0   3 -14    9.31    0.53
   0   3 -14    9.18    0.52
   0   3 -14    8.82    0.53
   0   3 -14    8.52    0.75
   0   3 -14    8.23    0.76
  -1   3 -14    0.30    0.31
  -1   3 -14    0.14    0.08
  -1   3 -14    0.05    0.16
  -1   3 -14    0.21    0.10
  -1   3 -14   -0.07    0.11
  -2   3 -14    4.26    0.34
  -2   3 -14    4.64    0.46
  -2   3 -14    4.78    0.30
  -2   3 -14    4.58    0.27
  -3   3 -14    0.12    0.11
  -3   3 -14    0.00    0.07
  -3   3 -14    0.00    0.17
  -3   3 -14    0.17    0.14
  -4   3 -14    5.07    0.42
  -4   3 -14    4.56    0.47
  -4   3 -14    4.94    0.28
  -4   3 -14    4.86    0.34
  -5   3 -14    5.87    0.54
  -5   3 -14    6.39    0.48
  -6   3 -14   -0.05    0.12
  -6   3 -14   -0.06    0.12
  -6  -2  14    4.25    0.24
  -6  -2  14    3.66    0.25
  -6  -2  14    3.84    0.30
  -5  -2  14    2.36    0.19
   4   2 -14    1.46    0.16
  -4  -2  14    1.50    0.16
   3   2 -14    0.41    0.08
   2   2 -14   36.49    2.04
   2   2 -14   37.30    2.12
   1   2 -14   22.84    1.27
   1   2 -14   21.20    1.23
   0   2 -14    7.46    0.47
   0   2 -14    8.10    0.46
   0   2 -14    6.74    0.69
   0   2 -14    7.86    0.67
   0   2 -14    8.43    0.47
  -1   2 -14    1.86    0.16
  -1   2 -14    1.83    0.18
  -1   2 -14    1.82    0.22
  -1   2 -14    1.70    0.28
  -1   2 -14    0.83    0.27
  -2   2 -14    3.22    0.32
  -2   2 -14    3.37    0.23
  -2   2 -14    3.43    0.38
  -2   2 -14    3.05    0.28
  -2   2 -14    3.27    0.19
  -3   2 -14    4.27    0.25
  -3   2 -14    3.98    0.31
  -3   2 -14    3.68    0.42
  -3   2 -14    4.45    0.38
  -4   2 -14    2.23    0.27
  -4   2 -14    1.95    0.22
  -4   2 -14    1.79    0.30
  -5   2 -14    3.42    0.38
  -5   2 -14    4.02    0.34
  -5   2 -14    4.10    0.28
  -6   2 -14    2.62    0.29
  -6   2 -14    3.23    0.27
  -7  -1  14    1.40    0.15
  -7  -1  14    1.20    0.12
  -6  -1  14    1.99    0.16
  -6  -1  14    2.21    0.20
  -6  -1  14    1.55    0.16
   5   1 -14    1.24    0.14
  -5  -1  14    1.17    0.15
   4   1 -14    4.47    0.30
  -4  -1  14    4.48    0.30
   3   1 -14    0.13    0.08
   2   1 -14   -0.06    0.10
   2   1 -14   -0.02    0.07
   1   1 -14   12.85    0.71
   1   1 -14   12.58    0.72
   1   1 -14   11.44    0.71
   0   1 -14    1.32    0.33
   0   1 -14    1.54    0.16
   0   1 -14    1.42    0.17
   0   1 -14    1.53    0.17
  -1   1 -14    3.68    0.38
  -1   1 -14    3.43    0.25
  -1   1 -14    3.59    0.23
  -1   1 -14    3.80    0.30
  -2   1 -14    0.57    0.18
  -2   1 -14    0.63    0.09
  -2   1 -14    0.50    0.16
  -2   1 -14    0.57    0.13
  -3   1 -14    4.14    0.31
  -3   1 -14    3.85    0.37
  -3   1 -14    3.84    0.24
  -3   1 -14    3.94    0.41
  -4   1 -14   15.59    1.08
  -4   1 -14   16.68    0.93
  -4   1 -14   13.96    1.24
  -5   1 -14    1.80    0.18
  -5   1 -14    1.78    0.23
  -5   1 -14    1.44    0.23
  -6   1 -14    2.50    0.25
  -6   1 -14    2.66    0.19
  -7   0  14    0.25    0.07
  -7   0  14    0.27    0.08
  -6   0  14    3.81    0.27
  -6   0  14    4.21    0.32
  -6   0  14    4.29    0.27
   5   0 -14    0.04    0.08
  -5   0  14    0.03    0.08
   4   0 -14    1.31    0.15
   3   0 -14    0.11    0.08
   2   0 -14    0.08    0.10
   2   0 -14    0.06    0.07
   1   0 -14    0.59    0.07
   1   0 -14    0.36    0.12
   1   0 -14    0.58    0.10
   1   0 -14    0.63    0.12
   0   0 -14    7.22    0.46
   0   0 -14    7.26    0.42
   0   0 -14    6.27    0.70
   0   0 -14    6.74    0.41
  -1   0 -14    0.22    0.13
  -1   0 -14    0.11    0.06
  -1   0 -14    0.00    0.15
  -1   0 -14    0.05    0.08
  -2   0 -14    2.31    0.18
  -2   0 -14    2.31    0.30
  -2   0 -14    2.50    0.25
  -3   0 -14   11.93    1.01
  -3   0 -14   12.51    0.76
  -4   0 -14    0.85    0.12
  -4   0 -14    0.56    0.15
  -5   0 -14    1.63    0.17
  -5   0 -14    1.40    0.22
  -7   1  14   13.24    0.74
   6  -1 -14    0.13    0.07
  -6   1  14    0.31    0.09
  -6   1  14    0.23    0.08
   5  -1 -14   12.87    0.77
  -5   1  14   13.33    0.77
   4  -1 -14    6.88    0.42
   3  -1 -14    1.51    0.15
   3  -1 -14    1.63    0.20
   3  -1 -14    1.34    0.15
   2  -1 -14    0.90    0.09
   2  -1 -14    0.69    0.12
   2  -1 -14    0.49    0.13
   1  -1 -14    9.14    0.55
   1  -1 -14    9.61    0.54
   1  -1 -14    8.90    0.54
   1  -1 -14    9.68    0.59
   0  -1 -14    1.14    0.12
   0  -1 -14    0.89    0.10
   0  -1 -14    1.06    0.15
   0  -1 -14    1.09    0.12
  -1  -1 -14   18.95    1.50
  -1  -1 -14   19.31    1.04
  -1  -1 -14   16.36    1.03
  -1  -1 -14   20.03    1.13
  -1  -1 -14   19.27    1.05
  -2  -1 -14    0.41    0.10
  -2  -1 -14    0.42    0.13
  -2  -1 -14    0.38    0.16
  -2  -1 -14    0.60    0.08
  -3  -1 -14   14.61    0.82
  -3  -1 -14   12.26    1.09
  -4  -1 -14    1.22    0.14
  -4  -1 -14    1.12    0.18
  -5  -1 -14    1.47    0.20
  -5  -1 -14    2.10    0.16
   7  -2 -14    0.15    0.07
  -7   2  14    0.11    0.06
   6  -2 -14   14.02    0.82
  -6   2  14   14.08    0.82
   5  -2 -14    0.98    0.11
  -5   2  14    1.29    0.16
   4  -2 -14    0.05    0.08
   3  -2 -14    0.11    0.11
   3  -2 -14    0.05    0.07
   3  -2 -14    0.13    0.11
   2  -2 -14    0.46    0.12
   2  -2 -14    0.50    0.07
   2  -2 -14    0.45    0.11
   2  -2 -14    0.46    0.11
   1  -2 -14    6.48    0.43
   1  -2 -14    6.44    0.38
   1  -2 -14    5.93    0.39
   1  -2 -14    6.35    0.39
   0  -2 -14    5.48    0.33
   0  -2 -14    4.95    0.37
   0  -2 -14    5.38    0.34
   0  -2 -14    5.37    0.32
  -1  -2 -14    0.41    0.13
  -1  -2 -14    0.68    0.09
  -1  -2 -14    0.88    0.11
  -2  -2 -14   22.15    1.14
  -2  -2 -14   21.71    1.21
  -2  -2 -14   16.97    1.60
  -2  -2 -14   20.08    1.11
  -3  -2 -14    0.12    0.14
  -3  -2 -14    0.14    0.08
  -3  -2 -14    0.18    0.10
  -4  -2 -14    0.11    0.07
  -4  -2 -14    0.02    0.09
   7  -3 -14    1.26    0.12
  -7   3  14    1.09    0.13
   6  -3 -14    1.07    0.10
  -6   3  14    1.06    0.11
   5  -3 -14   13.20    0.73
  -5   3  14   11.56    0.73
   4  -3 -14    2.41    0.19
   4  -3 -14    2.35    0.22
   3  -3 -14    0.33    0.10
   3  -3 -14    0.46    0.07
   2  -3 -14    0.45    0.10
   2  -3 -14    0.28    0.11
   1  -3 -14    0.53    0.08
   1  -3 -14    0.57    0.11
   1  -3 -14    0.43    0.12
   1  -3 -14    0.59    0.12
   0  -3 -14    4.18    0.32
   0  -3 -14    4.41    0.30
   0  -3 -14    4.59    0.28
   0  -3 -14    4.19    0.25
  -1  -3 -14   17.99    1.02
  -1  -3 -14   18.23    1.08
  -1  -3 -14   18.07    1.00
  -2  -3 -14   -0.09    0.09
  -2  -3 -14    0.05    0.10
  -3  -3 -14    0.42    0.10
  -3  -3 -14    0.73    0.09
   6  -4 -14    5.74    0.34
  -6   4  14    5.13    0.34
   5  -4 -14    0.51    0.08
  -5   4  14    0.42    0.09
   4  -4 -14    2.51    0.17
   4  -4 -14    2.19    0.19
   3  -4 -14   -0.01    0.05
   3  -4 -14    0.02    0.09
   2  -4 -14    8.56    0.51
   2  -4 -14    8.40    0.51
   2  -4 -14    8.92    0.50
   1  -4 -14    1.54    0.13
   1  -4 -14    1.59    0.17
   1  -4 -14    1.43    0.16
   0  -4 -14    0.04    0.09
   0  -4 -14    0.17    0.08
  -1  -4 -14    1.29    0.15
  -1  -4 -14    1.20    0.15
  -1  -4 -14    1.17    0.11
  -2  -4 -14    2.17    0.16
  -2  -4 -14    1.99    0.17
   6  -5 -14    3.14    0.19
  -6   5  14    2.62    0.21
   5  -5 -14    6.32    0.34
   5  -5 -14    5.25    0.34
  -5   5  14    5.42    0.36
   4  -5 -14    1.70    0.16
   4  -5 -14    1.98    0.17
   4  -5 -14    2.06    0.13
   3  -5 -14    1.56    0.14
   3  -5 -14    1.28    0.15
   2  -5 -14    4.09    0.27
   2  -5 -14    4.16    0.28
   2  -5 -14    4.17    0.25
   1  -5 -14    3.28    0.22
   1  -5 -14    2.96    0.21
   0  -5 -14    4.53    0.26
   0  -5 -14    3.78    0.25
  -1  -5 -14    3.45    0.22
   5  -6 -14   -0.05    0.07
   4  -6 -14    1.83    0.15
   4  -6 -14    1.74    0.14
   3  -6 -14    0.05    0.07
   3  -6 -14    0.20    0.06
   3  -6 -14    0.17    0.08
   2  -6 -14   -0.09    0.07
   2  -6 -14   -0.04    0.07
   1  -6 -14   -0.05    0.07
   1  -6 -14    0.02    0.05
   0   8 -15    0.20    0.06
   0   8 -15    0.24    0.10
  -1   8 -15    6.52    0.60
  -1   8 -15    8.15    0.42
  -2   8 -15    4.10    0.24
  -2   8 -15    4.27    0.26
  -2   8 -15    3.75    0.36
  -3   8 -15   -0.03    0.08
  -3   8 -15    0.11    0.10
  -4   8 -15    0.07    0.10
  -4   8 -15    0.23    0.06
   2   7 -15    0.03    0.06
  -2  -7  15    0.08    0.05
   1   7 -15    0.25    0.07
   1   7 -15    0.28    0.06
  -1  -7  15    0.16    0.05
   0   7 -15    0.03    0.05
   0   7 -15    0.00    0.07
   0   7 -15   -0.06    0.12
  -1   7 -15    8.65    0.51
  -1   7 -15    9.05    0.73
  -2   7 -15    0.44    0.09
  -2   7 -15    0.35    0.14
  -2   7 -15    0.43    0.07
  -3   7 -15    0.46    0.08
  -3   7 -15    0.72    0.15
  -4   7 -15    0.26    0.07
  -4   7 -15    0.24    0.12
  -5   7 -15    0.62    0.11
   3   6 -15    0.43    0.07
  -3  -6  15    0.50    0.07
   2   6 -15    1.91    0.16
  -2  -6  15    1.92    0.16
   1   6 -15    0.03    0.06
   1   6 -15    0.01    0.08
   0   6 -15    0.16    0.06
   0   6 -15    0.11    0.09
   0   6 -15    0.05    0.13
  -1   6 -15    7.32    0.46
  -1   6 -15    7.66    0.67
  -1   6 -15    8.51    0.47
  -2   6 -15    5.76    0.33
  -2   6 -15    5.42    0.34
  -2   6 -15    5.13    0.50
  -3   6 -15    7.44    0.65
  -3   6 -15    7.88    0.45
  -4   6 -15    1.66    0.25
  -4   6 -15    1.95    0.14
  -5   6 -15    2.58    0.23
  -5   6 -15    2.26    0.26
   4   5 -15    0.12    0.06
  -4  -5  15    0.13    0.06
   3   5 -15    0.24    0.07
  -3  -5  15    0.19    0.06
   2   5 -15    0.06    0.07
   1   5 -15    0.33    0.10
   1   5 -15    0.50    0.07
   0   5 -15    7.81    0.71
   0   5 -15    8.05    0.50
   0   5 -15    8.98    0.49
  -1   5 -15    1.76    0.19
  -1   5 -15    1.44    0.26
  -1   5 -15    1.70    0.16
  -1   5 -15    1.69    0.18
  -2   5 -15    0.94    0.12
  -2   5 -15    0.95    0.11
  -2   5 -15    1.11    0.12
  -2   5 -15    1.06    0.20
  -3   5 -15    0.83    0.18
  -3   5 -15    1.36    0.14
  -4   5 -15    0.03    0.06
  -4   5 -15   -0.21    0.14
  -4   5 -15   -0.12    0.12
  -5   5 -15    0.14    0.13
  -5   5 -15    0.18    0.12
  -6   5 -15   12.96    1.09
  -6   5 -15   14.53    0.95
   5   4 -15    1.19    0.13
  -5  -4  15    1.50    0.16
  -5  -4  15    1.73    0.11
  -5  -4  15    1.35    0.13
   4   4 -15    1.29    0.14
  -4  -4  15    1.40    0.14
   3   4 -15    2.73    0.20
  -3  -4  15    2.63    0.20
   2   4 -15    0.37    0.08
   1   4 -15    2.47    0.18
   1   4 -15    2.24    0.21
   0   4 -15    4.07    0.30
   0   4 -15    4.74    0.27
   0   4 -15    4.51    0.29
   0   4 -15    3.89    0.41
  -1   4 -15    3.51    0.28
  -1   4 -15    3.51    0.25
  -1   4 -15    3.44    0.38
  -1   4 -15    3.82    0.26
  -2   4 -15    9.01    0.84
  -2   4 -15   10.53    0.58
  -2   4 -15   10.78    0.56
  -2   4 -15    9.49    0.62
  -3   4 -15    1.12    0.13
  -3   4 -15    0.99    0.10
  -3   4 -15    1.06    0.20
  -4   4 -15    6.52    0.34
  -4   4 -15    5.94    0.46
  -4   4 -15    5.38    0.54
  -5   4 -15    0.03    0.12
  -5   4 -15    0.17    0.12
  -6   4 -15    3.90    0.37
  -6   4 -15    4.64    0.33
   5   3 -15   12.91    0.79
  -5  -3  15   14.44    0.79
   4   3 -15    0.17    0.08
  -4  -3  15    0.21    0.07
   3   3 -15    6.12    0.38
   2   3 -15    1.62    0.15
   2   3 -15    1.24    0.15
   1   3 -15    0.91    0.13
   1   3 -15    1.22    0.13
   0   3 -15    0.54    0.11
   0   3 -15    0.64    0.17
   0   3 -15    0.70    0.11
  -1   3 -15    1.71    0.22
  -1   3 -15    1.89    0.16
  -1   3 -15    1.43    0.23
  -1   3 -15    1.62    0.18
  -2   3 -15    8.67    0.47
  -2   3 -15    7.78    0.70
  -2   3 -15    8.13    0.52
  -2   3 -15    7.92    0.45
  -3   3 -15    2.75    0.23
  -3   3 -15    2.34    0.32
  -3   3 -15    2.71    0.19
  -3   3 -15    2.71    0.28
  -4   3 -15    0.00    0.14
  -4   3 -15   -0.06    0.09
  -4   3 -15    0.00    0.15
  -5   3 -15    5.53    0.50
  -5   3 -15    5.73    0.43
  -6   3 -15    2.89    0.31
  -6   3 -15    3.88    0.28
  -6  -2  15    1.98    0.15
  -6  -2  15    2.23    0.19
   5   2 -15    1.24    0.13
  -5  -2  15    1.22    0.14
   4   2 -15    4.01    0.27
  -4  -2  15    4.11    0.27
   3   2 -15    2.63    0.20
   2   2 -15    4.88    0.34
   2   2 -15    5.29    0.33
   1   2 -15    0.59    0.07
   1   2 -15    0.47    0.11
   1   2 -15    0.55    0.11
   0   2 -15    0.32    0.09
   0   2 -15    0.10    0.10
   0   2 -15   -0.06    0.11
  -1   2 -15   14.45    0.80
  -1   2 -15   14.86    0.79
  -1   2 -15   14.42    0.86
  -1   2 -15   12.66    1.14
  -2   2 -15    4.50    0.45
  -2   2 -15    5.18    0.35
  -2   2 -15    4.76    0.29
  -2   2 -15    4.31    0.39
  -3   2 -15    8.63    0.68
  -3   2 -15    9.67    0.53
  -3   2 -15   10.03    0.60
  -3   2 -15    9.17    0.79
  -4   2 -15    2.30    0.20
  -4   2 -15    2.02    0.25
  -4   2 -15    1.79    0.27
  -5   2 -15    2.63    0.25
  -5   2 -15    1.92    0.25
  -5   2 -15    2.57    0.19
  -6   2 -15    0.29    0.08
   6   1 -15    4.60    0.30
  -6  -1  15    5.20    0.29
  -6  -1  15    4.72    0.34
  -6  -1  15    4.24    0.29
   5   1 -15   10.00    0.60
  -5  -1  15   10.16    0.60
   4   1 -15    0.18    0.08
  -4  -1  15    0.22    0.09
   3   1 -15   54.14    3.09
   2   1 -15    0.36    0.11
   2   1 -15    0.40    0.08
   1   1 -15    6.93    0.48
   1   1 -15    6.51    0.43
   1   1 -15    7.50    0.42
   1   1 -15    7.31    0.43
   0   1 -15    1.47    0.18
   0   1 -15    1.63    0.17
   0   1 -15    1.48    0.16
  -1   1 -15    9.33    0.60
  -1   1 -15    9.68    0.54
  -1   1 -15    9.04    0.80
  -1   1 -15    9.85    0.55
  -2   1 -15   11.06    0.61
  -2   1 -15   11.56    0.68
  -2   1 -15   10.11    0.90
  -3   1 -15    0.14    0.05
  -3   1 -15    0.25    0.12
  -3   1 -15    0.13    0.15
  -4   1 -15    0.13    0.13
  -4   1 -15    0.11    0.10
  -5   1 -15    9.01    0.50
  -5   1 -15    7.27    0.67
   6   0 -15   -0.01    0.06
  -6   0  15    0.10    0.08
  -6   0  15   -0.01    0.07
   5   0 -15    6.01    0.36
  -5   0  15    5.62    0.37
   4   0 -15    0.14    0.08
   3   0 -15    4.01    0.29
   3   0 -15    3.04    0.23
   2   0 -15   -0.04    0.12
   2   0 -15    0.01    0.10
   2   0 -15   -0.05    0.06
   1   0 -15    0.12    0.12
   1   0 -15    0.06    0.10
   1   0 -15   -0.07    0.09
   0   0 -15    7.14    0.48
   0   0 -15    7.57    0.42
   0   0 -15    6.99    0.44
  -1   0 -15    6.23    0.58
  -1   0 -15    7.48    0.40
  -1   0 -15    7.53    0.45
  -1   0 -15    5.66    0.36
  -2   0 -15    1.47    0.16
  -2   0 -15    1.58    0.13
  -2   0 -15    1.13    0.20
  -3   0 -15    7.30    0.44
  -3   0 -15    6.16    0.58
  -4   0 -15    1.59    0.22
  -4   0 -15    1.95    0.19
  -5   0 -15    0.06    0.09
  -5   0 -15    0.33    0.09
   6  -1 -15    9.70    0.59
  -6   1  15   10.46    0.59
   5  -1 -15    2.07    0.17
  -5   1  15    1.61    0.17
   4  -1 -15    0.45    0.08
   4  -1 -15    0.15    0.11
   3  -1 -15   15.95    0.91
   3  -1 -15   15.53    0.90
   3  -1 -15   15.82    0.95
   2  -1 -15    2.64    0.23
   2  -1 -15    2.85    0.26
   2  -1 -15    2.88    0.23
   2  -1 -15    2.71    0.19
   1  -1 -15    2.38    0.24
   1  -1 -15    2.68    0.21
   1  -1 -15    2.16    0.19
   1  -1 -15    1.98    0.18
   0  -1 -15    1.96    0.23
   0  -1 -15    1.98    0.15
   0  -1 -15    1.71    0.18
   0  -1 -15    1.52    0.17
  -1  -1 -15    0.37    0.12
  -1  -1 -15    0.31    0.08
  -1  -1 -15    0.50    0.10
  -2  -1 -15    1.05    0.14
  -2  -1 -15    1.18    0.18
  -2  -1 -15    1.19    0.11
  -3  -1 -15   10.79    0.97
  -3  -1 -15   13.27    0.73
  -4  -1 -15    4.95    0.47
  -4  -1 -15    6.19    0.36
   6  -2 -15    0.35    0.08
  -6   2  15    0.24    0.08
   5  -2 -15    2.35    0.18
  -5   2  15    2.21    0.20
   4  -2 -15    5.75    0.34
   4  -2 -15    4.95    0.34
   3  -2 -15    8.19    0.46
   3  -2 -15    7.07    0.49
   3  -2 -15    7.74    0.46
   2  -2 -15    5.52    0.38
   2  -2 -15    5.47    0.36
   2  -2 -15    5.70    0.35
   1  -2 -15    0.70    0.12
   1  -2 -15    0.68    0.09
   1  -2 -15    0.86    0.12
   1  -2 -15    0.67    0.11
   0  -2 -15    6.80    0.39
   0  -2 -15    6.80    0.41
   0  -2 -15    7.01    0.45
   0  -2 -15    6.89    0.41
  -1  -2 -15    6.27    0.36
  -1  -2 -15    6.21    0.42
  -1  -2 -15    6.08    0.38
  -2  -2 -15   16.77    0.90
  -2  -2 -15   12.76    1.19
  -2  -2 -15   15.29    0.84
  -3  -2 -15   -0.08    0.11
  -3  -2 -15    0.10    0.09
   6  -3 -15    5.13    0.30
  -6   3  15    4.62    0.31
   5  -3 -15    3.40    0.22
  -5   3  15    3.25    0.24
   4  -3 -15    9.27    0.55
   4  -3 -15    9.60    0.55
   3  -3 -15    6.04    0.36
   3  -3 -15    6.37    0.38
   2  -3 -15    0.41    0.10
   2  -3 -15    0.33    0.08
   2  -3 -15    0.22    0.09
   1  -3 -15    4.15    0.31
   1  -3 -15    4.32    0.26
   1  -3 -15    4.40    0.29
   1  -3 -15    4.48    0.29
   0  -3 -15    3.72    0.28
   0  -3 -15    3.89    0.25
   0  -3 -15    4.22    0.26
  -1  -3 -15    0.84    0.11
  -1  -3 -15    0.82    0.12
  -1  -3 -15    1.03    0.10
  -2  -3 -15   10.51    0.63
  -2  -3 -15   10.17    0.59
   6  -4 -15    2.32    0.15
  -6   4  15    2.25    0.17
   5  -4 -15    4.29    0.25
   5  -4 -15    3.60    0.25
  -5   4  15    4.10    0.27
   4  -4 -15    1.37    0.14
   4  -4 -15    1.55    0.15
   4  -4 -15    1.54    0.11
   3  -4 -15    0.21    0.07
   3  -4 -15    0.27    0.09
   2  -4 -15    0.30    0.10
   2  -4 -15    0.36    0.07
   2  -4 -15    0.24    0.10
   1  -4 -15    0.15    0.08
   1  -4 -15    0.20    0.09
   0  -4 -15    7.03    0.40
   0  -4 -15    6.46    0.39
  -1  -4 -15    0.32    0.08
  -1  -4 -15    0.22    0.07
   5  -5 -15    0.38    0.07
   4  -5 -15    0.43    0.08
   4  -5 -15    0.31    0.07
   3  -5 -15    4.94    0.29
   3  -5 -15    4.06    0.28
   3  -5 -15    4.90    0.27
   2  -5 -15    0.54    0.09
   2  -5 -15    0.43    0.07
   1  -5 -15    0.74    0.08
   1  -5 -15    0.77    0.09
   0  -5 -15    0.18    0.07
  -1   8 -16   13.73    0.76
  -2   8 -16    1.37    0.16
  -3   8 -16    1.80    0.20
  -3   8 -16    2.50    0.15
   1   7 -16    0.99    0.11
   0   7 -16    0.03    0.06
   0   7 -16    0.01    0.10
  -1   7 -16    2.79    0.18
  -1   7 -16    2.88    0.19
  -1   7 -16    2.43    0.27
  -2   7 -16    5.45    0.52
  -2   7 -16    6.23    0.35
  -2   7 -16    6.71    0.36
  -3   7 -16    0.32    0.11
  -3   7 -16    0.43    0.07
  -4   7 -16    2.42    0.25
  -4   7 -16    2.75    0.16
   3   6 -16    5.24    0.31
  -3  -6  16    5.33    0.32
   2   6 -16    0.00    0.05
  -2  -6  16   -0.05    0.05
   1   6 -16    0.58    0.06
   1   6 -16    0.48    0.09
   0   6 -16    0.24    0.09
   0   6 -16    0.05    0.11
   0   6 -16    0.04    0.07
  -1   6 -16    0.13    0.08
  -1   6 -16    0.09    0.12
  -1   6 -16    0.08    0.07
  -2   6 -16   -0.10    0.08
  -2   6 -16   -0.03    0.12
  -2   6 -16   -0.02    0.05
  -3   6 -16    8.40    0.79
  -3   6 -16   10.86    0.55
  -4   6 -16   -0.02    0.11
  -4   6 -16    0.02    0.05
  -5   6 -16    1.57    0.19
   4   5 -16    0.53    0.07
  -4  -5  16    0.70    0.09
   3   5 -16    0.33    0.07
  -3  -5  16    0.33    0.06
   2   5 -16    5.08    0.30
   2   5 -16    4.59    0.31
   1   5 -16    2.68    0.17
   1   5 -16    2.13    0.20
   0   5 -16    1.28    0.15
   0   5 -16    0.97    0.13
   0   5 -16    1.54    0.18
   0   5 -16    1.20    0.21
  -1   5 -16    5.76    0.34
  -1   5 -16    4.88    0.48
  -1   5 -16    5.10    0.32
  -1   5 -16    5.78    0.36
  -2   5 -16    2.19    0.14
  -2   5 -16    2.07    0.18
  -2   5 -16    2.25    0.20
  -2   5 -16    1.74    0.26
  -3   5 -16    0.11    0.13
  -3   5 -16    0.06    0.07
  -5   5 -16    0.52    0.11
  -5   5 -16    0.27    0.10
   4   4 -16    2.13    0.17
  -4  -4  16    2.34    0.17
   3   4 -16    0.53    0.07
  -3  -4  16    0.55    0.08
   2   4 -16    0.02    0.09
   2   4 -16    0.11    0.06
   1   4 -16   -0.02    0.09
   1   4 -16    0.05    0.06
   0   4 -16    4.80    0.33
   0   4 -16    5.37    0.36
   0   4 -16    5.09    0.32
  -1   4 -16    0.15    0.09
  -1   4 -16    0.09    0.07
  -1   4 -16    0.02    0.14
  -1   4 -16   -0.01    0.11
  -2   4 -16    0.36    0.16
  -2   4 -16    0.40    0.09
  -2   4 -16    0.48    0.11
  -3   4 -16    5.76    0.32
  -3   4 -16    5.55    0.36
  -3   4 -16    4.92    0.49
  -4   4 -16   -0.13    0.12
  -4   4 -16   -0.16    0.11
  -5   4 -16   14.96    1.27
  -5   4 -16   17.19    1.10
   5   3 -16    0.41    0.06
  -5  -3  16    0.36    0.06
  -5  -3  16    0.40    0.09
   4   3 -16    4.92    0.31
  -4  -3  16    4.91    0.31
   3   3 -16    0.12    0.07
   2   3 -16   15.02    0.86
   2   3 -16   14.51    0.84
   1   3 -16    0.22    0.05
   1   3 -16    0.15    0.09
   0   3 -16    4.53    0.28
   0   3 -16    3.84    0.32
   0   3 -16    4.41    0.29
  -1   3 -16    4.42    0.28
  -1   3 -16    4.06    0.32
  -1   3 -16    3.96    0.40
  -1   3 -16    4.13    0.25
  -2   3 -16    2.30    0.21
  -2   3 -16    1.58    0.28
  -2   3 -16    2.16    0.17
  -3   3 -16    0.79    0.18
  -3   3 -16    1.30    0.17
  -3   3 -16    1.35    0.11
  -4   3 -16    8.75    0.49
  -4   3 -16    8.22    0.57
  -4   3 -16    6.89    0.66
  -5   3 -16    1.56    0.20
  -5   3 -16    2.19    0.20
   5   2 -16    0.37    0.07
  -5  -2  16    0.29    0.07
   4   2 -16    0.41    0.07
  -4  -2  16    0.35    0.07
   3   2 -16    0.66    0.11
   3   2 -16    1.03    0.12
   2   2 -16    2.37    0.21
   2   2 -16    2.75    0.19
   1   2 -16    4.95    0.34
   1   2 -16    5.47    0.34
   1   2 -16    5.62    0.31
   1   2 -16    5.23    0.38
   0   2 -16    2.45    0.18
   0   2 -16    2.16    0.23
   0   2 -16    1.95    0.19
  -1   2 -16    0.48    0.10
  -1   2 -16    0.25    0.15
  -1   2 -16    0.17    0.11
  -1   2 -16    0.37    0.07
  -2   2 -16   14.16    0.81
  -2   2 -16   14.64    1.18
  -2   2 -16   14.80    0.88
  -3   2 -16    6.82    0.36
  -3   2 -16    7.26    0.43
  -3   2 -16    5.50    0.56
  -4   2 -16   -0.08    0.09
  -4   2 -16   -0.01    0.12
  -5   2 -16    1.40    0.18
   5   1 -16    0.44    0.07
  -5  -1  16    0.47    0.08
   4   1 -16    6.85    0.40
  -4  -1  16    6.20    0.41
   3   1 -16   26.14    1.47
   3   1 -16   25.25    1.43
   2   1 -16    2.90    0.23
   2   1 -16    2.79    0.27
   2   1 -16    3.01    0.20
   1   1 -16    0.03    0.09
   1   1 -16   -0.01    0.10
   1   1 -16   -0.03    0.12
   0   1 -16    3.68    0.24
   0   1 -16    3.52    0.30
   0   1 -16    4.09    0.26
  -1   1 -16    0.42    0.09
  -1   1 -16    0.49    0.13
  -1   1 -16    0.30    0.14
  -2   1 -16    0.14    0.14
  -2   1 -16    0.27    0.07
  -2   1 -16    0.35    0.12
  -3   1 -16    0.44    0.14
  -3   1 -16    0.63    0.12
  -4   1 -16    0.24    0.09
  -4   1 -16    0.17    0.11
   6   0 -16    0.39    0.06
  -6   0  16    0.36    0.06
   5   0 -16   -0.01    0.05
   5   0 -16    0.01    0.09
  -5   0  16    0.04    0.07
  -5   0  16    0.04    0.08
   4   0 -16    1.04    0.12
   4   0 -16    0.64    0.12
   3   0 -16   15.23    0.82
   3   0 -16   13.20    0.80
   3   0 -16   13.74    0.85
   2   0 -16    0.08    0.12
   2   0 -16    0.06    0.05
   2   0 -16    0.00    0.10
   1   0 -16    2.00    0.23
   1   0 -16    2.06    0.20
   1   0 -16    2.01    0.17
   0   0 -16    1.02    0.12
   0   0 -16    0.98    0.14
   0   0 -16    1.01    0.12
  -1   0 -16    4.63    0.34
  -1   0 -16    4.78    0.29
  -2   0 -16    0.13    0.06
  -2   0 -16    0.09    0.12
  -2   0 -16    0.07    0.12
  -3   0 -16    8.61    0.82
  -3   0 -16   11.55    0.62
  -4   0 -16    0.02    0.10
  -4   0 -16    0.06    0.08
   6  -1 -16    7.30    0.45
  -6   1  16    7.93    0.45
   5  -1 -16   13.24    0.75
  -5   1  16   12.53    0.75
   4  -1 -16    0.40    0.07
   4  -1 -16    0.28    0.09
   4  -1 -16    0.14    0.10
   3  -1 -16    0.00    0.11
   3  -1 -16   -0.04    0.09
   3  -1 -16    0.04    0.06
   2  -1 -16    5.30    0.34
   2  -1 -16    5.41    0.37
   2  -1 -16    5.26    0.33
   1  -1 -16    0.63    0.11
   1  -1 -16    0.64    0.13
   1  -1 -16    0.78    0.09
   0  -1 -16    1.09    0.12
   0  -1 -16    1.18    0.09
   0  -1 -16    1.05    0.14
  -1  -1 -16    3.35    0.22
  -1  -1 -16    3.31    0.27
  -2  -1 -16    0.27    0.11
  -2  -1 -16    0.14    0.12
  -3  -1 -16    7.99    0.65
   6  -2 -16    0.27    0.05
  -6   2  16    0.25    0.06
   5  -2 -16    0.24    0.06
  -5   2  16    0.24    0.08
   4  -2 -16    1.76    0.17
   4  -2 -16    1.88    0.14
   3  -2 -16    4.51    0.27
   3  -2 -16    3.62    0.26
   2  -2 -16   -0.04    0.10
   2  -2 -16   -0.05    0.09
   2  -2 -16    0.12    0.08
   2  -2 -16    0.02    0.08
   1  -2 -16   14.09    0.86
   1  -2 -16   13.53    0.80
   1  -2 -16   14.22    0.80
   1  -2 -16   14.95    0.79
   0  -2 -16    1.43    0.19
   0  -2 -16    1.41    0.14
   0  -2 -16    1.69    0.15
  -1  -2 -16   11.82    0.69
  -1  -2 -16   11.30    0.62
  -1  -2 -16   10.75    0.64
  -3  -2 -16    0.12    0.07
   5  -3 -16    3.35    0.19
   5  -3 -16    2.87    0.20
  -5   3  16    3.13    0.22
   4  -3 -16    1.10    0.12
   4  -3 -16    1.05    0.13
   3  -3 -16    0.78    0.10
   3  -3 -16    0.82    0.09
   2  -3 -16   16.76    0.90
   2  -3 -16   15.70    0.91
   2  -3 -16   16.07    0.90
   1  -3 -16   29.53    1.58
   1  -3 -16   25.72    1.69
   1  -3 -16   30.95    1.60
   0  -3 -16    3.72    0.27
   0  -3 -16    3.78    0.25
   0  -3 -16    4.14    0.24
  -1  -3 -16    0.04    0.07
  -1  -3 -16   -0.06    0.06
   4  -4 -16    0.09    0.07
   4  -4 -16   -0.09    0.06
   3  -4 -16    0.24    0.06
   3  -4 -16    0.08    0.07
   3  -4 -16    0.20    0.08
   2  -4 -16    0.74    0.09
   2  -4 -16    0.54    0.08
   1  -4 -16    2.99    0.19
   1  -4 -16    2.58    0.18
   0  -4 -16   -0.05    0.07
   0  -4 -16    0.01    0.04
   0   7 -17   14.32    0.79
  -1   7 -17    0.00    0.04
  -2   7 -17    0.52    0.10
  -2   7 -17    0.49    0.07
   1   6 -17    1.99    0.15
   1   6 -17    1.82    0.15
   0   6 -17    5.66    0.33
  -1   6 -17    1.54    0.11
  -1   6 -17    1.36    0.14
  -1   6 -17    1.28    0.17
  -2   6 -17   -0.06    0.07
  -2   6 -17    0.01    0.09
  -3   6 -17    3.57    0.20
  -3   6 -17    2.75    0.29
  -4   6 -17    0.93    0.14
   3   5 -17    0.19    0.04
  -3  -5  17    0.15    0.06
   2   5 -17    0.16    0.03
   2   5 -17    0.12    0.07
   1   5 -17    0.33    0.08
   1   5 -17    0.36    0.10
   0   5 -17   14.21    0.89
   0   5 -17   16.30    0.95
   0   5 -17   17.48    0.89
  -1   5 -17    0.35    0.08
  -1   5 -17    0.31    0.11
  -1   5 -17    0.40    0.06
  -1   5 -17    0.47    0.09
  -2   5 -17    0.95    0.15
  -2   5 -17    0.94    0.10
  -3   5 -17    0.35    0.06
  -3   5 -17    0.15    0.10
  -4   5 -17    0.13    0.09
   3   4 -17    2.15    0.15
  -3  -4  17    1.94    0.16
   2   4 -17    1.37    0.10
   2   4 -17    1.11    0.14
   1   4 -17    4.71    0.29
   1   4 -17    4.53    0.32
   0   4 -17    7.05    0.45
   0   4 -17    7.85    0.48
   0   4 -17    7.82    0.44
  -1   4 -17    3.89    0.22
  -1   4 -17    4.13    0.25
  -1   4 -17    2.89    0.34
  -1   4 -17    3.68    0.27
  -2   4 -17    0.81    0.15
  -2   4 -17    1.03    0.12
  -2   4 -17    1.24    0.16
  -3   4 -17    0.73    0.09
  -3   4 -17    0.31    0.12
  -3   4 -17    0.57    0.10
  -4   4 -17    3.22    0.30
   4   3 -17    0.28    0.06
  -4  -3  17    0.18    0.06
   3   3 -17    0.65    0.07
   3   3 -17    0.42    0.08
   2   3 -17    2.97    0.18
   2   3 -17    2.78    0.23
   2   3 -17    2.48    0.20
   1   3 -17   16.09    0.90
   1   3 -17   16.02    0.90
   1   3 -17   15.99    0.96
   0   3 -17    0.37    0.08
   0   3 -17    0.32    0.11
   0   3 -17    0.38    0.09
  -1   3 -17    0.28    0.09
  -1   3 -17    0.05    0.12
  -1   3 -17    0.17    0.04
  -1   3 -17    0.21    0.10
  -2   3 -17    0.91    0.13
  -2   3 -17    1.15    0.12
  -2   3 -17    0.87    0.16
  -3   3 -17    3.97    0.38
  -3   3 -17    4.49    0.29
  -4   3 -17    2.61    0.26
   5   2 -17   -0.03    0.05
   4   2 -17    1.23    0.12
  -4  -2  17    1.26    0.14
   3   2 -17    0.33    0.06
   3   2 -17    0.22    0.11
   3   2 -17    0.30    0.08
   2   2 -17   14.66    0.91
   2   2 -17   14.93    0.86
   2   2 -17   15.76    0.85
   1   2 -17    0.87    0.10
   1   2 -17    0.82    0.11
   1   2 -17    0.52    0.12
   0   2 -17    2.27    0.23
   0   2 -17    2.37    0.18
   0   2 -17    2.60    0.20
  -1   2 -17   13.46    0.80
  -1   2 -17   12.85    0.74
  -2   2 -17    1.18    0.11
  -2   2 -17    1.04    0.13
  -2   2 -17    0.65    0.15
  -3   2 -17    3.49    0.23
  -3   2 -17    2.62    0.29
  -4   2 -17    0.03    0.08
  -4   2 -17    0.06    0.09
   5   1 -17   -0.09    0.04
  -5  -1  17   -0.03    0.06
   4   1 -17    1.25    0.14
   4   1 -17    1.64    0.12
   4   1 -17    1.28    0.17
  -4  -1  17    1.38    0.14
   3   1 -17    9.13    0.57
   3   1 -17   10.52    0.57
   3   1 -17    9.86    0.61
   2   1 -17    0.10    0.10
   2   1 -17   -0.02    0.08
   1   1 -17    3.05    0.21
   1   1 -17    3.10    0.26
   1   1 -17    3.16    0.23
   0   1 -17    0.10    0.10
   0   1 -17    0.15    0.11
   0   1 -17    0.05    0.06
  -1   1 -17    1.16    0.14
  -1   1 -17    1.36    0.14
  -2   1 -17    3.07    0.32
  -2   1 -17    3.61    0.21
  -2   1 -17    3.88    0.27
  -3   1 -17    0.34    0.11
  -3   1 -17    0.72    0.10
  -4   1 -17   -0.05    0.09
   5   0 -17    4.20    0.27
  -5   0  17    4.60    0.28
   4   0 -17    0.53    0.09
   4   0 -17    0.77    0.11
   4   0 -17    0.82    0.09
  -4   0  17    0.71    0.09
   3   0 -17    6.76    0.43
   3   0 -17    6.53    0.40
   3   0 -17    6.93    0.39
   2   0 -17    0.37    0.12
   2   0 -17    0.29    0.09
   2   0 -17    0.39    0.10
   1   0 -17   -0.04    0.07
   1   0 -17   -0.01    0.10
   1   0 -17   -0.04    0.11
   0   0 -17    2.53    0.20
   0   0 -17    2.67    0.23
  -1   0 -17    1.43    0.18
  -1   0 -17    1.35    0.13
  -2   0 -17    2.98    0.24
  -3   0 -17    0.76    0.09
  -3   0 -17    0.50    0.11
   5  -1 -17    1.29    0.10
  -5   1  17    1.17    0.13
   4  -1 -17   16.88    0.96
   4  -1 -17   16.69    0.94
   3  -1 -17    0.01    0.09
   3  -1 -17    0.05    0.08
   2  -1 -17    0.16    0.07
   2  -1 -17    0.36    0.10
   2  -1 -17    0.25    0.12
   1  -1 -17    0.74    0.10
   1  -1 -17    0.59    0.07
   1  -1 -17    0.65    0.12
   0  -1 -17    1.80    0.20
   0  -1 -17    1.66    0.15
  -1  -1 -17    5.05    0.30
  -1  -1 -17    5.35    0.34
  -2  -1 -17    0.39    0.09
   4  -2 -17    0.28    0.07
   3  -2 -17    3.18    0.20
   3  -2 -17    3.03    0.20
   2  -2 -17    1.62    0.12
   2  -2 -17    1.31    0.13
   2  -2 -17    1.36    0.15
   2  -2 -17    1.13    0.13
   1  -2 -17    1.85    0.15
   1  -2 -17    1.47    0.17
   0  -2 -17    3.33    0.24
   0  -2 -17    3.52    0.22
  -1  -2 -17    2.72    0.20
   4  -3 -17    3.09    0.19
   3  -3 -17    1.57    0.12
   3  -3 -17    1.63    0.13
   2  -3 -17    3.29    0.21
   2  -3 -17    3.27    0.21
   1  -3 -17    0.06    0.07
   1  -3 -17    0.06    0.06
   0  -3 -17    2.62    0.16
   0   6 -18    4.57    0.26
   1   5 -18    0.49    0.08
   1   5 -18    0.30    0.06
   0   5 -18    1.53    0.14
   0   5 -18    1.77    0.15
   0   5 -18    1.96    0.12
  -1   5 -18    6.61    0.42
  -1   5 -18    6.99    0.39
  -2   5 -18    0.35    0.10
  -2   5 -18    0.46    0.07
   2   4 -18   -0.08    0.08
   2   4 -18    0.00    0.06
   1   4 -18    1.07    0.11
   1   4 -18    0.78    0.09
   0   4 -18    2.40    0.17
   0   4 -18    2.12    0.15
   0   4 -18    2.08    0.18
  -1   4 -18    1.91    0.17
  -1   4 -18    1.97    0.16
  -2   4 -18   19.13    1.02
  -2   4 -18   18.22    1.10
  -3   4 -18    2.00    0.21
   3   3 -18    1.94    0.15
   3   3 -18    1.96    0.17
   2   3 -18    0.87    0.11
   2   3 -18    0.73    0.08
   1   3 -18    4.86    0.29
   1   3 -18    4.56    0.30
   1   3 -18    4.87    0.32
   0   3 -18    3.12    0.19
   0   3 -18    3.41    0.22
   0   3 -18    3.31    0.24
  -1   3 -18    2.78    0.21
  -1   3 -18    2.53    0.19
  -2   3 -18    1.83    0.13
  -2   3 -18    1.71    0.17
  -3   3 -18    2.14    0.22
   3   2 -18    2.30    0.19
   3   2 -18    1.95    0.16
   2   2 -18    0.11    0.09
   2   2 -18    0.08    0.07
   1   2 -18    5.70    0.36
   1   2 -18    5.20    0.33
   1   2 -18    5.35    0.32
   0   2 -18    4.44    0.28
   0   2 -18    3.76    0.24
   0   2 -18    3.30    0.21
  -1   2 -18    2.45    0.21
  -1   2 -18    2.59    0.18
  -2   2 -18   14.17    0.83
  -2   2 -18   13.52    0.75
  -3   2 -18   -0.16    0.07
   3   1 -18    7.15    0.43
   3   1 -18    6.65    0.40
   2   1 -18    0.43    0.10
   2   1 -18    0.49    0.07
   1   1 -18    0.57    0.11
   1   1 -18    0.79    0.10
   1   1 -18    0.66    0.07
   0   1 -18    3.21    0.24
   0   1 -18    2.91    0.21
  -1   1 -18   10.53    0.66
  -1   1 -18   11.10    0.60
  -2   1 -18    0.56    0.10
   3   0 -18    1.42    0.13
   3   0 -18    1.66    0.16
   2   0 -18    1.00    0.11
   2   0 -18    1.19    0.15
   2   0 -18    1.04    0.11
   1   0 -18    0.39    0.05
   1   0 -18    0.45    0.09
   1   0 -18    0.32    0.10
   0   0 -18    0.26    0.10
   0   0 -18    0.48    0.08
  -1   0 -18    6.56    0.40
  -1   0 -18    6.06    0.35
  -2   0 -18    4.33    0.28
   3  -1 -18    0.47    0.07
   2  -1 -18    4.89    0.32
   2  -1 -18    4.68    0.30
   2  -1 -18    5.10    0.28
   1  -1 -18    0.30    0.08
   1  -1 -18    0.13    0.09
   0  -1 -18   -0.07    0.08
   0  -1 -18   -0.04    0.06
  -1  -1 -18    1.73    0.15
   3  -2 -18    0.23    0.05
   2  -2 -18    3.07    0.20
   1  -2 -18    0.28    0.06
  -1   4 -19    1.39    0.11
   1   3 -19    2.80    0.19
   1   3 -19    2.45    0.15
   0   3 -19    0.07    0.06
   0   3 -19    0.15    0.08
  -1   3 -19    0.41    0.06
  -1   3 -19    0.34    0.08
   2   2 -19    2.37    0.18
   2   2 -19    2.47    0.15
   1   2 -19    0.52    0.09
   1   2 -19    0.41    0.07
   0   2 -19    8.16    0.49
   0   2 -19    7.99    0.46
  -1   2 -19   -0.12    0.05
  -1   2 -19   -0.12    0.08
   2   1 -19    0.03    0.08
   2   1 -19   -0.01    0.04
   1   1 -19    0.04    0.08
   1   1 -19   -0.02    0.07
   0   1 -19    1.10    0.13
   0   1 -19    1.05    0.11
   1   0 -19    1.98    0.15
   0   0   0    0.00    0.00
;
_shelx_hkl_checksum   19132

