data_k15169 
 
_audit_creation_method            'SHELXL-2014/7 and CIFFIX' 
# CIF edited on-the-fly by script CIFFIX (S. Parkin, 2000-2014). 
# CIFFIX: http://xray.uky.edu/people/parkin/programs/ciffix 
_audit_update_record              ? 
 
_shelx_SHELXL_version_number      '2014/7' 
 
_publ_section_exptl_refinement 
; 
H atoms were found in difference Fourier maps, but subsequently included 
in the refinement using riding models, with constrained distances set to 
0.95 %A (C~sp2~H), 0.98 %A (RCH~3~), 0.99 %A (R~2~CH~2~) and 1.00 %A 
(R~3~CH).  U~iso~(H) parameters were set to values of either 1.2U~eq~ or 
1.5U~eq~ (RCH~3~ only) of the attached atom. 
 
To ensure satisfactory refinement for disordered groups in the structure, 
a combination of constraints and restraints were employed. The constraints 
(SHELXL commands EXYZ and EADP) were used to fix overlapping fragments. 
Restraints were used to ensure the integrity of ill-defined or disordered 
groups (SHELXL commands SAME, SADI, DFIX, SIMU, RIGU, and ISOR). 
; 
 
_publ_section_references 
; 
Hope, H. (1994). 
  <i>Prog. Inorg. Chem.</i> <b>41</b>, 1--19. 
 
Krause, L., Herbst-Irmer, R., Sheldrick, G.M. & Stalke, D. (2015). 
  <i>J. Appl. Cryst.</i> <b>48</b>, 3--10. 
 
Nonius (1998). 
  <i>Collect</i> Nonius BV, Delft, The Netherlands. 
 
Otwinowski, Z. & Minor, W. (2006). 
  <i>International Tables for Crystallography</i>, Vol. F, ch. 11.4, 226--235. 
 
Parkin, S. & Hope, H. (1998). 
  <i>J. Appl. Cryst.</i> <b>31</b>, 945--953. 
 
Parkin, S. (2000). 
  <i>Acta Cryst.</i> A<b>56</b>, 157--162. 
 
Parkin, S. (2013). 
  <i>CIFFIX</i>, http://xray.uky.edu/people/parkin/programs/ciffix 
 
Sheldrick, G.M. (2008). 
  <i>Acta Cryst.</i> A<b>64</b>, 112--122. 
 
Sheldrick, G.M. (2015a). 
  <i>Acta Cryst.</i> A<b>71</b>, 3--8. 
 
Sheldrick, G.M. (2015b). 
  <i>Acta Cryst.</i> C<b>71</b>, 3--8. 
 
Spek, A.L. (2009). 
  <i>Acta Cryst.</i> D<b>65</b>, 148--155. 
; 
 
_publ_section_acknowledgements 
; 
The kappaCCD diffractometer was funded by the University of Kentucky. 
; 
 
_chemical_name_systematic         ? 
_chemical_name_common             ? 
_chemical_melting_point           ? 
_chemical_formula_moiety          'C62 H72 F2 S6 Si2' 
_chemical_formula_sum             'C62 H72 F2 S6 Si2' 
_chemical_formula_weight          1103.73 
 
loop_ 
 _atom_type_symbol 
 _atom_type_description 
 _atom_type_scat_dispersion_real 
 _atom_type_scat_dispersion_imag 
 _atom_type_scat_source 
 'C'  'C'   0.0033   0.0016 
 'International Tables Vol C Tables 4.2.6.8 and 6.1.1.4' 
 'H'  'H'   0.0000   0.0000 
 'International Tables Vol C Tables 4.2.6.8 and 6.1.1.4' 
 'F'  'F'   0.0171   0.0103 
 'International Tables Vol C Tables 4.2.6.8 and 6.1.1.4' 
 'Si'  'Si'   0.0817   0.0704 
 'International Tables Vol C Tables 4.2.6.8 and 6.1.1.4' 
 'S'  'S'   0.1246   0.1234 
 'International Tables Vol C Tables 4.2.6.8 and 6.1.1.4' 
 
_space_group_crystal_system       triclinic 
_space_group_IT_number            2 
_space_group_name_H-M_alt         'P -1' 
_space_group_name_Hall            '-P 1' 
 
_shelx_space_group_comment 
; 
The symmetry employed for this shelxl refinement is uniquely defined 
by the following loop, which should always be used as a source of 
symmetry information in preference to the above space-group names. 
They are only intended as comments. 
; 
 
loop_ 
 _space_group_symop_operation_xyz 
 'x, y, z' 
 '-x, -y, -z' 
 
_cell_length_a                    8.0938(18) 
_cell_length_b                    11.616(3) 
_cell_length_c                    16.821(4) 
_cell_angle_alpha                 105.963(9) 
_cell_angle_beta                  101.942(9) 
_cell_angle_gamma                 94.874(9) 
_cell_volume                      1470.6(6) 
_cell_formula_units_Z             1 
_cell_measurement_temperature     150(2) 
_cell_measurement_reflns_used     4606 
_cell_measurement_theta_min       2.55 
_cell_measurement_theta_max       24.68 
 
_exptl_crystal_description        plate 
_exptl_crystal_colour             yellow 
_exptl_crystal_density_meas       ? 
_exptl_crystal_density_method     ? 
_exptl_crystal_density_diffrn     1.246 
_exptl_crystal_F_000              586 
_exptl_transmission_factor_min    ? 
_exptl_transmission_factor_max    ? 
_exptl_crystal_size_max           0.320 
_exptl_crystal_size_mid           0.260 
_exptl_crystal_size_min           0.070 
_exptl_absorpt_coefficient_mu     0.318 
_shelx_estimated_absorpt_T_min    0.905 
_shelx_estimated_absorpt_T_max    0.978 
_exptl_absorpt_correction_type    multi-scan 
_exptl_absorpt_correction_T_min   0.717 
_exptl_absorpt_correction_T_max   0.914 
_exptl_absorpt_process_details    '<i>SADABS</i> (Krause et al., 2015)' 
_exptl_absorpt_special_details 
; 
In addition to absorption, multi-scan techniques also correct other slowly 
varying changes in scale factor over reciprocal space, such as those caused 
by x-ray beam inhomogeneity, goniometer imperfection, crystal decomposition, 
crystal longer than the x-ray beam cross section, absorption by the crystal 
mount etc.  These account, by and large, for much of the difference between 
estimated values of Tmin and Tmax and the _exptl_absorpt_correction_ values. 
; 
 
_exptl_special_details 
; 
The crystal was mounted using polyisobutene oil on the tip of a fine glass 
fibre, which was fastened in a copper mounting pin with electrical solder. 
It was placed directly into the cold gas stream of a liquid-nitrogen based 
cryostat (Hope, 1994; Parkin & Hope, 1998). 
 
The crystals underwent a destructive phase transition when cooled to 90K. 
Visual inspection of crystal integrity and diffraction quality vs temperature 
established a safe temperature for data collection of -123\% C. 
; 
 
_diffrn_ambient_temperature       150(2) 
_diffrn_radiation_wavelength      0.71073 
_diffrn_radiation_type            MoK\a 
_diffrn_source                    'fine-focus sealed-tube' 
_diffrn_measurement_device_type   'Nonius KappaCCD diffractometer' 
_diffrn_measurement_method        '\f and \w scans at fixed \c = 55\%' 
_diffrn_detector_area_resol_mean  9.1 
_diffrn_reflns_number             10230 
_diffrn_reflns_av_unetI/netI      0.0797 
_diffrn_reflns_av_R_equivalents   0.0403 
_diffrn_reflns_limit_h_min        -9 
_diffrn_reflns_limit_h_max        9 
_diffrn_reflns_limit_k_min        -13 
_diffrn_reflns_limit_k_max        13 
_diffrn_reflns_limit_l_min        -20 
_diffrn_reflns_limit_l_max        20 
_diffrn_reflns_theta_min          1.297 
_diffrn_reflns_theta_max          24.998 
_diffrn_reflns_theta_full         24.998 
_diffrn_measured_fraction_theta_max                1.000 
_diffrn_measured_fraction_theta_full               1.000 
_diffrn_reflns_Laue_measured_fraction_max          1.000 
_diffrn_reflns_Laue_measured_fraction_full         1.000 
_diffrn_reflns_point_group_measured_fraction_max   1.000 
_diffrn_reflns_point_group_measured_fraction_full  1.000 
 
_reflns_number_total              5185 
_reflns_number_gt                 2711 
_reflns_threshold_expression      'I > 2\s(I)' 
_reflns_Friedel_coverage          0.000 
_reflns_Friedel_fraction_max      . 
_reflns_Friedel_fraction_full     . 
_reflns_special_details 
; 
Reflections were merged by SHELXL according to the crystal 
class for the calculation of statistics and refinement. 
 
_reflns_Friedel_fraction is defined as the number of unique 
Friedel pairs measured divided by the number that would be 
possible theoretically, ignoring centric projections and 
systematic absences. 
; 
 
_computing_data_collection        '<i>COLLECT</i> (Nonius, 1998)' 
_computing_cell_refinement        '<i>SCALEPACK</i> (Otwinowski & Minor, 2006)' 
_computing_data_reduction         '<i>DENZO-SMN</i> (Otwinowski & Minor, 2006)' 
_computing_structure_solution     '<i>SHELXT</i> (Sheldrick, 2015a)' 
_computing_structure_refinement   '<i>SHELXL-2014/7</i> (Sheldrick, 2015b)' 
_computing_molecular_graphics     '<i>XP in SHELXTL</i> (Sheldrick, 2008)' 
_computing_publication_material 
'<i>SHELX</i> (Sheldrick, 2008) and <i>CIFFIX</i> (Parkin, 2013)' 
 
_refine_special_details 
; 
Refinement progress was checked using <i>Platon</i> (Spek, 2009) and by 
an <i>R</i>-tensor (Parkin, 2000). The final model was further checked 
with the IUCr utility <i>checkCIF</i>. 
; 
_refine_ls_structure_factor_coef  Fsqd 
_refine_ls_matrix_type            full 
_refine_ls_weighting_scheme       calc 
_refine_ls_weighting_details 
'w=1/[\s^2^(Fo^2^)+(0.1513P)^2^] where P=(Fo^2^+2Fc^2^)/3' 
_atom_sites_solution_primary      direct 
_atom_sites_solution_secondary    difmap 
_atom_sites_solution_hydrogens    difmap 
_refine_ls_hydrogen_treatment     constr 
_refine_ls_extinction_method      none 
_refine_ls_extinction_coef        . 
_refine_ls_number_reflns          5185 
_refine_ls_number_parameters      479 
_refine_ls_number_restraints      1124 
_refine_ls_R_factor_all           0.1185 
_refine_ls_R_factor_gt            0.0811 
_refine_ls_wR_factor_ref          0.2850 
_refine_ls_wR_factor_gt           0.2515 
_refine_ls_goodness_of_fit_ref    1.113 
_refine_ls_restrained_S_all       1.160 
_refine_ls_shift/su_max           0.002 
_refine_ls_shift/su_mean          0.001 
 
loop_ 
 _atom_site_label 
 _atom_site_type_symbol 
 _atom_site_fract_x 
 _atom_site_fract_y 
 _atom_site_fract_z 
 _atom_site_U_iso_or_equiv 
 _atom_site_adp_type 
 _atom_site_occupancy 
 _atom_site_site_symmetry_order 
 _atom_site_calc_flag 
 _atom_site_refinement_flags_posn 
 _atom_site_refinement_flags_adp 
 _atom_site_refinement_flags_occupancy 
 _atom_site_disorder_assembly 
 _atom_site_disorder_group 
Si1 Si 0.27910(18) 0.65277(12) 0.19335(8) 0.0716(5) Uani 1 1 d D . . . . 
C1 C 0.4578(4) 0.5342(3) 0.4236(2) 0.0376(8) Uani 1 1 d . U . . . 
C2 C 0.3339(4) 0.4705(3) 0.4495(2) 0.0382(8) Uani 0.5 1 d D U P A 1 
C3 C 0.3759(4) 0.4370(3) 0.5248(2) 0.0408(8) Uani 0.5 1 d D U P A 1 
C4 C 0.2097(11) 0.3744(10) 0.5259(6) 0.0399(5) Uani 0.5 1 d D U P A 1 
H4 H 0.1966 0.3414 0.5704 0.048 Uiso 0.5 1 calc R U P A 1 
C5 C 0.0763(19) 0.367(5) 0.4591(19) 0.0380(9) Uani 0.5 1 d D U P A 1 
S1 S 0.1321(3) 0.4324(2) 0.38726(13) 0.0418(5) Uani 0.5 1 d D U P A 1 
C6 C -0.0934(15) 0.309(3) 0.4504(14) 0.042(1) Uani 0.5 1 d D U P A 1 
S2 S -0.1494(3) 0.2437(2) 0.52213(15) 0.0514(6) Uani 0.5 1 d D U P A 1 
C7 C -0.2277(11) 0.2986(10) 0.3841(6) 0.0540(6) Uani 0.5 1 d D U P A 1 
H7 H -0.2177 0.3282 0.3377 0.065 Uiso 0.5 1 calc R U P A 1 
C8 C -0.3887(14) 0.239(2) 0.3901(9) 0.0525(16) Uani 0.5 1 d D U P A 1 
C9 C -0.5457(15) 0.209(2) 0.3337(10) 0.0635(14) Uani 0.5 1 d D U P A 1 
H9 H -0.5649 0.2340 0.2836 0.076 Uiso 0.5 1 calc R U P A 1 
C10 C -0.6790(16) 0.141(4) 0.3524(14) 0.072(3) Uani 0.5 1 d D U P A 1 
S3 S -0.8864(5) 0.1035(6) 0.2939(3) 0.0982(10) Uani 0.5 1 d D U P A 1 
C11 C -0.9395(13) 0.054(3) 0.3731(11) 0.097(3) Uani 0.5 1 d D U P A 1 
C12 C -0.8048(15) 0.0435(18) 0.4316(10) 0.090(1) Uani 0.5 1 d D U P A 1 
H12 H -0.8112 -0.0018 0.4703 0.108 Uiso 0.5 1 calc R U P A 1 
C13 C -0.647(2) 0.111(5) 0.4277(19) 0.071(2) Uani 0.5 1 d D U P A 1 
C14 C -0.4915(15) 0.143(3) 0.4850(11) 0.0624(15) Uani 0.5 1 d D U P A 1 
H14 H -0.4746 0.1237 0.5371 0.075 Uiso 0.5 1 calc R U P A 1 
C15 C -0.3559(11) 0.206(2) 0.4644(9) 0.0511(16) Uani 0.5 1 d D U P A 1 
F1 F -1.0912(9) -0.0098(12) 0.3722(6) 0.097(3) Uani 0.5 1 d D U P A 1 
C3' C 0.3759(4) 0.4370(3) 0.5248(2) 0.0408(8) Uani 0.5 1 d D U P A 2 
C2' C 0.3339(4) 0.4705(3) 0.4495(2) 0.0382(8) Uani 0.5 1 d D U P A 2 
C4' C 0.1508(11) 0.4231(10) 0.4187(6) 0.0418(5) Uani 0.5 1 d D U P A 2 
H4' H 0.0855 0.4330 0.3678 0.050 Uiso 0.5 1 calc R U P A 2 
C5' C 0.0774(19) 0.364(5) 0.4656(19) 0.0380(9) Uani 0.5 1 d D U P A 2 
S1' S 0.2211(3) 0.3635(2) 0.55564(13) 0.0399(5) Uani 0.5 1 d D U P A 2 
C6' C -0.0996(15) 0.310(3) 0.4401(14) 0.042(1) Uani 0.5 1 d D U P A 2 
S2' S -0.2394(3) 0.3122(2) 0.34937(14) 0.0540(6) Uani 0.5 1 d D U P A 2 
C7' C -0.1775(11) 0.2523(10) 0.4863(6) 0.0514(6) Uani 0.5 1 d D U P A 2 
H7' H -0.1202 0.2439 0.5393 0.062 Uiso 0.5 1 calc R U P A 2 
C8' C -0.3577(12) 0.205(2) 0.4465(9) 0.0511(16) Uani 0.5 1 d D U P A 2 
C9' C -0.4731(14) 0.148(3) 0.4779(11) 0.0624(15) Uani 0.5 1 d D U P A 2 
H9' H -0.4380 0.1285 0.5294 0.075 Uiso 0.5 1 calc R U P A 2 
C10' C -0.6467(19) 0.120(5) 0.4312(19) 0.071(2) Uani 0.5 1 d D U P A 2 
S3' S -0.8104(4) 0.0462(5) 0.4568(3) 0.090(1) Uani 0.5 1 d D U P A 2 
C11' C -0.9383(14) 0.037(3) 0.3611(10) 0.097(3) Uani 0.5 1 d D U P A 2 
C12' C -0.8714(17) 0.102(2) 0.3170(12) 0.0982(10) Uani 0.5 1 d D U P A 2 
H12' H -0.9335 0.1154 0.2665 0.118 Uiso 0.5 1 calc R U P A 2 
C13' C -0.6912(15) 0.151(4) 0.3568(15) 0.072(3) Uani 0.5 1 d D U P A 2 
C14' C -0.5754(15) 0.204(2) 0.3239(10) 0.0635(14) Uani 0.5 1 d D U P A 2 
H14' H -0.6098 0.2214 0.2713 0.076 Uiso 0.5 1 calc R U P A 2 
C15' C -0.4016(14) 0.234(2) 0.3711(9) 0.0525(16) Uani 0.5 1 d D U P A 2 
F1' F -1.1124(9) 0.0055(12) 0.3313(6) 0.097(3) Uani 0.5 1 d D U P A 2 
C16 C 0.4104(5) 0.5718(4) 0.3478(3) 0.0550(11) Uani 1 1 d . . . . . 
C17 C 0.3618(6) 0.6024(4) 0.2865(3) 0.0656(12) Uani 1 1 d . . . . . 
C18 C 0.3579(9) 0.8148(6) 0.2210(4) 0.125(3) Uani 1 1 d . . . . . 
H18 H 0.2919 0.8506 0.2634 0.151 Uiso 1 1 calc R U . . . 
C19 C 0.5251(7) 0.8584(5) 0.2675(4) 0.116(2) Uani 1 1 d . . . . . 
H19A H 0.6036 0.8322 0.2312 0.174 Uiso 1 1 calc R U . . . 
H19B H 0.5488 0.8268 0.3163 0.174 Uiso 1 1 calc R U . . . 
H19C H 0.5411 0.9471 0.2878 0.174 Uiso 1 1 calc R U . . . 
C20 C 0.2874(9) 0.8669(6) 0.1472(4) 0.128(2) Uani 1 1 d . . . . . 
H20A H 0.3288 0.9540 0.1646 0.193 Uiso 1 1 calc R U . . . 
H20B H 0.1623 0.8534 0.1336 0.193 Uiso 1 1 calc DR U . . . 
H20C H 0.3268 0.8262 0.0968 0.193 Uiso 1 1 calc R U . . . 
C21 C 0.0402(10) 0.6235(18) 0.1667(12) 0.108(3) Uani 0.638(3) 1 d D U P B 1 
H21 H 0.0057 0.6423 0.1117 0.129 Uiso 0.638(3) 1 calc R U P B 1 
C22 C -0.0386(13) 0.4846(9) 0.1443(6) 0.120(3) Uani 0.638(3) 1 d D U P B 1 
H22A H 0.0082 0.4536 0.1916 0.181 Uiso 0.638(3) 1 calc R U P B 1 
H22B H -0.0092 0.4376 0.0925 0.181 Uiso 0.638(3) 1 calc R U P B 1 
H22C H -0.1631 0.4771 0.1351 0.181 Uiso 0.638(3) 1 calc R U P B 1 
C23 C -0.0510(18) 0.7051(14) 0.2256(7) 0.135(4) Uani 0.638(3) 1 d D U P B 1 
H23A H -0.1634 0.7113 0.1929 0.203 Uiso 0.638(3) 1 calc R U P B 1 
H23B H 0.0171 0.7859 0.2505 0.203 Uiso 0.638(3) 1 calc R U P B 1 
H23C H -0.0654 0.6706 0.2712 0.203 Uiso 0.638(3) 1 calc R U P B 1 
C21' C 0.0423(12) 0.625(3) 0.180(2) 0.125(4) Uani 0.362(3) 1 d D U P B 2 
H21' H 0.0044 0.5360 0.1643 0.150 Uiso 0.362(3) 1 calc R U P B 2 
C22' C -0.019(3) 0.689(3) 0.2633(11) 0.133(6) Uani 0.362(3) 1 d D U P B 2 
H22D H 0.0309 0.6575 0.3096 0.200 Uiso 0.362(3) 1 calc R U P B 2 
H22E H 0.0183 0.7768 0.2801 0.200 Uiso 0.362(3) 1 calc R U P B 2 
H22F H -0.1438 0.6729 0.2512 0.200 Uiso 0.362(3) 1 calc R U P B 2 
C23' C -0.029(2) 0.669(2) 0.1045(11) 0.156(6) Uani 0.362(3) 1 d D U P B 2 
H23D H -0.1171 0.6060 0.0626 0.234 Uiso 0.362(3) 1 calc R U P B 2 
H23E H 0.0631 0.6874 0.0781 0.234 Uiso 0.362(3) 1 calc R U P B 2 
H23F H -0.0796 0.7426 0.1239 0.234 Uiso 0.362(3) 1 calc DR U P B 2 
C24 C 0.336(2) 0.5471(8) 0.1022(7) 0.094(3) Uani 0.638(3) 1 d D U P B 1 
H24A H 0.2918 0.5695 0.0500 0.113 Uiso 0.638(3) 1 calc R U P B 1 
H24B H 0.4620 0.5554 0.1123 0.113 Uiso 0.638(3) 1 calc R U P B 1 
C25 C 0.2644(12) 0.4153(9) 0.0882(6) 0.107(2) Uani 0.638(3) 1 d D U P B 1 
H25A H 0.2992 0.3981 0.1433 0.128 Uiso 0.638(3) 1 calc R U P B 1 
H25B H 0.1383 0.4083 0.0743 0.128 Uiso 0.638(3) 1 calc R U P B 1 
C26 C 0.3110(12) 0.3174(8) 0.0220(6) 0.107(2) Uani 0.638(3) 1 d D U P B 1 
H26A H 0.2756 0.3333 -0.0335 0.129 Uiso 0.638(3) 1 calc R U P B 1 
H26B H 0.4369 0.3231 0.0356 0.129 Uiso 0.638(3) 1 calc R U P B 1 
C27 C 0.2368(11) 0.1912(8) 0.0118(5) 0.102(2) Uani 0.638(3) 1 d D U P B 1 
H27A H 0.1109 0.1863 -0.0003 0.122 Uiso 0.638(3) 1 calc R U P B 1 
H27B H 0.2745 0.1749 0.0669 0.122 Uiso 0.638(3) 1 calc R U P B 1 
C28 C 0.2808(12) 0.0883(9) -0.0585(6) 0.111(2) Uani 0.638(3) 1 d D U P B 1 
H28A H 0.2383 0.1028 -0.1139 0.133 Uiso 0.638(3) 1 calc R U P B 1 
H28B H 0.4068 0.0961 -0.0480 0.133 Uiso 0.638(3) 1 calc R U P B 1 
C29 C 0.2152(14) -0.0374(11) -0.0671(7) 0.112(2) Uani 0.638(3) 1 d D U P B 1 
H29A H 0.0892 -0.0501 -0.0871 0.135 Uiso 0.638(3) 1 calc R U P B 1 
H29B H 0.2430 -0.0498 -0.0102 0.135 Uiso 0.638(3) 1 calc R U P B 1 
C30 C 0.2834(13) -0.1298(9) -0.1263(6) 0.114(3) Uani 0.638(3) 1 d D U P B 1 
H30A H 0.4098 -0.1160 -0.1085 0.136 Uiso 0.638(3) 1 calc R U P B 1 
H30B H 0.2493 -0.1224 -0.1844 0.136 Uiso 0.638(3) 1 calc R U P B 1 
C31 C 0.2172(14) -0.2549(10) -0.1269(7) 0.144(4) Uani 0.638(3) 1 d D U P B 1 
H31A H 0.2463 -0.2610 -0.0689 0.216 Uiso 0.638(3) 1 calc R U P B 1 
H31B H 0.2693 -0.3145 -0.1636 0.216 Uiso 0.638(3) 1 calc R U P B 1 
H31C H 0.0928 -0.2709 -0.1487 0.216 Uiso 0.638(3) 1 calc R U P B 1 
C24' C 0.369(3) 0.5795(14) 0.1034(11) 0.087(3) Uani 0.362(3) 1 d D U P B 2 
H24C H 0.2751 0.5476 0.0515 0.105 Uiso 0.362(3) 1 calc R U P B 2 
H24D H 0.4477 0.6416 0.0937 0.105 Uiso 0.362(3) 1 calc R U P B 2 
C25' C 0.4656(16) 0.4768(12) 0.1159(9) 0.087(3) Uani 0.362(3) 1 d D U P B 2 
H25C H 0.5320 0.4593 0.0718 0.104 Uiso 0.362(3) 1 calc R U P B 2 
H25D H 0.5496 0.5084 0.1716 0.104 Uiso 0.362(3) 1 calc R U P B 2 
C26' C 0.3752(16) 0.3591(11) 0.1138(9) 0.085(3) Uani 0.362(3) 1 d D U P B 2 
H26C H 0.3182 0.3736 0.1616 0.102 Uiso 0.362(3) 1 calc R U P B 2 
H26D H 0.2845 0.3290 0.0603 0.102 Uiso 0.362(3) 1 calc R U P B 2 
C27' C 0.4810(15) 0.2620(11) 0.1191(9) 0.093(3) Uani 0.362(3) 1 d D U P B 2 
H27C H 0.5546 0.2840 0.1776 0.112 Uiso 0.362(3) 1 calc R U P B 2 
H27D H 0.5570 0.2595 0.0797 0.112 Uiso 0.362(3) 1 calc R U P B 2 
C28' C 0.380(2) 0.1320(11) 0.0977(8) 0.111(3) Uani 0.362(3) 1 d D U P B 2 
H28C H 0.4615 0.0786 0.1137 0.134 Uiso 0.362(3) 1 calc R U P B 2 
H28D H 0.2969 0.1360 0.1338 0.134 Uiso 0.362(3) 1 calc R U P B 2 
C29' C 0.286(2) 0.0747(14) 0.0071(10) 0.114(3) Uani 0.362(3) 1 d D U P B 2 
H29C H 0.1918 0.1207 -0.0066 0.137 Uiso 0.362(3) 1 calc R U P B 2 
H29D H 0.3644 0.0812 -0.0299 0.137 Uiso 0.362(3) 1 calc R U P B 2 
C30' C 0.213(2) -0.0540(15) -0.0134(10) 0.124(4) Uani 0.362(3) 1 d D U P B 2 
H30C H 0.1383 -0.0613 0.0253 0.149 Uiso 0.362(3) 1 calc R U P B 2 
H30D H 0.3072 -0.1010 -0.0027 0.149 Uiso 0.362(3) 1 calc R U P B 2 
C31' C 0.112(3) -0.1078(18) -0.1032(10) 0.135(5) Uani 0.362(3) 1 d D U P B 2 
H31D H 0.0677 -0.1929 -0.1127 0.203 Uiso 0.362(3) 1 calc R U P B 2 
H31E H 0.0168 -0.0632 -0.1140 0.203 Uiso 0.362(3) 1 calc R U P B 2 
H31F H 0.1858 -0.1028 -0.1420 0.203 Uiso 0.362(3) 1 calc R U P B 2 
 
loop_ 
 _atom_site_aniso_label 
 _atom_site_aniso_U_11 
 _atom_site_aniso_U_22 
 _atom_site_aniso_U_33 
 _atom_site_aniso_U_23 
 _atom_site_aniso_U_13 
 _atom_site_aniso_U_12 
Si1 0.082(1) 0.0737(10) 0.0573(8) 0.0298(7) 0.0031(7) 0.0017(7) 
C1 0.037(2) 0.038(2) 0.0415(19) 0.0135(16) 0.0138(16) 0.0079(16) 
C2 0.0350(18) 0.0306(18) 0.0453(18) 0.0057(14) 0.0085(14) 0.0070(14) 
C3 0.0366(18) 0.0351(19) 0.0527(19) 0.0119(15) 0.0174(15) 0.0044(15) 
C4 0.0310(9) 0.0379(10) 0.0515(14) 0.0151(10) 0.0112(10) 0.0005(7) 
C5 0.0325(17) 0.031(2) 0.048(3) 0.006(2) 0.0122(15) 0.0040(14) 
S1 0.0339(10) 0.0399(10) 0.0506(14) 0.0138(10) 0.0089(10) 0.0018(7) 
C6 0.0337(18) 0.0353(19) 0.052(4) 0.003(3) 0.0139(16) 0.0032(16) 
S2 0.0368(11) 0.0440(11) 0.0730(17) 0.0123(12) 0.0226(11) -0.0018(8) 
C7 0.0357(10) 0.0551(12) 0.0633(16) 0.0101(12) 0.0079(11) 0.0002(8) 
C8 0.038(2) 0.044(3) 0.066(4) -0.003(4) 0.018(2) 0.0023(18) 
C9 0.042(3) 0.048(3) 0.082(3) -0.006(3) 0.010(2) 0.006(3) 
C10 0.040(2) 0.047(5) 0.112(3) -0.006(3) 0.022(2) 0.004(3) 
S3 0.0363(12) 0.0666(14) 0.151(3) -0.023(2) 0.0113(14) 0.0000(11) 
C11 0.053(2) 0.053(6) 0.157(5) -0.019(5) 0.036(2) -0.004(2) 
C12 0.0529(12) 0.0539(13) 0.158(3) 0.003(2) 0.0573(15) -0.0009(10) 
C13 0.043(2) 0.043(5) 0.113(3) -0.005(3) 0.031(2) 0.0002(19) 
C14 0.046(3) 0.046(3) 0.096(3) 0.010(2) 0.036(2) 0.006(2) 
C15 0.0355(19) 0.041(2) 0.067(4) -0.004(4) 0.020(2) -0.0003(16) 
F1 0.038(2) 0.077(3) 0.150(8) -0.005(5) 0.026(3) -0.016(2) 
C3' 0.0366(18) 0.0351(19) 0.0527(19) 0.0119(15) 0.0174(15) 0.0044(15) 
C2' 0.0350(18) 0.0306(18) 0.0453(18) 0.0057(14) 0.0085(14) 0.0070(14) 
C4' 0.0339(10) 0.0399(10) 0.0506(14) 0.0138(10) 0.0089(10) 0.0018(7) 
C5' 0.0325(17) 0.031(2) 0.048(3) 0.006(2) 0.0122(15) 0.0040(14) 
S1' 0.0310(9) 0.0379(10) 0.0515(14) 0.0151(10) 0.0112(10) 0.0005(7) 
C6' 0.0337(18) 0.0353(19) 0.052(4) 0.003(3) 0.0139(16) 0.0032(16) 
S2' 0.0357(10) 0.0551(12) 0.0633(16) 0.0101(12) 0.0079(11) 0.0002(8) 
C7' 0.0368(11) 0.0440(11) 0.0730(17) 0.0123(12) 0.0226(11) -0.0018(8) 
C8' 0.0355(19) 0.041(2) 0.067(4) -0.004(4) 0.020(2) -0.0003(16) 
C9' 0.046(3) 0.046(3) 0.096(3) 0.010(2) 0.036(2) 0.006(2) 
C10' 0.043(2) 0.043(5) 0.113(3) -0.005(3) 0.031(2) 0.0002(19) 
S3' 0.0529(12) 0.0539(13) 0.158(3) 0.003(2) 0.0573(15) -0.0009(10) 
C11' 0.053(2) 0.053(6) 0.157(5) -0.019(5) 0.036(2) -0.004(2) 
C12' 0.0363(12) 0.0666(14) 0.151(3) -0.023(2) 0.0113(14) 0.0000(11) 
C13' 0.040(2) 0.047(5) 0.112(3) -0.006(3) 0.022(2) 0.004(3) 
C14' 0.042(3) 0.048(3) 0.082(3) -0.006(3) 0.010(2) 0.006(3) 
C15' 0.038(2) 0.044(3) 0.066(4) -0.003(4) 0.018(2) 0.0023(18) 
F1' 0.038(2) 0.077(3) 0.150(8) -0.005(5) 0.026(3) -0.016(2) 
C16 0.063(3) 0.050(2) 0.051(2) 0.0120(19) 0.015(2) 0.010(2) 
C17 0.069(3) 0.064(3) 0.059(3) 0.019(2) 0.004(2) 0.007(2) 
C18 0.139(6) 0.098(5) 0.128(5) 0.076(4) -0.036(4) -0.020(4) 
C19 0.082(4) 0.100(5) 0.157(6) 0.063(4) -0.012(4) -0.010(3) 
C20 0.171(7) 0.109(5) 0.107(5) 0.055(4) 0.015(4) 0.005(5) 
C21 0.102(5) 0.159(6) 0.085(6) 0.068(5) 0.019(4) 0.046(5) 
C22 0.100(7) 0.155(7) 0.115(7) 0.065(6) 0.016(5) 0.011(6) 
C23 0.113(8) 0.201(8) 0.102(8) 0.054(7) 0.026(7) 0.049(6) 
C21' 0.109(7) 0.176(8) 0.093(8) 0.046(7) 0.008(6) 0.058(6) 
C22' 0.113(10) 0.196(11) 0.098(9) 0.054(9) 0.015(8) 0.060(9) 
C23' 0.140(11) 0.228(12) 0.096(9) 0.054(9) -0.002(8) 0.06(1) 
C24 0.088(6) 0.131(5) 0.082(4) 0.058(4) 0.022(4) 0.023(5) 
C25 0.096(5) 0.137(5) 0.090(4) 0.036(4) 0.026(4) 0.021(4) 
C26 0.090(5) 0.143(5) 0.096(4) 0.039(4) 0.031(4) 0.023(4) 
C27 0.087(4) 0.141(5) 0.086(4) 0.045(4) 0.023(4) 0.023(4) 
C28 0.088(5) 0.159(5) 0.090(5) 0.040(4) 0.024(4) 0.023(4) 
C29 0.095(5) 0.159(5) 0.088(5) 0.042(4) 0.024(4) 0.020(4) 
C30 0.102(6) 0.157(6) 0.084(5) 0.036(5) 0.025(4) 0.028(5) 
C31 0.138(8) 0.176(8) 0.126(7) 0.053(6) 0.036(6) 0.033(7) 
C24' 0.081(7) 0.121(6) 0.078(5) 0.048(5) 0.029(5) 0.028(5) 
C25' 0.081(5) 0.119(5) 0.080(5) 0.043(4) 0.039(4) 0.031(5) 
C26' 0.076(5) 0.119(5) 0.078(5) 0.044(4) 0.036(4) 0.030(4) 
C27' 0.078(6) 0.117(6) 0.098(6) 0.043(5) 0.027(5) 0.027(5) 
C28' 0.095(6) 0.139(6) 0.100(6) 0.036(5) 0.024(5) 0.016(5) 
C29' 0.096(5) 0.152(6) 0.094(5) 0.040(5) 0.023(5) 0.013(5) 
C30' 0.106(7) 0.156(7) 0.104(6) 0.033(6) 0.019(6) 0.014(6) 
C31' 0.124(9) 0.164(10) 0.102(7) 0.032(7) 0.009(7) 0.015(8) 
 
_geom_special_details 
; 
 All esds (except the esd in the dihedral angle between two l.s. planes) 
 are estimated using the full covariance matrix.  The cell esds are taken 
 into account individually in the estimation of esds in distances, angles 
 and torsion angles; correlations between esds in cell parameters are only 
 used when they are defined by crystal symmetry.  An approximate (isotropic) 
 treatment of cell esds is used for estimating esds involving l.s. planes. 
; 
 
loop_ 
 _geom_bond_atom_site_label_1 
 _geom_bond_atom_site_label_2 
 _geom_bond_distance 
 _geom_bond_site_symmetry_2 
 _geom_bond_publ_flag 
Si1 C18 1.833(6) . ? 
Si1 C17 1.839(5) . ? 
Si1 C24' 1.844(9) . ? 
Si1 C24 1.850(7) . ? 
Si1 C21 1.871(8) . ? 
Si1 C21' 1.872(10) . ? 
C1 C3' 1.399(4) 2_666 ? 
C1 C3 1.399(4) 2_666 ? 
C1 C2 1.405(5) . ? 
C1 C2' 1.405(5) . ? 
C1 C16 1.448(5) . ? 
C2 C3 1.409(5) . ? 
C2 S1 1.696(4) . ? 
C3 C1 1.399(4) 2_666 ? 
C3 C4 1.480(9) . ? 
C4 C5 1.366(9) . ? 
C4 H4 0.9500 . ? 
C5 C6 1.438(6) . ? 
C5 S1 1.708(8) . ? 
C6 C7 1.359(9) . ? 
C6 S2 1.702(7) . ? 
S2 C15 1.702(7) . ? 
C7 C8 1.46(1) . ? 
C7 H7 0.9500 . ? 
C8 C9 1.371(11) . ? 
C8 C15 1.384(7) . ? 
C9 C10 1.424(12) . ? 
C9 H9 0.9500 . ? 
C10 C13 1.383(7) . ? 
C10 S3 1.713(7) . ? 
S3 C11 1.707(8) . ? 
C11 C12 1.346(10) . ? 
C11 F1 1.372(8) . ? 
C12 C13 1.464(11) . ? 
C12 H12 0.9500 . ? 
C13 C14 1.368(12) . ? 
C14 C15 1.422(12) . ? 
C14 H14 0.9500 . ? 
C3' C1 1.399(4) 2_666 ? 
C3' C2' 1.409(5) . ? 
C3' S1' 1.703(4) . ? 
C2' C4' 1.468(9) . ? 
C4' C5' 1.366(9) . ? 
C4' H4' 0.9500 . ? 
C5' C6' 1.442(6) . ? 
C5' S1' 1.710(7) . ? 
C6' C7' 1.365(9) . ? 
C6' S2' 1.710(7) . ? 
S2' C15' 1.695(7) . ? 
C7' C8' 1.461(10) . ? 
C7' H7' 0.9500 . ? 
C8' C9' 1.370(11) . ? 
C8' C15' 1.381(7) . ? 
C9' C10' 1.422(12) . ? 
C9' H9' 0.9500 . ? 
C10' C13' 1.382(7) . ? 
C10' S3' 1.708(7) . ? 
S3' C11' 1.695(8) . ? 
C11' C12' 1.351(10) . ? 
C11' F1' 1.375(8) . ? 
C12' C13' 1.463(11) . ? 
C12' H12' 0.9500 . ? 
C13' C14' 1.371(12) . ? 
C14' C15' 1.426(12) . ? 
C14' H14' 0.9500 . ? 
C16 C17 1.185(5) . ? 
C18 C19 1.389(7) . ? 
C18 C20 1.553(7) . ? 
C18 H18 1.0000 . ? 
C19 H19A 0.9800 . ? 
C19 H19B 0.9800 . ? 
C19 H19C 0.9800 . ? 
C20 H20A 0.9800 . ? 
C20 H20B 0.9800 . ? 
C20 H20C 0.9800 . ? 
C21 C23 1.526(16) . ? 
C21 C22 1.594(19) . ? 
C21 H21 1.0000 . ? 
C22 H22A 0.9800 . ? 
C22 H22B 0.9800 . ? 
C22 H22C 0.9800 . ? 
C23 H23A 0.9800 . ? 
C23 H23B 0.9800 . ? 
C23 H23C 0.9800 . ? 
C21' C23' 1.525(16) . ? 
C21' C22' 1.59(2) . ? 
C21' H21' 1.0000 . ? 
C22' H22D 0.9800 . ? 
C22' H22E 0.9800 . ? 
C22' H22F 0.9800 . ? 
C23' H23D 0.9800 . ? 
C23' H23E 0.9800 . ? 
C23' H23F 0.9800 . ? 
C24 C25 1.527(12) . ? 
C24 H24A 0.9900 . ? 
C24 H24B 0.9900 . ? 
C25 C26 1.492(10) . ? 
C25 H25A 0.9900 . ? 
C25 H25B 0.9900 . ? 
C26 C27 1.486(10) . ? 
C26 H26A 0.9900 . ? 
C26 H26B 0.9900 . ? 
C27 C28 1.556(11) . ? 
C27 H27A 0.9900 . ? 
C27 H27B 0.9900 . ? 
C28 C29 1.468(12) . ? 
C28 H28A 0.9900 . ? 
C28 H28B 0.9900 . ? 
C29 C30 1.479(12) . ? 
C29 H29A 0.9900 . ? 
C29 H29B 0.9900 . ? 
C30 C31 1.502(12) . ? 
C30 H30A 0.9900 . ? 
C30 H30B 0.9900 . ? 
C31 H31A 0.9800 . ? 
C31 H31B 0.9800 . ? 
C31 H31C 0.9800 . ? 
C24' C25' 1.517(14) . ? 
C24' H24C 0.9900 . ? 
C24' H24D 0.9900 . ? 
C25' C26' 1.483(12) . ? 
C25' H25C 0.9900 . ? 
C25' H25D 0.9900 . ? 
C26' C27' 1.483(11) . ? 
C26' H26C 0.9900 . ? 
C26' H26D 0.9900 . ? 
C27' C28' 1.565(12) . ? 
C27' H27C 0.9900 . ? 
C27' H27D 0.9900 . ? 
C28' C29' 1.492(14) . ? 
C28' H28C 0.9900 . ? 
C28' H28D 0.9900 . ? 
C29' C30' 1.477(15) . ? 
C29' H29C 0.9900 . ? 
C29' H29D 0.9900 . ? 
C30' C31' 1.491(14) . ? 
C30' H30C 0.9900 . ? 
C30' H30D 0.9900 . ? 
C31' H31D 0.9800 . ? 
C31' H31E 0.9800 . ? 
C31' H31F 0.9800 . ? 
 
loop_ 
 _geom_angle_atom_site_label_1 
 _geom_angle_atom_site_label_2 
 _geom_angle_atom_site_label_3 
 _geom_angle 
 _geom_angle_site_symmetry_1 
 _geom_angle_site_symmetry_3 
 _geom_angle_publ_flag 
C18 Si1 C17 107.8(2) . . ? 
C18 Si1 C24' 105.3(6) . . ? 
C17 Si1 C24' 110.8(6) . . ? 
C18 Si1 C24 118.7(4) . . ? 
C17 Si1 C24 106.0(4) . . ? 
C18 Si1 C21 111.1(6) . . ? 
C17 Si1 C21 108.8(4) . . ? 
C24 Si1 C21 104.1(8) . . ? 
C18 Si1 C21' 111.1(11) . . ? 
C17 Si1 C21' 102.8(7) . . ? 
C24' Si1 C21' 118.8(14) . . ? 
C3 C1 C2 117.6(3) 2_666 . ? 
C3' C1 C2' 117.6(3) 2_666 . ? 
C3' C1 C16 122.2(3) 2_666 . ? 
C3 C1 C16 122.2(3) 2_666 . ? 
C2 C1 C16 120.2(3) . . ? 
C2' C1 C16 120.2(3) . . ? 
C1 C2 C3 121.1(3) . . ? 
C1 C2 S1 118.5(3) . . ? 
C3 C2 S1 120.3(2) . . ? 
C1 C3 C2 121.3(3) 2_666 . ? 
C1 C3 C4 136.7(4) 2_666 . ? 
C2 C3 C4 102.0(4) . . ? 
C5 C4 C3 116.0(6) . . ? 
C5 C4 H4 122.0 . . ? 
C3 C4 H4 122.0 . . ? 
C4 C5 C6 123.0(9) . . ? 
C4 C5 S1 113.2(5) . . ? 
C6 C5 S1 123.8(8) . . ? 
C2 S1 C5 88.5(3) . . ? 
C7 C6 C5 124.1(9) . . ? 
C7 C6 S2 112.0(5) . . ? 
C5 C6 S2 123.9(7) . . ? 
C15 S2 C6 91.2(4) . . ? 
C6 C7 C8 114.4(7) . . ? 
C6 C7 H7 122.8 . . ? 
C8 C7 H7 122.8 . . ? 
C9 C8 C15 122.9(9) . . ? 
C9 C8 C7 129.8(8) . . ? 
C15 C8 C7 107.2(9) . . ? 
C8 C9 C10 118.0(5) . . ? 
C8 C9 H9 121.0 . . ? 
C10 C9 H9 121.0 . . ? 
C13 C10 C9 119.0(8) . . ? 
C13 C10 S3 115.5(8) . . ? 
C9 C10 S3 125.2(6) . . ? 
C11 S3 C10 88.8(4) . . ? 
C12 C11 F1 114.2(11) . . ? 
C12 C11 S3 114.3(8) . . ? 
F1 C11 S3 128.3(8) . . ? 
C11 C12 C13 111.3(10) . . ? 
C11 C12 H12 124.3 . . ? 
C13 C12 H12 124.3 . . ? 
C14 C13 C10 122.9(9) . . ? 
C14 C13 C12 129.5(8) . . ? 
C10 C13 C12 107.6(9) . . ? 
C13 C14 C15 118.2(5) . . ? 
C13 C14 H14 120.9 . . ? 
C15 C14 H14 120.9 . . ? 
C8 C15 C14 118.9(8) . . ? 
C8 C15 S2 115.2(8) . . ? 
C14 C15 S2 125.9(6) . . ? 
C1 C3' C2' 121.3(3) 2_666 . ? 
C1 C3' S1' 118.9(3) 2_666 . ? 
C2' C3' S1' 119.8(2) . . ? 
C1 C2' C3' 121.1(3) . . ? 
C1 C2' C4' 137.2(4) . . ? 
C3' C2' C4' 101.7(4) . . ? 
C5' C4' C2' 117.8(6) . . ? 
C5' C4' H4' 121.1 . . ? 
C2' C4' H4' 121.1 . . ? 
C4' C5' C6' 122.8(9) . . ? 
C4' C5' S1' 111.6(5) . . ? 
C6' C5' S1' 125.6(8) . . ? 
C3' S1' C5' 89.2(3) . . ? 
C7' C6' C5' 124.2(9) . . ? 
C7' C6' S2' 111.6(5) . . ? 
C5' C6' S2' 124.2(7) . . ? 
C15' S2' C6' 92.0(4) . . ? 
C6' C7' C8' 113.4(7) . . ? 
C6' C7' H7' 123.3 . . ? 
C8' C7' H7' 123.3 . . ? 
C9' C8' C15' 123.1(9) . . ? 
C9' C8' C7' 128.0(8) . . ? 
C15' C8' C7' 108.8(9) . . ? 
C8' C9' C10' 118.1(5) . . ? 
C8' C9' H9' 120.9 . . ? 
C10' C9' H9' 120.9 . . ? 
C13' C10' C9' 118.7(8) . . ? 
C13' C10' S3' 115.2(7) . . ? 
C9' C10' S3' 126.1(6) . . ? 
C11' S3' C10' 89.3(4) . . ? 
C12' C11' F1' 111.9(11) . . ? 
C12' C11' S3' 114.8(7) . . ? 
F1' C11' S3' 130.2(9) . . ? 
C11' C12' C13' 111.4(9) . . ? 
C11' C12' H12' 124.3 . . ? 
C13' C12' H12' 124.3 . . ? 
C14' C13' C10' 123.3(9) . . ? 
C14' C13' C12' 127.9(9) . . ? 
C10' C13' C12' 108.3(9) . . ? 
C13' C14' C15' 117.8(5) . . ? 
C13' C14' H14' 121.1 . . ? 
C15' C14' H14' 121.1 . . ? 
C8' C15' C14' 118.9(8) . . ? 
C8' C15' S2' 114.2(8) . . ? 
C14' C15' S2' 126.7(7) . . ? 
C17 C16 C1 176.0(4) . . ? 
C16 C17 Si1 177.5(4) . . ? 
C19 C18 C20 117.6(6) . . ? 
C19 C18 Si1 119.0(4) . . ? 
C20 C18 Si1 111.5(4) . . ? 
C19 C18 H18 101.7 . . ? 
C20 C18 H18 101.7 . . ? 
Si1 C18 H18 101.7 . . ? 
C18 C19 H19A 109.5 . . ? 
C18 C19 H19B 109.5 . . ? 
H19A C19 H19B 109.5 . . ? 
C18 C19 H19C 109.5 . . ? 
H19A C19 H19C 109.5 . . ? 
H19B C19 H19C 109.5 . . ? 
C18 C20 H20A 109.5 . . ? 
C18 C20 H20B 109.5 . . ? 
H20A C20 H20B 109.5 . . ? 
C18 C20 H20C 109.5 . . ? 
H20A C20 H20C 109.5 . . ? 
H20B C20 H20C 109.5 . . ? 
C23 C21 C22 111.0(9) . . ? 
C23 C21 Si1 117.8(13) . . ? 
C22 C21 Si1 114.2(8) . . ? 
C23 C21 H21 104.0 . . ? 
C22 C21 H21 104.0 . . ? 
Si1 C21 H21 104.0 . . ? 
C21 C22 H22A 109.5 . . ? 
C21 C22 H22B 109.5 . . ? 
H22A C22 H22B 109.5 . . ? 
C21 C22 H22C 109.5 . . ? 
H22A C22 H22C 109.5 . . ? 
H22B C22 H22C 109.5 . . ? 
C21 C23 H23A 109.5 . . ? 
C21 C23 H23B 109.5 . . ? 
H23A C23 H23B 109.5 . . ? 
C21 C23 H23C 109.5 . . ? 
H23A C23 H23C 109.5 . . ? 
H23B C23 H23C 109.5 . . ? 
C23' C21' C22' 113.2(15) . . ? 
C23' C21' Si1 103.8(12) . . ? 
C22' C21' Si1 114(2) . . ? 
C23' C21' H21' 108.5 . . ? 
C22' C21' H21' 108.5 . . ? 
Si1 C21' H21' 108.5 . . ? 
C21' C22' H22D 109.5 . . ? 
C21' C22' H22E 109.5 . . ? 
H22D C22' H22E 109.5 . . ? 
C21' C22' H22F 109.5 . . ? 
H22D C22' H22F 109.5 . . ? 
H22E C22' H22F 109.5 . . ? 
C21' C23' H23D 109.5 . . ? 
C21' C23' H23E 109.5 . . ? 
H23D C23' H23E 109.5 . . ? 
C21' C23' H23F 109.5 . . ? 
H23D C23' H23F 109.5 . . ? 
H23E C23' H23F 109.5 . . ? 
C25 C24 Si1 112.6(6) . . ? 
C25 C24 H24A 109.1 . . ? 
Si1 C24 H24A 109.1 . . ? 
C25 C24 H24B 109.1 . . ? 
Si1 C24 H24B 109.1 . . ? 
H24A C24 H24B 107.8 . . ? 
C26 C25 C24 119.5(7) . . ? 
C26 C25 H25A 107.5 . . ? 
C24 C25 H25A 107.5 . . ? 
C26 C25 H25B 107.5 . . ? 
C24 C25 H25B 107.5 . . ? 
H25A C25 H25B 107.0 . . ? 
C27 C26 C25 116.6(7) . . ? 
C27 C26 H26A 108.1 . . ? 
C25 C26 H26A 108.1 . . ? 
C27 C26 H26B 108.1 . . ? 
C25 C26 H26B 108.1 . . ? 
H26A C26 H26B 107.3 . . ? 
C26 C27 C28 117.2(7) . . ? 
C26 C27 H27A 108.0 . . ? 
C28 C27 H27A 108.0 . . ? 
C26 C27 H27B 108.0 . . ? 
C28 C27 H27B 108.0 . . ? 
H27A C27 H27B 107.2 . . ? 
C29 C28 C27 118.1(8) . . ? 
C29 C28 H28A 107.8 . . ? 
C27 C28 H28A 107.8 . . ? 
C29 C28 H28B 107.8 . . ? 
C27 C28 H28B 107.8 . . ? 
H28A C28 H28B 107.1 . . ? 
C28 C29 C30 114.6(9) . . ? 
C28 C29 H29A 108.6 . . ? 
C30 C29 H29A 108.6 . . ? 
C28 C29 H29B 108.6 . . ? 
C30 C29 H29B 108.6 . . ? 
H29A C29 H29B 107.6 . . ? 
C29 C30 C31 110.7(9) . . ? 
C29 C30 H30A 109.5 . . ? 
C31 C30 H30A 109.5 . . ? 
C29 C30 H30B 109.5 . . ? 
C31 C30 H30B 109.5 . . ? 
H30A C30 H30B 108.1 . . ? 
C30 C31 H31A 109.5 . . ? 
C30 C31 H31B 109.5 . . ? 
H31A C31 H31B 109.5 . . ? 
C30 C31 H31C 109.5 . . ? 
H31A C31 H31C 109.5 . . ? 
H31B C31 H31C 109.5 . . ? 
C25' C24' Si1 114.6(10) . . ? 
C25' C24' H24C 108.6 . . ? 
Si1 C24' H24C 108.6 . . ? 
C25' C24' H24D 108.6 . . ? 
Si1 C24' H24D 108.6 . . ? 
H24C C24' H24D 107.6 . . ? 
C26' C25' C24' 121.5(12) . . ? 
C26' C25' H25C 107.0 . . ? 
C24' C25' H25C 107.0 . . ? 
C26' C25' H25D 107.0 . . ? 
C24' C25' H25D 107.0 . . ? 
H25C C25' H25D 106.7 . . ? 
C27' C26' C25' 116.6(10) . . ? 
C27' C26' H26C 108.1 . . ? 
C25' C26' H26C 108.2 . . ? 
C27' C26' H26D 108.2 . . ? 
C25' C26' H26D 108.2 . . ? 
H26C C26' H26D 107.3 . . ? 
C26' C27' C28' 115.7(10) . . ? 
C26' C27' H27C 108.4 . . ? 
C28' C27' H27C 108.4 . . ? 
C26' C27' H27D 108.4 . . ? 
C28' C27' H27D 108.4 . . ? 
H27C C27' H27D 107.4 . . ? 
C29' C28' C27' 115.9(11) . . ? 
C29' C28' H28C 108.3 . . ? 
C27' C28' H28C 108.3 . . ? 
C29' C28' H28D 108.3 . . ? 
C27' C28' H28D 108.3 . . ? 
H28C C28' H28D 107.4 . . ? 
C30' C29' C28' 114.4(12) . . ? 
C30' C29' H29C 108.7 . . ? 
C28' C29' H29C 108.7 . . ? 
C30' C29' H29D 108.7 . . ? 
C28' C29' H29D 108.7 . . ? 
H29C C29' H29D 107.6 . . ? 
C29' C30' C31' 113.5(13) . . ? 
C29' C30' H30C 108.9 . . ? 
C31' C30' H30C 108.9 . . ? 
C29' C30' H30D 108.9 . . ? 
C31' C30' H30D 108.9 . . ? 
H30C C30' H30D 107.7 . . ? 
C30' C31' H31D 109.5 . . ? 
C30' C31' H31E 109.5 . . ? 
H31D C31' H31E 109.5 . . ? 
C30' C31' H31F 109.5 . . ? 
H31D C31' H31F 109.5 . . ? 
H31E C31' H31F 109.5 . . ? 
 
_refine_diff_density_max    0.600 
_refine_diff_density_min   -0.424 
_refine_diff_density_rms    0.068 
 
_shelx_res_file 
; 
 
    k15169.res created by SHELXL-2014/7 
 
 
TITL k15169 : space group P1bar 
CELL  0.71073   8.0938  11.6162  16.8215  105.963  101.942   94.874 
ZERR        1   0.0018   0.0026   0.0038    0.009    0.009    0.009 
LATT  1 
SFAC C H F SI S 
UNIT 62 72 2 2 6 
TEMP -123 
SIZE 0.32 0.26 0.07 
REM COLR yellow 
REM FORM plate 
REM Crystal looked to be twinned.  HKLF 4 file leads to a better refinement 
REM than either the HKLF 5. 
L.S. 10 
BOND $H 
LIST 4 
OMIT -3 50 
ISOR 0.01 C1 > F1' 
DFIX 2.2 0.020 H20B H23F 
FMAP 2 
ACTA 
PLAN 20 
WGHT    0.151300 
FVAR       0.46467   0.63839 
SI1   4    0.279100    0.652769    0.193348    11.00000    0.08196    0.07367 = 
         0.05733    0.02983    0.00307    0.00172 
C1    1    0.457774    0.534199    0.423620    11.00000    0.03711    0.03762 = 
         0.04154    0.01350    0.01376    0.00791 
EXYZ C2 C2' 
EXYZ C3 C3' 
SADI 0.010 C10 C10' C13 C13' 
EADP C2 C2' 
EADP C3 C3' 
EADP S1 C4' 
EADP C4 S1' 
EADP C5 C5' 
EADP C6 C6' 
EADP S2 C7' 
EADP C7 S2' 
EADP C8 C15' 
EADP C9 C14' 
EADP C10 C13' 
EADP C11 C11' 
EADP C12 S3' 
EADP C13 C10' 
EADP S3 C12' 
EADP C14 C9' 
EADP C15 C8' 
EADP F1 F1' 
SAME 0.010 C3' > F1' 
RIGU C2 > F1' 
SADI 0.010 S1 C2 S1 C5 s2 c6 s2 c15 s3 c10 s3 c11 s1' c3' s1' c5' s2' c6' S2' = 
           C15' S3' C10' S3' C11' 
SADI 0.010 c4 c5 c6 c7 c11 c12 C4' C5' C6' C7' C11' C12' 
SADI 0.010 c8 c10 c9 c13 c10 c14 c13 c15 c14 c8 c15 c9 c8' c10' c9' c13' c10' = 
           C14' C13' C15' C14' C8' C15' C9' 
PART 1 
C2    1    0.333913    0.470534    0.449547    10.50000    0.03498    0.03059 = 
         0.04535    0.00569    0.00852    0.00704 
C3    1    0.375924    0.437025    0.524806    10.50000    0.03665    0.03505 = 
         0.05268    0.01188    0.01740    0.00444 
C4    1    0.209694    0.374370    0.525916    10.50000    0.03103    0.03787 = 
         0.05153    0.01509    0.01123    0.00048 
AFIX  43 
H4    2    0.196629    0.341392    0.570437    10.50000   -1.20000 
AFIX   0 
C5    1    0.076279    0.366833    0.459096    10.50000    0.03247    0.03136 = 
         0.04755    0.00581    0.01223    0.00405 
S1    5    0.132060    0.432412    0.387256    10.50000    0.03394    0.03985 = 
         0.05061    0.01384    0.00893    0.00181 
SAME 0.010 C11 S3 c12 c13 c14 c15 s2 c6 c7 c8 c9 c10 
C6    1   -0.093390    0.308676    0.450441    10.50000    0.03366    0.03527 = 
         0.05195    0.00296    0.01390    0.00321 
S2    5   -0.149440    0.243727    0.522128    10.50000    0.03683    0.04401 = 
         0.07301    0.01225    0.02257   -0.00182 
C7    1   -0.227710    0.298645    0.384106    10.50000    0.03565    0.05515 = 
         0.06326    0.01009    0.00788    0.00019 
AFIX  43 
H7    2   -0.217745    0.328225    0.337711    10.50000   -1.20000 
AFIX   0 
C8    1   -0.388711    0.238588    0.390073    10.50000    0.03794    0.04377 = 
         0.06564   -0.00254    0.01754    0.00234 
C9    1   -0.545684    0.209355    0.333663    10.50000    0.04198    0.04794 = 
         0.08217   -0.00595    0.00997    0.00563 
AFIX  43 
H9    2   -0.564916    0.233984    0.283553    10.50000   -1.20000 
AFIX   0 
C10   1   -0.679030    0.140978    0.352420    10.50000    0.04037    0.04651 = 
         0.11241   -0.00587    0.02169    0.00417 
S3    5   -0.886420    0.103521    0.293877    10.50000    0.03625    0.06660 = 
         0.15103   -0.02257    0.01126   -0.00003 
C11   1   -0.939506    0.053642    0.373085    10.50000    0.05284    0.05269 = 
         0.15691   -0.01883    0.03615   -0.00352 
C12   1   -0.804763    0.043477    0.431555    10.50000    0.05289    0.05385 = 
         0.15845    0.00318    0.05726   -0.00089 
AFIX  43 
H12   2   -0.811228   -0.001790    0.470320    10.50000   -1.20000 
AFIX   0 
C13   1   -0.646978    0.111138    0.427739    10.50000    0.04336    0.04344 = 
         0.11270   -0.00464    0.03109    0.00023 
C14   1   -0.491496    0.143131    0.485022    10.50000    0.04581    0.04643 = 
         0.09639    0.00974    0.03619    0.00596 
AFIX  43 
H14   2   -0.474619    0.123732    0.537144    10.50000   -1.20000 
AFIX   0 
C15   1   -0.355857    0.206191    0.464447    10.50000    0.03552    0.04071 = 
         0.06687   -0.00405    0.01984   -0.00034 
F1    3   -1.091198   -0.009757    0.372239    10.50000    0.03817    0.07691 = 
         0.15025   -0.00471    0.02618   -0.01575 
PART 2 
C3'   1    0.375924    0.437025    0.524806    10.50000    0.03665    0.03505 = 
         0.05268    0.01188    0.01740    0.00444 
C2'   1    0.333913    0.470534    0.449547    10.50000    0.03498    0.03059 = 
         0.04535    0.00569    0.00852    0.00704 
C4'   1    0.150769    0.423078    0.418716    10.50000    0.03394    0.03985 = 
         0.05061    0.01384    0.00893    0.00181 
AFIX  43 
H4'   2    0.085508    0.432966    0.367818    10.50000   -1.20000 
AFIX   0 
C5'   1    0.077381    0.364258    0.465645    10.50000    0.03247    0.03136 = 
         0.04755    0.00581    0.01223    0.00405 
S1'   5    0.221122    0.363520    0.555638    10.50000    0.03103    0.03787 = 
         0.05153    0.01509    0.01123    0.00048 
C6'   1   -0.099648    0.309700    0.440097    10.50000    0.03366    0.03527 = 
         0.05195    0.00296    0.01390    0.00321 
S2'   5   -0.239377    0.312182    0.349365    10.50000    0.03565    0.05515 = 
         0.06326    0.01009    0.00788    0.00019 
C7'   1   -0.177536    0.252303    0.486331    10.50000    0.03683    0.04401 = 
         0.07301    0.01225    0.02257   -0.00182 
AFIX  43 
H7'   2   -0.120158    0.243858    0.539254    10.50000   -1.20000 
AFIX   0 
C8'   1   -0.357745    0.205127    0.446485    10.50000    0.03552    0.04071 = 
         0.06687   -0.00405    0.01984   -0.00034 
C9'   1   -0.473056    0.148317    0.477887    10.50000    0.04581    0.04643 = 
         0.09639    0.00974    0.03619    0.00596 
AFIX  43 
H9'   2   -0.438019    0.128506    0.529372    10.50000   -1.20000 
AFIX   0 
C10'  1   -0.646719    0.119838    0.431220    10.50000    0.04336    0.04344 = 
         0.11270   -0.00464    0.03109    0.00023 
S3'   5   -0.810368    0.046156    0.456798    10.50000    0.05289    0.05385 = 
         0.15845    0.00318    0.05726   -0.00089 
C11'  1   -0.938262    0.037090    0.361101    10.50000    0.05284    0.05269 = 
         0.15691   -0.01883    0.03615   -0.00352 
C12'  1   -0.871417    0.102474    0.316995    10.50000    0.03625    0.06660 = 
         0.15103   -0.02257    0.01126   -0.00003 
AFIX  43 
H12'  2   -0.933541    0.115385    0.266516    10.50000   -1.20000 
AFIX   0 
C13'  1   -0.691236    0.150864    0.356839    10.50000    0.04037    0.04651 = 
         0.11241   -0.00587    0.02169    0.00417 
C14'  1   -0.575414    0.204342    0.323850    10.50000    0.04198    0.04794 = 
         0.08217   -0.00595    0.00997    0.00563 
AFIX  43 
H14'  2   -0.609761    0.221396    0.271280    10.50000   -1.20000 
AFIX   0 
C15'  1   -0.401636    0.233517    0.371093    10.50000    0.03794    0.04377 = 
         0.06564   -0.00254    0.01754    0.00234 
F1'   3   -1.112403    0.005520    0.331305    10.50000    0.03817    0.07691 = 
         0.15025   -0.00471    0.02618   -0.01575 
PART 0 
C16   1    0.410388    0.571839    0.347830    11.00000    0.06331    0.04956 = 
         0.05096    0.01196    0.01465    0.01009 
C17   1    0.361769    0.602413    0.286474    11.00000    0.06867    0.06351 = 
         0.05904    0.01866    0.00425    0.00680 
C18   1    0.357873    0.814834    0.220979    11.00000    0.13858    0.09812 = 
         0.12759    0.07587   -0.03594   -0.01971 
AFIX  13 
H18   2    0.291921    0.850573    0.263448    11.00000   -1.20000 
AFIX   0 
C19   1    0.525148    0.858449    0.267504    11.00000    0.08197    0.10020 = 
         0.15706    0.06313   -0.01189   -0.01027 
AFIX 137 
H19A  2    0.603585    0.832213    0.231174    11.00000   -1.50000 
H19B  2    0.548832    0.826767    0.316349    11.00000   -1.50000 
H19C  2    0.541055    0.947141    0.287818    11.00000   -1.50000 
AFIX   0 
C20   1    0.287436    0.866917    0.147186    11.00000    0.17131    0.10880 = 
         0.10749    0.05466    0.01531    0.00452 
AFIX 137 
H20A  2    0.328766    0.954020    0.164580    11.00000   -1.50000 
H20B  2    0.162285    0.853356    0.133609    11.00000   -1.50000 
H20C  2    0.326799    0.826248    0.096790    11.00000   -1.50000 
AFIX   0 
SADI 0.010 Si1 C21 Si1 C21' 
SAME 0.010 C21' C22' C23' 
SIMU 0.010 C21 > C23' 
RIGU C21 > C23' 
PART 1 
C21   1    0.040192    0.623450    0.166743    21.00000    0.10207    0.15913 = 
         0.08507    0.06790    0.01923    0.04647 
AFIX  13 
H21   2    0.005665    0.642343    0.111657    21.00000   -1.20000 
AFIX   0 
C22   1   -0.038573    0.484570    0.144309    21.00000    0.09993    0.15510 = 
         0.11538    0.06499    0.01585    0.01063 
AFIX 137 
H22A  2    0.008201    0.453624    0.191572    21.00000   -1.50000 
H22B  2   -0.009238    0.437604    0.092471    21.00000   -1.50000 
H22C  2   -0.163092    0.477121    0.135094    21.00000   -1.50000 
AFIX   0 
C23   1   -0.051043    0.705106    0.225574    21.00000    0.11286    0.20067 = 
         0.10227    0.05362    0.02587    0.04867 
AFIX 137 
H23A  2   -0.163393    0.711251    0.192857    21.00000   -1.50000 
H23B  2    0.017056    0.785901    0.250471    21.00000   -1.50000 
H23C  2   -0.065374    0.670596    0.271167    21.00000   -1.50000 
AFIX   0 
PART 2 
C21'  1    0.042327    0.625260    0.180301   -21.00000    0.10907    0.17634 = 
         0.09292    0.04628    0.00818    0.05761 
AFIX  13 
H21'  2    0.004359    0.535999    0.164259   -21.00000   -1.20000 
AFIX   0 
C22'  1   -0.018951    0.689233    0.263251   -21.00000    0.11330    0.19630 = 
         0.09789    0.05364    0.01461    0.06048 
AFIX  33 
H22D  2    0.030859    0.657470    0.309616   -21.00000   -1.50000 
H22E  2    0.018329    0.776820    0.280083   -21.00000   -1.50000 
H22F  2   -0.143840    0.672872    0.251223   -21.00000   -1.50000 
AFIX   0 
C23'  1   -0.029249    0.669266    0.104475   -21.00000    0.14011    0.22752 = 
         0.09644    0.05435   -0.00163    0.05999 
AFIX 137 
H23D  2   -0.117130    0.606043    0.062635   -21.00000   -1.50000 
H23E  2    0.063051    0.687416    0.078137   -21.00000   -1.50000 
H23F  2   -0.079650    0.742611    0.123938   -21.00000   -1.50000 
AFIX   0 
PART 0 
 
SADI 0.010 Si1 C24 Si1 C24' 
SAME 0.010 C24' > C31' 
SIMU 0.010 C24 > C31' 
RIGU C24 > C31' 
PART 1 
C24   1    0.336074    0.547117    0.102223    21.00000    0.08753    0.13121 = 
         0.08180    0.05760    0.02196    0.02324 
AFIX  23 
H24A  2    0.291817    0.569526    0.049969    21.00000   -1.20000 
H24B  2    0.462035    0.555433    0.112341    21.00000   -1.20000 
AFIX   0 
C25   1    0.264417    0.415309    0.088228    21.00000    0.09623    0.13694 = 
         0.09004    0.03609    0.02569    0.02100 
AFIX  23 
H25A  2    0.299246    0.398092    0.143269    21.00000   -1.20000 
H25B  2    0.138288    0.408312    0.074349    21.00000   -1.20000 
AFIX   0 
C26   1    0.310969    0.317371    0.021977    21.00000    0.08977    0.14307 = 
         0.09563    0.03932    0.03063    0.02308 
AFIX  23 
H26A  2    0.275584    0.333254   -0.033503    21.00000   -1.20000 
H26B  2    0.436948    0.323051    0.035563    21.00000   -1.20000 
AFIX   0 
C27   1    0.236792    0.191174    0.011751    21.00000    0.08708    0.14087 = 
         0.08566    0.04497    0.02313    0.02341 
AFIX  23 
H27A  2    0.110948    0.186252   -0.000314    21.00000   -1.20000 
H27B  2    0.274462    0.174888    0.066947    21.00000   -1.20000 
AFIX   0 
C28   1    0.280821    0.088308   -0.058485    21.00000    0.08773    0.15887 = 
         0.09031    0.03990    0.02352    0.02334 
AFIX  23 
H28A  2    0.238254    0.102814   -0.113924    21.00000   -1.20000 
H28B  2    0.406807    0.096115   -0.047954    21.00000   -1.20000 
AFIX   0 
C29   1    0.215235   -0.037437   -0.067097    21.00000    0.09507    0.15880 = 
         0.08758    0.04233    0.02450    0.02028 
AFIX  23 
H29A  2    0.089232   -0.050143   -0.087069    21.00000   -1.20000 
H29B  2    0.242986   -0.049801   -0.010172    21.00000   -1.20000 
AFIX   0 
C30   1    0.283426   -0.129828   -0.126258    21.00000    0.10233    0.15667 = 
         0.08439    0.03634    0.02491    0.02818 
AFIX  23 
H30A  2    0.409776   -0.115979   -0.108512    21.00000   -1.20000 
H30B  2    0.249290   -0.122388   -0.184432    21.00000   -1.20000 
AFIX   0 
C31   1    0.217186   -0.254905   -0.126928    21.00000    0.13756    0.17628 = 
         0.12610    0.05252    0.03579    0.03349 
AFIX 137 
H31A  2    0.246250   -0.260994   -0.068854    21.00000   -1.50000 
H31B  2    0.269271   -0.314483   -0.163647    21.00000   -1.50000 
H31C  2    0.092806   -0.270869   -0.148722    21.00000   -1.50000 
AFIX   0 
PART 2 
C24'  1    0.369302    0.579491    0.103407   -21.00000    0.08106    0.12109 = 
         0.07789    0.04775    0.02927    0.02815 
AFIX  23 
H24C  2    0.275111    0.547619    0.051466   -21.00000   -1.20000 
H24D  2    0.447743    0.641597    0.093699   -21.00000   -1.20000 
AFIX   0 
C25'  1    0.465602    0.476800    0.115862   -21.00000    0.08072    0.11908 = 
         0.08025    0.04264    0.03859    0.03052 
AFIX  23 
H25C  2    0.531958    0.459308    0.071779   -21.00000   -1.20000 
H25D  2    0.549602    0.508428    0.171579   -21.00000   -1.20000 
AFIX   0 
C26'  1    0.375179    0.359078    0.113755   -21.00000    0.07630    0.11925 = 
         0.07825    0.04390    0.03578    0.03050 
AFIX  23 
H26C  2    0.318236    0.373623    0.161581   -21.00000   -1.20000 
H26D  2    0.284489    0.328952    0.060292   -21.00000   -1.20000 
AFIX   0 
C27'  1    0.481004    0.262038    0.119142   -21.00000    0.07765    0.11652 = 
         0.09761    0.04260    0.02720    0.02734 
AFIX  23 
H27C  2    0.554562    0.284030    0.177589   -21.00000   -1.20000 
H27D  2    0.557043    0.259506    0.079741   -21.00000   -1.20000 
AFIX   0 
C28'  1    0.379968    0.131982    0.097748   -21.00000    0.09491    0.13894 = 
         0.10005    0.03584    0.02394    0.01649 
AFIX  23 
H28C  2    0.461524    0.078605    0.113716   -21.00000   -1.20000 
H28D  2    0.296947    0.136013    0.133810   -21.00000   -1.20000 
AFIX   0 
C29'  1    0.285654    0.074684    0.007086   -21.00000    0.09612    0.15220 = 
         0.09410    0.04006    0.02332    0.01283 
AFIX  23 
H29C  2    0.191754    0.120677   -0.006577   -21.00000   -1.20000 
H29D  2    0.364419    0.081236   -0.029857   -21.00000   -1.20000 
AFIX   0 
C30'  1    0.212968   -0.053997   -0.013423   -21.00000    0.10557    0.15600 = 
         0.10394    0.03286    0.01855    0.01425 
AFIX  23 
H30C  2    0.138312   -0.061335    0.025253   -21.00000   -1.20000 
H30D  2    0.307229   -0.100966   -0.002717   -21.00000   -1.20000 
AFIX   0 
C31'  1    0.112197   -0.107839   -0.103218   -21.00000    0.12386    0.16436 = 
         0.10238    0.03197    0.00908    0.01489 
AFIX  33 
H31D  2    0.067715   -0.192887   -0.112666   -21.00000   -1.50000 
H31E  2    0.016777   -0.063182   -0.114015   -21.00000   -1.50000 
H31F  2    0.185844   -0.102849   -0.142010   -21.00000   -1.50000 
PART 0 
 
AFIX   0 
HKLF 4 
 
REM  k15169 : space group P1bar 
REM R1 =  0.0811 for    2711 Fo > 4sig(Fo)  and  0.1185 for all    5185 data 
REM    479 parameters refined using   1124 restraints 
 
END 
 
WGHT      0.1524      0.0000 
 
REM Highest difference peak  0.600,  deepest hole -0.424,  1-sigma level  0.068 
Q1    1   0.5923  0.7902  0.1697  11.00000  0.05    0.60 
Q2    1  -0.8854  0.1370  0.2562  11.00000  0.05    0.50 
Q3    1  -0.8992  0.0901  0.3292  11.00000  0.05    0.48 
Q4    1   0.3210  0.8333  0.2242  11.00000  0.05    0.47 
Q5    1  -0.7930  0.0456  0.4882  11.00000  0.05    0.42 
Q6    1  -0.4633  0.1405  0.5113  11.00000  0.05    0.40 
Q7    1  -0.6667  0.1577  0.3185  11.00000  0.05    0.40 
Q8    1  -0.0570  0.5593  0.2002  11.00000  0.05    0.37 
Q9    1   0.4743  0.7816  0.1925  11.00000  0.05    0.37 
Q10   1  -0.8921  0.0449  0.4103  11.00000  0.05    0.36 
Q11   1  -0.6121  0.1163  0.4652  11.00000  0.05    0.35 
Q12   1  -0.6743  0.1347  0.3892  11.00000  0.05    0.33 
Q13   1   0.1300  0.7034  0.2001  11.00000  0.05    0.30 
Q14   1   0.4104  0.4766  0.0809  11.00000  0.05    0.29 
Q15   1   0.3562  0.4589  0.4885  11.00000  0.05    0.29 
Q16   1   0.4355  0.5423  0.3892  11.00000  0.05    0.28 
Q17   1   0.0900  0.3608  0.4402  11.00000  0.05    0.28 
Q18   1  -0.5595  0.2222  0.2996  11.00000  0.05    0.28 
Q19   1   0.3807  0.5674  0.3623  11.00000  0.05    0.27 
Q20   1   0.4424  0.2647  0.0634  11.00000  0.05    0.27 
; 
_shelx_res_checksum   64087 
 
_shelx_hkl_file
;
  -1   0   0   20.71    1.68   1
   1   0   0   20.88    1.50   1
  -2   0   0  444.79   30.48   1
   2   0   0  449.08   25.66   1
  -3   0   0    3.58    0.71   1
   3   0   0    2.74    0.49   1
  -4   0   0   91.81    8.59   1
   4   0   0   88.14    6.30   1
  -5   0   0   21.54    2.95   1
   5   0   0   25.66    2.63   1
  -6   0   0    6.78    1.35   1
   6   0   0   10.89    1.66   1
  -7   0   0    8.55    1.75   1
   7   0   0   10.53    2.03   1
  -8   0   0   13.99    2.36   1
   8   0   0   15.81    2.69   1
  -9   0   0   11.08    8.65   1
   9   0   0   13.63    2.54   1
   9  -1   0    5.67    2.13   1
  -9   1   0   10.68    7.49   1
   8  -1   0   36.40    4.12   1
  -8   1   0   32.85    3.74   1
   7  -1   0    0.97    1.31   1
  -7   1   0    1.74    1.49   1
   6  -1   0    2.39    1.11   1
  -6   1   0    1.98    1.23   1
   5  -1   0   22.85    2.46   1
  -5   1   0   22.24    2.18   1
   4  -1   0   13.87    1.56   1
  -4   1   0   13.59    1.28   1
   3  -1   0   27.04    1.63   1
  -3   1   0   26.05    1.65   1
   2  -1   0   13.20    0.97   1
  -2   1   0   13.12    0.89   1
   1  -1   0   28.31    1.74   1
  -1   1   0   28.13    1.64   1
   0  -1   0   64.28    3.88   1
   0   1   0   66.01    3.63   1
  -1  -1   0  390.72   29.86   1
   1   1   0  389.84   25.71   1
  -2  -1   0   69.99    4.49   1
   2   1   0   72.32    4.53   1
  -3  -1   0  333.45   21.08   1
   3   1   0  344.77   19.41   1
  -4  -1   0   13.49    1.39   1
   4   1   0   15.31    1.68   1
  -5  -1   0   29.96    2.48   1
   5   1   0   26.99    2.62   1
  -6  -1   0    0.00    0.98   1
   6   1   0    0.44    1.04   1
  -7  -1   0   10.78    1.82   1
   7   1   0   11.16    1.90   1
  -8  -1   0    0.00    6.08   1
   8   1   0    0.39    1.62   1
  -9  -1   0   8.233    6.77   1
   9   1   0    0.78    1.63   1
   9  -2   0    0.00    1.44   1
  -9   2   0    0.00    4.15   1
   8  -2   0    0.00    1.58   1
  -8   2   0    0.42    1.74   1
   7  -2   0    4.12    1.65   1
  -7   2   0    3.21    1.36   1
   6  -2   0    2.80    1.46   1
  -6   2   0    3.51    1.55   1
   5  -2   0    0.08    0.58   1
  -5   2   0    0.00    0.42   1
   4  -2   0   10.17    1.05   1
  -4   2   0    7.54    1.05   1
   3  -2   0    0.92    0.41   1
  -3   2   0    0.81    0.35   1
   2  -2   0    4.40    0.47   1
  -2   2   0    3.84    0.47   1
   1  -2   0  403.49   24.56   1
  -1   2   0  419.62   24.35   1
   0  -2   0    0.00    0.19   1
   0   2   0    0.00    0.19   1
  -1  -2   0    0.00    0.21   1
   1   2   0    0.00    0.19   1
  -2  -2   0  164.06   12.81   1
   2   2   0  173.62   10.44   1
  -3  -2   0   10.56    1.28   1
   3   2   0    9.41    1.17   1
  -4  -2   0  117.06    7.97   1
   4   2   0  107.05   10.18   1
  -5  -2   0   31.53    2.91   1
   5   2   0   32.22    4.06   1
  -6  -2   0   27.16    2.68   1
   6   2   0   21.91    2.95   1
  -7  -2   0    0.52    0.39   1
   7   2   0    0.11    0.40   1
  -8  -2   0    2.87    1.91   1
   8   2   0    1.44    1.91   1
   9  -3   0    2.80    2.12   1
  -9   3   0    0.00    7.02   1
   8  -3   0    4.48    1.75   1
  -8   3   0    8.71    2.29   1
   7  -3   0   63.61    6.11   1
  -7   3   0   63.76    5.50   1
   6  -3   0   87.94    6.89   1
  -6   3   0   79.91    6.41   1
   5  -3   0   69.73    5.46   1
  -5   3   0   67.54    4.56   1
   4  -3   0   82.15    5.28   1
  -4   3   0   80.01    5.33   1
   3  -3   0    0.95    0.36   1
  -3   3   0    0.55    0.36   1
   2  -3   0   61.32    3.82   1
  -2   3   0   61.31    3.31   1
   1  -3   0 5615.56  377.64   1
  -1   3   0 6029.15  377.15   1
   0  -3   0   12.52    0.96   1
   0   3   0   14.08    0.90   1
  -1  -3   0   26.06    1.74   1
   1   3   0   25.65    1.48   1
  -2  -3   0 1700.06  132.67   1
   2   3   0 1842.57  117.27   1
  -3  -3   0  128.45   12.46   1
   3   3   0  147.78    9.40   1
  -4  -3   0  120.07   11.09   1
   4   3   0  126.56   12.59   1
  -5  -3   0  147.31   10.02   1
   5   3   0  134.78   12.55   1
  -6  -3   0  115.84    8.44   1
   6   3   0  123.56   12.89   1
  -7  -3   0    1.16    1.23   1
   7   3   0    0.53    1.16   1
  -8  -3   0    1.24    2.10   1
   8   3   0    0.16    0.40   1
   9  -4   0    9.15    2.78   1
  -9   4   0   9.889    2.94   1
   8  -4   0    2.41    2.28   1
  -8   4   0    3.57    1.62   1
   7  -4   0   48.85    5.15   1
  -7   4   0   48.67    4.68   1
   6  -4   0   62.81    5.85   1
  -6   4   0   56.47    4.30   1
   5  -4   0   11.05    1.82   1
  -5   4   0   11.65    1.28   1
   4  -4   0   53.75    4.41   1
  -4   4   0   50.59    3.88   1
   3  -4   0    0.00    0.33   1
  -3   4   0    0.00    0.37   1
   2  -4   0   23.54    1.77   1
  -2   4   0   24.93    1.63   1
   1  -4   0    1.25    0.79   1
  -1   4   0    3.25    0.60   1
   0  -4   0  269.63   16.49   1
   0   4   0  280.51   16.63   1
  -1  -4   0   75.68    6.83   1
   1   4   0   84.10    5.01   1
  -2  -4   0  201.91   16.79   1
   2   4   0  195.94   16.63   1
  -3  -4   0  268.11   24.01   1
   3   4   0  271.55   26.34   1
  -4  -4   0   35.34    3.53   1
   4   4   0   36.32    2.96   1
  -5  -4   0   45.70    4.65   1
   5   4   0   57.36    7.69   1
  -6  -4   0    6.14    1.89   1
   6   4   0    6.03    3.04   1
  -7  -4   0    8.29    2.14   1
   7   4   0    2.20    1.53   1
  -8  -4   0    1.94    2.02   1
   8   4   0    0.00    2.85   1
   9  -5   0    0.44    1.48   1
  -9   5   0    4.89    4.43   1
   8  -5   0    0.69    0.88   1
  -8   5   0    0.18    1.08   1
   7  -5   0    0.29    0.48   1
  -7   5   0    0.26    0.51   1
   6  -5   0    8.23    1.63   1
  -6   5   0   11.79    1.55   1
   5  -5   0   51.56    4.65   1
  -5   5   0   57.96    4.42   1
   4  -5   0    1.39    0.65   1
  -4   5   0    0.33    0.75   1
   3  -5   0   16.63    1.55   1
  -3   5   0   18.53    1.48   1
   2  -5   0   26.41    2.79   1
  -2   5   0   20.87    2.18   1
   1  -5   0    0.08    0.24   1
  -1   5   0    0.14    0.23   1
   0  -5   0   12.60    1.24   1
   0   5   0   13.97    1.24   1
  -1  -5   0   25.16    2.53   1
   1   5   0   31.06    2.02   1
  -2  -5   0    0.68    0.61   1
   2   5   0    0.57    0.51   1
  -3  -5   0   19.84    2.46   1
   3   5   0   16.85    1.79   1
  -4  -5   0  128.45   14.06   1
   4   5   0  135.12   13.21   1
  -5  -5   0    9.44    1.92   1
   5   5   0   9.975    2.70   1
  -6  -5   0   11.66    3.64   1
   6   5   0    1.95    2.54   1
  -7  -5   0    0.00    1.51   1
   7   5   0    0.43    1.04   1
   8   5   0    1.63    3.18   1
   8  -6   0   29.67    4.04   1
  -8   6   0   23.79    3.07   1
   7  -6   0   10.29    2.36   1
  -7   6   0   11.59    1.89   1
   6  -6   0    0.00    0.26   1
  -6   6   0    0.16    0.23   1
   5  -6   0   49.76    4.80   1
  -5   6   0   52.31    4.43   1
   4  -6   0   18.40    1.76   1
  -4   6   0   17.14    2.07   1
   3  -6   0    0.63    0.25   1
  -3   6   0    0.78    0.25   1
   2  -6   0   30.06    3.42   1
  -2   6   0   37.93    3.58   1
   1  -6   0    0.07    0.28   1
  -1   6   0    0.31    0.24   1
   0  -6   0    1.75    1.00   1
   0   6   0    2.73    0.89   1
  -1  -6   0   14.97    1.79   1
   1   6   0   15.26    1.53   1
  -2  -6   0  170.51   24.44   1
   2   6   0  163.32   11.95   1
  -3  -6   0  113.26   13.28   1
   3   6   0  126.83   10.16   1
  -4  -6   0  382.43   42.33   1
   4   6   0  436.70   43.01   1
  -5  -6   0  243.38   26.31   1
   5   6   0  241.22   20.51   1
  -6  -6   0   68.12    7.57   1
   6   6   0   58.51    6.96   1
  -7  -6   0   24.68    4.15   1
   7   6   0   21.46    6.40   1
   8  -7   0   44.94    5.18   1
  -8   7   0   46.17    7.79   1
   7  -7   0   39.33    4.56   1
  -7   7   0   41.24    6.99   1
   6  -7   0   21.21    2.67   1
  -6   7   0   18.03    2.75   1
   5  -7   0   80.78    7.22   1
  -5   7   0   82.92    6.55   1
   4  -7   0   60.02    4.40   1
  -4   7   0   62.73    4.30   1
   3  -7   0    0.39    0.38   1
  -3   7   0    0.00    0.20   1
   2  -7   0   24.94    2.56   1
  -2   7   0   23.14    2.58   1
   1  -7   0    4.37    1.05   1
  -1   7   0    3.25    1.04   1
   0  -7   0    0.01    0.28   1
   0   7   0    0.23    0.37   1
  -1  -7   0    0.26    0.24   1
   1   7   0    0.35    0.35   1
  -2  -7   0   20.77    2.50   1
   2   7   0   16.40    2.34   1
  -3  -7   0   18.89    4.24   1
   3   7   0   19.79    2.61   1
  -4  -7   0    4.50    1.84   1
   4   7   0    4.97    1.52   1
  -5  -7   0    0.70    1.45   1
   5   7   0    0.36    0.70   1
  -6  -7   0    0.00    3.41   1
   6   7   0    0.71    1.22   1
  -7  -7   0    5.80    6.04   1
   7   7   0    5.45    1.94   1
   8  -8   0    5.83    2.81   1
  -8   8   0    0.33    2.11   1
   7  -8   0    0.29    0.93   1
  -7   8   0    0.05    1.31   1
   6  -8   0    0.16    0.69   1
  -6   8   0    0.28    0.60   1
   5  -8   0    1.70    1.17   1
  -5   8   0    3.00    1.35   1
   4  -8   0    0.28    0.57   1
  -4   8   0    0.07    0.65   1
   3  -8   0    7.85    1.66   1
  -3   8   0   11.59    1.80   1
   2  -8   0    1.20    1.72   1
  -2   8   0    2.90    1.18   1
   1  -8   0    0.90    1.61   1
  -1   8   0    4.08    1.33   1
   0  -8   0    2.15    1.27   1
   0   8   0    2.42    1.21   1
  -1  -8   0    1.23    1.05   1
   1   8   0    0.50    0.82   1
  -2  -8   0    0.00    1.20   1
   2   8   0    0.06    0.81   1
  -3  -8   0    0.00    3.29   1
   3   8   0    0.29    1.94   1
  -4  -8   0    1.06    0.53   1
   4   8   0    0.25    0.30   1
  -5  -8   0   9.799    4.55   1
   5   8   0    1.40    1.50   1
  -6  -8   0    5.14    5.63   1
   6   8   0    3.18    3.06   1
   7  -9   0    1.02    1.37   1
  -7   9   0   11.85    4.47   1
   6  -9   0   14.41    2.23   1
  -6   9   0   24.23    5.68   1
   5  -9   0    1.83    0.81   1
  -5   9   0    0.61    1.25   1
   4  -9   0   16.39    1.95   1
  -4   9   0    4.02    1.63   1
   3  -9   0    4.52    1.54   1
  -3   9   0    5.40    1.66   1
   2  -9   0    6.12    1.60   1
  -2   9   0    3.86    1.54   1
   1  -9   0    1.31    1.07   1
  -1   9   0    2.31    1.27   1
   0  -9   0   57.54    6.50   1
   0   9   0   62.04    9.29   1
  -1  -9   0   16.80    1.96   1
   1   9   0   17.14    3.49   1
  -2  -9   0    5.16    1.66   1
   2   9   0    2.69    1.24   1
  -3  -9   0    5.88    3.01   1
   3   9   0   11.14    1.95   1
  -4  -9   0   58.97   9.780   1
   4   9   0   57.94    6.50   1
  -5  -9   0   27.00    5.70   1
   5   9   0   29.44    4.09   1
   7 -10   0    0.00    1.59   1
  -7  10   0    2.45    1.93   1
   6 -10   0   13.54    4.24   1
  -6  10   0   13.78    3.85   1
   5 -10   0    8.92    2.24   1
  -5  10   0   14.42    3.46   1
   4 -10   0    4.81    1.93   1
  -4  10   0    4.79    2.27   1
   3 -10   0   35.24    4.45   1
  -3  10   0   35.67    6.28   1
   2 -10   0   12.92    2.72   1
  -2  10   0   10.05    2.07   1
   1 -10   0    2.02    1.50   1
  -1  10   0    3.50    1.61   1
   0 -10   0   48.57    5.45   1
   0  10   0   43.95    7.45   1
  -1 -10   0    7.29    2.13   1
   1  10   0    8.40    3.34   1
  -2 -10   0    6.39    2.26   1
   2  10   0    6.66    3.36   1
  -3 -10   0    0.06    0.43   1
   3  10   0    0.00    0.19   1
  -4 -10   0    2.45    3.01   1
   4  10   0    0.00    1.39   1
  -5 -10   0    0.00    2.13   1
   5  10   0    0.00    2.74   1
   6 -11   0    2.28    3.15   1
  -6  11   0    3.27    3.79   1
   5 -11   0    0.14    1.11   1
  -5  11   0    0.00    1.52   1
  -4  11   0    0.32    0.39   1
  -3  11   0    0.00    1.30   1
  -2  11   0    0.00    1.50   1
   1 -11   0    4.08    1.87   1
  -1  11   0    0.00    1.18   1
   0 -11   0    1.45    1.21   1
   0  11   0    0.00    2.95   1
  -1 -11   0    0.62    0.61   1
   1  11   0    0.33    0.91   1
  -2 -11   0    0.23    0.95   1
   2  11   0    0.04    1.22   1
  -3 -11   0    0.44    2.48   1
   3  11   0    0.47    1.90   1
  -4 -11   0    0.36    0.65   1
   4  11   0    0.18    0.44   1
  -5  12   0    1.86    1.85   1
   4 -12   0    8.33    4.03   1
  -4  12   0   10.27    3.32   1
  -3  12   0    0.60    4.92   1
   2 -12   0   14.20    5.20   1
  -2  12   0    6.05    2.81   1
   1 -12   0   18.40    3.61   1
  -1  12   0   22.31    5.59   1
   0 -12   0    3.85    3.10   1
   0  12   0    3.67    4.08   1
  -1 -12   0    5.75    3.26   1
   1  12   0    5.68    3.82   1
  -2 -12   0    3.45    3.79   1
   2  12   0   10.37    4.13   1
   3 -13   0    0.00    2.32   1
  -3  13   0    2.14    1.52   1
   2 -13   0    3.61    3.92   1
  -2  13   0    0.00    3.62   1
   1 -13   0   21.09    3.54   1
  -1  13   0   24.72    6.15   1
   0 -13   0    0.45    0.85   1
   0  13   0    0.40    1.50   1
   1  13  -1   27.93    6.05   1
  -1 -13   1   12.70    2.62   1
   0  13  -1    0.87    4.05   1
   0 -13   1    0.00    2.49   1
  -1  13  -1   43.95    8.09   1
   1 -13   1   54.71    8.22   1
  -2  13  -1    7.20    4.42   1
   2 -13   1   13.97    3.63   1
  -3  13  -1    0.80    2.02   1
   3 -13   1    0.94    1.52   1
   3  12  -1    0.48    0.76   1
  -3 -12   1    0.00    1.00   1
   2  12  -1    7.39    2.98   1
  -2 -12   1    6.45    3.76   1
   1  12  -1   17.87    5.03   1
  -1 -12   1   17.64    3.12   1
   0  12  -1    3.79    3.60   1
   0 -12   1    2.16    2.39   1
  -1  12  -1   20.94    4.67   1
   1 -12   1   18.12    4.94   1
  -2  12  -1    0.45    3.28   1
   2 -12   1    1.45    1.97   1
  -3  12  -1    1.16    2.84   1
   3 -12   1    0.00    4.15   1
  -4  12  -1    0.00    1.52   1
  -5  12  -1    0.74    1.54   1
   4  11  -1    0.00    1.07   1
  -4 -11   1    1.80    1.50   1
   3  11  -1    0.00    0.37   1
  -3 -11   1    0.00    0.38   1
   2  11  -1    0.87    3.55   1
  -2 -11   1    4.25    2.24   1
   1  11  -1    0.27    2.38   1
  -1 -11   1    0.21    1.61   1
   0  11  -1   15.26    4.13   1
   0 -11   1   12.18    2.40   1
  -1  11  -1    0.00    2.95   1
   1 -11   1    2.06    1.97   1
  -2  11  -1    0.00    1.51   1
  -3  11  -1    0.13    0.73   1
  -4  11  -1    0.00    0.53   1
  -5  11  -1    0.24    1.77   1
   5 -11   1    1.59    1.48   1
  -6  11  -1    0.92    0.94   1
   6 -11   1    0.12    1.06   1
   5  10  -1    0.01    0.63   1
  -5 -10   1    0.00    1.88   1
   4  10  -1    5.10    1.41   1
  -4 -10   1    3.85    5.93   1
   3  10  -1    0.86    1.16   1
  -3 -10   1    3.60    2.73   1
   2  10  -1   10.05    3.11   1
  -2 -10   1   14.76    2.42   1
   1  10  -1    7.16    2.50   1
  -1 -10   1    8.68    1.54   1
   0  10  -1   76.57   12.04   1
   0 -10   1   62.19    6.91   1
  -1  10  -1   48.55    4.93   1
   1 -10   1   48.99    3.90   1
  -2  10  -1    0.11    0.50   1
   2 -10   1    0.50    0.43   1
  -3  10  -1  114.93   12.71   1
   3 -10   1   92.34   14.62   1
  -4  10  -1    0.64    3.37   1
   4 -10   1    1.83    2.81   1
  -5  10  -1   23.37    4.90   1
   5 -10   1   17.25    4.28   1
  -6  10  -1    8.80    4.03   1
   6 -10   1   10.93    2.43   1
  -7  10  -1    0.50    0.44   1
   7 -10   1    0.11    0.28   1
   6   9  -1   12.96    4.42   1
  -6  -9   1   18.11    6.17   1
   5   9  -1    4.30    1.70   1
  -5  -9   1   23.11    7.38   1
   4   9  -1   34.02    4.03   1
  -4  -9   1   31.43    6.82   1
   3   9  -1    3.24    2.41   1
  -3  -9   1    2.21    2.73   1
   2   9  -1    0.78    0.71   1
  -2  -9   1    1.05    1.31   1
   1   9  -1   37.78    6.56   1
  -1  -9   1   48.51    4.57   1
   0   9  -1   50.61    7.28   1
   0  -9   1   71.94    6.48   1
  -1   9  -1   55.95    5.65   1
   1  -9   1   70.04    4.93   1
  -2   9  -1    0.81    0.47   1
   2  -9   1    0.77    0.81   1
  -3   9  -1   77.55    6.57   1
   3  -9   1   53.28    5.59   1
  -4   9  -1    2.06    1.14   1
   4  -9   1    2.29    1.59   1
  -5   9  -1    2.85    2.08   1
   5  -9   1    3.86    1.13   1
  -6   9  -1    0.00    1.25   1
   6  -9   1    0.41    0.74   1
  -7   9  -1    0.00    0.45   1
   7  -9   1    0.24    0.34   1
   6   8  -1    0.00    0.32   1
  -6  -8   1    0.00    0.96   1
   5   8  -1    1.32    1.24   1
  -5  -8   1    1.36    2.38   1
   4   8  -1   19.09    2.37   1
  -4  -8   1   19.11    4.09   1
   3   8  -1    0.68    1.07   1
  -3  -8   1    0.52    1.29   1
   2   8  -1   17.33    2.43   1
  -2  -8   1   19.82    2.61   1
   1   8  -1    2.03    0.96   1
  -1  -8   1    2.20    0.92   1
   0   8  -1    0.03    0.21   1
   0  -8   1    0.03    0.17   1
  -1   8  -1    0.65    0.42   1
   1  -8   1    0.24    0.53   1
  -2   8  -1   14.25    2.99   1
   2  -8   1   18.96    2.30   1
  -3   8  -1    3.59    2.44   1
   3  -8   1    6.77    1.55   1
  -4   8  -1   12.47    3.17   1
   4  -8   1   14.16    1.68   1
  -5   8  -1    0.24    0.31   1
   5  -8   1    0.15    0.26   1
  -6   8  -1   10.56    3.73   1
   6  -8   1    4.14    1.38   1
  -7   8  -1    2.08    1.57   1
   7  -8   1    1.90    1.40   1
  -8   8  -1    0.00    0.43   1
   8  -8   1    0.07    0.26   1
   7   7  -1    0.15    3.26   1
  -7  -7   1    0.00    4.74   1
   6   7  -1    0.12    1.90   1
  -6  -7   1    5.25    4.14   1
   5   7  -1    0.79    1.51   1
  -5  -7   1    5.70    3.69   1
   4   7  -1    1.05    1.78   1
   3   7  -1    0.00    0.19   1
  -3  -7   1    0.26    0.29   1
   2   7  -1   23.83    2.86   1
  -2  -7   1   14.67    2.70   1
   1   7  -1   22.54    3.10   1
  -1  -7   1   25.65    2.43   1
   0   7  -1    4.23    1.29   1
   0  -7   1    6.35    1.44   1
  -1   7  -1    2.39    0.64   1
   1  -7   1    1.21    1.31   1
  -2   7  -1   17.71    2.10   1
   2  -7   1   11.44    1.84   1
  -3   7  -1    1.20    0.75   1
   3  -7   1    1.20    0.54   1
  -4   7  -1   72.82    5.95   1
   4  -7   1   63.88    5.77   1
  -5   7  -1  273.77   18.87   1
   5  -7   1  267.43   28.83   1
  -6   7  -1    1.84    1.68   1
   6  -7   1    5.21    1.98   1
  -7   7  -1   48.51    5.46   1
   7  -7   1   36.24    7.06   1
  -8   7  -1   34.99    4.76   1
   8  -7   1   42.67    5.03   1
   7   6  -1   59.59   9.518   1
  -7  -6   1   58.57   10.30   1
   6   6  -1   51.53    8.24   1
  -6  -6   1   37.66    5.04   1
   5   6  -1  280.53   24.21   1
   4   6  -1  118.06   10.20   1
  -4  -6   1  115.00   12.59   1
   3   6  -1  220.12   22.09   1
  -3  -6   1  207.82   18.39   1
   2   6  -1   37.85    2.94   1
  -2  -6   1   40.04    4.17   1
   1   6  -1    7.15    0.82   1
  -1  -6   1    6.19    1.04   1
   0   6  -1   13.91    3.02   1
   0  -6   1   14.97    1.56   1
  -1   6  -1   12.88    1.55   1
   1  -6   1   13.65    1.38   1
  -2   6  -1   28.31    3.47   1
   2  -6   1   29.11    2.76   1
  -3   6  -1   56.24    4.70   1
   3  -6   1   53.88    4.66   1
  -4   6  -1   10.62    1.44   1
   4  -6   1   11.93    1.29   1
  -5   6  -1   49.77    4.20   1
   5  -6   1   49.41    3.83   1
  -6   6  -1    0.11    0.75   1
   6  -6   1    0.10    0.72   1
  -7   6  -1    1.48    1.22   1
   7  -6   1    1.48    1.28   1
  -8   6  -1    0.00    0.63   1
   8  -6   1    0.75    0.50   1
   8   5  -1    0.00    4.14   1
  -8  -5   1    1.26    3.56   1
   7   5  -1    2.85    3.94   1
  -7  -5   1    5.22    2.19   1
   6   5  -1   43.99    5.49   1
  -6  -5   1   20.56    3.01   1
   5   5  -1    0.41    2.16   1
  -5  -5   1    0.18    1.17   1
   4   5  -1   17.71    2.67   1
  -4  -5   1   16.17    2.28   1
   3   5  -1    4.29    0.84   1
  -3  -5   1    3.95    1.21   1
   2   5  -1   56.06    4.57   1
  -2  -5   1   51.37    4.77   1
   1   5  -1   12.70    1.15   1
  -1  -5   1   14.31    1.52   1
   0   5  -1   50.26    3.61   1
   0  -5   1   49.63    3.60   1
  -1   5  -1    0.07    0.36   1
   1  -5   1    0.17    0.51   1
  -2   5  -1    0.31    0.55   1
   2  -5   1    0.00    0.51   1
  -3   5  -1    0.04    0.91   1
   3  -5   1    0.27    0.65   1
  -4   5  -1   86.72    6.52   1
   4  -5   1   86.56    6.73   1
  -5   5  -1    6.76    1.55   1
   5  -5   1    4.17    1.51   1
  -6   5  -1   28.79    3.05   1
   6  -5   1   29.26    3.39   1
  -7   5  -1    1.93    0.94   1
   7  -5   1    1.42    1.45   1
  -8   5  -1    0.00    0.15   1
   8  -5   1    0.00    0.21   1
  -9   5  -1    0.00    1.04   1
   9  -5   1    2.07    1.37   1
   8   4  -1    0.23    0.90   1
  -8  -4   1    0.00    1.81   1
   7   4  -1    2.27    2.29   1
  -7  -4   1    1.59    1.58   1
   6   4  -1    8.10    2.64   1
  -6  -4   1    6.38    1.61   1
   5   4  -1   69.35   11.79   1
  -5  -4   1   84.73    7.50   1
   4   4  -1  94.412   10.05   1
  -4  -4   1  99.975    8.94   1
   3   4  -1  97.760   10.42   1
  -3  -4   1  101.03    8.90   1
   2   4  -1   58.27    3.54   1
  -2  -4   1   56.06    4.41   1
   1   4  -1  532.27   28.90   1
  -1  -4   1  501.94   34.00   1
   0   4  -1    0.74    0.41   1
   0  -4   1    0.84    0.46   1
  -1   4  -1  190.86   11.18   1
   1  -4   1  181.50   11.22   1
  -2   4  -1    5.67    0.59   1
   2  -4   1    6.46    0.73   1
  -3   4  -1    5.73    0.74   1
   3  -4   1    6.20    0.78   1
  -4   4  -1  420.99   26.34   1
   4  -4   1  421.15   27.86   1
  -5   4  -1    8.42    1.00   1
   5  -4   1    8.11    1.40   1
  -6   4  -1   87.81    6.04   1
   6  -4   1   85.92    6.83   1
  -7   4  -1  231.25   17.69   1
   7  -4   1  251.61   20.55   1
  -8   4  -1    6.88    2.54   1
   8  -4   1    6.32    1.86   1
  -9   4  -1   9.824    3.67   1
   9  -4   1   18.97    2.45   1
   8   3  -1   26.34    3.48   1
  -8  -3   1   27.60    3.43   1
   7   3  -1   59.61    6.70   1
  -7  -3   1   65.76    6.09   1
   6   3  -1  214.70   29.70   1
  -6  -3   1  200.98   14.12   1
   5   3  -1  272.93   31.28   1
  -5  -3   1  299.82   22.21   1
   4   3  -1  109.69   10.07   1
  -4  -3   1  113.30   9.985   1
   3   3  -1   14.82    1.20   1
  -3  -3   1   14.77    1.64   1
   2   3  -1  369.32   23.89   1
  -2  -3   1  343.96   23.88   1
   1   3  -1  589.92   32.74   1
  -1  -3   1  584.98   50.92   1
   0   3  -1   58.32    3.71   1
   0  -3   1   57.98    3.70   1
  -1   3  -1  722.02   39.34   1
   1  -3   1  700.26   46.26   1
  -2   3  -1    2.99    0.46   1
   2  -3   1    2.32    0.49   1
  -3   3  -1   10.22    0.91   1
   3  -3   1   10.28    0.87   1
  -4   3  -1  177.08   11.40   1
   4  -3   1  182.03   11.03   1
  -5   3  -1    1.59    0.88   1
   5  -3   1    2.61    1.26   1
  -6   3  -1   27.58    2.98   1
   6  -3   1   32.25    3.35   1
  -7   3  -1   21.55    2.77   1
   7  -3   1   25.81    2.99   1
  -8   3  -1    2.94    1.65   1
   8  -3   1    2.29    1.64   1
  -9   3  -1    0.00    1.95   1
   9  -3   1    1.18    2.16   1
   9   2  -1    0.02    0.18   1
  -9  -2   1    0.02    0.99   1
   8   2  -1    0.54    0.77   1
  -8  -2   1    0.22    1.12   1
   7   2  -1    3.28    1.51   1
  -7  -2   1    2.23    1.42   1
   6   2  -1    0.21    0.85   1
  -6  -2   1    0.96    0.46   1
   5   2  -1    0.00    0.64   1
  -5  -2   1    0.18    0.41   1
   4   2  -1   19.07    2.02   1
  -4  -2   1   20.23    1.78   1
   3   2  -1  105.47    7.05   1
  -3  -2   1  100.44    7.82   1
   2   2  -1   39.67    2.30   1
  -2  -2   1   39.45    3.04   1
   1   2  -1  279.88   16.55   1
  -1  -2   1  267.99   20.76   1
   0   2  -1  613.01   40.13   1
   0  -2   1  614.82   40.13   1
  -1   2  -1   13.42    0.95   1
   1  -2   1   11.24    0.92   1
  -2   2  -1    6.75    0.62   1
   2  -2   1    5.24    0.59   1
  -3   2  -1   48.69    2.66   1
   3  -2   1   48.15    2.84   1
  -4   2  -1    2.71    0.68   1
   4  -2   1    3.20    0.69   1
  -5   2  -1    1.13    0.73   1
   5  -2   1    1.27    0.82   1
  -6   2  -1    8.08    1.98   1
   6  -2   1    9.55    1.61   1
  -7   2  -1    0.78    1.80   1
   7  -2   1    1.16    1.29   1
  -8   2  -1    0.83    2.10   1
   8  -2   1    0.63    1.57   1
  -9   2  -1    0.00    3.45   1
   9  -2   1    0.39    0.88   1
   9   1  -1    0.91    1.57   1
  -9  -1   1    0.00    5.07   1
   8   1  -1    0.07    1.11   1
  -8  -1   1    0.10    0.88   1
   7   1  -1    0.72    1.43   1
  -7  -1   1    2.61    1.25   1
   6   1  -1    0.22    0.72   1
  -6  -1   1    0.00    0.72   1
   5   1  -1   10.87    2.56   1
  -5  -1   1   16.10    1.65   1
   4   1  -1    8.88    1.41   1
  -4  -1   1    9.30    1.11   1
   3   1  -1  438.88   24.78   1
  -3  -1   1  426.42   26.65   1
   2   1  -1    6.05    0.64   1
  -2  -1   1    5.56    0.70   1
   1   1  -1  115.56    6.50   1
  -1  -1   1  115.89    6.66   1
   0   1  -1   59.02    2.91   1
   0  -1   1   58.29    3.28   1
  -1   1  -1   39.76    2.25   1
   1  -1   1   38.42    2.43   1
  -2   1  -1  849.02   50.88   1
   2  -1   1  828.04   46.87   1
  -3   1  -1   11.40    1.15   1
   3  -1   1   12.08    0.92   1
  -4   1  -1  105.60    8.68   1
   4  -1   1  104.28    7.31   1
  -5   1  -1    0.11    0.15   1
   5  -1   1    0.03    0.14   1
  -6   1  -1  120.07   10.21   1
   6  -1   1  121.93    9.44   1
  -7   1  -1    0.79    1.80   1
   7  -1   1    1.13    1.65   1
  -8   1  -1   43.66    4.57   1
   8  -1   1   47.93    5.05   1
  -9   1  -1   36.49    4.74   1
   9  -1   1   48.60    4.41   1
   9   0  -1    5.93    2.14   1
  -9   0   1   10.12    6.99   1
   8   0  -1    0.31    1.32   1
  -8   0   1    1.16    1.11   1
   7   0  -1   75.13    6.89   1
  -7   0   1   76.31    6.32   1
   6   0  -1  105.51    7.98   1
  -6   0   1  106.58    8.45   1
   5   0  -1  111.88    8.37   1
  -5   0   1  107.69   10.36   1
   4   0  -1  792.45   69.12   1
  -4   0   1  801.23   54.52   1
   3   0  -1 1119.29   68.59   1
  -3   0   1 1103.13   68.59   1
   2   0  -1  460.06   26.06   1
  -2   0   1  451.95   28.15   1
   1   0  -1  456.09   25.91   1
  -1   0   1  453.26   27.98   1
   0   0  -1 2202.94  165.02   1
   0   0   1 2284.73  197.19   1
  -1   0  -1  965.95   58.66   1
   1   0   1  965.95   58.66   1
  -2   0  -1   96.18    6.42   1
   2   0   1   93.57    5.29   1
  -3   0  -1  126.37    9.01   1
   3   0   1  130.47    6.95   1
  -4   0  -1  126.47   10.16   1
   4   0   1  126.59    8.60   1
  -5   0  -1   18.86    2.29   1
   5   0   1   15.45    1.87   1
  -6   0  -1   41.10    3.81   1
   6   0   1   47.84    4.00   1
  -7   0  -1    8.50    1.78   1
   7   0   1   12.49    1.98   1
  -8   0  -1   13.13    7.40   1
   8   0   1   13.76    2.38   1
  -9   0  -1   14.02    7.01   1
   9   0   1    5.84    1.91   1
   9  -1  -1    0.00    1.79   1
  -9   1   1    0.00    5.28   1
   8  -1  -1    0.00    1.59   1
  -8   1   1    0.00    1.59   1
   7  -1  -1    0.00    0.55   1
  -7   1   1    0.57    0.53   1
   6  -1  -1    0.00    1.16   1
  -6   1   1    1.58    0.86   1
   5  -1  -1    0.00    0.62   1
  -5   1   1    0.00    0.63   1
   4  -1  -1    1.45    0.80   1
  -4   1   1    2.67    0.69   1
   3  -1  -1   53.24    3.74   1
  -3   1   1   55.56    3.51   1
   2  -1  -1    0.00    0.34   1
  -2   1   1    0.00    0.38   1
   1  -1  -1  205.48   11.52   1
  -1   1   1  208.18   10.74   1
   0  -1  -1   11.05    0.86   1
   0   1   1   11.64    0.82   1
  -1  -1  -1    1.54    0.29   1
   1   1   1    2.13    0.27   1
  -2  -1  -1  135.07    8.44   1
   2   1   1  135.46    9.35   1
  -3  -1  -1   65.91    4.15   1
   3   1   1   60.88    4.60   1
  -4  -1  -1   81.42    5.95   1
   4   1   1   80.04    6.36   1
  -5  -1  -1   11.03    1.56   1
   5   1   1   13.14    1.65   1
  -6  -1  -1    6.25    1.41   1
   6   1   1    4.74    1.43   1
  -7  -1  -1    1.65    1.51   1
   7   1   1    2.10    1.67   1
  -8  -1  -1    0.00    0.61   1
   8   1   1    0.00    0.69   1
  -9  -1  -1   10.66    6.01   1
   9   1   1    0.00    3.14   1
   9  -2  -1    0.92    1.63   1
  -9   2   1    0.00    6.43   1
   8  -2  -1    0.61    1.67   1
  -8   2   1    0.38    1.81   1
   7  -2  -1    3.19    1.36   1
  -7   2   1    2.24    1.61   1
   6  -2  -1   31.04    3.02   1
  -6   2   1   24.37    2.27   1
   5  -2  -1   11.64    1.57   1
  -5   2   1   11.46    1.25   1
   4  -2  -1    0.71    0.47   1
  -4   2   1    0.45    0.33   1
   3  -2  -1  109.58    6.17   1
  -3   2   1  105.55    6.28   1
   2  -2  -1    2.46    0.36   1
  -2   2   1    2.60    0.28   1
   1  -2  -1   17.13    1.09   1
  -1   2   1   17.46    1.05   1
   0  -2  -1  815.97   46.50   1
   0   2   1  861.03   46.77   1
  -1  -2  -1  208.73   13.95   1
   1   2   1  210.58   11.16   1
  -2  -2  -1   14.12    1.17   1
   2   2   1   16.54    1.07   1
  -3  -2  -1   59.36    4.32   1
   3   2   1   63.79    4.82   1
  -4  -2  -1   92.52    6.20   1
   4   2   1   78.31    8.02   1
  -5  -2  -1   16.04    1.79   1
   5   2   1   14.37    1.78   1
  -6  -2  -1   10.49    1.61   1
   6   2   1    6.97    1.51   1
  -7  -2  -1    1.55    1.37   1
   7   2   1    2.68    1.38   1
  -8  -2  -1    6.84    6.39   1
   8   2   1    1.44    1.43   1
   9  -3  -1   16.60    3.12   1
  -9   3   1   16.03    7.30   1
   8  -3  -1   22.07    3.07   1
  -8   3   1   20.78    2.67   1
   7  -3  -1   27.69    3.25   1
  -7   3   1   25.47    2.81   1
   6  -3  -1    3.09    1.43   1
  -6   3   1    4.01    0.92   1
   5  -3  -1  187.31   14.43   1
  -5   3   1  193.10   11.34   1
   4  -3  -1   41.45    2.92   1
  -4   3   1   39.31    2.98   1
   3  -3  -1   41.04    3.31   1
  -3   3   1   43.69    2.82   1
   2  -3  -1  135.83    8.31   1
  -2   3   1  139.98    7.63   1
   1  -3  -1 9412.55  624.49   1
  -1   3   1 9737.47  533.80   1
   0  -3  -1    0.00    0.15   1
   0   3   1    0.00    0.15   1
  -1  -3  -1    0.27    0.58   1
   1   3   1    0.25    0.47   1
  -2  -3  -1  656.09   59.83   1
   2   3   1  732.10   47.45   1
  -3  -3  -1  468.78   39.92   1
   3   3   1  467.35   40.96   1
  -4  -3  -1    0.23    0.30   1
   4   3   1    0.00    0.50   1
  -5  -3  -1   48.54    3.80   1
   5   3   1   40.47    5.12   1
  -6  -3  -1   34.93    3.31   1
   6   3   1   26.95    3.32   1
  -7  -3  -1    0.00    2.02   1
   7   3   1    0.17    1.23   1
  -8  -3  -1   16.31    3.34   1
   8   3   1   18.97    4.49   1
   9  -4  -1    3.42    2.12   1
  -9   4   1   11.46    7.64   1
   8  -4  -1    0.00    0.53   1
  -8   4   1    0.27    0.55   1
   7  -4  -1    0.03    0.45   1
  -7   4   1    0.00    0.41   1
   6  -4  -1    3.39    1.11   1
  -6   4   1    1.76    0.81   1
   5  -4  -1   12.60    1.60   1
  -5   4   1   10.19    1.35   1
   4  -4  -1   26.64    2.25   1
  -4   4   1   28.86    1.80   1
   3  -4  -1   13.02    1.21   1
  -3   4   1   12.09    0.97   1
   2  -4  -1    1.23    0.46   1
  -2   4   1    1.64    0.45   1
   1  -4  -1  330.52   25.00   1
  -1   4   1  351.90   18.15   1
   0  -4  -1  181.85   11.33   1
   0   4   1  195.84   11.39   1
  -1  -4  -1  267.99   18.18   1
   1   4   1  289.94   15.69   1
  -2  -4  -1   39.80    3.38   1
   2   4   1   36.65    3.38   1
  -3  -4  -1   19.02    2.40   1
   3   4   1   12.16    1.99   1
  -4  -4  -1  95.271   10.15   1
   4   4   1  99.379   10.73   1
  -5  -4  -1    4.14    1.44   1
   5   4   1    1.90    2.07   1
  -6  -4  -1    0.00    2.48   1
   6   4   1    0.91    1.49   1
  -7  -4  -1    4.07    3.92   1
   7   4   1    4.18    2.51   1
   8   4   1    0.91    1.25   1
   9  -5  -1    4.47    2.88   1
  -9   5   1    1.42    2.42   1
   8  -5  -1    3.82    2.43   1
  -8   5   1    3.84    1.59   1
   7  -5  -1    0.48    1.79   1
  -7   5   1    0.14    1.13   1
   6  -5  -1    0.59    1.08   1
  -6   5   1    0.00    0.86   1
   5  -5  -1   35.34    3.50   1
  -5   5   1   33.59    3.22   1
   4  -5  -1    4.45    0.96   1
  -4   5   1    1.98    1.14   1
   3  -5  -1    1.10    0.58   1
  -3   5   1    0.00    0.71   1
   2  -5  -1   11.99    2.04   1
  -2   5   1   13.55    1.75   1
   1  -5  -1    2.97    1.01   1
  -1   5   1    4.88    0.84   1
   0  -5  -1  315.89   19.91   1
   0   5   1  295.93   22.37   1
  -1  -5  -1   60.08    4.51   1
   1   5   1   59.61    4.49   1
  -2  -5  -1   66.15    5.99   1
   2   5   1   69.94    7.26   1
  -3  -5  -1   52.66    5.69   1
   3   5   1   48.79    5.59   1
  -4  -5  -1    7.65    2.16   1
   4   5   1    9.53    2.13   1
  -5  -5  -1   34.70    4.35   1
   5   5   1   32.17    6.12   1
  -6  -5  -1    0.65    2.52   1
   6   5   1    0.00    3.69   1
  -7  -5  -1    6.49    3.38   1
   7   5   1    1.03    4.14   1
   8  -6  -1   85.74    8.53   1
  -8   6   1   86.14   10.07   1
   7  -6  -1   37.13    4.17   1
  -7   6   1   36.05    3.51   1
   6  -6  -1    1.75    1.05   1
  -6   6   1    0.97    1.26   1
   5  -6  -1  126.96    9.56   1
  -5   6   1  121.62    8.82   1
   4  -6  -1    4.79    0.83   1
  -4   6   1    3.52    0.82   1
   3  -6  -1   23.51    2.37   1
  -3   6   1   22.03    2.41   1
   2  -6  -1  933.78   66.43   1
  -2   6   1  907.86   68.79   1
   1  -6  -1    0.38    0.58   1
  -1   6   1    0.32    0.60   1
   0  -6  -1  125.42    8.24   1
   0   6   1  123.80    8.42   1
  -1  -6  -1  161.21   12.18   1
   1   6   1  175.16   13.85   1
  -2  -6  -1  114.80   9.872   1
   2   6   1  113.35   11.99   1
  -3  -6  -1    3.21    1.49   1
   3   6   1    4.93    1.23   1
  -4  -6  -1  228.96   23.98   1
   4   6   1  227.69   24.04   1
  -5  -6  -1   63.73    7.29   1
   5   6   1   64.86    7.10   1
  -6  -6  -1   50.77    6.70   1
   6   6   1   16.82    2.69   1
  -7  -6  -1    0.97    5.36   1
   7   6   1    3.80    1.80   1
   8  -7  -1   16.57    2.55   1
  -8   7   1   13.24    2.27   1
   7  -7  -1   13.17    2.35   1
  -7   7   1   10.30    2.33   1
   6  -7  -1    0.00    0.67   1
  -6   7   1    0.70    0.83   1
   5  -7  -1    0.93    1.56   1
  -5   7   1    1.67    1.39   1
   4  -7  -1    0.31    0.28   1
  -4   7   1    0.41    0.34   1
   3  -7  -1    0.19    1.12   1
  -3   7   1    0.37    1.11   1
   2  -7  -1   18.10    2.60   1
  -2   7   1   26.36    2.80   1
   1  -7  -1   18.00    2.01   1
  -1   7   1   17.15    2.24   1
   0  -7  -1    2.46    1.27   1
   0   7   1    0.81    1.77   1
  -1  -7  -1   22.77    2.36   1
   1   7   1   20.15    2.43   1
  -2  -7  -1    7.76    3.59   1
   2   7   1    7.63    1.55   1
  -3  -7  -1    0.10    0.52   1
   3   7   1    0.00    0.30   1
  -4  -7  -1    2.00    2.44   1
   4   7   1    2.54    2.26   1
  -5  -7  -1    0.54    2.08   1
   5   7   1    0.21    1.04   1
  -6  -7  -1    0.00    3.29   1
   6   7   1    1.74    1.79   1
   8  -8  -1    0.34    0.69   1
  -8   8   1    0.00    1.09   1
   7  -8  -1    3.47    1.44   1
  -7   8   1    0.00    3.42   1
   6  -8  -1    0.75    0.99   1
  -6   8   1    0.47    1.08   1
   5  -8  -1   18.50    2.09   1
  -5   8   1   11.98    2.06   1
   4  -8  -1    1.66    1.10   1
  -4   8   1    0.41    0.74   1
   3  -8  -1    9.87    1.70   1
  -3   8   1    7.43    1.86   1
   2  -8  -1   17.52    1.75   1
  -2   8   1   12.64    2.06   1
   1  -8  -1    0.77    1.02   1
  -1   8   1    2.77    1.06   1
   0  -8  -1    0.37    0.86   1
   0   8   1    0.00    1.01   1
  -1  -8  -1    4.42    1.16   1
   1   8   1    6.37    1.99   1
  -2  -8  -1   62.48    8.60   1
   2   8   1   54.69    6.15   1
  -3  -8  -1   27.01    4.00   1
   3   8   1   32.88    3.75   1
  -4  -8  -1   68.00    8.02   1
   4   8   1   59.48    6.60   1
  -5  -8  -1    2.55    2.88   1
   5   8   1    0.43    1.51   1
  -6  -8  -1    0.78    6.39   1
   6   8   1    0.00    1.57   1
   7  -9  -1    0.00    0.69   1
  -7   9   1    0.33    0.56   1
   6  -9  -1   66.11    9.14   1
  -6   9   1   81.00   12.64   1
   5  -9  -1   14.93    2.87   1
  -5   9   1    4.79    1.43   1
   4  -9  -1    3.25    2.54   1
  -4   9   1    4.44    1.44   1
   3  -9  -1    2.13    2.18   1
  -3   9   1    2.48    1.50   1
   2  -9  -1    8.82    2.36   1
  -2   9   1   11.27    1.93   1
   1  -9  -1    2.03    1.69   1
  -1   9   1    1.75    1.32   1
   0  -9  -1    1.66    1.27   1
   0   9   1    1.40    1.24   1
  -1  -9  -1   49.84    4.60   1
   1   9   1   32.19    6.04   1
  -2  -9  -1   35.26    4.61   1
   2   9   1   38.89    6.96   1
  -3  -9  -1   70.79   11.41   1
   3   9   1   51.38    5.91   1
  -4  -9  -1  128.43   15.97   1
   4   9   1  107.61   12.63   1
  -5  -9  -1   19.41    5.22   1
   5   9   1    5.03    3.07   1
   7 -10  -1    0.00    2.83   1
   6 -10  -1   20.44    4.88   1
  -6  10   1   25.09    5.59   1
   5 -10  -1    2.08    1.88   1
  -5  10   1    7.20    3.66   1
   4 -10  -1    0.07    0.65   1
  -4  10   1    0.49    1.15   1
   3 -10  -1    1.81    1.46   1
  -3  10   1    2.40    1.23   1
   2 -10  -1    0.24    0.18   1
  -2  10   1    0.27    0.22   1
   1 -10  -1    2.49    1.43   1
  -1  10   1    2.03    1.59   1
   0 -10  -1    0.16    1.41   1
   0  10   1    3.00    1.55   1
  -1 -10  -1    3.58    1.23   1
   1  10   1    1.61    1.87   1
  -2 -10  -1    0.34    2.74   1
   2  10   1    0.00    1.75   1
  -3 -10  -1    2.50    5.13   1
   3  10   1    8.71    3.33   1
  -4 -10  -1    0.00    4.95   1
   4  10   1    3.05    2.53   1
   6 -11  -1    0.18    2.05   1
  -6  11   1    2.08    2.44   1
   5 -11  -1    3.22    2.31   1
  -5  11   1    1.80    2.36   1
   4 -11  -1    0.00    0.33   1
  -4  11   1    0.18    0.26   1
   3 -11  -1    1.84    3.72   1
  -3  11   1    1.75    2.39   1
   2 -11  -1    0.27    1.66   1
  -2  11   1    0.92    1.37   1
   1 -11  -1    2.39    2.10   1
  -1  11   1    0.00    1.85   1
   0 -11  -1    2.18    1.66   1
   0  11   1    0.00    3.13   1
  -1 -11  -1    0.11    0.29   1
   1  11   1    0.00    0.34   1
  -2 -11  -1    1.56    2.65   1
   2  11   1    0.00    3.31   1
  -3 -11  -1    0.60    3.28   1
  -5  12   1    0.00    1.29   1
   4 -12  -1   26.92    5.64   1
  -4  12   1   31.65    6.19   1
  -3  12   1    0.00    1.85   1
   2 -12  -1   25.67    5.33   1
  -2  12   1   25.17    5.32   1
   1 -12  -1   28.69    4.03   1
  -1  12   1   32.29    6.34   1
   0 -12  -1   15.30    3.21   1
   0  12   1   17.57    4.90   1
  -1 -12  -1    0.02    1.95   1
   1  12   1    0.27    2.70   1
  -2 -12  -1    0.00    2.69   1
   2  12   1    1.07    2.35   1
   2 -13  -1    2.25    2.22   1
  -2  13   1    1.34    4.75   1
   1 -13  -1    3.58    2.16   1
  -1  13   1    0.58    4.47   1
   1  13  -2   21.50    5.73   1
  -1 -13   2   19.03    3.24   1
   0  13  -2    5.11    4.09   1
   0 -13   2    2.54    2.63   1
  -1  13  -2   12.12    4.32   1
   1 -13   2   15.48    4.72   1
  -2  13  -2   10.29    4.53   1
   2 -13   2   16.75    4.60   1
  -3  13  -2    8.16    3.94   1
   3 -13   2   8.880    3.79   1
   3  12  -2    0.00    0.53   1
  -3 -12   2    0.05    0.56   1
   2  12  -2    0.98    2.19   1
  -2 -12   2    1.71    2.53   1
   1  12  -2    5.71    4.06   1
  -1 -12   2    5.26    5.67   1
   0  12  -2    4.68    3.53   1
   0 -12   2    0.00    4.61   1
  -1  12  -2    0.00    3.18   1
   1 -12   2    0.62    2.59   1
  -2  12  -2    2.42    3.61   1
   2 -12   2    1.25    2.01   1
  -3  12  -2    0.37    0.37   1
   3 -12   2    0.00    0.41   1
  -4  12  -2    0.06    0.32   1
  -5  12  -2    0.40    2.79   1
   4  11  -2    4.80    2.74   1
  -4 -11   2    8.09    3.40   1
   3  11  -2    0.12    0.21   1
  -3 -11   2    0.00    0.25   1
   2  11  -2    0.84    2.20   1
  -2 -11   2    0.34    1.03   1
   1  11  -2    0.00    3.22   1
  -1 -11   2    1.40    1.42   1
   0  11  -2    0.29    0.36   1
   0 -11   2    0.10    0.18   1
  -1  11  -2    0.00    1.01   1
  -2  11  -2    0.00    0.55   1
   2 -11   2    0.00    0.75   1
  -3  11  -2    0.00    0.92   1
  -4  11  -2    5.10    3.07   1
  -5  11  -2    1.76    1.73   1
  -6  11  -2    0.00    2.82   1
   5  10  -2    1.22    1.70   1
  -5 -10   2    5.94    3.04   1
   4  10  -2    6.15    1.88   1
  -4 -10   2    6.51    3.60   1
   3  10  -2   83.74    8.13   1
  -3 -10   2  97.274   9.680   1
   2  10  -2   58.51    6.48   1
  -2 -10   2   58.46    6.62   1
   1  10  -2    0.00    2.03   1
  -1 -10   2    0.97    1.29   1
   0  10  -2  161.94   24.48   1
   0 -10   2  145.81   16.49   1
  -1  10  -2   20.43    3.20   1
   1 -10   2   34.86    3.57   1
  -2  10  -2    9.10    2.63   1
   2 -10   2   16.10    4.48   1
  -3  10  -2   39.12    6.71   1
   3 -10   2   43.31    7.26   1
  -4  10  -2    1.11    0.80   1
   4 -10   2    0.00    1.00   1
  -5  10  -2    3.38    2.59   1
   5 -10   2    0.26    1.19   1
  -6  10  -2    0.00    1.70   1
   6 -10   2    1.67    1.57   1
  -7  10  -2    0.22    0.41   1
   7 -10   2    0.37    0.34   1
   6   9  -2    0.11    0.18   1
   5   9  -2    0.07    1.19   1
  -5  -9   2    1.91    3.29   1
   4   9  -2   11.42    2.02   1
  -4  -9   2   15.74    2.41   1
   3   9  -2    3.39    1.45   1
  -3  -9   2    6.92    1.84   1
   2   9  -2    0.75    0.48   1
  -2  -9   2    0.84    0.59   1
   1   9  -2    2.65    1.06   1
  -1  -9   2    3.47    1.16   1
   0   9  -2    0.00    2.71   1
   0  -9   2    5.77    1.81   1
  -1   9  -2    0.00    0.42   1
   1  -9   2    0.42    0.38   1
  -2   9  -2    6.74    2.70   1
   2  -9   2   19.28    2.39   1
  -3   9  -2    0.60    2.44   1
   3  -9   2    0.78    1.83   1
  -4   9  -2    0.47    2.92   1
   4  -9   2    3.59    0.99   1
  -5   9  -2    2.90    3.35   1
   5  -9   2    6.19    1.59   1
  -6   9  -2    0.00    0.24   1
   6  -9   2    0.12    0.13   1
  -7   9  -2    0.00    3.66   1
   7  -9   2    0.65    1.77   1
   6   8  -2    6.73    3.08   1
  -6  -8   2    4.66    5.77   1
   5   8  -2   14.08    2.15   1
  -5  -8   2    8.26    6.55   1
   4   8  -2    0.00    0.20   1
  -4  -8   2    0.00    0.45   1
   3   8  -2    0.21    1.60   1
  -3  -8   2    1.75    2.04   1
   2   8  -2    0.39    0.80   1
  -2  -8   2    0.16    1.54   1
   1   8  -2    0.31    0.34   1
  -1  -8   2    0.00    0.58   1
   0   8  -2    1.72    1.27   1
   0  -8   2    2.30    1.65   1
  -1   8  -2   15.66    1.76   1
   1  -8   2   19.00    2.50   1
  -2   8  -2    4.72    1.84   1
   2  -8   2    1.03    1.65   1
  -3   8  -2    5.88    1.38   1
   3  -8   2    4.37    1.06   1
  -4   8  -2    0.00    0.91   1
   4  -8   2    0.92    0.55   1
  -5   8  -2    5.09    2.32   1
   5  -8   2    4.24    1.24   1
  -6   8  -2    0.80    0.90   1
   6  -8   2    0.33    0.57   1
  -7   8  -2    0.00    1.37   1
   7  -8   2    1.39    1.37   1
  -8   8  -2    0.42    2.00   1
   8  -8   2    0.76    2.08   1
   7   7  -2   10.30    2.36   1
   6   7  -2    7.46    1.97   1
  -6  -7   2    6.94    4.34   1
   5   7  -2   20.22    2.45   1
  -5  -7   2   20.25    4.24   1
   4   7  -2    0.00    0.21   1
  -4  -7   2    0.00    0.41   1
   3   7  -2   63.63    7.39   1
  -3  -7   2   73.36    7.35   1
   2   7  -2   60.99    6.91   1
  -2  -7   2   68.76    6.92   1
   1   7  -2  283.32   30.25   1
  -1  -7   2  296.69   23.95   1
   0   7  -2   72.03    6.54   1
   0  -7   2   75.59    6.23   1
  -1   7  -2   24.74    2.50   1
   1  -7   2   29.61    2.59   1
  -2   7  -2  145.08   11.50   1
   2  -7   2  140.83    9.59   1
  -3   7  -2    2.34    0.95   1
   3  -7   2    2.90    0.77   1
  -4   7  -2   19.42    3.15   1
   4  -7   2   19.14    1.94   1
  -5   7  -2   86.54    9.27   1
   5  -7   2   88.42    7.70   1
  -6   7  -2    5.69    1.75   1
   6  -7   2    5.96    1.53   1
  -7   7  -2   16.66    2.30   1
   7  -7   2   13.48    2.79   1
  -8   7  -2   15.69    3.15   1
   8  -7   2   17.09    3.06   1
   7   6  -2   75.49   11.27   1
  -7  -6   2   65.86    6.71   1
   6   6  -2   29.92    5.63   1
  -6  -6   2   25.22    3.51   1
   5   6  -2   59.44    6.91   1
  -5  -6   2   64.02    7.17   1
   4   6  -2    2.95    1.38   1
  -4  -6   2    0.38    2.30   1
   3   6  -2    5.73    1.36   1
  -3  -6   2    5.11    1.61   1
   2   6  -2   31.25    3.52   1
  -2  -6   2   24.83    3.28   1
   1   6  -2   95.12    8.31   1
  -1  -6   2  104.62    8.90   1
   0   6  -2   29.65    2.96   1
   0  -6   2   46.05    3.26   1
  -1   6  -2    9.17    1.27   1
   1  -6   2    6.56    1.22   1
  -2   6  -2   11.48    1.55   1
   2  -6   2    8.59    1.14   1
  -3   6  -2    1.27    0.80   1
   3  -6   2    1.38    0.72   1
  -4   6  -2    1.74    0.97   1
   4  -6   2    2.02    0.99   1
  -5   6  -2    7.02    1.77   1
   5  -6   2    9.97    1.60   1
  -6   6  -2    0.31    1.36   1
   6  -6   2    0.08    2.27   1
  -7   6  -2    1.69    1.53   1
   7  -6   2    2.06    1.91   1
  -8   6  -2    0.15    1.00   1
   8  -6   2    0.40    1.46   1
   8   5  -2    4.19    2.18   1
  -8  -5   2    2.98    4.09   1
   7   5  -2    0.03    0.26   1
  -7  -5   2    0.18    0.18   1
   6   5  -2    3.50    2.66   1
  -6  -5   2    5.07    1.77   1
   5   5  -2   15.92    2.50   1
  -5  -5   2   19.62    2.44   1
   4   5  -2  173.23   18.09   1
  -4  -5   2  170.96   15.20   1
   3   5  -2    1.66    0.77   1
  -3  -5   2    2.89    0.72   1
   2   5  -2    5.11    0.62   1
  -2  -5   2    2.06    0.72   1
   1   5  -2  295.91   17.69   1
  -1  -5   2  293.71   19.38   1
   0   5  -2   29.15    1.98   1
   0  -5   2   25.82    2.50   1
  -1   5  -2   62.64    4.21   1
   1  -5   2   61.75    3.83   1
  -2   5  -2   25.31    2.48   1
   2  -5   2   27.16    2.05   1
  -3   5  -2    0.14    0.21   1
   3  -5   2    0.26    0.19   1
  -4   5  -2    3.31    1.11   1
   4  -5   2    4.48    0.76   1
  -5   5  -2    5.95    1.10   1
   5  -5   2    7.14    1.08   1
  -6   5  -2   13.82    1.77   1
   6  -5   2   15.72    2.14   1
  -7   5  -2    0.14    0.35   1
   7  -5   2    0.05    0.29   1
  -8   5  -2    2.70    1.85   1
   8  -5   2    0.02    1.69   1
   8   4  -2    0.10    1.19   1
  -8  -4   2    1.15    1.22   1
   7   4  -2    0.05    1.44   1
  -7  -4   2    0.60    0.73   1
   6   4  -2   42.23    6.86   1
  -6  -4   2   51.25    4.93   1
   5   4  -2  206.99   27.86   1
  -5  -4   2  185.34   16.87   1
   4   4  -2   14.22    2.47   1
  -4  -4   2   19.54    2.06   1
   3   4  -2  377.08   31.76   1
  -3  -4   2  363.49   32.60   1
   2   4  -2    3.95    0.55   1
  -2  -4   2    6.25    1.02   1
   1   4  -2  126.79    7.74   1
  -1  -4   2  128.67    8.40   1
   0   4  -2   9.922    0.79   1
   0  -4   2    9.57    1.00   1
  -1   4  -2    1.52    0.54   1
   1  -4   2    2.24    0.49   1
  -2   4  -2   51.37    3.47   1
   2  -4   2   50.15    3.28   1
  -3   4  -2  324.19   21.59   1
   3  -4   2  306.69   19.04   1
  -4   4  -2  449.13   33.94   1
   4  -4   2  436.92   26.82   1
  -5   4  -2   29.44    2.24   1
   5  -4   2   28.61    3.09   1
  -6   4  -2  111.91    8.35   1
   6  -4   2  106.59    9.99   1
  -7   4  -2  122.28   10.61   1
   7  -4   2  131.68   11.67   1
  -8   4  -2    1.00    1.37   1
   8  -4   2    2.01    2.00   1
  -9   4  -2    0.13    0.37   1
   9  -4   2    0.23    0.35   1
   8   3  -2   50.54    5.51   1
  -8  -3   2   54.26    7.11   1
   7   3  -2  114.66   16.44   1
  -7  -3   2  112.40   10.32   1
   6   3  -2  278.79   40.53   1
  -6  -3   2  288.41   21.98   1
   5   3  -2  481.87   68.80   1
  -5  -3   2  472.41   41.78   1
   4   3  -2  118.75   12.97   1
  -4  -3   2  123.71   10.94   1
   3   3  -2   71.22    4.77   1
  -3  -3   2   71.26    6.45   1
   2   3  -2  97.142    5.53   1
  -2  -3   2  97.229    7.47   1
   1   3  -2  226.22   11.79   1
  -1  -3   2  223.06   16.55   1
   0   3  -2   37.39    2.39   1
   0  -3   2   34.98    2.74   1
  -1   3  -2   77.08    5.11   1
   1  -3   2   74.85    4.66   1
  -2   3  -2    4.42    0.61   1
   2  -3   2    3.24    0.48   1
  -3   3  -2   11.22    0.93   1
   3  -3   2   11.46    0.91   1
  -4   3  -2    0.00    0.09   1
   4  -3   2    0.14    0.12   1
  -5   3  -2    3.10    0.81   1
   5  -3   2    3.16    0.96   1
  -6   3  -2    0.74    0.98   1
   6  -3   2    1.82    0.99   1
  -7   3  -2    0.00    0.91   1
   7  -3   2    1.04    0.66   1
  -8   3  -2    0.00    1.32   1
   8  -3   2    0.05    0.97   1
  -9   3  -2    0.47    1.62   1
   9  -3   2    1.10    1.06   1
   9   2  -2    0.00    1.25   1
  -9  -2   2    0.00    4.20   1
   8   2  -2    1.83    1.96   1
  -8  -2   2    3.73    1.97   1
   7   2  -2    0.98    1.23   1
  -7  -2   2    0.23    1.31   1
   6   2  -2   57.39    6.47   1
  -6  -2   2   59.04    4.73   1
   5   2  -2    1.98    1.25   1
  -5  -2   2    0.94    0.66   1
   4   2  -2  241.26   18.05   1
  -4  -2   2  231.94   16.29   1
   3   2  -2   68.33    3.73   1
  -3  -2   2   67.22    5.87   1
   2   2  -2   15.62    0.99   1
  -2  -2   2   14.61    1.16   1
   1   2  -2   93.85    6.38   1
  -1  -2   2   94.75    6.38   1
   0   2  -2   13.94    0.79   1
   0  -2   2   13.76    0.85   1
  -1   2  -2   16.71    1.17   1
   1  -2   2   13.61    1.20   1
  -2   2  -2    6.45    0.57   1
   2  -2   2    6.44    0.62   1
  -3   2  -2    0.14    0.22   1
   3  -2   2    0.00    0.26   1
  -4   2  -2   45.97    3.54   1
   4  -2   2   42.32    3.05   1
  -5   2  -2    3.48    1.43   1
   5  -2   2    4.73    1.32   1
  -6   2  -2    1.91    1.40   1
   6  -2   2    1.32    1.42   1
  -7   2  -2    1.41    2.17   1
   7  -2   2    7.78    1.97   1
  -8   2  -2    5.32    2.34   1
   8  -2   2    6.49    2.12   1
  -9   2  -2    0.17    0.48   1
   9  -2   2    0.34    0.58   1
   9   1  -2    1.47    1.35   1
  -9  -1   2    0.00    5.36   1
   8   1  -2    0.00    1.41   1
  -8  -1   2    0.05    1.20   1
   7   1  -2    0.00    0.70   1
  -7  -1   2    0.03    0.62   1
   6   1  -2   31.33    4.07   1
  -6  -1   2   30.35    2.79   1
   5   1  -2    0.09    0.25   1
  -5  -1   2    0.09    0.21   1
   4   1  -2   23.21    2.31   1
  -4  -1   2   26.98    2.18   1
   3   1  -2  866.85   48.74   1
  -3  -1   2  853.02   53.60   1
   2   1  -2  140.93    7.49   1
  -2  -1   2  136.21    8.67   1
   1   1  -2 1401.00   93.59   1
  -1  -1   2 1399.82  108.24   1
   0   1  -2 1469.71   89.15   1
   0  -1   2 1460.39   87.47   1
  -1   1  -2  930.01   51.39   1
   1  -1   2  915.41   45.66   1
  -2   1  -2  364.15   20.39   1
   2  -1   2  364.44   20.58   1
  -3   1  -2 1475.24   82.66   1
   3  -1   2 1470.72   82.66   1
  -4   1  -2  341.30   26.19   1
   4  -1   2  324.03   23.91   1
  -5   1  -2  330.17   26.06   1
   5  -1   2  332.22   24.05   1
  -6   1  -2  182.79   15.05   1
   6  -1   2  186.59   13.82   1
  -7   1  -2    0.10    1.72   1
   7  -1   2    2.74    1.30   1
  -8   1  -2   17.68    2.62   1
   8  -1   2   20.11    2.85   1
  -9   1  -2   32.93    4.92   1
   9  -1   2   25.02    4.76   1
   9   0  -2    0.00    1.11   1
  -9   0   2    0.00    3.94   1
   8   0  -2   16.17    2.71   1
  -8   0   2   17.82    3.34   1
   7   0  -2  200.75   17.20   1
  -7   0   2  204.99   18.65   1
   6   0  -2  128.60   10.29   1
  -6   0   2  134.33   10.52   1
   5   0  -2  268.26   22.91   1
  -5   0   2  255.50   23.70   1
   4   0  -2    0.43    0.13   1
  -4   0   2    0.53    0.13   1
   3   0  -2 1033.58   58.44   1
  -3   0   2 1015.15   58.56   1
   2   0  -2 1441.25   81.56   1
  -2   0   2 1419.76   88.10   1
   1   0  -2    4.58    0.59   1
  -1   0   2    4.13    0.50   1
   0   0  -2  803.46   45.00   1
   0   0   2  787.62   42.09   1
  -1   0  -2    3.70    0.61   1
   1   0   2    3.74    0.50   1
  -2   0  -2   27.84    1.85   1
   2   0   2   27.37    1.85   1
  -3   0  -2    6.30    1.27   1
   3   0   2    9.27    0.78   1
  -4   0  -2   40.25    3.83   1
   4   0   2   39.99    3.50   1
  -5   0  -2    0.63    1.22   1
   5   0   2    0.94    1.01   1
  -6   0  -2    0.37    0.38   1
   6   0   2    0.73    0.43   1
  -7   0  -2    0.08    0.61   1
   7   0   2    0.09    0.62   1
  -8   0  -2    0.56    1.19   1
   8   0   2    0.76    1.40   1
  -9   0  -2    0.00    0.18   1
   9   0   2    0.00    0.32   1
   9  -1  -2   10.33    2.24   1
  -9   1   2   11.68    7.29   1
   8  -1  -2    0.00    0.69   1
  -8   1   2    0.00    0.89   1
   7  -1  -2    1.08    1.30   1
  -7   1   2    1.73    1.42   1
   6  -1  -2    0.11    0.44   1
  -6   1   2    0.00    0.45   1
   5  -1  -2    8.94    1.29   1
  -5   1   2    8.15    1.05   1
   4  -1  -2  104.86    8.37   1
  -4   1   2  110.95    7.11   1
   3  -1  -2   67.35    3.93   1
  -3   1   2   66.02    3.88   1
   2  -1  -2  427.66   24.49   1
  -2   1   2  431.20   24.49   1
   1  -1  -2    2.54    0.34   1
  -1   1   2    2.34    0.31   1
   0  -1  -2  774.73   44.07   1
   0   1   2  790.14   44.07   1
  -1  -1  -2   49.19    3.37   1
   1   1   2   51.18    3.17   1
  -2  -1  -2   10.14    0.89   1
   2   1   2   9.943    1.02   1
  -3  -1  -2  115.64    7.88   1
   3   1   2  112.45    7.61   1
  -4  -1  -2    1.47    0.71   1
   4   1   2    0.98    0.58   1
  -5  -1  -2    0.13    0.14   1
   5   1   2    0.10    0.12   1
  -6  -1  -2    0.65    1.21   1
   6   1   2    1.37    1.18   1
  -7  -1  -2    5.61    2.38   1
   7   1   2    8.05    1.79   1
   8   1   2    0.01    0.25   1
   9  -2  -2    0.49    2.06   1
  -9   2   2    0.00    4.26   1
   8  -2  -2    3.72    1.84   1
  -8   2   2    1.99    1.28   1
   7  -2  -2    0.08    1.30   1
  -7   2   2    0.25    0.83   1
   6  -2  -2    0.16    0.67   1
  -6   2   2    0.70    0.55   1
   5  -2  -2    9.12    1.53   1
  -5   2   2   10.79    1.07   1
   4  -2  -2   28.22    2.69   1
  -4   2   2   27.57    1.96   1
   3  -2  -2   13.48    1.00   1
  -3   2   2   12.01    1.03   1
   2  -2  -2   12.38    0.92   1
  -2   2   2   13.04    0.86   1
   1  -2  -2 5010.01  282.08   1
  -1   2   2 5146.15  265.43   1
   0  -2  -2  243.80   15.45   1
   0   2   2  260.75   14.33   1
  -1  -2  -2  135.84    8.66   1
   1   2   2  138.15    7.67   1
  -2  -2  -2    8.53    1.01   1
   2   2   2   10.50    0.87   1
  -3  -2  -2   80.29    6.27   1
   3   2   2   74.99    7.25   1
  -4  -2  -2    0.24    0.48   1
   4   2   2    0.00    0.69   1
  -5  -2  -2   96.06    7.02   1
   5   2   2   92.63    7.46   1
  -6  -2  -2    8.09    7.19   1
   6   2   2    4.96    1.54   1
  -7  -2  -2   41.36    5.87   1
   7   2   2   42.14    4.12   1
  -8  -2  -2   26.31    3.89   1
   8   2   2   30.64    5.47   1
   9  -3  -2   10.27    2.15   1
  -9   3   2   13.07   8.912   1
   8  -3  -2   12.76    2.20   1
  -8   3   2   13.61    2.26   1
   7  -3  -2    0.30    0.45   1
  -7   3   2    0.35    0.42   1
   6  -3  -2   26.59    2.71   1
  -6   3   2   22.16    2.14   1
   5  -3  -2   45.23    4.01   1
  -5   3   2   46.69    3.05   1
   4  -3  -2   35.93    2.92   1
  -4   3   2   37.50    2.27   1
   3  -3  -2  155.64   10.74   1
  -3   3   2  162.45    8.68   1
   2  -3  -2   42.02    2.33   1
  -2   3   2   42.71    2.55   1
   1  -3  -2 5269.13  321.73   1
  -1   3   2 5475.80  281.11   1
   0  -3  -2   17.63    1.39   1
   0   3   2   20.72    1.39   1
  -1  -3  -2  215.45   14.47   1
   1   3   2  219.08   11.57   1
  -2  -3  -2   15.18    1.37   1
   2   3   2   15.81    1.37   1
  -3  -3  -2   79.42    6.32   1
   3   3   2   78.92    6.31   1
  -4  -3  -2   41.32    3.51   1
   4   3   2   42.47    4.19   1
  -5  -3  -2    8.63    1.66   1
   5   3   2   15.41    2.33   1
  -6  -3  -2    3.11    1.71   1
   6   3   2    5.83    1.38   1
   7   3   2    6.18    2.57   1
  -8  -3  -2    0.00    0.43   1
   8   3   2    0.40    0.25   1
   9  -4  -2    0.67    2.50   1
  -9   4   2    3.60    2.17   1
   8  -4  -2    0.00    0.68   1
  -8   4   2    0.35    0.48   1
   7  -4  -2    1.98    1.80   1
  -7   4   2    6.27    1.32   1
   6  -4  -2   25.56    2.83   1
  -6   4   2   25.19    2.38   1
   5  -4  -2    7.46    1.52   1
  -5   4   2    8.82    1.57   1
   4  -4  -2    7.31    1.26   1
  -4   4   2    8.25    1.07   1
   3  -4  -2    0.00    0.09   1
  -3   4   2    0.00    0.10   1
   2  -4  -2  139.59    10.1   1
  -2   4   2  155.19    8.60   1
   1  -4  -2   50.42    3.80   1
  -1   4   2   54.52    3.01   1
   0  -4  -2  350.32   24.19   1
   0   4   2  386.96   20.80   1
  -1  -4  -2    4.09    0.88   1
   1   4   2    4.14    0.86   1
  -2  -4  -2   31.17    3.04   1
   2   4   2   32.32    2.52   1
  -3  -4  -2   11.55    1.77   1
   3   4   2   11.05    1.50   1
  -4  -4  -2    2.63    1.40   1
   4   4   2    3.01    1.18   1
  -5  -4  -2    0.00    0.56   1
   5   4   2    0.72    0.80   1
  -6  -4  -2    1.00    1.48   1
   6   4   2    5.73    2.09   1
  -7  -4  -2    6.04    2.58   1
   7   4   2    3.55    3.67   1
  -8  -4  -2    1.40    2.10   1
   8   4   2    1.19    4.12   1
   9  -5  -2    0.17    0.20   1
  -9   5   2    0.00    0.32   1
   8  -5  -2    2.03    1.34   1
  -8   5   2    0.88    1.31   1
   7  -5  -2    0.17    0.39   1
  -7   5   2    0.29    0.42   1
   6  -5  -2    1.15    1.06   1
  -6   5   2    1.25    1.21   1
   5  -5  -2    1.03    0.36   1
  -5   5   2    1.16    0.40   1
   4  -5  -2    0.66    0.48   1
  -4   5   2    0.65    0.51   1
   3  -5  -2    0.13    0.28   1
  -3   5   2    0.00    0.30   1
   2  -5  -2  108.74    8.17   1
  -2   5   2  103.83    8.48   1
   1  -5  -2   35.58    2.97   1
  -1   5   2   36.19    2.62   1
   0  -5  -2    0.60    0.21   1
   0   5   2    0.89    0.26   1
  -1  -5  -2  322.20   21.28   1
   1   5   2  316.17   23.89   1
  -2  -5  -2    0.06    0.20   1
   2   5   2    0.09    0.20   1
  -3  -5  -2  261.84   28.86   1
   3   5   2  279.90   27.97   1
  -4  -5  -2   51.79    5.15   1
   4   5   2   37.92    4.42   1
  -5  -5  -2   83.96   13.27   1
   5   5   2   19.13    6.10   1
  -6  -5  -2    0.00    0.55   1
   6   5   2    0.37    0.32   1
  -7  -5  -2    4.06    4.55   1
   7   5   2   9.524    3.02   1
   8  -6  -2   37.51    4.39   1
  -8   6   2   37.32    3.62   1
   7  -6  -2   21.22    3.05   1
  -7   6   2   23.85    2.56   1
   6  -6  -2   34.45    3.91   1
  -6   6   2   39.39    3.62   1
   5  -6  -2   33.12    3.46   1
  -5   6   2   33.75    3.27   1
   4  -6  -2    0.54    1.13   1
  -4   6   2    2.64    1.09   1
   3  -6  -2    0.08    1.12   1
  -3   6   2    0.00    1.10   1
   2  -6  -2 1310.28  109.49   1
  -2   6   2 1336.73  114.65   1
   1  -6  -2  161.74   10.83   1
  -1   6   2  161.68   12.53   1
   0  -6  -2   35.73    3.11   1
   0   6   2   44.52    3.58   1
  -1  -6  -2  459.05   36.90   1
   1   6   2  436.73   33.25   1
  -2  -6  -2    8.35    1.68   1
   2   6   2   11.70    1.88   1
  -3  -6  -2    1.59    1.76   1
   3   6   2    2.04    1.56   1
  -4  -6  -2    7.33    2.29   1
   4   6   2    5.08    2.20   1
  -5  -6  -2    1.22    2.52   1
   5   6   2    0.93    2.38   1
  -6  -6  -2    4.01    2.66   1
   6   6   2    4.38    2.00   1
  -7  -6  -2    0.78    3.25   1
   7   6   2    1.38    2.20   1
   8  -7  -2    2.25    1.56   1
  -8   7   2    0.74    1.73   1
   7  -7  -2    3.03    1.48   1
  -7   7   2    1.74    2.83   1
   6  -7  -2    1.90    1.11   1
  -6   7   2    0.73    1.27   1
   5  -7  -2   12.32    1.60   1
  -5   7   2    7.88    1.61   1
   4  -7  -2    1.07    1.42   1
  -4   7   2    0.51    0.88   1
   3  -7  -2    0.00    1.08   1
  -3   7   2    0.03    0.81   1
   2  -7  -2   19.53    2.00   1
  -2   7   2   20.77    2.38   1
   1  -7  -2    2.06    0.87   1
  -1   7   2    3.88    1.02   1
   0  -7  -2    9.09    1.21   1
   0   7   2    7.41    1.81   1
  -1  -7  -2   11.78    1.75   1
   1   7   2   11.49    1.72   1
  -2  -7  -2  112.03   12.35   1
   2   7   2  113.99   11.79   1
  -3  -7  -2    0.00    0.20   1
   3   7   2    0.01    0.15   1
  -4  -7  -2    5.89    2.81   1
   4   7   2   12.46    2.09   1
  -5  -7  -2    1.28    1.87   1
   5   7   2    0.31    0.98   1
  -6  -7  -2    0.37    5.03   1
   6   7   2    0.49    1.27   1
   8  -8  -2    0.49    0.55   1
  -8   8   2    0.00    0.71   1
   7  -8  -2    0.00    1.61   1
  -7   8   2    0.00    1.20   1
   6  -8  -2    0.34    0.47   1
  -6   8   2    0.64    0.41   1
   5  -8  -2    0.28    0.27   1
  -5   8   2    0.04    0.16   1
   4  -8  -2    7.95    2.27   1
  -4   8   2    4.79    1.46   1
   3  -8  -2    7.32    2.06   1
  -3   8   2    1.48    1.92   1
   2  -8  -2   33.65    3.10   1
  -2   8   2   30.16    3.59   1
   1  -8  -2   17.47    2.08   1
  -1   8   2   10.42    1.92   1
   0  -8  -2    0.19    1.18   1
   0   8   2    0.56    1.15   1
  -1  -8  -2    2.76    1.53   1
   1   8   2    2.54    1.82   1
  -2  -8  -2   26.06    6.43   1
   2   8   2   38.48    4.29   1
  -3  -8  -2  122.34   19.04   1
   3   8   2  129.00   13.54   1
  -4  -8  -2   77.80   11.86   1
   4   8   2   76.87    8.71   1
  -5  -8  -2   26.49    4.88   1
   5   8   2   22.95    4.19   1
  -6  -8  -2    7.35    4.06   1
   6   8   2    4.67    3.80   1
   7  -9  -2    2.79    2.75   1
  -7   9   2   9.446    4.09   1
   6  -9  -2   67.24   9.508   1
  -6   9   2  102.12   16.01   1
   5  -9  -2    7.60    2.44   1
  -5   9   2    2.30    1.25   1
   4  -9  -2    0.00    1.79   1
  -4   9   2    0.56    1.35   1
   3  -9  -2   33.23    3.79   1
  -3   9   2   40.93    4.39   1
   2  -9  -2    1.03    1.20   1
  -2   9   2    4.07    1.57   1
   1  -9  -2    0.67    0.81   1
  -1   9   2    0.61    0.92   1
   0  -9  -2   33.94    2.62   1
   0   9   2   23.75    4.37   1
  -1  -9  -2   63.74    6.80   1
   1   9   2   67.03   10.27   1
  -2  -9  -2    0.00    4.07   1
   2   9   2    5.44    2.50   1
  -3  -9  -2  114.20   16.24   1
   3   9   2  106.22   16.91   1
  -4  -9  -2   46.92    8.41   1
   4   9   2   40.75    7.11   1
  -5  -9  -2   9.331    6.67   1
   5   9   2    1.39    1.46   1
   7 -10  -2    0.00    2.70   1
  -7  10   2    2.54    2.32   1
   6 -10  -2    0.00    2.88   1
  -6  10   2    1.31    2.77   1
   5 -10  -2    0.00    1.84   1
  -5  10   2    1.96    2.33   1
   4 -10  -2    0.76    1.82   1
  -4  10   2    0.08    1.56   1
   3 -10  -2    6.24    3.91   1
  -3  10   2   9.331    2.07   1
   2 -10  -2    0.08    0.21   1
  -2  10   2    0.09    0.16   1
   1 -10  -2    4.52    1.86   1
  -1  10   2    1.91    1.46   1
   0 -10  -2    0.46    1.04   1
   0  10   2    0.00    1.64   1
  -1 -10  -2    1.71    1.76   1
   1  10   2    2.88    3.04   1
  -2 -10  -2    4.04    5.45   1
   2  10   2    3.89    3.71   1
  -3 -10  -2    2.12    5.76   1
   3  10   2    4.77    4.03   1
  -4 -10  -2    4.62    3.19   1
   4  10   2    0.00    3.48   1
   6 -11  -2    0.01    0.66   1
  -6  11   2    0.22    1.12   1
   5 -11  -2    0.00    0.73   1
  -5  11   2    1.84    1.35   1
   4 -11  -2    0.00    0.20   1
  -4  11   2    0.15    0.38   1
   3 -11  -2    0.00    1.35   1
  -3  11   2    0.00    1.86   1
   2 -11  -2    2.28    1.72   1
  -2  11   2    1.27    1.34   1
   1 -11  -2    2.36    1.79   1
  -1  11   2    0.37    2.06   1
   0 -11  -2    0.29    0.45   1
   0  11   2    0.00    0.66   1
  -1 -11  -2    3.99    3.57   1
   1  11   2    1.19    2.50   1
  -2 -11  -2    1.16    3.29   1
   2  11   2    1.84    2.61   1
  -3 -11  -2   19.38    6.45   1
   3  11   2   13.09    3.90   1
  -4  12   2    4.55    2.99   1
   3 -12  -2    0.00    1.79   1
  -3  12   2    0.00    1.73   1
   2 -12  -2    0.00    4.54   1
  -2  12   2    0.51    2.46   1
   1 -12  -2   18.02    2.58   1
  -1  12   2   11.96    4.57   1
   0 -12  -2    8.66    3.89   1
   0  12   2   12.48    4.73   1
  -1 -12  -2    0.25    0.37   1
   1  12   2    0.00    0.42   1
   1  13  -3   17.01    3.38   1
  -1 -13   3   24.14    3.94   1
   0  13  -3    0.38    0.42   1
   0 -13   3    0.01    0.34   1
  -1  13  -3    0.33    0.39   1
   1 -13   3    0.18    0.23   1
  -2  13  -3    1.31    1.07   1
   2 -13   3    0.00    0.66   1
  -3  13  -3   10.44    3.70   1
   3 -13   3   10.75    2.44   1
   3  12  -3    1.12    1.92   1
  -3 -12   3    0.97    2.35   1
   2  12  -3    1.53    3.19   1
  -2 -12   3    1.56    2.29   1
   1  12  -3    0.00    1.92   1
  -1 -12   3    0.86    1.06   1
   0  12  -3    0.00    1.08   1
   0 -12   3    0.00    1.40   1
  -1  12  -3    2.26    3.51   1
   1 -12   3    0.46    4.33   1
  -2  12  -3    0.12    2.62   1
   2 -12   3    1.61    2.57   1
  -3  12  -3    0.00    2.06   1
   3 -12   3    3.42    2.33   1
  -4  12  -3    0.30    0.48   1
   4 -12   3    0.14    0.88   1
  -5  12  -3    0.13    0.63   1
   5 -12   3    0.00    1.22   1
   4  11  -3    0.38    1.09   1
  -4 -11   3    1.18    2.17   1
   3  11  -3    0.03    0.15   1
  -3 -11   3    0.46    0.30   1
   2  11  -3    0.42    1.33   1
  -2 -11   3    4.02    2.34   1
   1  11  -3    0.00    0.70   1
  -1 -11   3    0.76    0.97   1
   0  11  -3    9.32    3.62   1
   0 -11   3   9.450    1.92   1
  -1  11  -3    0.00    1.58   1
  -2  11  -3    0.00    1.96   1
   2 -11   3    0.68    1.04   1
  -3  11  -3    1.05    1.96   1
  -4  11  -3   16.86    3.94   1
  -5  11  -3    0.36    1.51   1
  -6  11  -3   16.15    4.30   1
   5  10  -3    5.79    2.06   1
  -5 -10   3   16.02    3.62   1
   4  10  -3    0.18    0.60   1
  -4 -10   3    1.95    0.79   1
   3  10  -3  131.97   11.90   1
  -3 -10   3  140.36   14.39   1
   2  10  -3  131.10   11.84   1
  -2 -10   3  140.06   14.22   1
   1  10  -3    5.45    1.90   1
  -1 -10   3   11.54    1.62   1
   0  10  -3  170.11   25.65   1
   0 -10   3  164.75   13.73   1
  -1  10  -3   20.31    4.35   1
   1 -10   3   34.91    4.31   1
  -2  10  -3    0.28    0.26   1
   2 -10   3    0.02    0.19   1
  -3  10  -3    9.08    3.11   1
  -4  10  -3   18.73    4.26   1
   4 -10   3   11.28    2.44   1
  -5  10  -3    4.00    2.13   1
   5 -10   3    4.08    1.60   1
  -6  10  -3   31.40    6.00   1
   6 -10   3   30.11    4.37   1
  -7  10  -3    1.81    2.21   1
   7 -10   3    7.42    5.30   1
   6   9  -3    0.63    0.64   1
   5   9  -3   9.466    2.17   1
  -5  -9   3    6.77    5.18   1
   4   9  -3    1.30    1.43   1
  -4  -9   3    0.00    3.22   1
   3   9  -3    2.45    1.55   1
  -3  -9   3    4.54    2.70   1
   2   9  -3   14.00    2.03   1
  -2  -9   3   18.07    3.14   1
   1   9  -3   12.42    2.02   1
  -1  -9   3   9.791    2.16   1
   0   9  -3    0.80    0.44   1
   0  -9   3    0.00    0.65   1
  -1   9  -3    0.66    1.55   1
   1  -9   3    0.11    2.04   1
  -2   9  -3   13.80    2.93   1
   2  -9   3    9.55    2.21   1
  -3   9  -3   11.94    3.01   1
   3  -9   3   14.47    1.97   1
  -4   9  -3    0.00    0.37   1
   4  -9   3    0.12    0.21   1
  -5   9  -3    7.25    2.12   1
   5  -9   3    5.89    1.49   1
  -6   9  -3    0.48    1.11   1
   6  -9   3    0.46    0.72   1
  -7   9  -3    0.30    0.24   1
   7  -9   3    0.19    0.21   1
   7   8  -3    2.60    1.91   1
   6   8  -3    0.05    0.34   1
   5   8  -3    1.98    1.25   1
  -5  -8   3    1.29    2.15   1
   4   8  -3    1.91    1.05   1
  -4  -8   3    1.32    1.23   1
   3   8  -3    7.19    1.67   1
  -3  -8   3   13.06    2.12   1
   2   8  -3    0.09    0.40   1
  -2  -8   3    0.18    0.54   1
   1   8  -3    0.24    0.78   1
  -1  -8   3    0.12    0.83   1
   0   8  -3   22.38    2.15   1
   0  -8   3   30.50    2.55   1
  -1   8  -3    1.69    1.00   1
   1  -8   3    1.21    1.38   1
  -2   8  -3   64.39    5.73   1
   2  -8   3   68.95    4.85   1
  -3   8  -3    4.89    2.50   1
   3  -8   3    4.78    1.06   1
  -4   8  -3   21.13    4.17   1
   4  -8   3   26.29    2.45   1
  -5   8  -3    0.05    0.44   1
   5  -8   3    0.21    0.25   1
  -6   8  -3    4.34    2.13   1
   6  -8   3    4.99    1.37   1
  -7   8  -3    0.26    0.64   1
   7  -8   3    0.86    0.86   1
  -8   8  -3    0.16    0.55   1
   8  -8   3    0.00    0.53   1
   7   7  -3    2.11    2.05   1
  -7  -7   3    0.29    5.77   1
   6   7  -3    8.03    3.00   1
  -6  -7   3    7.02    3.49   1
   5   7  -3   29.86    3.40   1
  -5  -7   3   29.74    4.49   1
   4   7  -3   26.91    3.33   1
  -4  -7   3   42.46    4.88   1
   3   7  -3   56.49    5.52   1
  -3  -7   3   64.97    5.66   1
   2   7  -3   51.95    4.81   1
  -2  -7   3   54.43    5.90   1
   1   7  -3  572.69   42.78   1
  -1  -7   3  577.66   47.89   1
   0   7  -3  324.00   24.86   1
   0  -7   3  312.18   26.32   1
  -1   7  -3    2.92    0.69   1
   1  -7   3    2.36    1.09   1
  -2   7  -3  285.10   23.36   1
   2  -7   3  232.48   16.86   1
  -3   7  -3    5.64    1.71   1
   3  -7   3    3.73    0.96   1
  -4   7  -3   33.46    4.64   1
   4  -7   3   24.19    2.43   1
  -5   7  -3    0.00    1.25   1
   5  -7   3    0.48    0.89   1
  -6   7  -3    0.05    0.18   1
   6  -7   3    0.33    0.30   1
  -7   7  -3    0.34    0.69   1
   7  -7   3    0.01    0.65   1
  -8   7  -3    1.14    1.31   1
   8  -7   3    1.02    1.36   1
   8   6  -3   16.79    4.05   1
  -8  -6   3   13.70    7.91   1
   7   6  -3    7.03    3.04   1
  -7  -6   3    5.03    2.83   1
   6   6  -3    3.25    2.60   1
  -6  -6   3    2.92    1.76   1
   5   6  -3    3.03    1.79   1
  -5  -6   3    4.45    1.60   1
   4   6  -3   27.55    2.99   1
  -4  -6   3   39.35    4.34   1
   3   6  -3    0.04    0.10   1
  -3  -6   3    0.08    0.11   1
   2   6  -3    0.22    0.28   1
  -2  -6   3    0.49    0.34   1
   1   6  -3   17.09    1.48   1
  -1  -6   3   12.50    1.39   1
   0   6  -3   18.10    1.84   1
   0  -6   3   19.43    1.62   1
  -1   6  -3   32.47    2.96   1
   1  -6   3   35.02    2.58   1
  -2   6  -3    3.42    0.75   1
   2  -6   3    2.57    0.70   1
  -3   6  -3   14.42    2.35   1
   3  -6   3   12.97    1.51   1
  -4   6  -3    1.11    1.06   1
   4  -6   3    1.86    0.88   1
  -5   6  -3   25.20    2.54   1
   5  -6   3   24.60    2.43   1
  -6   6  -3    1.93    1.11   1
   6  -6   3    2.18    1.28   1
  -7   6  -3    0.86    1.64   1
   7  -6   3    0.89    1.52   1
  -8   6  -3    0.55    1.58   1
   8  -6   3    1.69    1.85   1
   8   5  -3    0.09    0.48   1
  -8  -5   3    0.00    0.68   1
   7   5  -3    4.49    3.88   1
  -7  -5   3    5.21    2.17   1
   6   5  -3   18.68    5.13   1
  -6  -5   3   21.94    2.76   1
   5   5  -3   36.52    4.66   1
  -5  -5   3   42.26    4.90   1
   4   5  -3    0.33    1.32   1
  -4  -5   3    3.47    2.36   1
   3   5  -3  139.32   12.74   1
  -3  -5   3  170.09   14.12   1
   2   5  -3    1.89    0.89   1
  -2  -5   3    3.78    1.12   1
   1   5  -3  211.19   14.52   1
  -1  -5   3  210.94   13.88   1
   0   5  -3    3.57    0.50   1
   0  -5   3    3.36    0.65   1
  -1   5  -3    0.23    0.36   1
   1  -5   3    0.39    0.31   1
  -2   5  -3    3.92    0.99   1
   2  -5   3    4.60    0.75   1
  -3   5  -3    6.52    1.36   1
   3  -5   3    7.68    1.10   1
  -4   5  -3   41.91    3.69   1
   4  -5   3   40.60    3.04   1
  -5   5  -3    0.35    0.86   1
   5  -5   3    2.18    1.03   1
  -6   5  -3   39.69    3.30   1
   6  -5   3   39.73    4.73   1
  -7   5  -3   10.13    1.84   1
   7  -5   3    3.92    2.72   1
  -8   5  -3    5.77    1.97   1
   8  -5   3   10.29    3.06   1
   8   4  -3   43.34    7.63   1
  -8  -4   3   41.79   9.822   1
   7   4  -3    9.22    3.39   1
  -7  -4   3   10.04    1.90   1
   6   4  -3  109.36   15.90   1
  -6  -4   3  108.62   9.915   1
   5   4  -3   10.06    1.79   1
  -5  -4   3   12.44    1.67   1
   4   4  -3    6.58    1.41   1
  -4  -4   3    5.79    1.18   1
   3   4  -3  122.74    8.94   1
  -3  -4   3  114.04   10.40   1
   2   4  -3  137.83    6.88   1
  -2  -4   3  137.84   11.71   1
   1   4  -3  131.57    7.38   1
  -1  -4   3  133.34   11.20   1
   0   4  -3  112.13    5.89   1
   0  -4   3  112.07    8.26   1
  -1   4  -3   81.63    4.71   1
   1  -4   3   79.89    5.46   1
  -2   4  -3  121.87    7.17   1
   2  -4   3  117.13    7.12   1
  -3   4  -3  236.75   18.34   1
   3  -4   3  241.76   14.62   1
  -4   4  -3  498.41   31.32   1
   4  -4   3  505.48   30.32   1
  -5   4  -3    2.15    0.80   1
   5  -4   3    2.58    1.04   1
  -6   4  -3   79.19    5.66   1
   6  -4   3   84.48    6.65   1
  -7   4  -3   22.05    4.34   1
   7  -4   3   33.05    4.15   1
  -8   4  -3    0.58    0.58   1
   8  -4   3    0.68    0.47   1
   9   3  -3    3.76    2.44   1
  -9  -3   3    2.95    7.99   1
   8   3  -3   16.71    3.00   1
  -8  -3   3   16.42    6.68   1
   7   3  -3   11.20    4.07   1
  -7  -3   3   14.58    2.23   1
   6   3  -3  193.90   23.14   1
  -6  -3   3  214.26   16.36   1
   5   3  -3  153.37   19.97   1
  -5  -3   3  131.50   12.23   1
   4   3  -3  216.65   15.66   1
  -4  -3   3  202.28   18.60   1
   3   3  -3   33.56    2.33   1
  -3  -3   3   31.46    5.08   1
   2   3  -3    0.87    0.32   1
  -2  -3   3    0.95    0.48   1
   1   3  -3   21.95    1.38   1
  -1  -3   3   18.61    1.54   1
   0   3  -3   13.81    0.82   1
   0  -3   3   15.51    1.29   1
  -1   3  -3   65.20    3.67   1
   1  -3   3   62.68    3.97   1
  -2   3  -3   11.09    0.98   1
   2  -3   3   10.43    0.84   1
  -3   3  -3   77.69    5.12   1
   3  -3   3   75.00    4.98   1
  -4   3  -3    1.21    0.80   1
   4  -3   3    3.75    0.86   1
  -5   3  -3   25.69    2.58   1
   5  -3   3   24.93    2.80   1
  -6   3  -3    0.00    0.85   1
   6  -3   3    0.91    1.23   1
  -7   3  -3    0.00    2.48   1
   7  -3   3   10.79    2.10   1
  -8   3  -3    0.00    1.29   1
   8  -3   3    0.56    1.27   1
  -9   3  -3    0.00    1.27   1
   9  -3   3    0.37    1.12   1
   9   2  -3    1.59    1.53   1
  -9  -2   3    0.00    5.65   1
   8   2  -3    8.92    1.75   1
  -8  -2   3    0.62    1.86   1
   7   2  -3    0.16    1.37   1
  -7  -2   3    0.02    1.16   1
   6   2  -3    7.83    2.29   1
  -6  -2   3    7.52    1.80   1
   5   2  -3    4.63    1.15   1
  -5  -2   3    5.35    1.20   1
   4   2  -3   65.66    5.11   1
  -4  -2   3   63.34    4.60   1
   3   2  -3  146.76    8.32   1
  -3  -2   3  143.38   9.940   1
   2   2  -3   15.41    1.05   1
  -2  -2   3   15.60    1.31   1
   1   2  -3   33.28    2.01   1
  -1  -2   3   31.61    2.54   1
   0   2  -3  191.13   10.43   1
   0  -2   3  186.05   10.43   1
  -1   2  -3    7.78    0.53   1
   1  -2   3    6.34    0.52   1
  -2   2  -3   16.16    1.08   1
   2  -2   3   16.67    1.02   1
  -3   2  -3   17.96    1.41   1
   3  -2   3   18.45    1.41   1
  -4   2  -3   10.28    1.40   1
   4  -2   3   12.38    1.43   1
  -5   2  -3   25.05    2.88   1
   5  -2   3   19.99    2.38   1
  -6   2  -3   29.67    3.78   1
   6  -2   3   30.51    3.11   1
  -7   2  -3   11.84    3.05   1
   7  -2   3   18.77    2.43   1
  -8   2  -3   11.22    2.86   1
   8  -2   3   10.74    2.25   1
  -9   2  -3    0.76    1.76   1
   9  -2   3    0.80    1.12   1
   9   1  -3    7.46    2.23   1
  -9  -1   3    6.56    7.61   1
   8   1  -3    9.03    2.09   1
  -8  -1   3    4.51    6.06   1
   7   1  -3   26.38    3.09   1
  -7  -1   3   25.22    4.05   1
   6   1  -3  289.21   22.30   1
  -6  -1   3  300.80   22.87   1
   5   1  -3    7.52    1.46   1
  -5  -1   3   10.75    1.39   1
   4   1  -3  220.44   15.22   1
  -4  -1   3  226.68   14.12   1
   3   1  -3    0.26    0.26   1
  -3  -1   3    0.12    0.22   1
   2   1  -3    2.27    0.35   1
  -2  -1   3    2.03    0.37   1
   1   1  -3  369.30   22.28   1
  -1  -1   3  357.53   20.79   1
   0   1  -3 4747.89  246.36   1
   0  -1   3 4683.66  261.81   1
  -1   1  -3 1208.34   67.40   1
   1  -1   3 1206.99   63.08   1
  -2   1  -3   89.78    5.46   1
   2  -1   3   85.95    4.76   1
  -3   1  -3  790.12   48.06   1
   3  -1   3  777.41   44.03   1
  -4   1  -3   19.59    2.49   1
   4  -1   3   20.82    2.20   1
  -5   1  -3  220.62   16.96   1
   5  -1   3  209.72   16.21   1
  -6   1  -3  394.52   30.73   1
   6  -1   3  404.12   32.81   1
  -7   1  -3    0.62    0.96   1
   7  -1   3    0.96    0.79   1
  -8   1  -3    9.36    2.34   1
   8  -1   3   9.744    2.52   1
   9   0  -3   27.52    3.62   1
  -9   0   3   40.00   9.848   1
   8   0  -3   24.73    2.90   1
  -8   0   3   14.20    3.36   1
   7   0  -3  142.79   12.95   1
  -7   0   3  143.53   12.04   1
   6   0  -3  169.86   12.90   1
  -6   0   3  171.52   12.11   1
   5   0  -3  105.55    9.61   1
  -5   0   3  103.29    8.29   1
   4   0  -3   90.98    8.26   1
  -4   0   3   86.84    7.04   1
   3   0  -3   44.64    2.75   1
  -3   0   3   44.64    2.93   1
   2   0  -3   13.18    0.95   1
  -2   0   3   12.39    1.05   1
   1   0  -3   55.12    4.89   1
  -1   0   3   52.53    4.23   1
   0   0  -3  448.33   24.95   1
   0   0   3  434.16   23.34   1
  -1   0  -3   14.91    1.12   1
   1   0   3   13.99    1.12   1
  -2   0  -3   30.25    2.21   1
   2   0   3   29.48    1.98   1
  -3   0  -3  158.81   12.32   1
   3   0   3  155.84   10.52   1
  -4   0  -3    7.86    1.37   1
   4   0   3    8.09    1.12   1
  -5   0  -3    4.42    1.50   1
   5   0   3    4.07    1.10   1
  -6   0  -3    9.50    1.75   1
   6   0   3   10.86    1.66   1
  -7   0  -3   14.95    2.92   1
   7   0   3   20.13    2.57   1
  -8   0  -3    0.00    1.22   1
   8   0   3    0.00    0.36   1
   9  -1  -3    0.86    2.08   1
  -9   1   3    8.68    6.64   1
   8  -1  -3    2.40    1.77   1
  -8   1   3    0.00    4.54   1
   7  -1  -3   37.65    3.99   1
  -7   1   3   34.97    3.43   1
   6  -1  -3   47.15    4.36   1
  -6   1   3   45.06    3.57   1
   5  -1  -3   42.82    3.75   1
  -5   1   3   41.89    2.81   1
   4  -1  -3    7.28    1.40   1
  -4   1   3    3.94    0.81   1
   3  -1  -3   86.00    5.14   1
  -3   1   3   83.46    5.14   1
   2  -1  -3   53.14    3.41   1
  -2   1   3   51.49    3.48   1
   1  -1  -3 1297.05   74.70   1
  -1   1   3 1329.10   74.56   1
   0  -1  -3  163.26    9.45   1
   0   1   3  167.25    9.45   1
  -1  -1  -3   61.39    3.84   1
   1   1   3   61.91    4.24   1
  -2  -1  -3   10.97    1.00   1
   2   1   3   12.35    1.06   1
  -3  -1  -3   16.47    1.79   1
   3   1   3   14.49    2.26   1
  -4  -1  -3    2.73    1.00   1
   4   1   3    2.16    0.82   1
  -5  -1  -3    5.08    1.40   1
   5   1   3    1.48    1.18   1
  -6  -1  -3    0.12    1.29   1
   6   1   3    0.67    1.09   1
  -7  -1  -3    7.08    2.13   1
   7   1   3    9.11    2.16   1
  -8  -1  -3   10.19    2.34   1
   8   1   3   9.329    3.79   1
   9  -2  -3    0.04    0.29   1
  -9   2   3    1.77    1.50   1
   8  -2  -3    5.91    1.81   1
  -8   2   3    0.00    1.45   1
   7  -2  -3   58.46    5.35   1
  -7   2   3   54.41    4.20   1
   6  -2  -3    0.12    0.35   1
  -6   2   3    0.05    0.31   1
   5  -2  -3  268.00   19.99   1
  -5   2   3  273.25   15.96   1
   4  -2  -3  395.26   26.44   1
  -4   2   3  409.56   27.35   1
   3  -2  -3    0.31    0.29   1
  -3   2   3    0.30    0.30   1
   2  -2  -3   82.38    4.43   1
  -2   2   3   81.10    4.85   1
   1  -2  -3 5125.18  274.50   1
  -1   2   3 5426.71  321.12   1
   0  -2  -3   86.76    4.98   1
   0   2   3   94.84    5.98   1
  -1  -2  -3   13.69    1.10   1
   1   2   3   15.66    1.02   1
  -2  -2  -3  107.72    6.68   1
   2   2   3  102.45    8.21   1
  -3  -2  -3  144.03   10.65   1
   3   2   3  132.28   12.25   1
  -4  -2  -3   72.82    5.30   1
   4   2   3   58.48    6.10   1
  -5  -2  -3  222.81   16.53   1
   5   2   3  209.59   19.02   1
  -6  -2  -3   12.33    2.25   1
   6   2   3   20.75    3.12   1
   8   2   3   78.25   12.01   1
   9  -3  -3    0.20    2.71   1
  -9   3   3    3.16    1.93   1
   8  -3  -3   54.25    5.96   1
  -8   3   3   47.56    5.89   1
   7  -3  -3   29.91    3.92   1
  -7   3   3   35.47    3.06   1
   6  -3  -3   54.20    5.19   1
  -6   3   3   57.70    3.83   1
   5  -3  -3    5.77    1.29   1
  -5   3   3    5.04    1.14   1
   4  -3  -3  139.46   10.86   1
  -4   3   3  148.87    9.02   1
   3  -3  -3   100.3    6.55   1
  -3   3   3  105.37    5.75   1
   2  -3  -3  215.81   12.15   1
  -2   3   3  220.59   13.50   1
   1  -3  -3  830.19   56.87   1
  -1   3   3  882.68   45.13   1
   0  -3  -3    9.55    0.87   1
   0   3   3   11.73    0.87   1
  -1  -3  -3   52.82    4.05   1
   1   3   3   57.67    4.05   1
  -2  -3  -3    0.69    0.52   1
   2   3   3    0.55    0.42   1
  -3  -3  -3    0.12    0.13   1
   3   3   3    0.02    0.10   1
  -4  -3  -3   39.65    3.87   1
   4   3   3   42.84    4.60   1
  -5  -3  -3    0.39    1.56   1
   5   3   3    0.63    2.05   1
  -6  -3  -3    0.24    1.13   1
   6   3   3    0.82    1.54   1
  -7  -3  -3    1.62    2.31   1
   7   3   3    4.34    3.62   1
  -8  -3  -3    0.00    1.02   1
   8   3   3    0.00    1.19   1
   9  -4  -3    0.00    0.54   1
  -9   4   3    0.32    0.88   1
   8  -4  -3   12.33    2.00   1
  -8   4   3   10.58    1.75   1
   7  -4  -3    1.13    1.07   1
  -7   4   3    0.56    0.88   1
   6  -4  -3   70.70    6.19   1
  -6   4   3   75.31    5.06   1
   5  -4  -3   27.19    2.55   1
  -5   4   3   20.55    1.98   1
   4  -4  -3   64.22    5.39   1
  -4   4   3   68.19    4.26   1
   3  -4  -3   47.10    3.21   1
  -3   4   3   44.16    2.92   1
   2  -4  -3    0.85    0.40   1
  -2   4   3    0.47    0.36   1
   1  -4  -3    1.04    0.61   1
  -1   4   3    1.37    0.50   1
   0  -4  -3    6.64    0.78   1
   0   4   3    5.76    1.29   1
  -1  -4  -3   13.22    1.31   1
   1   4   3   13.98    1.47   1
  -2  -4  -3    0.04    0.29   1
   2   4   3    0.02    0.26   1
  -3  -4  -3   12.97    1.62   1
   3   4   3   10.66    1.46   1
  -4  -4  -3    5.04    1.43   1
   4   4   3    3.72    1.36   1
  -5  -4  -3    5.47    1.86   1
   5   4   3    4.04    1.80   1
  -6  -4  -3    0.60    1.30   1
   6   4   3    0.00    0.67   1
  -7  -4  -3    1.56    2.09   1
   7   4   3    0.45    1.07   1
   9  -5  -3    0.00    1.53   1
  -9   5   3    0.00    1.30   1
   8  -5  -3    0.18    0.40   1
  -8   5   3    0.11    0.21   1
   7  -5  -3    0.00    1.51   1
  -7   5   3    1.05    0.99   1
   6  -5  -3   19.75    2.47   1
  -6   5   3   18.78    2.50   1
   5  -5  -3   55.19    4.98   1
  -5   5   3   53.41    4.56   1
   4  -5  -3   29.20    2.99   1
  -4   5   3   30.90    2.49   1
   3  -5  -3   88.48    6.97   1
  -3   5   3   85.91    7.25   1
   2  -5  -3 1576.23  116.15   1
  -2   5   3 1638.72  120.32   1
   1  -5  -3  227.31   19.73   1
  -1   5   3  236.09   15.51   1
   0  -5  -3    0.74    0.56   1
   0   5   3    0.95    0.57   1
  -1  -5  -3   39.82    3.11   1
   1   5   3   40.29    3.52   1
  -2  -5  -3  154.77   10.42   1
   2   5   3  153.10   11.69   1
  -3  -5  -3    7.63    1.81   1
   3   5   3    6.12    1.66   1
  -4  -5  -3    1.33    2.32   1
   4   5   3    1.16    1.47   1
  -5  -5  -3   23.33    3.68   1
   5   5   3   27.80    3.64   1
  -6  -5  -3    2.97    2.75   1
   6   5   3    6.31    2.53   1
  -7  -5  -3   21.48    3.86   1
   7   5   3   28.52    5.30   1
   8  -6  -3    2.21    1.78   1
  -8   6   3    1.98    1.45   1
   7  -6  -3    0.19    0.70   1
  -7   6   3    0.80    1.08   1
   6  -6  -3   29.33    2.91   1
  -6   6   3   22.60    2.91   1
   5  -6  -3   13.50    1.75   1
  -5   6   3   11.19    1.65   1
   4  -6  -3   21.95    3.10   1
  -4   6   3   20.31    2.22   1
   3  -6  -3    1.17    0.83   1
  -3   6   3    0.01    0.79   1
   2  -6  -3  344.22   24.85   1
  -2   6   3  346.32   25.75   1
   1  -6  -3    6.35    1.05   1
  -1   6   3    9.39    1.40   1
   0  -6  -3   14.42    1.49   1
   0   6   3   13.57    1.72   1
  -1  -6  -3   86.89    6.90   1
   1   6   3   88.53    8.08   1
  -2  -6  -3   59.22    4.60   1
   2   6   3   55.50    4.73   1
  -3  -6  -3   27.67    3.54   1
   3   6   3   26.61    3.30   1
  -4  -6  -3    0.00    0.83   1
   4   6   3    0.30    0.37   1
  -5  -6  -3    0.00    1.57   1
   5   6   3    0.14    0.47   1
  -6  -6  -3    0.00    1.59   1
   6   6   3    0.20    0.40   1
   8  -7  -3    0.20    0.56   1
  -8   7   3    0.09    0.44   1
   7  -7  -3    0.70    1.23   1
  -7   7   3    0.12    1.26   1
   6  -7  -3    1.50    1.00   1
  -6   7   3    1.04    0.94   1
   5  -7  -3    2.36    1.03   1
  -5   7   3    2.12    1.30   1
   4  -7  -3    4.46    1.99   1
  -4   7   3    4.62    1.36   1
   3  -7  -3   11.91    2.50   1
  -3   7   3   15.08    2.37   1
   2  -7  -3  100.12    8.32   1
  -2   7   3  100.43    8.58   1
   1  -7  -3    0.19    0.18   1
  -1   7   3    0.03    0.21   1
   0  -7  -3    2.13    1.36   1
   0   7   3    1.70    2.20   1
  -1  -7  -3   10.89    2.03   1
   1   7   3    6.75    2.73   1
  -2  -7  -3   28.45    3.70   1
   2   7   3   30.75    3.38   1
  -3  -7  -3    1.74    2.60   1
   3   7   3    2.01    2.13   1
  -4  -7  -3    5.44    2.58   1
   4   7   3    0.00    1.57   1
  -5  -7  -3    0.55    2.62   1
   5   7   3    0.00    2.39   1
  -6  -7  -3    0.00    2.64   1
   6   7   3    1.49    1.98   1
   8  -8  -3    2.82    2.93   1
   7  -8  -3    0.45    0.69   1
  -7   8   3    0.30    0.65   1
   6  -8  -3    2.20    1.23   1
  -6   8   3    3.72    2.12   1
   5  -8  -3    4.34    2.02   1
  -5   8   3    3.28    1.51   1
   4  -8  -3    0.28    0.58   1
  -4   8   3    0.48    0.35   1
   3  -8  -3  115.77    9.39   1
  -3   8   3  140.62   14.11   1
   2  -8  -3    4.56    1.18   1
  -2   8   3    6.12    1.45   1
   1  -8  -3   78.06    5.54   1
  -1   8   3   73.05    6.53   1
   0  -8  -3  111.16    8.04   1
   0   8   3  106.55    9.87   1
  -1  -8  -3    1.02    2.04   1
   1   8   3    1.79    1.87   1
  -2  -8  -3   51.94    8.70   1
   2   8   3   50.01    5.56   1
  -3  -8  -3   45.96    5.90   1
   3   8   3   47.49    5.30   1
  -4  -8  -3   62.28    7.38   1
   4   8   3   61.71    6.75   1
  -5  -8  -3    2.09    7.44   1
   5   8   3    0.62    1.68   1
   7  -9  -3    1.63    3.28   1
  -7   9   3    5.07    2.91   1
   6  -9  -3    4.11    3.01   1
  -6   9   3   12.73    3.68   1
   5  -9  -3    1.22    1.30   1
  -5   9   3    0.33    0.70   1
   4  -9  -3    1.11    1.37   1
  -4   9   3    0.07    1.09   1
   3  -9  -3  126.23   12.13   1
  -3   9   3  152.71   15.87   1
   2  -9  -3    2.12    1.97   1
  -2   9   3    3.03    1.61   1
   1  -9  -3   23.19    2.63   1
  -1   9   3   19.37    2.97   1
   0  -9  -3    9.48    2.04   1
   0   9   3    7.55    2.46   1
  -1  -9  -3   24.18    3.31   1
   1   9   3   19.51    4.58   1
  -2  -9  -3    0.00    4.29   1
   2   9   3    0.64    1.99   1
  -3  -9  -3   21.10    5.80   1
   3   9   3   17.87    4.67   1
  -4  -9  -3    0.00    0.64   1
   4   9   3    0.54    0.50   1
   6 -10  -3    0.04    0.83   1
  -6  10   3    0.00    1.13   1
   5 -10  -3    0.00    0.42   1
  -5  10   3    0.33    0.65   1
   4 -10  -3    2.66    1.49   1
  -4  10   3    1.80    1.32   1
   3 -10  -3   14.92    2.91   1
  -3  10   3   20.37    3.07   1
   2 -10  -3    4.24    1.42   1
  -2  10   3    4.03    1.84   1
   1 -10  -3    1.34    0.80   1
  -1  10   3    0.57    0.87   1
   0 -10  -3   11.22    1.66   1
   0  10   3    6.54    2.78   1
  -1 -10  -3    1.13    2.95   1
   1  10   3    0.01    2.00   1
  -2 -10  -3    1.97    1.98   1
   2  10   3    0.00    1.46   1
  -3 -10  -3    0.00    3.60   1
   3  10   3    0.00    1.57   1
  -4 -10  -3    0.00    2.15   1
   4  10   3    0.00    0.96   1
   5 -11  -3    1.57    1.87   1
  -5  11   3    1.36    1.51   1
   4 -11  -3    3.16    1.38   1
  -4  11   3    0.00    1.10   1
   3 -11  -3    0.00    1.35   1
  -3  11   3    0.12    0.79   1
   2 -11  -3    4.00    1.98   1
  -2  11   3    2.73    1.76   1
   1 -11  -3    5.54    1.88   1
  -1  11   3    1.70    2.84   1
   0 -11  -3    1.40    3.19   1
   0  11   3    0.32    2.95   1
  -1 -11  -3   35.22    6.70   1
   1  11   3   42.13    7.57   1
  -2 -11  -3   20.46    5.12   1
   2  11   3   21.22    5.69   1
  -4  12   3    0.00    3.70   1
   3 -12  -3    0.00    2.27   1
  -3  12   3    1.18    2.90   1
   2 -12  -3    0.00    0.88   1
  -2  12   3    0.36    1.45   1
   1 -12  -3    1.34    0.94   1
  -1  12   3    0.00    0.88   1
   0 -12  -3    2.92    3.58   1
   0  12   3    1.28    2.04   1
  -1 -12  -3    3.89    3.34   1
   1  12   3    0.75    2.70   1
   2  13  -4   13.61    4.44   1
  -2 -13   4   13.00    3.06   1
   1  13  -4   14.21    3.67   1
  -1 -13   4   12.87    4.47   1
   0  13  -4    0.00    0.81   1
   0 -13   4    0.00    0.69   1
  -1  13  -4    0.11    0.60   1
   1 -13   4    1.34    0.93   1
  -2  13  -4    1.29    2.70   1
   2 -13   4    1.58    2.96   1
  -3  13  -4    2.03    2.68   1
   3 -13   4    2.47    3.00   1
  -4  13  -4    7.21    3.39   1
   4 -13   4    5.46    4.33   1
   3  12  -4    0.54    0.52   1
  -3 -12   4    0.51    0.76   1
   2  12  -4    1.78    2.94   1
  -2 -12   4    0.60    2.92   1
   1  12  -4    0.19    1.33   1
  -1 -12   4    0.11    0.91   1
   0  12  -4    2.16    3.09   1
   0 -12   4    5.15    2.75   1
  -1  12  -4    0.00    0.29   1
   1 -12   4    0.11    0.26   1
  -2  12  -4    4.17    2.87   1
   2 -12   4    6.40    2.77   1
  -3  12  -4    0.06    0.41   1
   3 -12   4    0.00    0.44   1
  -4  12  -4    0.68    1.04   1
   4 -12   4    0.16    1.18   1
  -5  12  -4    0.44    1.18   1
   5 -12   4    1.05    1.52   1
   4  11  -4    0.87    1.47   1
  -4 -11   4    2.68    2.29   1
   3  11  -4   16.83    3.32   1
  -3 -11   4   17.65    3.27   1
   2  11  -4    0.02    1.13   1
  -2 -11   4    3.36    2.63   1
   1  11  -4    0.04    0.17   1
  -1 -11   4    0.17    0.32   1
   0  11  -4    0.04    0.09   1
   0 -11   4    0.00    0.39   1
  -1  11  -4    3.71    3.27   1
   1 -11   4    3.02    4.04   1
  -2  11  -4   13.67    2.63   1
   2 -11   4   10.37    4.47   1
  -3  11  -4    0.02    0.67   1
   3 -11   4    1.00    1.00   1
  -4  11  -4   16.60    4.42   1
   4 -11   4   17.42    3.65   1
  -5  11  -4    1.00    2.18   1
   5 -11   4    0.50    4.95   1
  -6  11  -4   40.45    5.28   1
   5  10  -4   21.18    3.21   1
  -5 -10   4   22.79    4.70   1
   4  10  -4    1.00    1.63   1
  -4 -10   4    1.92    1.93   1
   3  10  -4   72.92    6.83   1
  -3 -10   4   79.63   11.73   1
   2  10  -4   61.47    5.93   1
  -2 -10   4   69.59    7.25   1
   1  10  -4   15.82    2.29   1
  -1 -10   4   18.84    2.35   1
   0  10  -4   16.97    3.30   1
   0 -10   4   27.83    3.33   1
  -1  10  -4   21.29    3.28   1
   1 -10   4   25.00    4.81   1
  -2  10  -4   26.46    4.03   1
   2 -10   4   25.74    5.49   1
  -3  10  -4   10.13    2.29   1
   3 -10   4    9.10    2.15   1
  -4  10  -4    7.28    2.31   1
   4 -10   4    9.28    2.16   1
  -5  10  -4    1.37    1.40   1
   5 -10   4    1.35    1.16   1
  -6  10  -4   13.59    4.05   1
   6 -10   4   17.28    2.75   1
  -7  10  -4    0.84    1.02   1
   7 -10   4    0.47    1.19   1
   6   9  -4    1.98    1.71   1
   5   9  -4    2.42    1.23   1
  -5  -9   4    0.00    2.08   1
   4   9  -4    1.28    1.36   1
  -4  -9   4    1.48    2.08   1
   3   9  -4    1.26    1.31   1
  -3  -9   4    4.43    1.63   1
   2   9  -4    0.40    0.93   1
  -2  -9   4    0.40    1.23   1
   1   9  -4    0.09    0.20   1
  -1  -9   4    0.09    0.24   1
   0   9  -4    1.61    1.05   1
   0  -9   4    1.01    1.10   1
  -1   9  -4    3.23    1.62   1
   1  -9   4    1.64    2.11   1
  -2   9  -4    2.51    1.74   1
   2  -9   4    3.02    2.20   1
  -3   9  -4    0.85    1.00   1
   3  -9   4    0.45    0.66   1
  -4   9  -4   15.75    2.65   1
   4  -9   4   12.33    2.51   1
  -5   9  -4    0.04    0.18   1
   5  -9   4    0.46    0.31   1
  -6   9  -4    5.86    2.19   1
   6  -9   4    4.50    3.32   1
  -7   9  -4    0.42    1.74   1
   7  -9   4    0.00    2.21   1
   7   8  -4    0.00    1.76   1
   6   8  -4    5.19    3.21   1
  -6  -8   4    5.24    5.84   1
   5   8  -4    0.95    1.49   1
  -5  -8   4    0.00    3.29   1
   4   8  -4   24.41    3.13   1
  -4  -8   4   30.22    5.84   1
   3   8  -4   27.01    3.18   1
  -3  -8   4   35.93    4.22   1
   2   8  -4    9.70    1.70   1
  -2  -8   4   13.53    2.63   1
   1   8  -4   41.27    5.13   1
  -1  -8   4   50.03    4.45   1
   0   8  -4   21.17    1.99   1
   0  -8   4   24.42    2.93   1
  -1   8  -4    5.99    1.13   1
   1  -8   4    7.42    1.74   1
  -2   8  -4    0.01    1.39   1
   2  -8   4    3.03    0.94   1
  -3   8  -4    7.25    1.72   1
   3  -8   4    4.00    1.20   1
  -4   8  -4    0.00    0.18   1
   4  -8   4    0.00    0.13   1
  -5   8  -4    1.01    1.51   1
   5  -8   4    2.25    1.02   1
  -6   8  -4    1.54    1.32   1
   6  -8   4    0.15    1.30   1
  -7   8  -4    0.00    0.70   1
   7  -8   4    0.00    0.70   1
   7   7  -4    2.41    2.77   1
  -7  -7   4    1.58    7.90   1
   6   7  -4    7.24    2.02   1
  -6  -7   4   10.25    5.78   1
   5   7  -4   14.37    2.05   1
  -5  -7   4   13.99    2.83   1
   4   7  -4  206.27   18.59   1
  -4  -7   4  224.05   18.74   1
   3   7  -4  105.97    9.50   1
  -3  -7   4  110.62   9.618   1
   2   7  -4   28.92    3.09   1
  -2  -7   4   40.37    3.30   1
   1   7  -4  263.77   20.08   1
  -1  -7   4  260.51   19.18   1
   0   7  -4   91.63    7.23   1
   0  -7   4  102.37    9.45   1
  -1   7  -4  120.40    8.35   1
   1  -7   4  121.88   10.34   1
  -2   7  -4  135.98   11.01   1
   2  -7   4  138.34   10.19   1
  -3   7  -4    2.38    1.10   1
   3  -7   4    3.24    0.85   1
  -4   7  -4    3.82    1.57   1
   4  -7   4    3.22    1.09   1
  -5   7  -4    0.05    0.52   1
   5  -7   4    0.00    0.33   1
  -6   7  -4    1.52    1.15   1
   6  -7   4    0.10    0.96   1
  -7   7  -4    0.06    1.26   1
   7  -7   4    0.92    1.23   1
  -8   7  -4    6.37    2.63   1
   8  -7   4    4.06    2.84   1
   8   6  -4    1.12    4.91   1
  -8  -6   4   8.174    5.18   1
   7   6  -4    8.27    4.64   1
  -7  -6   4    3.86    5.71   1
   6   6  -4    0.07    0.49   1
  -6  -6   4    0.81    1.38   1
   5   6  -4    1.83    2.35   1
  -5  -6   4    0.65    0.44   1
   4   6  -4    5.72    1.44   1
  -4  -6   4    4.89    2.29   1
   3   6  -4   14.30    1.93   1
  -3  -6   4   11.34    1.87   1
   2   6  -4    1.89    0.76   1
  -2  -6   4    3.64    1.36   1
   1   6  -4   46.04    3.64   1
  -1  -6   4   41.65    3.74   1
   0   6  -4   43.45    3.36   1
   0  -6   4   42.26    3.42   1
  -1   6  -4   24.09    2.03   1
   1  -6   4   22.82    2.01   1
  -2   6  -4    0.23    0.73   1
   2  -6   4    0.04    0.54   1
  -3   6  -4    0.36    0.66   1
   3  -6   4    0.55    0.47   1
  -4   6  -4   19.94    2.50   1
   4  -6   4   14.26    1.80   1
  -5   6  -4    0.04    0.34   1
   5  -6   4    0.00    0.42   1
  -6   6  -4    3.89    1.37   1
   6  -6   4    2.79    1.68   1
  -7   6  -4    0.18    0.80   1
   7  -6   4    0.36    1.49   1
  -8   6  -4    0.23    0.43   1
   8  -6   4    0.05    1.02   1
   8   5  -4    0.00    1.95   1
  -8  -5   4    0.00    4.82   1
   7   5  -4    2.08    2.09   1
  -7  -5   4    2.00    1.33   1
   6   5  -4    1.12    1.40   1
  -6  -5   4    5.28    1.55   1
   5   5  -4    6.33    1.78   1
  -5  -5   4   11.30    2.39   1
   4   5  -4   10.16    1.94   1
  -4  -5   4   12.25    2.21   1
   3   5  -4   53.73    6.67   1
  -3  -5   4   66.99    5.43   1
   2   5  -4  156.49   9.811   1
  -2  -5   4  168.34   14.24   1
   1   5  -4    5.87    0.77   1
  -1  -5   4    7.92    0.78   1
   0   5  -4  142.35   10.61   1
   0  -5   4  144.71   11.93   1
  -1   5  -4  178.69   12.39   1
   1  -5   4  185.36   11.03   1
  -2   5  -4   78.39    5.27   1
   2  -5   4   68.32    4.60   1
  -3   5  -4   22.19    2.30   1
   3  -5   4   18.84    1.90   1
  -4   5  -4   19.04    2.09   1
   4  -5   4   24.38    1.81   1
  -5   5  -4    0.31    0.30   1
   5  -5   4    0.62    0.30   1
  -6   5  -4    0.12    0.62   1
   6  -5   4    0.12    0.79   1
  -7   5  -4   10.79    3.26   1
   7  -5   4   12.70    2.26   1
  -8   5  -4    2.77    2.44   1
   8  -5   4    0.00    2.58   1
   8   4  -4   60.28   9.829   1
  -8  -4   4   56.46   11.63   1
   7   4  -4   28.37    5.94   1
  -7  -4   4   27.53    5.33   1
   6   4  -4   55.10    8.73   1
  -6  -4   4   52.31    5.15   1
   5   4  -4   25.02    3.25   1
  -5  -4   4   24.51    3.51   1
   4   4  -4   67.41    5.12   1
  -4  -4   4   66.86    7.42   1
   3   4  -4  210.82   15.64   1
  -3  -4   4  206.42   22.49   1
   2   4  -4 1371.38   71.80   1
  -2  -4   4 1347.58  118.22   1
   1   4  -4   71.75    4.11   1
  -1  -4   4   73.99    5.68   1
   0   4  -4    0.83    0.31   1
   0  -4   4    0.09    0.46   1
  -1   4  -4  323.93   17.77   1
   1  -4   4  311.53   20.75   1
  -2   4  -4   18.35    1.79   1
   2  -4   4   16.93    1.56   1
  -3   4  -4    6.60    1.22   1
   3  -4   4    4.06    0.73   1
  -4   4  -4  112.18    7.38   1
   4  -4   4  116.60    7.67   1
  -5   4  -4   30.73    2.63   1
   5  -4   4   30.88    3.39   1
  -6   4  -4    0.90    1.27   1
   6  -4   4    1.29    1.96   1
  -7   4  -4   42.42   19.69   1
  -8   4  -4    2.68    2.44   1
   8  -4   4    3.73    2.57   1
   9   3  -4    5.30    2.16   1
  -9  -3   4    3.40    7.86   1
   8   3  -4   13.07    3.57   1
  -8  -3   4   13.87    6.84   1
   7   3  -4    0.57    0.80   1
  -7  -3   4    0.56    0.74   1
   6   3  -4    0.53    1.04   1
  -6  -3   4    1.23    0.90   1
   5   3  -4    1.32    1.12   1
  -5  -3   4    0.94    1.29   1
   4   3  -4   15.40    1.70   1
  -4  -3   4   19.70    1.65   1
   3   3  -4   29.44    2.44   1
  -3  -3   4   39.53    3.11   1
   2   3  -4   28.45    1.89   1
  -2  -3   4   29.27    2.05   1
   1   3  -4   20.13    1.20   1
  -1  -3   4   20.15    1.63   1
   0   3  -4   21.60    1.22   1
   0  -3   4   20.94    1.22   1
  -1   3  -4  459.77   24.74   1
   1  -3   4  432.16   24.73   1
  -2   3  -4    9.59    0.76   1
   2  -3   4    8.16    0.74   1
  -3   3  -4   13.59    1.36   1
   3  -3   4   14.14    1.12   1
  -4   3  -4   15.81    1.44   1
   4  -3   4   17.83    1.55   1
  -5   3  -4    0.08    0.07   1
   5  -3   4    0.03    0.10   1
  -6   3  -4   12.12    2.64   1
   6  -3   4   11.24    1.91   1
  -7   3  -4    0.16    2.13   1
   7  -3   4    2.03    1.56   1
  -8   3  -4    0.91    2.36   1
   8  -3   4    1.87    1.56   1
   9   2  -4    7.67    2.17   1
  -9  -2   4    7.77    6.03   1
   8   2  -4    0.00    1.83   1
  -8  -2   4    0.00    5.62   1
   7   2  -4    1.27    2.49   1
  -7  -2   4    0.67    1.94   1
   6   2  -4    0.94    1.31   1
  -6  -2   4    5.28    1.63   1
   5   2  -4   35.91    3.13   1
  -5  -2   4   39.49    2.89   1
   4   2  -4   11.83    1.27   1
  -4  -2   4   10.97    1.20   1
   3   2  -4    1.40    0.46   1
  -3  -2   4    1.17    0.70   1
   2   2  -4   24.23    1.54   1
  -2  -2   4   23.84    1.71   1
   1   2  -4  162.79   11.02   1
  -1  -2   4  159.08   10.15   1
   0   2  -4  641.34   35.02   1
   0  -2   4  616.59   37.68   1
  -1   2  -4    4.59    0.54   1
   1  -2   4    3.82    0.57   1
  -2   2  -4  242.49   13.36   1
   2  -2   4  232.39   12.54   1
  -3   2  -4   27.67    2.25   1
   3  -2   4   27.22    2.05   1
  -4   2  -4  156.20   14.81   1
   4  -2   4  160.21   12.07   1
  -5   2  -4   14.48    2.62   1
   5  -2   4   11.45    1.89   1
  -6   2  -4   52.10    5.80   1
   6  -2   4   37.37    4.22   1
  -7   2  -4    0.59    1.98   1
   7  -2   4    0.98    1.69   1
  -8   2  -4    0.00    1.76   1
   8  -2   4    0.00    1.52   1
   9   1  -4   37.47    4.51   1
  -9  -1   4   58.40   12.34   1
   8   1  -4   53.27    5.74   1
  -8  -1   4   56.30   11.91   1
   7   1  -4  141.29   15.32   1
  -7  -1   4  140.58   16.35   1
   6   1  -4  244.78   22.25   1
  -6  -1   4  255.53   19.71   1
   5   1  -4   23.56    3.37   1
  -5  -1   4   27.87    2.91   1
   4   1  -4  470.48   35.50   1
  -4  -1   4  473.91   32.23   1
   3   1  -4   33.65    2.08   1
  -3  -1   4   33.31    2.26   1
   2   1  -4   33.62    2.06   1
  -2  -1   4   31.44    2.27   1
   1   1  -4  716.32   40.42   1
  -1  -1   4  702.14   47.57   1
   0   1  -4  843.62   43.46   1
   0  -1   4  819.69   47.11   1
  -1   1  -4  147.99    8.28   1
   1  -1   4  142.22    8.28   1
  -2   1  -4  181.34   10.87   1
   2  -1   4  176.72    9.05   1
  -3   1  -4  463.55   33.00   1
   3  -1   4  442.61   30.18   1
  -4   1  -4    9.09    2.11   1
   4  -1   4   12.76    1.45   1
  -5   1  -4   66.50    6.42   1
   5  -1   4   58.21    4.87   1
  -6   1  -4  100.93    9.35   1
   6  -1   4   89.15    7.98   1
  -7   1  -4    1.45    2.32   1
   7  -1   4    4.36    1.55   1
  -8   1  -4    0.75    0.55   1
   8  -1   4    0.02    0.38   1
   9   0  -4    1.94    2.18   1
  -9   0   4   11.25    7.14   1
   8   0  -4   21.61    2.92   1
  -8   0   4   21.98    6.51   1
   7   0  -4   39.71    4.15   1
  -7   0   4   36.34    5.73   1
   6   0  -4  135.86   12.93   1
  -6   0   4  142.97   11.26   1
   5   0  -4    0.48    0.96   1
  -5   0   4    0.06    1.10   1
   4   0  -4    0.83    0.79   1
  -4   0   4    1.10    0.66   1
   3   0  -4   32.62    2.01   1
  -3   0   4   29.08    2.18   1
   2   0  -4  127.42    9.64   1
  -2   0   4  127.68    8.70   1
   1   0  -4  117.96    9.26   1
  -1   0   4  121.24    8.41   1
   0   0  -4  179.01   10.78   1
   0   0   4  171.79    9.31   1
  -1   0  -4   38.78    2.93   1
   1   0   4   40.75    2.96   1
  -2   0  -4   20.59    1.67   1
   2   0   4   19.55    1.59   1
  -3   0  -4  129.35   11.83   1
   3   0   4  130.48    9.77   1
  -4   0  -4    5.26    1.63   1
   4   0   4    4.60    1.09   1
  -5   0  -4    0.80    1.83   1
   5   0   4    3.16    1.27   1
  -6   0  -4    0.45    1.35   1
   6   0   4    0.55    1.35   1
  -7   0  -4    0.00    1.78   1
   7   0   4    0.00    1.75   1
  -8   0  -4    0.00    1.99   1
   8   0   4    0.00    3.10   1
   9  -1  -4    0.05    0.31   1
  -9   1   4    0.57    1.45   1
   8  -1  -4    0.34    0.80   1
  -8   1   4    1.13    1.99   1
   7  -1  -4   27.90    2.96   1
  -7   1   4   21.76    3.66   1
   6  -1  -4    8.59    1.53   1
  -6   1   4   9.908    1.70   1
   5  -1  -4  190.79   15.12   1
  -5   1   4  195.95   12.33   1
   4  -1  -4    6.71    1.01   1
  -4   1   4    5.34    0.77   1
   3  -1  -4  116.63    7.30   1
  -3   1   4  118.54    7.43   1
   2  -1  -4  230.90   15.67   1
  -2   1   4  231.78   17.48   1
   1  -1  -4   92.39    4.99   1
  -1   1   4   92.09    5.37   1
   0  -1  -4   83.43    4.86   1
   0   1   4   82.92    5.29   1
  -1  -1  -4   18.02    1.28   1
   1   1   4   16.26    1.25   1
  -2  -1  -4  147.66    9.12   1
   2   1   4  144.73   10.15   1
  -3  -1  -4   26.22    2.36   1
   3   1   4   22.63    2.84   1
  -4  -1  -4   97.77    8.07   1
   4   1   4   94.02    9.34   1
  -5  -1  -4   35.53    3.91   1
   5   1   4   35.34    4.33   1
  -6  -1  -4   45.05    5.21   1
   6   1   4   52.68    4.68   1
  -7  -1  -4   11.31    3.67   1
   7   1   4    9.08    2.95   1
   8   1   4    1.86    2.83   1
   9  -2  -4    1.44    2.29   1
  -9   2   4    0.30    1.93   1
   8  -2  -4   41.30    4.59   1
  -8   2   4   33.97    4.84   1
   7  -2  -4  158.13   13.07   1
  -7   2   4  147.36   11.16   1
   6  -2  -4   74.29    6.27   1
  -6   2   4   72.51    4.73   1
   5  -2  -4  111.17    8.04   1
  -5   2   4  118.20    7.45   1
   4  -2  -4  691.19   45.25   1
  -4   2   4  689.44   42.84   1
   3  -2  -4    0.80    0.28   1
  -3   2   4    0.75    0.28   1
   2  -2  -4  268.86   15.42   1
  -2   2   4  277.89   15.56   1
   1  -2  -4 1100.51   54.95   1
  -1   2   4 1139.64   63.35   1
   0  -2  -4   43.73    2.73   1
   0   2   4   45.26    2.73   1
  -1  -2  -4  103.38    6.62   1
   1   2   4  108.63    6.22   1
  -2  -2  -4  615.35   41.36   1
   2   2   4  624.30   46.41   1
  -3  -2  -4   74.45    5.22   1
   3   2   4   69.52    5.83   1
  -4  -2  -4  268.46   19.91   1
   4   2   4  257.04   22.86   1
  -5  -2  -4  131.63   10.39   1
   5   2   4  139.03   14.28   1
  -6  -2  -4    6.05    2.05   1
   6   2   4    6.88    2.99   1
  -7  -2  -4    0.87    2.01   1
   7   2   4    2.05    3.18   1
  -8  -2  -4    6.35    2.67   1
   8   2   4   14.86    3.68   1
   9  -3  -4   8.984    2.08   1
  -9   3   4    2.01    3.34   1
   8  -3  -4   60.18    6.33   1
  -8   3   4   63.19    6.35   1
   7  -3  -4   65.75    6.29   1
  -7   3   4   65.44    4.90   1
   6  -3  -4   56.42    5.13   1
  -6   3   4   59.24    4.36   1
   5  -3  -4    2.72    0.84   1
  -5   3   4    1.93    1.27   1
   4  -3  -4   87.10    5.91   1
  -4   3   4   84.38    5.45   1
   3  -3  -4   49.24    3.32   1
  -3   3   4   50.85    3.11   1
   2  -3  -4   55.91    4.10   1
  -2   3   4   56.59    3.80   1
   1  -3  -4  207.12   11.66   1
  -1   3   4  210.05   14.10   1
   0  -3  -4    5.32    0.69   1
   0   3   4    5.48    0.69   1
  -1  -3  -4    0.91    0.50   1
   1   3   4    1.08    0.51   1
  -2  -3  -4    0.02    0.10   1
   2   3   4    0.02    0.08   1
  -3  -3  -4    1.45    0.98   1
   3   3   4    1.44    0.88   1
  -4  -3  -4    1.67    1.08   1
   4   3   4    1.33    1.08   1
  -5  -3  -4   26.42    2.65   1
   5   3   4    9.41    4.74   1
  -6  -3  -4    0.61    2.78   1
   6   3   4    4.76    2.28   1
  -7  -3  -4    0.00    0.56   1
   7   3   4    0.00    0.28   1
   9  -4  -4    0.40    0.67   1
  -9   4   4    0.05    0.61   1
   8  -4  -4    2.53    2.18   1
  -8   4   4    5.71    2.02   1
   7  -4  -4   14.76    2.49   1
  -7   4   4   16.14    1.89   1
   6  -4  -4    5.68    1.67   1
  -6   4   4    8.12    1.76   1
   5  -4  -4   37.61    3.81   1
  -5   4   4   40.80    3.20   1
   4  -4  -4    9.63    1.42   1
  -4   4   4    8.16    1.15   1
   3  -4  -4   29.46    2.59   1
  -3   4   4   34.43    2.44   1
   2  -4  -4   12.83    1.44   1
  -2   4   4   15.08    1.32   1
   1  -4  -4   10.64    1.26   1
  -1   4   4   10.59    1.49   1
   0  -4  -4   73.18    5.65   1
   0   4   4   72.73    5.80   1
  -1  -4  -4    0.27    0.33   1
   1   4   4    0.31    0.42   1
  -2  -4  -4    0.02    0.13   1
   2   4   4    0.00    0.11   1
  -3  -4  -4    8.55    1.71   1
   3   4   4    7.26    1.60   1
  -4  -4  -4   40.83    3.91   1
   4   4   4   35.32    3.85   1
  -5  -4  -4    1.78    2.10   1
   5   4   4    3.03    2.95   1
  -6  -4  -4   36.42    4.70   1
   6   4   4   38.67    6.55   1
  -7  -4  -4    0.00    2.50   1
   7   4   4    5.98    3.80   1
   9  -5  -4    2.14    1.65   1
  -9   5   4    2.07    2.42   1
   8  -5  -4    5.10    1.79   1
  -8   5   4    6.72    2.60   1
   7  -5  -4    2.79    1.36   1
  -7   5   4    3.05    1.36   1
   6  -5  -4   87.74    7.15   1
  -6   5   4   90.53    6.88   1
   5  -5  -4   49.45    4.44   1
  -5   5   4   54.70    4.68   1
   4  -5  -4   40.22    3.82   1
  -4   5   4   42.81    3.53   1
   3  -5  -4    1.71    0.99   1
  -3   5   4    4.34    1.27   1
   2  -5  -4 3219.70  210.47   1
  -2   5   4 3226.18  241.10   1
   1  -5  -4    1.58    0.43   1
  -1   5   4    1.21    0.38   1
   0  -5  -4   99.82    7.46   1
   0   5   4   95.15    8.77   1
  -1  -5  -4   10.70    1.24   1
   1   5   4   10.39    1.38   1
  -2  -5  -4   65.44    4.63   1
   2   5   4   64.59    5.34   1
  -3  -5  -4   79.48    6.82   1
   3   5   4   83.07    6.68   1
  -4  -5  -4   87.56    9.15   1
   4   5   4  98.652    8.31   1
  -5  -5  -4    0.00    4.51   1
   5   5   4    6.53    1.69   1
  -6  -5  -4   28.24    7.56   1
   6   5   4   31.62    4.06   1
  -7  -5  -4   16.06    7.07   1
   7   5   4   17.15    3.37   1
  -8   6   4    2.12    0.94   1
   7  -6  -4   10.94    2.23   1
  -7   6   4   11.05    2.21   1
   6  -6  -4    0.01    0.25   1
  -6   6   4    0.02    0.22   1
   5  -6  -4   10.02    1.69   1
  -5   6   4    8.93    1.82   1
   4  -6  -4   66.47    5.62   1
  -4   6   4   64.82    5.47   1
   3  -6  -4    7.13    1.62   1
  -3   6   4    8.96    1.89   1
   2  -6  -4  146.95   10.77   1
  -2   6   4  140.86   11.28   1
   1  -6  -4   83.97    8.02   1
  -1   6   4   90.65    7.39   1
   0  -6  -4   12.11    1.68   1
   0   6   4    8.38    1.62   1
  -1  -6  -4   19.76    2.04   1
   1   6   4   18.33    2.34   1
  -2  -6  -4    0.11    1.65   1
   2   6   4    3.06    1.34   1
  -3  -6  -4    0.00    0.22   1
   3   6   4    0.21    0.17   1
  -4  -6  -4    1.36    2.27   1
   4   6   4    1.56    2.02   1
  -5  -6  -4    7.60    3.34   1
   5   6   4   9.435    2.61   1
  -6  -6  -4    0.58    1.11   1
   6   6   4    0.00    0.86   1
   8  -7  -4    1.51    1.71   1
  -8   7   4    2.81    2.32   1
   7  -7  -4    0.95    1.28   1
  -7   7   4    2.28    2.14   1
   6  -7  -4    5.81    1.35   1
  -6   7   4    2.99    2.10   1
   5  -7  -4    0.41    0.23   1
  -5   7   4    0.11    0.16   1
   4  -7  -4    1.18    1.08   1
  -4   7   4    0.34    0.77   1
   3  -7  -4   48.95    4.34   1
  -3   7   4   47.92    4.50   1
   2  -7  -4   15.92    2.17   1
  -2   7   4   20.58    2.40   1
   1  -7  -4   29.65    2.44   1
  -1   7   4   27.15    3.01   1
   0  -7  -4   26.06    2.51   1
   0   7   4   22.83    2.57   1
  -1  -7  -4    0.71    1.44   1
   1   7   4    0.00    1.41   1
  -2  -7  -4   31.40    3.38   1
   2   7   4   35.13    3.33   1
  -3  -7  -4    0.00    2.46   1
   3   7   4    0.60    1.07   1
  -4  -7  -4    3.70    3.08   1
   4   7   4    1.46    1.56   1
   5   7   4    3.71    1.38   1
   6   7   4    1.61    2.11   1
   8  -8  -4    0.00    2.86   1
  -8   8   4    1.66    2.36   1
   7  -8  -4   13.78    3.04   1
  -7   8   4    6.44    2.03   1
   6  -8  -4    0.00    0.98   1
  -6   8   4    0.36    0.70   1
   5  -8  -4    1.26    1.82   1
  -5   8   4    1.70    1.17   1
   4  -8  -4   22.46    3.58   1
  -4   8   4   16.57    4.41   1
   3  -8  -4  537.82   40.20   1
  -3   8   4  523.72   43.61   1
   2  -8  -4    1.16    1.16   1
  -2   8   4    1.53    1.05   1
   1  -8  -4   13.83    1.84   1
  -1   8   4   10.78    2.14   1
   0  -8  -4  115.43    8.28   1
   0   8   4  124.89   13.19   1
  -1  -8  -4   10.01    4.23   1
   1   8   4   16.49    3.58   1
  -2  -8  -4   16.17    4.95   1
   2   8   4   21.90    4.83   1
  -3  -8  -4   9.767    3.25   1
   3   8   4   11.83    3.92   1
  -4  -8  -4   38.62    5.75   1
   4   8   4   49.16    7.48   1
  -5  -8  -4    0.00    3.70   1
   7  -9  -4    0.90    3.15   1
  -7   9   4    0.00    4.23   1
   6  -9  -4    0.03    2.74   1
  -6   9   4    1.25    1.50   1
   5  -9  -4    8.45    2.70   1
  -5   9   4    4.21    2.44   1
   4  -9  -4    0.00    1.70   1
  -4   9   4    0.82    1.98   1
   3  -9  -4   42.03    4.02   1
  -3   9   4   45.78    5.99   1
   2  -9  -4   19.83    2.09   1
  -2   9   4   14.71    2.48   1
   1  -9  -4    4.60    1.25   1
  -1   9   4    2.09    1.39   1
   0  -9  -4   26.88    3.13   1
   0   9   4   22.42    4.92   1
  -1  -9  -4    0.00    4.08   1
   1   9   4    2.86    2.02   1
  -2  -9  -4    0.00    2.53   1
   2   9   4    0.00    1.83   1
  -3  -9  -4    0.00    4.32   1
   3   9   4    0.51    2.07   1
  -4  -9  -4    0.00    4.17   1
   4   9   4    0.00    1.54   1
   6 -10  -4    0.00    1.99   1
  -6  10   4    0.00    1.63   1
   5 -10  -4    0.00    0.78   1
  -5  10   4    0.02    0.68   1
   4 -10  -4    8.13    2.78   1
  -4  10   4    4.53    2.07   1
   3 -10  -4    3.37    2.79   1
  -3  10   4   11.46    2.36   1
   2 -10  -4    0.03    0.26   1
  -2  10   4    0.24    0.22   1
   1 -10  -4    1.93    2.20   1
  -1  10   4    2.65    1.92   1
   0 -10  -4    0.00    1.78   1
   0  10   4    0.00    0.62   1
  -1 -10  -4   9.460    5.37   1
   1  10   4    4.35    3.91   1
  -2 -10  -4    4.19    5.62   1
   2  10   4    4.45    4.00   1
  -3 -10  -4    0.00    2.77   1
   3  10   4    0.39    2.06   1
   5 -11  -4    0.00    1.95   1
  -5  11   4    0.00    3.87   1
   4 -11  -4   19.37    3.26   1
  -4  11   4   28.84    6.23   1
   3 -11  -4    4.23    2.82   1
  -3  11   4    2.76    1.76   1
   2 -11  -4    6.97    1.87   1
  -2  11   4    4.40    2.61   1
   1 -11  -4   10.40    1.83   1
  -1  11   4    8.45    2.39   1
   0 -11  -4    8.07    3.87   1
   0  11   4    6.21    2.72   1
  -1 -11  -4   16.04    4.41   1
   1  11   4   16.68    3.84   1
   2  11   4   64.24   10.36   1
   3 -12  -4    0.00    2.11   1
  -3  12   4    1.12    2.95   1
   2 -12  -4    0.00    0.76   1
  -2  12   4    0.25    0.26   1
   1 -12  -4    0.83    3.49   1
  -1  12   4    0.00    4.20   1
   0 -12  -4    0.00    3.87   1
   0  12   4    0.00    3.35   1
   2  13  -5    0.34    1.29   1
   1  13  -5    2.37    1.55   1
  -1 -13   5    0.91    1.07   1
   0  13  -5    2.28    2.63   1
   0 -13   5    3.98    2.25   1
  -1  13  -5    4.30    3.06   1
   1 -13   5    6.78    2.93   1
  -2  13  -5    1.97    2.65   1
   2 -13   5    1.39    1.74   1
  -3  13  -5    0.59    0.56   1
   3 -13   5    0.00    0.55   1
   3  12  -5    0.91    2.14   1
  -3 -12   5    1.10    1.41   1
   2  12  -5    1.33    1.59   1
  -2 -12   5    0.00    1.13   1
   1  12  -5    0.64    1.80   1
  -1 -12   5    0.00    1.89   1
   0  12  -5    0.00    0.36   1
   0 -12   5    0.00    0.36   1
  -1  12  -5    5.59    2.37   1
   1 -12   5   13.05    4.24   1
  -2  12  -5    2.21    2.01   1
   2 -12   5    0.00    2.29   1
  -3  12  -5   9.943    2.53   1
   3 -12   5   10.15    3.15   1
  -4  12  -5    0.12    0.26   1
   4 -12   5    0.55    0.53   1
  -5  12  -5    0.01    1.95   1
   5 -12   5    0.00    1.94   1
   5  11  -5    4.94    2.69   1
  -5 -11   5    0.20    3.55   1
   4  11  -5    0.86    1.48   1
  -4 -11   5    0.83    1.65   1
   3  11  -5   60.16    6.02   1
  -3 -11   5   63.71    6.79   1
   2  11  -5    5.36    1.89   1
  -2 -11   5   15.87    6.23   1
   1  11  -5    3.89    1.79   1
  -1 -11   5    8.22    4.49   1
   0  11  -5   10.79    2.82   1
   0 -11   5   12.00    3.11   1
  -1  11  -5    3.16    2.50   1
   1 -11   5    3.21    2.52   1
  -2  11  -5   22.40    3.69   1
   2 -11   5   32.82    4.64   1
  -3  11  -5   26.85    3.83   1
   3 -11   5   22.62    3.61   1
  -4  11  -5    6.77    2.73   1
   4 -11   5   8.969    1.58   1
  -5  11  -5    0.00    0.38   1
   5 -11   5    0.02    0.28   1
  -6  11  -5   36.65    4.96   1
   5  10  -5   45.07    4.48   1
  -5 -10   5   46.52    8.29   1
   4  10  -5    5.62    1.83   1
  -4 -10   5    4.79    2.64   1
   3  10  -5   50.30    5.04   1
  -3 -10   5   57.87    5.87   1
   2  10  -5   13.71    2.14   1
  -2 -10   5   18.31    2.57   1
   1  10  -5    0.37    0.95   1
  -1 -10   5    1.81    2.03   1
   0  10  -5    0.00    1.23   1
  -1  10  -5    0.99    1.62   1
   1 -10   5    0.73    2.82   1
  -2  10  -5   23.50    2.93   1
   2 -10   5   19.89    4.11   1
  -3  10  -5    3.83    1.95   1
   3 -10   5    4.20    1.56   1
  -4  10  -5    0.17    0.46   1
   4 -10   5    0.06    0.36   1
  -5  10  -5    0.66    1.01   1
   5 -10   5    0.00    0.79   1
  -6  10  -5    6.82    3.52   1
   6 -10   5    3.05    3.28   1
   6   9  -5    2.07    2.33   1
  -6  -9   5    0.57    6.16   1
   5   9  -5    0.00    1.92   1
  -5  -9   5    1.08    2.83   1
   4   9  -5   19.13    2.87   1
  -4  -9   5   24.68    4.91   1
   3   9  -5    2.27    1.45   1
  -3  -9   5    0.98    1.97   1
   2   9  -5   18.52    2.33   1
  -2  -9   5   23.28    3.38   1
   1   9  -5    0.04    0.92   1
  -1  -9   5    0.00    0.91   1
   0   9  -5    3.57    1.25   1
   0  -9   5    0.75    2.29   1
  -1   9  -5    0.93    1.54   1
   1  -9   5    0.45    2.53   1
  -2   9  -5    3.05    1.60   1
   2  -9   5    4.44    2.70   1
  -3   9  -5    8.36    2.06   1
   3  -9   5    8.17    1.84   1
  -4   9  -5    0.00    0.47   1
   4  -9   5    0.29    0.41   1
  -5   9  -5   17.48    2.90   1
   5  -9   5   14.17    2.99   1
  -6   9  -5    0.00    1.82   1
   6  -9   5    2.46    1.96   1
  -7   9  -5    0.00    0.21   1
   7  -9   5    0.08    0.20   1
   7   8  -5    6.97    2.42   1
   6   8  -5    5.10    2.03   1
  -6  -8   5    6.73    6.14   1
   5   8  -5    0.43    0.56   1
  -5  -8   5    0.00    2.19   1
   4   8  -5   66.42    6.25   1
  -4  -8   5   71.25    6.43   1
   3   8  -5  109.68   9.818   1
  -3  -8   5  114.41   9.970   1
   2   8  -5    2.09    1.01   1
  -2  -8   5    5.12    1.24   1
   1   8  -5  103.95    8.22   1
  -1  -8   5  108.41    9.11   1
   0   8  -5   38.00    4.55   1
   0  -8   5   40.62    4.27   1
  -1   8  -5   11.53    1.97   1
   1  -8   5   14.24    2.80   1
  -2   8  -5    0.00    0.82   1
   2  -8   5    0.02    0.52   1
  -3   8  -5   84.24    7.61   1
   3  -8   5   83.40    6.43   1
  -4   8  -5    5.68    1.87   1
   4  -8   5    6.08    1.47   1
  -5   8  -5  140.76   12.60   1
   5  -8   5  111.10   17.85   1
  -6   8  -5   12.74    2.78   1
   6  -8   5   12.77    3.87   1
  -7   8  -5    0.00    0.25   1
   7  -8   5    0.00    0.30   1
   7   7  -5    3.34    5.44   1
  -7  -7   5    2.08    7.97   1
   6   7  -5    2.03    1.23   1
  -6  -7   5   42.45    8.35   1
   5   7  -5    0.63    2.02   1
  -5  -7   5    3.98    2.97   1
   4   7  -5  149.17   13.44   1
  -4  -7   5  159.20   16.66   1
   3   7  -5  242.00   21.43   1
  -3  -7   5  255.04   21.72   1
   2   7  -5   10.28    1.57   1
  -2  -7   5   10.92    1.83   1
   1   7  -5  161.62   12.76   1
  -1  -7   5  181.19   14.96   1
   0   7  -5    0.99    0.86   1
   0  -7   5    3.65    1.44   1
  -1   7  -5    9.00    1.56   1
   1  -7   5    4.08    1.48   1
  -2   7  -5    0.35    1.10   1
   2  -7   5    0.48    0.85   1
  -3   7  -5    1.11    0.99   1
   3  -7   5    0.13    0.73   1
  -4   7  -5   21.60    2.78   1
   4  -7   5   15.47    1.96   1
  -5   7  -5    1.71    1.39   1
   5  -7   5    0.15    1.51   1
  -6   7  -5    0.30    1.41   1
   6  -7   5    0.04    1.42   1
  -7   7  -5    0.00    0.22   1
   7  -7   5    0.14    0.50   1
  -8   7  -5    0.22    0.75   1
   8  -7   5    0.37    0.81   1
   8   6  -5    0.39    1.33   1
  -8  -6   5    0.42    3.02   1
   7   6  -5    0.00    1.53   1
  -7  -6   5    0.00    1.33   1
   6   6  -5    0.00    0.65   1
  -6  -6   5    0.56    0.82   1
   5   6  -5    1.24    1.39   1
  -5  -6   5    1.28    1.48   1
   4   6  -5   40.56    3.81   1
  -4  -6   5   41.02    3.95   1
   3   6  -5    2.34    0.67   1
  -3  -6   5    0.83    0.90   1
   2   6  -5  107.54   11.52   1
  -2  -6   5  105.69    9.38   1
   1   6  -5   36.94    3.52   1
  -1  -6   5   38.58    2.90   1
   0   6  -5  160.20   12.18   1
   0  -6   5  163.63   13.48   1
  -1   6  -5    5.96    1.24   1
   1  -6   5    9.94    0.94   1
  -2   6  -5    9.15    1.44   1
   2  -6   5    9.23    1.22   1
  -3   6  -5    0.54    0.76   1
   3  -6   5    1.61    0.74   1
  -4   6  -5    0.04    0.14   1
   4  -6   5    0.17    0.11   1
  -5   6  -5    7.06    1.47   1
   5  -6   5    5.84    1.39   1
  -6   6  -5    0.02    0.90   1
   6  -6   5    0.35    0.73   1
  -7   6  -5    0.34    2.06   1
   7  -6   5    0.00    1.28   1
  -8   6  -5    1.44    2.24   1
   8  -6   5    1.13    1.31   1
   8   5  -5    7.17    4.76   1
  -8  -5   5    0.00    5.78   1
   7   5  -5    2.07    4.16   1
  -7  -5   5    2.71    2.95   1
   6   5  -5    0.00    1.60   1
  -6  -5   5    0.27    2.03   1
   5   5  -5   25.32    4.11   1
  -5  -5   5   39.59    4.34   1
   4   5  -5    5.71    1.68   1
  -4  -5   5    3.77    2.07   1
   3   5  -5    0.00    0.62   1
  -3  -5   5    0.65    1.04   1
   2   5  -5  121.15    8.86   1
  -2  -5   5  108.03   10.11   1
   1   5  -5  228.33   16.75   1
  -1  -5   5  195.23   23.59   1
   0   5  -5    0.92    0.39   1
   0  -5   5    0.46    0.44   1
  -1   5  -5  329.90   21.47   1
   1  -5   5  312.58   19.11   1
  -2   5  -5   41.58    3.81   1
   2  -5   5   40.61    2.79   1
  -3   5  -5   96.14    8.33   1
   3  -5   5   82.02    5.73   1
  -4   5  -5    7.24    1.39   1
   4  -5   5    7.79    1.19   1
  -5   5  -5    3.80    1.31   1
   5  -5   5    2.75    1.35   1
  -6   5  -5    0.40    0.56   1
   6  -5   5    0.72    0.87   1
  -7   5  -5    3.48    1.57   1
   7  -5   5    3.75    2.33   1
  -8   5  -5    3.07    2.96   1
   8  -5   5    0.00    3.74   1
   8   4  -5    5.80    2.92   1
  -8  -4   5    8.92    6.42   1
   7   4  -5   10.95    3.12   1
  -7  -4   5    9.27    2.61   1
   6   4  -5   26.42    3.49   1
  -6  -4   5   28.96    7.03   1
   5   4  -5   26.65    2.73   1
  -5  -4   5   39.53    5.83   1
   4   4  -5  109.87    8.27   1
  -4  -4   5  109.65   12.28   1
   3   4  -5  115.27    8.60   1
  -3  -4   5  113.77    7.80   1
   2   4  -5  664.09   43.42   1
  -2  -4   5  619.78   49.09   1
   1   4  -5  485.09   26.48   1
  -1  -4   5  459.78   31.49   1
   0   4  -5   17.44    1.05   1
   0  -4   5   17.18    1.13   1
  -1   4  -5  778.03   42.00   1
   1  -4   5  737.52   41.99   1
  -2   4  -5    6.74    1.08   1
   2  -4   5    7.27    0.83   1
  -3   4  -5    8.85    1.11   1
   3  -4   5    7.88    0.88   1
  -4   4  -5   38.65    3.29   1
   4  -4   5   42.36    2.65   1
  -5   4  -5    1.70    0.78   1
   5  -4   5    2.66    0.90   1
  -6   4  -5   10.75    1.54   1
   6  -4   5   12.49    2.06   1
  -7   4  -5    0.00    1.07   1
   7  -4   5    0.00    1.18   1
  -8   4  -5    0.00    1.01   1
   8  -4   5    0.00    1.14   1
   9   3  -5   8.805    2.52   1
  -9  -3   5    6.23    6.67   1
   8   3  -5    2.47    2.36   1
  -8  -3   5    0.29    3.84   1
   7   3  -5    3.76    3.30   1
  -7  -3   5    2.44    2.41   1
   6   3  -5    5.05    1.25   1
  -6  -3   5    4.00    3.68   1
   5   3  -5    2.07    1.05   1
  -5  -3   5    2.33    1.63   1
   4   3  -5    0.58    0.79   1
  -4  -3   5    0.21    0.82   1
   3   3  -5   25.72    1.85   1
  -3  -3   5   27.29    2.74   1
   2   3  -5    6.11    0.74   1
  -2  -3   5    5.73    0.87   1
   1   3  -5   10.37    0.92   1
  -1  -3   5    9.99    0.94   1
   0   3  -5  460.28   24.94   1
   0  -3   5  434.72   27.03   1
  -1   3  -5    3.70    0.54   1
   1  -3   5    4.07    0.51   1
  -2   3  -5  108.89    6.52   1
   2  -3   5  100.99    5.61   1
  -3   3  -5    6.33    1.12   1
   3  -3   5    6.94    0.94   1
  -4   3  -5   34.76    3.46   1
   4  -3   5   29.91    2.88   1
  -5   3  -5   16.64    3.10   1
   5  -3   5   15.15    2.34   1
  -6   3  -5    0.07    2.01   1
   6  -3   5    1.19    1.74   1
  -7   3  -5    8.75    2.83   1
   7  -3   5    7.89    2.58   1
  -8   3  -5    0.00    2.27   1
   8  -3   5    5.86    2.33   1
   9   2  -5    0.00    0.25   1
  -9  -2   5    0.35    1.11   1
   8   2  -5    0.91    2.43   1
  -8  -2   5    0.00    6.59   1
   7   2  -5    0.86    0.74   1
  -7  -2   5    1.21    1.14   1
   6   2  -5    4.54    2.12   1
  -6  -2   5    3.43    2.01   1
   5   2  -5    0.90    0.83   1
  -5  -2   5    0.56    0.80   1
   4   2  -5    0.32    0.23   1
  -4  -2   5    0.23    0.24   1
   3   2  -5   35.33    2.74   1
  -3  -2   5   41.63    2.84   1
   2   2  -5    0.08    0.07   1
  -2  -2   5    0.12    0.08   1
   1   2  -5    2.72    0.52   1
  -1  -2   5    3.31    0.51   1
   0   2  -5    5.66    0.47   1
   0  -2   5    5.17    0.63   1
  -1   2  -5  160.21    8.71   1
   1  -2   5  150.60    8.65   1
  -2   2  -5  122.34    8.04   1
   2  -2   5  115.52    6.30   1
  -3   2  -5  794.19   51.21   1
   3  -2   5  786.12   44.84   1
  -4   2  -5   17.75    2.61   1
   4  -2   5   15.06    1.54   1
  -5   2  -5  187.16   16.99   1
   5  -2   5  192.31   15.66   1
  -6   2  -5   12.51    3.04   1
   6  -2   5   14.72    2.15   1
  -7   2  -5    8.47    2.78   1
   7  -2   5    8.20    2.03   1
  -8   2  -5   22.09    5.16   1
   8  -2   5   23.78    4.35   1
   9   1  -5   44.59    5.19   1
  -9  -1   5   44.16   10.08   1
   8   1  -5   22.04    3.07   1
  -8  -1   5   14.97    6.59   1
   7   1  -5  228.61   32.36   1
  -7  -1   5  212.04   35.98   1
   6   1  -5   14.91    2.15   1
  -6  -1   5   16.91    2.10   1
   5   1  -5   21.89    2.59   1
  -5  -1   5   23.86    2.01   1
   4   1  -5  175.67   14.05   1
  -4  -1   5  185.05   11.63   1
   3   1  -5  573.49   38.39   1
  -3  -1   5  573.62   35.71   1
   2   1  -5   47.73    3.08   1
  -2  -1   5   44.57    3.12   1
   1   1  -5    0.00    0.36   1
  -1  -1   5    0.00    0.44   1
   0   1  -5  443.21   24.27   1
   0  -1   5  425.59   23.02   1
  -1   1  -5   66.46    3.77   1
   1  -1   5   64.37    3.78   1
  -2   1  -5   31.49    2.39   1
   2  -1   5   28.01    1.99   1
  -3   1  -5  150.51   9.953   1
   3  -1   5  144.77    9.03   1
  -4   1  -5   15.08    1.72   1
   4  -1   5   14.22    1.80   1
  -5   1  -5    0.00    1.61   1
   5  -1   5    3.07    1.34   1
  -6   1  -5    0.00    0.29   1
   6  -1   5    0.02    0.21   1
  -7   1  -5    0.60    0.57   1
   7  -1   5    0.75    0.46   1
  -8   1  -5    7.81    2.56   1
   8  -1   5    2.95    4.34   1
   9   0  -5    0.00    0.61   1
  -9   0   5    0.00    2.69   1
   8   0  -5    2.45    1.37   1
  -8   0   5    2.93    3.30   1
   7   0  -5    4.99    2.21   1
  -7   0   5    5.87    2.50   1
   6   0  -5    4.43    5.29   1
  -6   0   5   10.92    2.36   1
   5   0  -5   44.87    4.11   1
  -5   0   5   46.68    3.80   1
   4   0  -5   23.54    2.51   1
  -4   0   5   27.98    2.00   1
   3   0  -5   30.59    2.10   1
  -3   0   5   32.00    2.14   1
   2   0  -5    4.26    0.61   1
  -2   0   5    3.51    0.55   1
   1   0  -5  105.12    5.30   1
  -1   0   5  105.21    6.61   1
   0   0  -5   64.56    4.05   1
   0   0   5   62.82    3.47   1
  -1   0  -5    4.62    0.66   1
   1   0   5    4.64    0.71   1
  -2   0  -5  219.97   14.57   1
   2   0   5  213.77   14.89   1
  -3   0  -5   64.79    4.83   1
   3   0   5   54.80    4.67   1
  -4   0  -5   27.52    3.45   1
   4   0   5   14.85    1.84   1
  -5   0  -5    1.44    1.48   1
   5   0   5    0.67    0.97   1
  -6   0  -5    2.64    1.56   1
   6   0   5    2.13    1.45   1
  -7   0  -5    5.26    2.71   1
   7   0   5    3.00    1.36   1
  -8   0  -5    0.00    2.49   1
   8   0   5    0.00    1.42   1
   9  -1  -5    0.00    0.64   1
  -9   1   5    0.19    1.16   1
   8  -1  -5    0.13    0.18   1
  -8   1   5    0.01    0.16   1
   7  -1  -5   12.41    1.59   1
  -7   1   5    9.00    3.00   1
   6  -1  -5    6.81    1.15   1
  -6   1   5    5.31    1.28   1
   5  -1  -5    1.74    0.69   1
  -5   1   5    0.42    0.54   1
   4  -1  -5   16.76    2.05   1
  -4   1   5   17.21    1.63   1
   3  -1  -5   86.07    6.16   1
  -3   1   5   85.95    5.71   1
   2  -1  -5   57.97    3.81   1
  -2   1   5   57.20    3.80   1
   1  -1  -5   40.33    2.48   1
  -1   1   5   40.92    2.67   1
   0  -1  -5    2.56    0.49   1
   0   1   5    2.42    0.49   1
  -1  -1  -5  112.06    6.99   1
   1   1   5  112.61    7.08   1
  -2  -1  -5  366.66   24.56   1
   2   1   5  366.41   28.15   1
  -3  -1  -5    7.84    1.10   1
   3   1   5    9.18    1.29   1
  -4  -1  -5  118.09    9.21   1
   4   1   5  110.66   10.98   1
  -5  -1  -5  224.18   17.72   1
   5   1   5  248.41   24.27   1
  -6  -1  -5    5.40    2.14   1
   6   1   5   10.92    2.81   1
  -7  -1  -5   12.24    2.40   1
   7   1   5   11.98    3.79   1
  -8  -1  -5    0.03    2.02   1
   8   1   5    0.00    2.66   1
   9  -2  -5   28.84    3.78   1
  -9   2   5   25.99    7.20   1
   8  -2  -5   75.71    7.83   1
  -8   2   5   77.84    7.61   1
   7  -2  -5  210.01   17.13   1
  -7   2   5  195.83   16.06   1
   6  -2  -5   13.36    1.50   1
  -6   2   5   11.34    1.96   1
   5  -2  -5   22.38    2.07   1
  -5   2   5   22.96    2.30   1
   4  -2  -5    6.42    0.87   1
  -4   2   5    6.19    0.84   1
   3  -2  -5   48.77    4.18   1
  -3   2   5   49.05    3.05   1
   2  -2  -5  177.35   11.71   1
  -2   2   5  192.57   10.81   1
   1  -2  -5  172.98    10.2   1
  -1   2   5  186.27    10.3   1
   0  -2  -5   11.17    0.86   1
   0   2   5   10.39    0.86   1
  -1  -2  -5    0.80    0.36   1
   1   2   5    0.43    0.35   1
  -2  -2  -5  345.19   23.39   1
   2   2   5  352.28   23.68   1
  -3  -2  -5    0.14    0.74   1
   3   2   5    1.31    0.71   1
  -4  -2  -5  100.83    7.69   1
   4   2   5   89.39    7.30   1
  -5  -2  -5  132.15   10.51   1
   5   2   5  137.73   13.93   1
  -6  -2  -5    0.00    2.90   1
   6   2   5    3.53    2.26   1
  -7  -2  -5    0.00    3.74   1
   7   2   5    1.40    1.83   1
   9  -3  -5    0.00    1.12   1
  -9   3   5    1.90    0.99   1
   8  -3  -5    0.47    1.80   1
  -8   3   5    2.87    1.68   1
   7  -3  -5    0.00    1.36   1
  -7   3   5    0.11    1.19   1
   6  -3  -5    6.87    1.63   1
  -6   3   5    6.80    1.65   1
   5  -3  -5   86.94    6.29   1
  -5   3   5   87.24    6.54   1
   4  -3  -5    9.98    1.30   1
  -4   3   5    9.92    1.23   1
   3  -3  -5   70.46    4.50   1
  -3   3   5   73.16    5.13   1
   2  -3  -5   55.79    4.43   1
  -2   3   5   64.27    4.09   1
   1  -3  -5    9.50    0.92   1
  -1   3   5   14.76    1.10   1
   0  -3  -5   10.97    1.08   1
   0   3   5   12.18    1.32   1
  -1  -3  -5    4.42    0.84   1
   1   3   5    5.44    1.09   1
  -2  -3  -5   10.43    1.40   1
   2   3   5   12.15    1.56   1
  -3  -3  -5    0.02    0.11   1
   3   3   5    0.03    0.16   1
  -4  -3  -5   15.30    2.35   1
   4   3   5   19.27    2.30   1
  -5  -3  -5    9.92    2.23   1
   5   3   5   14.20    3.13   1
  -6  -3  -5    1.07    1.85   1
   6   3   5    0.00    2.92   1
  -7  -3  -5    0.99    1.13   1
   7   3   5    0.11    1.99   1
   9  -4  -5    0.53    0.54   1
  -9   4   5    0.40    0.72   1
   8  -4  -5    7.05    1.93   1
  -8   4   5    4.49    2.34   1
   7  -4  -5    0.00    1.25   1
  -7   4   5    1.39    1.05   1
   6  -4  -5    8.09    1.59   1
  -6   4   5    7.69    1.84   1
   5  -4  -5   21.91    2.08   1
  -5   4   5   22.08    2.29   1
   4  -4  -5    7.45    1.09   1
  -4   4   5    8.57    1.02   1
   3  -4  -5    9.13    1.19   1
  -3   4   5   10.23    1.17   1
   2  -4  -5    2.12    0.69   1
  -2   4   5    3.48    0.70   1
   1  -4  -5    0.46    0.54   1
  -1   4   5    0.84    0.75   1
   0  -4  -5    1.08    0.81   1
   0   4   5    0.64    0.91   1
  -1  -4  -5   32.93    2.31   1
   1   4   5   31.56    3.01   1
  -2  -4  -5   57.75    4.71   1
   2   4   5   53.05    4.54   1
  -3  -4  -5    9.47    1.66   1
   3   4   5    9.77    1.51   1
  -4  -4  -5   12.83    3.12   1
   4   4   5   19.54    2.32   1
  -5  -4  -5    0.00    2.66   1
   5   4   5    2.39    1.33   1
  -6  -4  -5   22.84    6.21   1
   6   4   5   41.07    6.90   1
   7   4   5   37.43    7.25   1
   9  -5  -5   19.76    2.94   1
  -9   5   5   10.67    2.68   1
   8  -5  -5   71.62    7.37   1
  -8   5   5   63.89    6.32   1
   7  -5  -5   14.79    2.45   1
  -7   5   5   14.82    1.83   1
   6  -5  -5   69.91    6.25   1
  -6   5   5   64.61    5.67   1
   5  -5  -5  203.53   14.92   1
  -5   5   5  205.72   15.66   1
   4  -5  -5    0.07    0.14   1
  -4   5   5    0.16    0.13   1
   3  -5  -5    0.85    0.76   1
  -3   5   5    0.65    0.90   1
   2  -5  -5  856.16   64.19   1
  -2   5   5  919.75   66.52   1
   1  -5  -5  128.97    9.78   1
  -1   5   5  128.28   10.18   1
   0  -5  -5    0.53    0.41   1
   0   5   5    0.64    0.47   1
  -1  -5  -5   24.56    2.12   1
   1   5   5   25.02    2.82   1
  -2  -5  -5    6.21    1.93   1
   2   5   5   10.29    1.67   1
  -3  -5  -5   23.56    3.09   1
   3   5   5   26.65    2.91   1
  -4  -5  -5  98.735   11.71   1
   4   5   5  112.40   11.11   1
  -5  -5  -5    0.40    2.62   1
   5   5   5    7.05    2.32   1
  -6  -5  -5   13.79    3.35   1
   6   5   5   14.40    3.08   1
   8  -6  -5    0.06    1.44   1
  -8   6   5    3.20    2.30   1
   7  -6  -5    3.11    1.55   1
  -7   6   5    6.21    2.26   1
   6  -6  -5    0.18    0.70   1
  -6   6   5    0.60    1.05   1
   5  -6  -5    0.07    0.10   1
  -5   6   5    0.06    0.12   1
   4  -6  -5    2.94    1.55   1
  -4   6   5    2.62    1.23   1
   3  -6  -5   27.51    3.00   1
  -3   6   5   33.82    3.34   1
   2  -6  -5    5.81    1.31   1
  -2   6   5    8.20    1.42   1
   1  -6  -5    8.97    1.39   1
  -1   6   5    7.21    1.51   1
   0  -6  -5   11.36    2.16   1
   0   6   5   20.32    2.81   1
  -1  -6  -5    1.69    0.92   1
   1   6   5    0.92    0.92   1
  -2  -6  -5   16.61    2.57   1
   2   6   5   23.10    2.44   1
  -3  -6  -5    0.00    1.86   1
   3   6   5    0.29    0.88   1
  -4  -6  -5    0.00    4.70   1
   4   6   5    5.07    1.49   1
   5   6   5    2.99    1.68   1
   6   6   5    1.13    1.65   1
   8  -7  -5    0.03    3.09   1
  -8   7   5    1.10    2.00   1
   7  -7  -5    5.11    2.85   1
  -7   7   5    2.36    1.76   1
   6  -7  -5    0.00    1.16   1
  -6   7   5    0.28    1.09   1
   5  -7  -5    1.82    2.18   1
  -5   7   5    1.36    1.78   1
   4  -7  -5    0.00    0.17   1
  -4   7   5    0.00    0.19   1
   3  -7  -5   10.94    2.07   1
  -3   7   5   13.11    2.35   1
   2  -7  -5   69.37    5.96   1
  -2   7   5   67.52    6.20   1
   1  -7  -5   13.00    1.71   1
  -1   7   5   10.86    2.27   1
   0  -7  -5    7.33    1.62   1
   0   7   5    4.84    2.56   1
  -1  -7  -5   14.80    2.64   1
   1   7   5   13.71    3.10   1
  -2  -7  -5    0.00    0.59   1
   2   7   5    0.27    0.45   1
  -3  -7  -5    0.00    0.39   1
   3   7   5    0.00    0.32   1
  -4  -7  -5    0.00    2.60   1
   4   7   5    2.31    2.23   1
  -5  -7  -5    2.51    3.34   1
   5   7   5   9.448    3.04   1
   7  -8  -5   33.30    5.95   1
  -7   8   5   18.25    5.80   1
   6  -8  -5   23.10    3.94   1
  -6   8   5   18.97    2.94   1
   5  -8  -5    5.11    2.54   1
  -5   8   5    7.87    1.94   1
   4  -8  -5   14.05    2.67   1
  -4   8   5    5.80    3.34   1
   3  -8  -5  619.36   50.91   1
  -3   8   5  619.09   66.69   1
   2  -8  -5    0.05    0.52   1
  -2   8   5    0.43    0.63   1
   1  -8  -5    0.96    0.48   1
  -1   8   5    0.52    0.63   1
   0  -8  -5   29.60    4.70   1
   0   8   5   33.89    4.92   1
  -1  -8  -5   48.58    8.65   1
   1   8   5   47.49    7.81   1
  -2  -8  -5    0.04    2.28   1
   2   8   5    1.71    1.60   1
  -3  -8  -5    3.36    3.45   1
   3   8   5    0.75    2.13   1
  -4  -8  -5    8.65    7.04   1
   4   8   5   9.936    3.20   1
  -5  -8  -5    2.78    7.88   1
   5   8   5    4.49    2.64   1
   7  -9  -5    0.62    2.49   1
  -7   9   5    2.74    2.08   1
   6  -9  -5    0.17    0.92   1
  -6   9   5    0.51    0.48   1
   5  -9  -5    0.00    1.96   1
  -5   9   5    1.58    1.30   1
   4  -9  -5    1.05    1.76   1
  -4   9   5    0.67    1.83   1
   3  -9  -5    1.12    2.02   1
  -3   9   5    4.05    1.42   1
   2  -9  -5   10.29    1.92   1
  -2   9   5    3.38    1.69   1
   1  -9  -5   9.319    1.99   1
  -1   9   5    6.49    2.03   1
   0  -9  -5    2.56    2.06   1
   0   9   5    1.68    1.71   1
  -1  -9  -5    0.00    3.11   1
   1   9   5    0.00    1.40   1
  -2  -9  -5    5.64    5.42   1
  -3  -9  -5    0.00    1.88   1
  -4  -9  -5    0.00    1.47   1
   6 -10  -5    0.60    2.27   1
  -6  10   5    0.00    3.11   1
   5 -10  -5    0.00    1.12   1
  -5  10   5    1.08    0.92   1
   4 -10  -5    1.58    1.03   1
  -4  10   5    0.62    1.35   1
   3 -10  -5    0.56    1.00   1
  -3  10   5    1.35    1.51   1
   2 -10  -5    2.04    1.47   1
  -2  10   5    1.57    1.66   1
   1 -10  -5    5.19    1.64   1
  -1  10   5    4.52    2.06   1
   0 -10  -5    3.70    3.10   1
   0  10   5    3.72    1.86   1
  -1 -10  -5    3.11    5.18   1
   1  10   5    2.00    2.36   1
  -2 -10  -5    2.17    3.43   1
   2  10   5    0.09    1.71   1
  -3 -10  -5    1.59    2.73   1
   3  10   5    1.53    2.70   1
   5 -11  -5    2.32    5.11   1
  -5  11   5    0.00    2.74   1
   4 -11  -5  152.48   15.65   1
  -4  11   5  108.33   16.74   1
   3 -11  -5    0.00    1.50   1
  -3  11   5    1.33    0.95   1
   2 -11  -5   16.19    2.59   1
  -2  11   5   13.09    2.77   1
   1 -11  -5   20.12    7.38   1
  -1  11   5   19.96    3.52   1
   0 -11  -5    3.31    3.76   1
   0  11   5    0.85    3.39   1
  -1 -11  -5    0.00    2.64   1
   1  11   5    1.23    3.03   1
   2  13  -6    2.06    2.86   1
  -2 -13   6    2.36    5.05   1
   1  13  -6    0.93    2.47   1
   0  13  -6    0.00    2.17   1
   0 -13   6    0.00    2.48   1
  -1  13  -6   11.07    3.17   1
   1 -13   6   18.41    3.97   1
  -2  13  -6    0.00    1.29   1
   2 -13   6    1.66    2.07   1
  -3  13  -6    0.33    1.64   1
   3 -13   6    0.57    2.03   1
   4  12  -6    0.00    0.18   1
  -4 -12   6    0.10    0.34   1
   3  12  -6    1.31    1.80   1
  -3 -12   6   9.150    3.25   1
   2  12  -6    0.22    0.75   1
  -2 -12   6    0.00    1.48   1
   1  12  -6    0.19    1.41   1
  -1 -12   6    3.13    5.46   1
   0  12  -6    4.72    2.50   1
   0 -12   6    2.60    1.83   1
  -1  12  -6    0.05    2.05   1
   1 -12   6    0.15    1.77   1
  -2  12  -6    1.14    0.43   1
   2 -12   6    0.00    0.27   1
  -3  12  -6    4.51    2.41   1
   3 -12   6    4.26    2.46   1
  -4  12  -6    4.27    2.22   1
   4 -12   6    4.44    2.22   1
  -5  12  -6    0.51    0.45   1
   5 -12   6    0.13    0.38   1
   5  11  -6    0.00    0.35   1
  -5 -11   6    0.00    1.05   1
   4  11  -6    5.03    1.80   1
  -4 -11   6    4.70    3.02   1
   3  11  -6   16.52    2.57   1
  -3 -11   6   19.27    2.85   1
   2  11  -6    4.80    2.03   1
  -2 -11   6   14.03    3.36   1
   1  11  -6    1.42    1.23   1
  -1 -11   6    0.00    2.41   1
   0  11  -6   20.27    3.34   1
   0 -11   6   24.60    3.48   1
  -1  11  -6    4.27    2.07   1
   1 -11   6    0.00    3.57   1
  -2  11  -6    3.00    2.17   1
   2 -11   6    6.31    3.97   1
  -3  11  -6   32.09    4.29   1
   3 -11   6   31.60    4.40   1
  -4  11  -6   13.19    2.87   1
   4 -11   6   10.69    2.10   1
  -5  11  -6    0.95    1.75   1
   5 -11   6    2.06    1.46   1
  -6  11  -6   25.57    5.77   1
   6 -11   6   30.90    7.36   1
   5  10  -6   15.79    2.73   1
  -5 -10   6   14.05    3.74   1
   4  10  -6   16.41    2.55   1
  -4 -10   6   17.67    2.97   1
   3  10  -6    5.39    1.83   1
  -3 -10   6   12.82    2.52   1
   2  10  -6   15.23    2.19   1
  -2 -10   6   22.28    5.31   1
   1  10  -6    0.00    0.67   1
  -1 -10   6    0.57    1.32   1
   0  10  -6    0.11    2.03   1
   0 -10   6    0.00    7.58   1
  -1  10  -6    0.11    1.40   1
   1 -10   6    0.00    1.32   1
  -2  10  -6    0.60    0.70   1
   2 -10   6    0.00    0.92   1
  -3  10  -6   15.17    2.66   1
   3 -10   6   13.64    1.89   1
  -4  10  -6    0.00    0.49   1
   4 -10   6    0.03    0.35   1
  -5  10  -6    0.14    1.87   1
   5 -10   6    0.43    1.61   1
  -6  10  -6    0.80    2.58   1
   6 -10   6    1.98    1.69   1
   6   9  -6    1.00    1.32   1
  -6  -9   6    0.50    2.88   1
   5   9  -6    0.00    0.51   1
  -5  -9   6    0.28    1.10   1
   4   9  -6    1.85    1.29   1
  -4  -9   6    6.23    1.98   1
   3   9  -6    7.10    1.65   1
  -3  -9   6   11.05    2.19   1
   2   9  -6    0.89    0.81   1
  -2  -9   6    0.20    1.17   1
   1   9  -6   21.06    3.19   1
  -1  -9   6   45.83    5.37   1
   0   9  -6    0.57    0.90   1
  -1   9  -6   37.66    3.96   1
   1  -9   6   43.17    6.52   1
  -2   9  -6    0.00    0.59   1
   2  -9   6    0.07    0.78   1
  -3   9  -6    0.42    1.21   1
   3  -9   6    1.97    1.21   1
  -4   9  -6    1.80    1.71   1
   4  -9   6    0.73    1.49   1
  -5   9  -6   16.84    4.28   1
   5  -9   6   19.47    4.20   1
  -6   9  -6    0.25    2.41   1
   6  -9   6    7.20    4.09   1
  -7   9  -6    0.00    0.39   1
   7  -9   6    0.49    0.73   1
   7   8  -6   44.04    5.81   1
  -7  -8   6   49.56   9.633   1
   6   8  -6    2.64    1.37   1
  -6  -8   6   16.40    6.51   1
   5   8  -6    2.16    1.84   1
  -5  -8   6    0.00    4.15   1
   4   8  -6  145.80   13.14   1
  -4  -8   6  150.41   13.00   1
   3   8  -6   19.53    2.56   1
  -3  -8   6   20.65    2.57   1
   2   8  -6    0.27    1.60   1
  -2  -8   6    0.00    2.00   1
   1   8  -6    0.35    0.54   1
  -1  -8   6    0.00    0.78   1
   0   8  -6   56.06    5.10   1
   0  -8   6   50.16    6.58   1
  -1   8  -6   64.96    7.02   1
   1  -8   6   47.32    6.33   1
  -2   8  -6    3.19    1.36   1
   2  -8   6    1.40    0.92   1
  -3   8  -6   71.71    7.61   1
   3  -8   6   53.51    4.28   1
  -4   8  -6    6.72    2.23   1
   4  -8   6    6.57    2.02   1
  -5   8  -6  167.48   15.44   1
   5  -8   6  144.13   21.37   1
  -6   8  -6    2.39    2.00   1
   6  -8   6    2.02    1.98   1
  -7   8  -6    0.06    0.23   1
   7  -8   6    0.00    0.20   1
   7   7  -6   12.19    3.96   1
  -7  -7   6   15.50   8.621   1
   6   7  -6   34.91    4.69   1
  -6  -7   6   41.25    5.11   1
   5   7  -6    6.76    1.46   1
  -5  -7   6    6.45    2.17   1
   4   7  -6    3.30    1.27   1
  -4  -7   6    5.08    1.51   1
   3   7  -6   36.90    3.51   1
  -3  -7   6   38.13    3.61   1
   2   7  -6   28.42    3.79   1
  -2  -7   6   39.19    4.06   1
   1   7  -6   40.88    3.32   1
  -1  -7   6   41.65    3.77   1
   0   7  -6   63.73    7.34   1
   0  -7   6   68.16    5.73   1
  -1   7  -6    8.23    1.49   1
   1  -7   6   10.43    1.41   1
  -2   7  -6    1.69    1.11   1
   2  -7   6    1.28    0.76   1
  -3   7  -6   42.78    4.00   1
   3  -7   6   38.99    3.18   1
  -4   7  -6    4.84    1.92   1
   4  -7   6    5.70    3.21   1
  -5   7  -6   19.52    2.55   1
   5  -7   6   17.13    3.22   1
  -6   7  -6    0.19    0.75   1
   6  -7   6    0.00    1.58   1
  -7   7  -6    0.09    0.23   1
   7  -7   6    0.00    0.45   1
   8   6  -6    7.10    5.90   1
  -8  -6   6   12.41    5.77   1
   7   6  -6    0.00    2.15   1
  -7  -6   6    4.62    2.64   1
   6   6  -6   11.88    2.99   1
  -6  -6   6   19.75    3.28   1
   5   6  -6   11.66    2.68   1
  -5  -6   6   15.21    3.08   1
   4   6  -6   16.46    2.08   1
  -4  -6   6   19.46    3.01   1
   3   6  -6    2.11    1.05   1
  -3  -6   6    5.99    1.62   1
   2   6  -6    2.76    0.95   1
  -2  -6   6    5.69    1.28   1
   1   6  -6   69.07    5.42   1
  -1  -6   6   73.52   12.27   1
   0   6  -6    0.00    0.48   1
   0  -6   6    0.19    0.46   1
  -1   6  -6   10.21    1.63   1
   1  -6   6   12.02    1.14   1
  -2   6  -6    0.97    1.00   1
   2  -6   6    1.21    0.71   1
  -3   6  -6    6.78    1.51   1
   3  -6   6    3.68    1.34   1
  -4   6  -6    0.01    0.11   1
   4  -6   6    0.03    0.09   1
  -5   6  -6    1.28    1.38   1
   5  -6   6    2.07    1.92   1
  -6   6  -6    0.00    0.43   1
   6  -6   6    0.00    0.67   1
  -7   6  -6    2.63    1.85   1
   7  -6   6    3.25    1.69   1
  -8   6  -6    0.00    0.97   1
   8  -6   6    0.30    0.70   1
   8   5  -6   10.99    3.85   1
  -8  -5   6    6.03    6.92   1
   7   5  -6   19.15    4.29   1
  -7  -5   6   27.16    7.62   1
   6   5  -6    8.03    2.04   1
  -6  -5   6    4.98    6.33   1
   5   5  -6  243.98   25.76   1
  -5  -5   6  247.07   26.65   1
   4   5  -6  218.81   16.27   1
  -4  -5   6  214.89   19.07   1
   3   5  -6    5.29    0.80   1
  -3  -5   6   9.836    1.08   1
   2   5  -6  354.06   23.10   1
  -2  -5   6  328.57   30.56   1
   1   5  -6   15.28    1.39   1
  -1  -5   6   21.15    1.57   1
   0   5  -6   82.14    5.83   1
   0  -5   6   86.27    5.67   1
  -1   5  -6   10.89    1.50   1
   1  -5   6   13.18    1.16   1
  -2   5  -6   24.30    2.55   1
   2  -5   6   28.48    2.06   1
  -3   5  -6    7.20    1.12   1
   3  -5   6    7.46    1.15   1
  -4   5  -6   16.96    1.85   1
   4  -5   6   16.60    1.44   1
  -5   5  -6    2.35    1.05   1
   5  -5   6    2.10    1.13   1
  -6   5  -6    0.04    0.41   1
   6  -5   6    0.20    0.45   1
  -7   5  -6   15.00    3.44   1
   7  -5   6   10.42    1.98   1
  -8   5  -6    0.02    0.26   1
   8  -5   6    0.00    0.21   1
   8   4  -6    1.38    3.25   1
  -8  -4   6    0.24    4.88   1
   7   4  -6   23.67    5.44   1
  -7  -4   6   24.70    6.50   1
   6   4  -6   12.02    2.43   1
  -6  -4   6   10.60    4.71   1
   5   4  -6   57.07    6.61   1
  -5  -4   6   64.53    7.49   1
   4   4  -6   35.74    3.32   1
  -4  -4   6   32.66    3.40   1
   3   4  -6    3.76    0.79   1
  -3  -4   6    5.63    1.57   1
   2   4  -6   51.95    3.95   1
  -2  -4   6   47.07    4.52   1
   1   4  -6   28.08    2.19   1
  -1  -4   6   26.74    2.15   1
   0   4  -6   89.27    5.47   1
   0  -4   6   81.00    5.34   1
  -1   4  -6    1.62    0.67   1
   1  -4   6    0.77    0.46   1
  -2   4  -6   50.56    3.78   1
   2  -4   6   47.38    3.22   1
  -3   4  -6   12.16    1.49   1
   3  -4   6   12.14    1.38   1
  -4   4  -6    4.26    1.07   1
   4  -4   6    1.28    1.15   1
  -5   4  -6   23.34    2.36   1
   5  -4   6   23.75    2.64   1
  -6   4  -6    6.85    2.72   1
   6  -4   6    3.02    2.06   1
  -7   4  -6    0.30    2.92   1
   7  -4   6    0.69    2.60   1
  -8   4  -6    0.40    3.01   1
   8  -4   6    0.00    2.21   1
   9   3  -6    0.76    2.91   1
  -9  -3   6    2.09    5.71   1
   8   3  -6    5.43    2.80   1
  -8  -3   6    0.00    7.34   1
   7   3  -6   15.45    3.63   1
  -7  -3   6   13.99    4.37   1
   6   3  -6   15.51    2.22   1
  -6  -3   6   19.10    3.57   1
   5   3  -6    0.39    0.46   1
  -5  -3   6    0.52    0.51   1
   4   3  -6    5.89    1.28   1
  -4  -3   6    8.10    1.26   1
   3   3  -6    0.77    0.51   1
  -3  -3   6    1.22    0.63   1
   2   3  -6   51.03    3.50   1
  -2  -3   6   51.19    3.27   1
   1   3  -6    0.09    0.04   1
  -1  -3   6    0.09    0.05   1
   0   3  -6   23.07    1.45   1
   0  -3   6   21.89    1.51   1
  -1   3  -6  165.79    8.39   1
   1  -3   6  153.87    8.35   1
  -2   3  -6    3.45    0.62   1
   2  -3   6    4.07    0.56   1
  -3   3  -6   38.36    3.53   1
   3  -3   6   38.91    2.50   1
  -4   3  -6    7.19    1.41   1
   4  -3   6    4.07    1.05   1
  -5   3  -6   17.57    2.16   1
   5  -3   6   16.18    1.92   1
  -6   3  -6   10.36    2.71   1
   6  -3   6   10.60    1.68   1
  -7   3  -6    0.26    2.18   1
   7  -3   6    0.69    1.72   1
  -8   3  -6    2.01    2.06   1
   8  -3   6    0.64    1.54   1
   9   2  -6    0.02    0.61   1
  -9  -2   6    0.35    1.64   1
   8   2  -6    0.00    0.96   1
  -8  -2   6    0.00    1.54   1
   7   2  -6    0.00    1.53   1
  -7  -2   6    0.00    2.20   1
   6   2  -6   38.62    4.21   1
  -6  -2   6   36.24    3.56   1
   5   2  -6   84.73    7.42   1
  -5  -2   6   93.05    7.32   1
   4   2  -6    3.23    1.06   1
  -4  -2   6    3.14    0.99   1
   3   2  -6  688.13   52.57   1
  -3  -2   6  686.50   46.54   1
   2   2  -6  148.67    9.07   1
  -2  -2   6  139.90    9.03   1
   1   2  -6  133.04    8.14   1
  -1  -2   6  126.60    10.1   1
   0   2  -6  547.48   28.11   1
   0  -2   6  524.69   29.87   1
  -1   2  -6  624.16   33.27   1
   1  -2   6  568.28   33.07   1
  -2   2  -6  152.24    9.95   1
   2  -2   6  144.43    7.94   1
  -3   2  -6    8.73    1.09   1
   3  -2   6    5.49    0.98   1
  -4   2  -6   44.64    4.14   1
   4  -2   6   40.19    3.39   1
  -5   2  -6    1.87    1.82   1
   5  -2   6    1.47    1.38   1
  -6   2  -6    5.36    2.50   1
   6  -2   6    4.39    1.87   1
  -7   2  -6    0.00    1.67   1
   7  -2   6    0.00    1.56   1
  -8   2  -6   18.64    4.57   1
   8  -2   6   19.63    4.52   1
   9   1  -6   47.58    5.36   1
  -9  -1   6   59.06   12.34   1
   8   1  -6    9.07    3.02   1
  -8  -1   6    4.30    4.23   1
   7   1  -6   49.60    7.47   1
  -7  -1   6   35.76    4.94   1
   6   1  -6    3.75    1.23   1
  -6  -1   6    5.24    1.17   1
   5   1  -6   25.64    2.73   1
  -5  -1   6   30.01    2.31   1
   4   1  -6   17.91    2.01   1
  -4  -1   6   21.68    1.61   1
   3   1  -6  262.50   20.04   1
  -3  -1   6  262.29   16.48   1
   2   1  -6  123.44    7.37   1
  -2  -1   6  110.63    7.47   1
   1   1  -6    5.16    0.55   1
  -1  -1   6    5.23    0.60   1
   0   1  -6    4.08    0.51   1
   0  -1   6    4.33    0.45   1
  -1   1  -6    3.08    0.49   1
   1  -1   6    2.52    0.49   1
  -2   1  -6    8.80    1.00   1
   2  -1   6    8.93    0.85   1
  -3   1  -6   43.20    3.05   1
   3  -1   6   32.23    2.65   1
  -4   1  -6    8.40    1.30   1
   4  -1   6    5.68    1.15   1
  -5   1  -6    1.20    1.16   1
   5  -1   6    0.00    0.76   1
  -6   1  -6    0.77    1.04   1
   6  -1   6    0.09    0.59   1
  -7   1  -6    3.20    2.07   1
   7  -1   6    1.42    1.08   1
  -8   1  -6    2.66    4.06   1
   8  -1   6    0.00    1.91   1
   9   0  -6    0.00    1.13   1
   8   0  -6    0.00    1.53   1
  -8   0   6    0.00    2.80   1
   7   0  -6    1.77    1.56   1
  -7   0   6    8.42    1.75   1
   6   0  -6   22.42    2.58   1
  -6   0   6   19.72    2.08   1
   5   0  -6    3.40    1.21   1
  -5   0   6    2.10    0.85   1
   4   0  -6   73.52    6.04   1
  -4   0   6   74.42    4.86   1
   3   0  -6   63.39    4.58   1
  -3   0   6   63.52    4.24   1
   2   0  -6   54.38    3.58   1
  -2   0   6   54.59    3.93   1
   1   0  -6    3.38    0.56   1
  -1   0   6    4.93    0.72   1
   0   0  -6   69.31    4.93   1
   0   0   6   71.37    3.84   1
  -1   0  -6    0.94    0.69   1
   1   0   6    1.58    0.82   1
  -2   0  -6   11.84    1.52   1
   2   0   6   12.19    1.57   1
  -3   0  -6   34.73    3.37   1
   3   0   6   35.82    3.38   1
  -4   0  -6    0.07    1.32   1
   4   0   6    0.03    1.44   1
  -5   0  -6    3.00    1.70   1
   5   0   6    7.96    2.58   1
  -6   0  -6    1.53    1.89   1
   6   0   6    2.75    2.93   1
  -7   0  -6    1.15    2.25   1
   7   0   6    2.75    3.11   1
  -8   0  -6    0.00    1.33   1
   8   0   6    0.00    1.96   1
   9  -1  -6    0.10    0.30   1
  -9   1   6    0.00    0.75   1
   8  -1  -6   11.31    2.15   1
  -8   1   6   9.833    3.66   1
   7  -1  -6   26.80    2.48   1
  -7   1   6   20.17    2.88   1
   6  -1  -6    0.37    0.18   1
  -6   1   6    0.34    0.22   1
   5  -1  -6  143.86   11.34   1
  -5   1   6  143.67   10.17   1
   4  -1  -6   26.02    2.85   1
  -4   1   6   33.93    2.64   1
   3  -1  -6   29.88    2.29   1
  -3   1   6   30.15    2.11   1
   2  -1  -6  194.05   12.08   1
  -2   1   6  190.27   12.08   1
   1  -1  -6  401.51   19.83   1
  -1   1   6  397.53   24.65   1
   0  -1  -6  105.75    6.51   1
   0   1   6  105.61    6.56   1
  -1  -1  -6  396.70   24.25   1
   1   1   6  393.40   26.58   1
  -2  -1  -6  355.43   23.96   1
   2   1   6  368.91   28.15   1
  -3  -1  -6   38.13    2.82   1
   3   1   6   30.79    3.24   1
  -4  -1  -6   65.92    4.55   1
   4   1   6   53.37    5.15   1
  -5  -1  -6   55.30    4.89   1
   5   1   6   49.73    6.75   1
  -6  -1  -6    2.56    1.99   1
   6   1   6    5.89    1.90   1
  -7  -1  -6    3.78    2.36   1
   7   1   6    3.36    2.49   1
   9  -2  -6   46.97    4.97   1
  -9   2   6   37.18    4.63   1
   8  -2  -6  137.10   14.03   1
  -8   2   6  127.65   11.65   1
   7  -2  -6  119.76    9.12   1
  -7   2   6  114.21    9.78   1
   6  -2  -6    1.23    1.08   1
  -6   2   6    0.64    1.34   1
   5  -2  -6  106.68    7.65   1
  -5   2   6  113.07    8.00   1
   4  -2  -6  106.50    8.79   1
  -4   2   6  108.95    7.92   1
   3  -2  -6    5.25    1.05   1
  -3   2   6    4.50    0.85   1
   2  -2  -6  112.75    7.34   1
  -2   2   6  117.80    7.30   1
   1  -2  -6   47.00    3.20   1
  -1   2   6   51.62    3.58   1
   0  -2  -6    0.27    0.27   1
   0   2   6    0.13    0.37   1
  -1  -2  -6    0.42    0.72   1
   1   2   6    0.36    0.72   1
  -2  -2  -6   19.52    1.94   1
   2   2   6   22.09    2.20   1
  -3  -2  -6    0.01    0.18   1
   3   2   6    0.23    0.36   1
  -4  -2  -6    9.61    1.37   1
   4   2   6    7.11    1.63   1
  -5  -2  -6    1.07    1.73   1
   5   2   6    5.38    2.49   1
  -6  -2  -6    0.22    0.52   1
   6   2   6    0.53    0.79   1
  -7  -2  -6    0.00    0.43   1
   7   2   6    0.00    0.70   1
   9  -3  -6    0.16    0.41   1
  -9   3   6    0.79    0.54   1
   8  -3  -6    1.37    0.57   1
  -8   3   6    0.63    0.69   1
   7  -3  -6    6.11    1.60   1
  -7   3   6    5.35    1.96   1
   6  -3  -6   17.53    1.89   1
  -6   3   6   15.63    2.26   1
   5  -3  -6   13.65    1.52   1
  -5   3   6   14.11    1.72   1
   4  -3  -6    0.64    0.67   1
  -4   3   6    1.20    0.71   1
   3  -3  -6    5.80    0.78   1
  -3   3   6    6.44    0.87   1
   2  -3  -6   10.77    0.90   1
  -2   3   6   10.77    1.06   1
   1  -3  -6    0.03    0.07   1
  -1   3   6    0.16    0.10   1
   0  -3  -6   46.12    2.97   1
   0   3   6   42.14    3.76   1
  -1  -3  -6    7.02    0.94   1
   1   3   6    8.01    1.19   1
  -2  -3  -6   21.47    2.22   1
   2   3   6   23.44    2.31   1
  -3  -3  -6    9.84    1.40   1
   3   3   6   10.36    1.51   1
  -4  -3  -6    0.00    0.69   1
   4   3   6    0.00    0.57   1
  -5  -3  -6    7.67    2.39   1
   5   3   6    8.54    2.52   1
  -6  -3  -6    0.00    0.78   1
   6   3   6    0.00    0.38   1
   7   3   6    0.81    2.63   1
   9  -4  -6    0.00    1.60   1
  -9   4   6    0.00    1.21   1
   8  -4  -6   11.94    2.38   1
  -8   4   6   10.05    2.32   1
   7  -4  -6    0.01    0.30   1
  -7   4   6    0.13    0.35   1
   6  -4  -6    0.00    0.78   1
  -6   4   6    0.40    0.91   1
   5  -4  -6   33.81    3.01   1
  -5   4   6   33.53    2.85   1
   4  -4  -6   37.19    3.07   1
  -4   4   6   37.55    2.85   1
   3  -4  -6    6.86    1.17   1
  -3   4   6    5.73    1.37   1
   2  -4  -6   15.55    1.39   1
  -2   4   6   17.65    1.91   1
   1  -4  -6   14.69    1.18   1
  -1   4   6   18.06    1.87   1
   0  -4  -6   50.92    3.53   1
   0   4   6   53.85    4.59   1
  -1  -4  -6  359.79   23.90   1
   1   4   6  364.76   27.43   1
  -2  -4  -6   40.14    3.55   1
   2   4   6   47.97    4.14   1
  -3  -4  -6  215.66   16.63   1
   3   4   6  225.11   16.48   1
  -4  -4  -6  114.90   13.13   1
   4   4   6  127.75   12.90   1
  -5  -4  -6    1.29    2.52   1
   5   4   6    8.37    2.40   1
  -6  -4  -6    0.64    2.57   1
   6   4   6    0.08    2.60   1
   9  -5  -6   55.85    5.87   1
  -9   5   6   54.41    5.97   1
   8  -5  -6   86.27    9.08   1
  -8   5   6  98.114    9.25   1
   7  -5  -6   36.00    3.80   1
  -7   5   6   29.34    3.78   1
   6  -5  -6   17.44    2.08   1
  -6   5   6   13.10    2.31   1
   5  -5  -6  105.70    7.55   1
  -5   5   6  110.62    8.17   1
   4  -5  -6   12.51    1.23   1
  -4   5   6    9.71    1.82   1
   3  -5  -6   25.93    2.41   1
  -3   5   6   27.41    3.00   1
   2  -5  -6   19.41    1.98   1
  -2   5   6   25.23    2.53   1
   1  -5  -6    5.68    0.94   1
  -1   5   6    4.95    1.29   1
   0  -5  -6    6.33    1.46   1
   0   5   6   12.76    2.14   1
  -1  -5  -6   80.64    5.79   1
   1   5   6   83.64    6.57   1
  -2  -5  -6   43.16    3.77   1
   2   5   6   39.73    4.04   1
  -3  -5  -6    1.54    1.86   1
   3   5   6    6.74    1.43   1
  -4  -5  -6   15.29    5.11   1
   4   5   6   10.58    1.94   1
  -5  -5  -6    0.01    0.63   1
   5   5   6    0.01    0.18   1
   6   5   6    0.00    0.16   1
   8  -6  -6    0.00    0.55   1
  -8   6   6    0.17    0.50   1
   7  -6  -6    0.00    0.18   1
  -7   6   6    0.54    0.17   1
   6  -6  -6    0.02    0.74   1
  -6   6   6    1.22    0.80   1
   5  -6  -6    0.85    1.46   1
  -5   6   6    2.57    1.46   1
   4  -6  -6   10.43    2.22   1
  -4   6   6    9.63    1.92   1
   3  -6  -6    2.93    1.47   1
  -3   6   6    1.42    1.78   1
   2  -6  -6   69.86    5.82   1
  -2   6   6   67.23    6.09   1
   1  -6  -6   13.77    2.02   1
  -1   6   6   12.43    2.17   1
   0  -6  -6    3.65    1.55   1
   0   6   6    6.69    2.55   1
  -1  -6  -6   24.31    2.62   1
   1   6   6   28.13    2.94   1
  -2  -6  -6    0.93    2.05   1
   2   6   6    0.44    1.62   1
  -3  -6  -6    0.00    2.43   1
   3   6   6    1.90    2.10   1
  -4  -6  -6    1.58    2.78   1
   4   6   6    4.43    2.39   1
  -5  -6  -6    6.35    3.75   1
   5   6   6    0.64    2.68   1
   8  -7  -6    0.00    1.49   1
  -8   7   6    0.71    0.84   1
   7  -7  -6    0.51    1.95   1
  -7   7   6    0.77    1.69   1
   6  -7  -6    0.01    0.95   1
  -6   7   6    1.17    1.77   1
   5  -7  -6    0.00    0.43   1
  -5   7   6    0.60    0.42   1
   4  -7  -6    2.23    1.48   1
  -4   7   6    3.10    1.70   1
   3  -7  -6   97.81    7.72   1
  -3   7   6   82.05    8.05   1
   2  -7  -6    4.78    1.35   1
  -2   7   6    5.31    1.45   1
   1  -7  -6   10.65    1.44   1
  -1   7   6   11.76    1.97   1
   0  -7  -6    4.44    1.74   1
   0   7   6    5.19    1.75   1
  -1  -7  -6    7.58    1.95   1
   1   7   6    7.97    2.32   1
  -2  -7  -6    9.21    2.47   1
   2   7   6   12.06    1.92   1
  -3  -7  -6   33.98    5.06   1
   3   7   6   35.53    4.22   1
  -4  -7  -6    0.00    4.07   1
   4   7   6    0.21    1.17   1
  -5  -7  -6   26.05    7.19   1
   5   7   6   24.39    3.55   1
   7  -8  -6   11.29    3.44   1
  -7   8   6   12.34    2.83   1
   6  -8  -6   32.94    6.55   1
  -6   8   6   49.20    4.57   1
   5  -8  -6   12.44    3.24   1
  -5   8   6   14.25    2.26   1
   4  -8  -6    0.02    0.56   1
  -4   8   6    0.00    0.58   1
   3  -8  -6  423.05   36.25   1
  -3   8   6  442.84   45.89   1
   2  -8  -6    0.01    1.06   1
  -2   8   6    0.31    0.98   1
   1  -8  -6    9.40    1.78   1
  -1   8   6    6.15    1.96   1
   0  -8  -6   11.84    2.41   1
   0   8   6   13.60    2.69   1
  -1  -8  -6   12.12    4.97   1
   1   8   6   15.80    4.28   1
  -2  -8  -6    3.14    3.26   1
   2   8   6   11.77    3.83   1
  -3  -8  -6   13.49    3.90   1
   3   8   6   28.01    5.04   1
  -4  -8  -6    0.11    0.64   1
   4   8   6    0.00    0.67   1
   7  -9  -6    0.00    0.66   1
   6  -9  -6    0.00    0.79   1
  -6   9   6    1.00    0.72   1
   5  -9  -6    0.00    0.53   1
  -5   9   6    0.32    0.42   1
   4  -9  -6    0.71    1.44   1
  -4   9   6    2.75    2.34   1
   3  -9  -6    2.38    1.54   1
  -3   9   6    3.84    1.52   1
   2  -9  -6    6.27    1.51   1
  -2   9   6    4.91    1.96   1
   1  -9  -6    1.21    0.70   1
  -1   9   6    0.59    0.87   1
   0  -9  -6    2.77    4.17   1
   0   9   6    1.02    1.26   1
  -1  -9  -6    0.00    0.64   1
   1   9   6    0.00    0.24   1
  -2  -9  -6    0.00    1.68   1
   2   9   6    0.00    0.67   1
  -3  -9  -6    0.00    3.84   1
   3   9   6    3.29    2.67   1
   6 -10  -6    0.00    0.40   1
  -6  10   6    0.28    0.31   1
   5 -10  -6    0.29    2.52   1
  -5  10   6    0.51    0.79   1
   4 -10  -6   11.67    4.17   1
  -4  10   6    4.06    2.42   1
   3 -10  -6    4.89    2.16   1
  -3  10   6    1.38    1.99   1
   2 -10  -6    0.55    1.19   1
  -2  10   6    0.33    1.09   1
   1 -10  -6    9.38    5.99   1
  -1  10   6   13.39    2.82   1
   0 -10  -6    6.00    5.24   1
   0  10   6    2.77    2.03   1
  -1 -10  -6    7.83    5.71   1
   1  10   6   10.76    4.29   1
  -2 -10  -6    0.00    2.80   1
   2  10   6    0.00    2.18   1
   4 -11  -6  136.27   13.85   1
  -4  11   6  212.53   32.27   1
   3 -11  -6    1.03    1.35   1
  -3  11   6    0.86    1.57   1
   2 -11  -6    0.77    1.46   1
  -2  11   6    2.82    2.37   1
   1 -11  -6   19.96    5.35   1
  -1  11   6   21.76    3.56   1
   0 -11  -6    3.36    4.05   1
   0  11   6    3.22    2.49   1
   2  13  -7    0.00    0.66   1
  -2 -13   7    0.00    1.27   1
   1  13  -7    0.67    3.07   1
  -1 -13   7    2.38    1.87   1
   0  13  -7    5.87    2.70   1
   0 -13   7    2.22    1.92   1
  -1  13  -7    0.56    1.62   1
   1 -13   7    1.14    1.19   1
  -2  13  -7    0.34    2.47   1
   2 -13   7    0.47    1.50   1
  -3  13  -7    0.56    0.73   1
   3 -13   7    0.36    0.75   1
   4  12  -7    0.00    1.08   1
  -4 -12   7    0.00    2.26   1
   3  12  -7    0.15    0.75   1
  -3 -12   7    0.14    1.57   1
   2  12  -7    2.79    1.67   1
  -2 -12   7   9.361    3.24   1
   1  12  -7    0.07    0.62   1
  -1 -12   7    0.00    1.39   1
   0  12  -7   69.30    8.38   1
   0 -12   7  97.002   9.641   1
  -1  12  -7    1.42    2.38   1
   1 -12   7    3.56    3.74   1
  -2  12  -7   8.808    2.41   1
   2 -12   7    8.01    3.38   1
  -3  12  -7    3.70    2.43   1
   3 -12   7    3.68    3.44   1
  -4  12  -7    0.00    1.91   1
   4 -12   7    0.71    2.21   1
   5  11  -7    1.91    1.44   1
  -5 -11   7    0.93    3.12   1
   4  11  -7    0.28    0.60   1
  -4 -11   7    0.62    0.95   1
   3  11  -7    0.00    0.87   1
  -3 -11   7    3.41    3.05   1
   2  11  -7    0.28    1.58   1
  -2 -11   7    8.06    5.60   1
   1  11  -7    0.00    0.78   1
  -1 -11   7    0.00    0.59   1
   0  11  -7   62.30    7.23   1
   0 -11   7   63.25    6.02   1
  -1  11  -7    0.00    0.26   1
   1 -11   7    0.00    0.23   1
  -2  11  -7    6.10    2.61   1
   2 -11   7    1.10    2.89   1
  -3  11  -7    7.15    2.47   1
   3 -11   7    9.28    2.43   1
  -4  11  -7    5.82    2.43   1
   4 -11   7    6.73    1.55   1
  -5  11  -7    3.30    2.47   1
   5 -11   7    2.30    1.66   1
   6  10  -7    3.36    1.87   1
   5  10  -7    0.43    0.29   1
  -5 -10   7    0.00    1.04   1
   4  10  -7   17.13    2.94   1
  -4 -10   7    2.18    2.57   1
   3  10  -7    0.16    1.13   1
  -3 -10   7    1.78    1.50   1
   2  10  -7    0.35    0.66   1
  -2 -10   7    0.27    0.72   1
   1  10  -7    8.51    2.14   1
  -1 -10   7    6.56    3.20   1
   0  10  -7    0.10    0.25   1
   0 -10   7    0.13    0.31   1
  -1  10  -7    2.00    1.77   1
   1 -10   7    0.00    3.37   1
  -2  10  -7    0.00    0.44   1
   2 -10   7    0.00    1.06   1
  -3  10  -7    0.09    1.45   1
   3 -10   7    1.50    1.07   1
  -4  10  -7    0.00    2.25   1
   4 -10   7    0.15    1.31   1
  -5  10  -7    3.01    2.51   1
   5 -10   7    3.65    1.29   1
  -6  10  -7    0.54    2.11   1
   6 -10   7    1.62    2.51   1
   6   9  -7    0.49    0.71   1
  -6  -9   7    0.99    1.30   1
   5   9  -7    3.37    2.05   1
  -5  -9   7    5.76    2.35   1
   4   9  -7    0.00    0.40   1
  -4  -9   7    0.43    0.50   1
   3   9  -7    0.14    1.43   1
  -3  -9   7    3.70    2.46   1
   2   9  -7    0.64    1.95   1
  -2  -9   7    3.14    2.29   1
   1   9  -7    2.90    1.27   1
  -1  -9   7    0.00    3.93   1
   0   9  -7   45.34    5.41   1
  -1   9  -7    1.50    2.11   1
   1  -9   7    0.00    9.78   1
  -2   9  -7   39.57    6.68   1
   2  -9   7   55.95    4.41   1
  -3   9  -7    0.00    1.16   1
   3  -9   7    0.72    1.13   1
  -4   9  -7    2.77    1.96   1
   4  -9   7    2.22    1.82   1
  -5   9  -7   23.18    4.67   1
   5  -9   7   21.18    4.11   1
  -6   9  -7    6.32    2.71   1
   6  -9   7   10.48    2.62   1
   7   8  -7   33.80    4.39   1
  -7  -8   7   36.51   8.767   1
   6   8  -7   28.55    3.84   1
  -6  -8   7   29.74    7.69   1
   5   8  -7    3.56    1.43   1
  -5  -8   7    5.17    5.06   1
   4   8  -7  171.96   15.39   1
  -4  -8   7  188.72   20.07   1
   3   8  -7   30.61    3.26   1
  -3  -8   7   37.35    4.52   1
   2   8  -7   11.50    2.03   1
  -2  -8   7   15.05    2.28   1
   1   8  -7   37.33    3.26   1
  -1  -8   7   46.14    3.71   1
   0   8  -7   56.30    6.44   1
   0  -8   7   56.28    5.92   1
  -1   8  -7  153.47   12.49   1
   1  -8   7  161.51   14.07   1
  -2   8  -7   34.35    3.71   1
   2  -8   7   29.02    3.86   1
  -3   8  -7    0.89    1.54   1
   3  -8   7    1.57    1.34   1
  -4   8  -7    3.86    1.87   1
   4  -8   7    0.57    1.66   1
  -5   8  -7   32.12    3.80   1
   5  -8   7   41.77    6.86   1
  -6   8  -7    1.17    1.45   1
   6  -8   7    4.38    3.02   1
  -7   8  -7    0.00    1.63   1
   7  -8   7    0.00    2.81   1
   7   7  -7   13.97    5.73   1
  -7  -7   7   17.54    6.18   1
   6   7  -7   21.72    4.01   1
  -6  -7   7   30.85    4.12   1
   5   7  -7    1.55    0.62   1
  -5  -7   7    1.50    0.94   1
   4   7  -7   15.89    2.21   1
  -4  -7   7   18.93    3.22   1
   3   7  -7    6.37    1.45   1
  -3  -7   7    8.18    2.45   1
   2   7  -7    1.74    1.09   1
  -2  -7   7    1.72    1.51   1
   1   7  -7  101.12    7.69   1
  -1  -7   7   94.50   10.84   1
   0   7  -7   25.23    2.19   1
   0  -7   7   20.50    2.17   1
  -1   7  -7   64.75    6.82   1
   1  -7   7   61.13    4.00   1
  -2   7  -7   17.44    2.20   1
   2  -7   7   11.85    1.65   1
  -3   7  -7    2.76    1.44   1
   3  -7   7    3.88    1.20   1
  -4   7  -7   19.45    2.49   1
   4  -7   7   22.53    3.53   1
  -5   7  -7    1.03    1.52   1
   5  -7   7    4.40    1.94   1
  -6   7  -7    0.02    0.97   1
   6  -7   7    0.00    1.12   1
  -7   7  -7    0.42    0.47   1
   7  -7   7    0.00    0.48   1
   8   6  -7    1.37    3.17   1
  -8  -6   7    0.08    7.55   1
   7   6  -7    0.70    1.03   1
  -7  -6   7    0.78    2.18   1
   6   6  -7    0.40    1.28   1
  -6  -6   7    5.17    4.04   1
   5   6  -7   17.23    2.72   1
  -5  -6   7   26.05    2.98   1
   4   6  -7    0.26    0.22   1
  -4  -6   7    0.39    0.25   1
   3   6  -7   18.37    2.90   1
  -3  -6   7   34.93    2.81   1
   2   6  -7    1.97    0.86   1
  -2  -6   7    1.57    0.94   1
   1   6  -7    0.09    0.29   1
  -1  -6   7    0.38    0.36   1
   0   6  -7   10.05    1.43   1
   0  -6   7   10.16    1.19   1
  -1   6  -7    4.02    1.03   1
   1  -6   7    5.14    0.81   1
  -2   6  -7   73.78    6.18   1
   2  -6   7   63.68    4.25   1
  -3   6  -7   19.04    2.22   1
   3  -6   7   17.03    1.89   1
  -4   6  -7  110.81    8.21   1
   4  -6   7  105.39    7.93   1
  -5   6  -7   11.13    1.96   1
   5  -6   7   15.17    2.85   1
  -6   6  -7    0.00    1.20   1
   6  -6   7    0.00    1.36   1
  -7   6  -7    0.08    2.18   1
   8   5  -7   30.49    7.27   1
  -8  -5   7   33.37    7.86   1
   7   5  -7   27.19    5.91   1
  -7  -5   7   18.20    7.18   1
   6   5  -7    0.28    0.66   1
  -6  -5   7    0.00    1.32   1
   5   5  -7  347.95   34.56   1
  -5  -5   7  314.00   35.83   1
   4   5  -7  219.26   15.74   1
  -4  -5   7  197.21   23.70   1
   3   5  -7   19.73    1.91   1
  -3  -5   7   22.91    2.41   1
   2   5  -7  263.40   23.08   1
  -2  -5   7  252.26   22.37   1
   1   5  -7   16.04    1.48   1
  -1  -5   7   14.89    1.60   1
   0   5  -7   37.56    2.95   1
   0  -5   7   33.19    2.28   1
  -1   5  -7    3.83    0.99   1
   1  -5   7    4.45    0.58   1
  -2   5  -7  195.81   14.45   1
   2  -5   7  183.16   12.67   1
  -3   5  -7   39.87    3.35   1
   3  -5   7   39.06    3.46   1
  -4   5  -7  128.94    9.37   1
   4  -5   7  120.65    7.35   1
  -5   5  -7   14.21    1.92   1
   5  -5   7   14.91    2.36   1
  -6   5  -7    0.15    2.29   1
   6  -5   7    1.63    1.47   1
  -7   5  -7    3.78    3.30   1
   7  -5   7    3.08    2.31   1
  -8   5  -7    0.02    0.37   1
   8  -5   7    0.20    0.42   1
   8   4  -7    1.21    2.46   1
  -8  -4   7    3.02    6.40   1
   7   4  -7   24.82    5.15   1
  -7  -4   7   27.57    6.03   1
   6   4  -7   10.44    2.04   1
  -6  -4   7   16.82    3.99   1
   5   4  -7   31.40    3.95   1
  -5  -4   7   44.33    4.60   1
   4   4  -7   44.75    4.07   1
  -4  -4   7   46.16    5.29   1
   3   4  -7    0.74    0.60   1
  -3  -4   7    1.15    0.89   1
   2   4  -7   25.40    1.67   1
  -2  -4   7   27.99    2.45   1
   1   4  -7    0.32    0.59   1
  -1  -4   7    0.64    0.51   1
   0   4  -7   12.72    1.61   1
   0  -4   7   15.90    1.24   1
  -1   4  -7  104.07    7.14   1
   1  -4   7   100.0    5.78   1
  -2   4  -7   10.66    1.29   1
   2  -4   7   12.21    1.03   1
  -3   4  -7   47.01    3.65   1
   3  -4   7   45.04    3.27   1
  -4   4  -7   22.32    2.65   1
   4  -4   7   18.95    2.05   1
  -5   4  -7   17.94    2.20   1
   5  -4   7   13.08    1.98   1
  -6   4  -7   10.73    2.92   1
   6  -4   7    7.90    1.83   1
  -7   4  -7    0.00    2.28   1
   7  -4   7    0.57    2.20   1
  -8   4  -7    0.08    0.30   1
   8  -4   7    0.32    0.26   1
   9   3  -7    0.00    1.95   1
  -9  -3   7    0.00    3.20   1
   8   3  -7    0.81    1.10   1
  -8  -3   7    0.00    1.59   1
   7   3  -7    0.00    1.43   1
  -7  -3   7    0.00    4.23   1
   6   3  -7   23.36    2.84   1
  -6  -3   7   19.44    3.26   1
   5   3  -7   10.23    1.82   1
  -5  -3   7    8.78    2.21   1
   4   3  -7    0.02    0.36   1
  -4  -3   7    0.00    0.38   1
   3   3  -7   20.78    2.04   1
  -3  -3   7   18.65    2.15   1
   2   3  -7    2.42    0.47   1
  -2  -3   7    0.91    0.64   1
   1   3  -7   13.02    1.51   1
  -1  -3   7   11.26    1.30   1
   0   3  -7  215.06   11.91   1
   0  -3   7  202.90   15.92   1
  -1   3  -7   73.02    4.26   1
   1  -3   7   59.21    3.82   1
  -2   3  -7   72.56    6.25   1
   2  -3   7   73.22    4.75   1
  -3   3  -7    6.07    1.47   1
   3  -3   7    7.04    1.18   1
  -4   3  -7  110.12    9.15   1
   4  -3   7  101.58    7.64   1
  -5   3  -7    4.51    1.50   1
   5  -3   7    1.08    1.65   1
  -6   3  -7   13.10    3.73   1
   6  -3   7   14.57    2.20   1
  -7   3  -7    6.34    3.50   1
   7  -3   7   11.69    2.87   1
  -8   3  -7   19.15    4.23   1
   9   2  -7    9.05    3.78   1
  -9  -2   7   9.959    4.98   1
   8   2  -7    1.64    1.85   1
  -8  -2   7    0.00    2.75   1
   7   2  -7   15.54    3.41   1
  -7  -2   7    8.25    3.20   1
   6   2  -7  120.89   10.94   1
  -6  -2   7  130.37   9.907   1
   5   2  -7  105.05    8.89   1
  -5  -2   7  121.96    9.27   1
   4   2  -7   68.92    4.98   1
  -4  -2   7   72.09    5.83   1
   3   2  -7  780.52   57.06   1
  -3  -2   7  731.50   57.80   1
   2   2  -7  253.42   15.53   1
  -2  -2   7  249.95   14.39   1
   1   2  -7   55.61    3.22   1
  -1  -2   7   55.62    3.91   1
   0   2  -7  518.90   28.69   1
   0  -2   7  507.68   31.33   1
  -1   2  -7   72.57    4.40   1
   1  -2   7   66.74    3.74   1
  -2   2  -7   23.17    1.84   1
   2  -2   7   20.43    1.60   1
  -3   2  -7   80.76    5.44   1
   3  -2   7   70.81    5.37   1
  -4   2  -7    0.14    1.06   1
   4  -2   7    1.26    0.84   1
  -5   2  -7    7.56    1.47   1
   5  -2   7    6.55    1.33   1
  -6   2  -7    0.63    1.91   1
   6  -2   7    0.00    1.09   1
  -7   2  -7    2.25    2.37   1
   7  -2   7    1.20    1.27   1
  -8   2  -7    5.79    3.44   1
   9   1  -7    2.20    1.20   1
  -9  -1   7    0.00    2.20   1
   8   1  -7    0.00    2.69   1
  -8  -1   7    2.38    2.79   1
   7   1  -7    0.06    1.42   1
  -7  -1   7    0.00    2.30   1
   6   1  -7    0.00    1.00   1
  -6  -1   7    0.08    0.44   1
   5   1  -7   21.33    2.49   1
  -5  -1   7   20.38    2.74   1
   4   1  -7    9.49    1.42   1
  -4  -1   7    9.72    1.45   1
   3   1  -7   81.00    6.50   1
  -3  -1   7   80.42    6.48   1
   2   1  -7   31.10    2.17   1
  -2  -1   7   29.42    2.79   1
   1   1  -7   35.81    2.19   1
  -1  -1   7   31.79    2.38   1
   0   1  -7   27.23    1.75   1
   0  -1   7   24.46    1.61   1
  -1   1  -7   12.48    1.12   1
   1  -1   7   11.91    1.09   1
  -2   1  -7    1.60    0.73   1
   2  -1   7    2.19    0.66   1
  -3   1  -7   20.05    1.85   1
   3  -1   7   18.13    1.80   1
  -4   1  -7    1.55    0.72   1
   4  -1   7    1.30    1.00   1
  -5   1  -7    5.38    2.35   1
   5  -1   7    3.56    1.72   1
  -6   1  -7    1.55    1.38   1
   6  -1   7    0.19    1.05   1
  -7   1  -7    1.31    1.45   1
   7  -1   7    5.16    2.42   1
   9   0  -7    0.20    0.34   1
  -9   0   7    0.00    0.85   1
   8   0  -7    6.49    1.99   1
  -8   0   7    8.45    3.59   1
   7   0  -7    0.35    0.53   1
  -7   0   7    0.09    1.01   1
   6   0  -7    2.83    1.26   1
  -6   0   7    2.30    1.11   1
   5   0  -7   13.27    1.98   1
  -5   0   7   17.31    1.82   1
   4   0  -7    1.75    0.76   1
  -4   0   7    2.18    0.68   1
   3   0  -7    5.61    1.09   1
  -3   0   7    8.14    0.98   1
   2   0  -7   32.01    2.24   1
  -2   0   7   32.88    2.51   1
   1   0  -7   19.79    1.14   1
  -1   0   7   18.26    1.61   1
   0   0  -7    0.07    0.09   1
   0   0   7    0.13    0.08   1
  -1   0  -7    10.1    1.37   1
   1   0   7   10.48    1.15   1
  -2   0  -7    6.32    1.28   1
   2   0   7    9.06    1.24   1
  -3   0  -7    0.08    0.75   1
   3   0   7    0.00    0.73   1
  -4   0  -7   23.66    2.48   1
   4   0   7   19.19    2.51   1
  -5   0  -7    8.19    1.85   1
   5   0   7    9.08    2.26   1
  -6   0  -7   12.64    3.00   1
   6   0   7   20.16    3.80   1
  -7   0  -7   21.90    4.02   1
   7   0   7   13.73    3.45   1
   9  -1  -7    0.02    0.20   1
  -9   1   7    0.03    0.17   1
   8  -1  -7   13.20    2.23   1
  -8   1   7   12.86    2.46   1
   7  -1  -7   11.56    1.69   1
  -7   1   7    8.62    1.72   1
   6  -1  -7    0.77    0.55   1
  -6   1   7    0.84    0.50   1
   5  -1  -7   11.17    1.74   1
  -5   1   7   11.90    1.65   1
   4  -1  -7  265.49   20.12   1
  -4   1   7  264.32   18.21   1
   3  -1  -7   29.02    2.97   1
  -3   1   7   31.43    2.95   1
   2  -1  -7   89.55    6.42   1
  -2   1   7   90.82    6.39   1
   1  -1  -7  269.57   15.30   1
  -1   1   7  266.24   18.35   1
   0  -1  -7   14.86    1.08   1
   0   1   7   13.37    1.32   1
  -1  -1  -7  247.19   15.92   1
   1   1   7  224.69   17.59   1
  -2  -1  -7  307.04   20.10   1
   2   1   7  296.82   22.95   1
  -3  -1  -7    1.24    0.65   1
   3   1   7    0.68    1.32   1
  -4  -1  -7   78.95    6.84   1
   4   1   7   42.79    4.36   1
  -5  -1  -7    2.04    1.99   1
   5   1   7    1.88    2.80   1
  -6  -1  -7    1.75    1.92   1
   6   1   7    1.34    2.63   1
  -7  -1  -7   35.22    4.80   1
   7   1   7   39.30    6.24   1
   9  -2  -7    4.78    2.15   1
  -9   2   7    4.47    4.31   1
   8  -2  -7   81.16    8.09   1
  -8   2   7   82.12    8.29   1
   7  -2  -7   20.74    2.22   1
  -7   2   7   23.52    3.05   1
   6  -2  -7   35.69    3.00   1
  -6   2   7   36.06    3.47   1
   5  -2  -7   36.11    3.62   1
  -5   2   7   38.51    3.46   1
   4  -2  -7    0.35    0.28   1
  -4   2   7    0.33    0.26   1
   3  -2  -7   92.29    7.48   1
  -3   2   7   94.68    6.69   1
   2  -2  -7   32.23    2.14   1
  -2   2   7   36.77    2.37   1
   1  -2  -7  140.31    8.28   1
  -1   2   7  141.56    9.00   1
   0  -2  -7   35.27    2.54   1
   0   2   7   36.92    2.81   1
  -1  -2  -7   63.33    4.04   1
   1   2   7   56.55    4.97   1
  -2  -2  -7    1.18    0.92   1
   2   2   7    1.64    0.85   1
  -3  -2  -7   13.32    1.59   1
   3   2   7   13.57    1.86   1
  -4  -2  -7    0.69    0.75   1
   4   2   7    0.35    1.12   1
  -5  -2  -7   17.92    3.46   1
   5   2   7   31.54    5.44   1
  -6  -2  -7    2.59    1.70   1
   6   2   7    2.28    1.30   1
  -7  -2  -7    1.78    3.89   1
   7   2   7    0.00    1.68   1
   9  -3  -7    0.00    1.32   1
  -9   3   7    0.13    1.25   1
   8  -3  -7    0.70    1.37   1
  -8   3   7    0.46    1.15   1
   7  -3  -7    2.09    1.56   1
  -7   3   7    1.30    1.63   1
   6  -3  -7    0.56    0.29   1
  -6   3   7    0.64    0.35   1
   5  -3  -7    0.51    1.01   1
  -5   3   7    0.93    1.29   1
   4  -3  -7    0.16    0.68   1
  -4   3   7    0.40    0.68   1
   3  -3  -7   16.45    1.79   1
  -3   3   7   21.85    1.64   1
   2  -3  -7    1.90    0.67   1
  -2   3   7    5.88    0.83   1
   1  -3  -7    0.32    0.34   1
  -1   3   7    0.21    0.52   1
   0  -3  -7    3.21    0.85   1
   0   3   7    4.42    0.87   1
  -1  -3  -7    5.26    1.04   1
   1   3   7    8.40    1.32   1
  -2  -3  -7    0.08    0.83   1
   2   3   7    0.69    1.50   1
  -3  -3  -7    0.04    0.31   1
   3   3   7    0.46    0.40   1
  -4  -3  -7   25.74    2.87   1
   4   3   7   35.08    3.50   1
  -5  -3  -7    3.16    2.11   1
   5   3   7    4.76    3.17   1
  -6  -3  -7    3.95    2.14   1
   6   3   7    1.44    3.30   1
  -7  -3  -7    0.13    0.22   1
   7   3   7    0.00    0.35   1
   9  -4  -7    2.94    2.24   1
  -9   4   7    2.98    2.66   1
   8  -4  -7   16.40    2.55   1
  -8   4   7   17.20    3.19   1
   7  -4  -7    0.06    0.13   1
  -7   4   7    0.08    0.19   1
   6  -4  -7   24.01    2.38   1
  -6   4   7   25.37    2.78   1
   5  -4  -7   22.68    2.14   1
  -5   4   7   20.68    2.06   1
   4  -4  -7    4.12    0.83   1
  -4   4   7    3.63    0.97   1
   3  -4  -7    0.30    0.37   1
  -3   4   7    0.82    0.49   1
   2  -4  -7    0.62    0.37   1
  -2   4   7    1.85    0.57   1
   1  -4  -7   11.69    1.26   1
  -1   4   7   13.98    1.82   1
   0  -4  -7   60.28    3.98   1
   0   4   7   58.90    4.45   1
  -1  -4  -7  325.97   19.72   1
   1   4   7  315.31   24.20   1
  -2  -4  -7    0.03    0.70   1
   2   4   7    0.49    0.58   1
  -3  -4  -7  137.16   10.51   1
   3   4   7  145.64   12.51   1
   4   4   7  168.61   17.70   1
  -5  -4  -7    1.55    3.83   1
   5   4   7    0.12    1.51   1
   6   4   7    0.25    0.65   1
   8  -5  -7   44.37    5.04   1
  -8   5   7   40.70    4.78   1
   7  -5  -7    8.60    2.14   1
  -7   5   7    8.02    2.10   1
   6  -5  -7    0.62    1.38   1
  -6   5   7    1.21    1.50   1
   5  -5  -7    0.05    0.25   1
  -5   5   7    0.06    0.27   1
   4  -5  -7    5.31    1.43   1
  -4   5   7    6.41    1.56   1
   3  -5  -7    0.26    0.37   1
  -3   5   7    0.39    0.42   1
   2  -5  -7    4.01    1.27   1
  -2   5   7    8.94    1.56   1
   1  -5  -7   13.35    1.50   1
  -1   5   7   15.49    2.01   1
   0  -5  -7    9.41    1.30   1
   0   5   7    9.81    1.38   1
  -1  -5  -7   28.30    2.90   1
   1   5   7   32.65    3.33   1
  -2  -5  -7    1.27    1.37   1
   2   5   7    1.46    1.60   1
  -3  -5  -7   14.06    3.10   1
   3   5   7   20.58    2.78   1
  -4  -5  -7    0.00    1.64   1
   4   5   7    1.81    1.09   1
  -5  -5  -7    5.98    2.70   1
   5   5   7    2.01    2.81   1
  -6  -5  -7    0.05    0.37   1
   6   5   7    0.00    0.37   1
   8  -6  -7    0.00    1.23   1
  -8   6   7    2.04    1.91   1
   7  -6  -7    4.09    1.67   1
  -7   6   7    0.94    2.39   1
   6  -6  -7    1.61    1.13   1
  -6   6   7    2.80    1.61   1
   5  -6  -7    9.61    2.49   1
  -5   6   7   10.97    1.97   1
   4  -6  -7    6.63    1.53   1
  -4   6   7    3.45    2.16   1
   3  -6  -7   11.58    1.83   1
  -3   6   7   12.14    2.02   1
   2  -6  -7    0.08    0.16   1
  -2   6   7    0.07    0.19   1
   1  -6  -7    2.68    0.99   1
  -1   6   7    1.09    1.22   1
   0  -6  -7    0.49    1.46   1
   0   6   7    1.85    1.08   1
  -1  -6  -7    1.64    1.67   1
   1   6   7    3.43    1.74   1
  -2  -6  -7    0.23    2.45   1
   2   6   7    1.47    1.01   1
  -3  -6  -7    1.49    3.24   1
   3   6   7    2.22    1.45   1
  -4  -6  -7    1.42    2.32   1
   4   6   7    1.06    0.67   1
  -5  -6  -7    0.00    2.41   1
   5   6   7    0.05    0.93   1
   8  -7  -7    1.44    1.60   1
  -8   7   7    1.09    1.11   1
   7  -7  -7   12.56    3.38   1
  -7   7   7   15.08    2.61   1
   6  -7  -7   10.61    3.17   1
  -6   7   7   12.26    2.24   1
   5  -7  -7    0.41    1.28   1
  -5   7   7    0.32    0.89   1
   4  -7  -7    0.00    0.47   1
  -4   7   7    0.00    0.57   1
   3  -7  -7   76.38    7.88   1
  -3   7   7   92.12    8.32   1
   2  -7  -7    9.54    2.02   1
  -2   7   7    6.11    2.10   1
   1  -7  -7   9.693    2.06   1
  -1   7   7    8.84    2.35   1
   0  -7  -7   66.15   10.65   1
   0   7   7   71.68    6.86   1
  -1  -7  -7    5.57    2.85   1
   1   7   7   16.77    3.58   1
  -2  -7  -7   39.17    5.76   1
   2   7   7   54.84    7.68   1
  -3  -7  -7   66.65    8.41   1
   3   7   7   76.45   10.93   1
  -4  -7  -7    0.47    1.86   1
   4   7   7    2.60    2.43   1
   7  -8  -7    5.74    5.01   1
  -7   8   7    4.29    2.81   1
   6  -8  -7   10.71    5.52   1
  -6   8   7   18.06    2.95   1
   5  -8  -7    3.56    1.87   1
  -5   8   7    2.23    1.39   1
   4  -8  -7    0.18    1.64   1
  -4   8   7    0.63    1.81   1
   3  -8  -7   63.29    6.31   1
  -3   8   7   64.26    6.46   1
   2  -8  -7    6.66    1.63   1
  -2   8   7    3.38    1.77   1
   1  -8  -7    1.16    1.62   1
  -1   8   7    2.02    1.71   1
   0  -8  -7    0.62    2.91   1
   0   8   7    1.20    1.61   1
  -1  -8  -7    0.00    1.05   1
   1   8   7    0.00    0.70   1
  -2  -8  -7    0.00    3.06   1
   2   8   7    0.00    1.64   1
  -3  -8  -7    8.72    4.33   1
   3   8   7    2.19    2.67   1
  -4  -8  -7    0.93    1.57   1
   4   8   7    0.00    0.55   1
   6  -9  -7    0.00    1.95   1
  -6   9   7    0.00    1.24   1
   5  -9  -7    0.62    2.15   1
  -5   9   7    2.79    1.12   1
   4  -9  -7    0.52    1.14   1
  -4   9   7    1.99    1.36   1
   3  -9  -7    1.53    0.96   1
  -3   9   7    0.53    0.65   1
   2  -9  -7    0.34    1.14   1
  -2   9   7    0.19    1.12   1
   1  -9  -7    0.00    4.31   1
  -1   9   7    1.63    1.74   1
   0  -9  -7    0.00    3.07   1
   0   9   7    0.00    1.68   1
  -1  -9  -7    0.00    2.44   1
   1   9   7    0.00    1.88   1
  -2  -9  -7    0.00    1.17   1
  -3  -9  -7    0.00    1.42   1
   3   9   7    0.00    1.15   1
   5 -10  -7    0.00    2.85   1
  -5  10   7    2.98    1.85   1
   4 -10  -7   65.98    7.24   1
  -4  10   7   72.14    8.33   1
   3 -10  -7    8.87    1.89   1
  -3  10   7   11.98    2.86   1
   2 -10  -7    0.40    0.58   1
  -2  10   7    0.26    0.71   1
   1 -10  -7    0.00    1.15   1
  -1  10   7    0.19    0.62   1
   0 -10  -7   19.69    6.34   1
   0  10   7   13.10    3.30   1
  -1 -10  -7    6.77    6.05   1
   1  10   7    2.71    2.13   1
   3 -11  -7    0.30    1.69   1
  -3  11   7    0.79    0.58   1
   2 -11  -7    0.00    2.78   1
  -2  11   7    0.74    0.91   1
   1 -11  -7    8.19    5.50   1
  -1  11   7    0.84    2.15   1
   2  13  -8    0.69    6.51   1
  -2 -13   8    0.00    5.29   1
   1  13  -8    0.00    1.26   1
  -1 -13   8    0.00    2.71   1
   0  13  -8    0.37    1.13   1
   0 -13   8    1.69    1.92   1
  -1  13  -8    0.00    1.18   1
   1 -13   8    0.21    1.36   1
  -2  13  -8    0.00    0.61   1
   2 -13   8    0.00    0.64   1
  -3  13  -8    0.00    1.37   1
   3 -13   8    0.88    1.49   1
   4  12  -8    0.23    1.78   1
  -4 -12   8    0.76    6.27   1
   3  12  -8    0.10    1.17   1
  -3 -12   8    2.02    3.52   1
   2  12  -8    0.18    0.37   1
  -2 -12   8    0.65    1.16   1
   1  12  -8   17.00    3.32   1
  -1 -12   8   20.08    5.66   1
   0  12  -8   59.15    7.06   1
   0 -12   8   60.44    6.52   1
  -1  12  -8    0.28    0.90   1
   1 -12   8    0.50    0.67   1
  -2  12  -8    4.32    2.46   1
   2 -12   8    3.36    2.18   1
  -3  12  -8    2.00    2.48   1
   3 -12   8    2.34    2.35   1
  -4  12  -8    0.69    2.63   1
   4 -12   8    2.48    1.32   1
   5  11  -8    0.78    1.19   1
  -5 -11   8    0.00    1.78   1
   4  11  -8    0.04    0.30   1
  -4 -11   8    0.00    0.64   1
   3  11  -8    0.63    1.11   1
  -3 -11   8    0.00    1.92   1
   2  11  -8    1.78    1.93   1
  -2 -11   8    2.68    5.62   1
   1  11  -8   10.26    2.74   1
  -1 -11   8   14.95    3.78   1
   0  11  -8   85.05   10.30   1
   0 -11   8  120.78   11.14   1
  -1  11  -8    0.19    0.73   1
   1 -11   8    0.88    1.29   1
  -2  11  -8    4.62    2.00   1
   2 -11   8    5.35    3.10   1
  -3  11  -8    0.73    2.56   1
   3 -11   8    0.75    3.00   1
   4 -11   8    0.70    0.99   1
  -5  11  -8    1.01    0.76   1
   5 -11   8    1.02    0.67   1
   6  10  -8    0.00    0.85   1
  -6 -10   8    1.98    3.70   1
   5  10  -8    2.16    1.08   1
  -5 -10   8    0.00    2.86   1
   4  10  -8    0.30    0.97   1
  -4 -10   8    0.00    1.27   1
   3  10  -8    0.72    1.29   1
  -3 -10   8    1.31    2.29   1
   2  10  -8    2.85    2.19   1
  -2 -10   8    5.59    2.16   1
   1  10  -8    6.43    2.11   1
  -1 -10   8    1.46    1.60   1
   0  10  -8    2.28    2.25   1
   0 -10   8    3.94    1.98   1
  -1  10  -8    3.28    1.77   1
   1 -10   8    0.02    1.78   1
  -2  10  -8    0.16    0.82   1
   2 -10   8    0.73    1.18   1
  -3  10  -8    0.00    0.75   1
   3 -10   8    0.73    0.59   1
  -4  10  -8    0.50    1.05   1
   4 -10   8    0.06    0.76   1
  -5  10  -8    2.12    1.28   1
   5 -10   8    1.41    0.85   1
  -6  10  -8    0.09    0.63   1
   6 -10   8    0.18    0.57   1
   6   9  -8    2.35    1.59   1
  -6  -9   8    7.95    5.46   1
   5   9  -8    0.30    0.56   1
  -5  -9   8    1.21    2.11   1
   4   9  -8    1.87    1.29   1
  -4  -9   8    3.67    1.88   1
   3   9  -8    0.09    0.89   1
  -3  -9   8    1.94    1.37   1
   2   9  -8    0.99    1.17   1
  -2  -9   8    1.47    1.66   1
   1   9  -8   72.34   11.21   1
   0   9  -8   10.42    2.20   1
   0  -9   8   13.09    2.54   1
  -1   9  -8    0.00    0.30   1
   1  -9   8    0.80    0.57   1
  -2   9  -8   45.75    4.87   1
   2  -9   8   47.13    4.64   1
  -3   9  -8   15.73    2.58   1
   3  -9   8   11.70    2.41   1
  -4   9  -8    0.28    0.38   1
   4  -9   8    0.00    0.30   1
  -5   9  -8   29.24    3.63   1
   5  -9   8   29.59    5.50   1
  -6   9  -8    1.21    2.36   1
   6  -9   8    5.37    3.42   1
   7   8  -8   17.05    3.27   1
  -7  -8   8   16.76    5.93   1
   6   8  -8    2.14    1.80   1
  -6  -8   8    0.00    4.75   1
   5   8  -8    8.51    2.12   1
  -5  -8   8    6.99    4.51   1
   4   8  -8   15.06    2.25   1
  -4  -8   8   20.97    3.30   1
   3   8  -8   28.81    3.12   1
  -3  -8   8   38.38    4.64   1
   2   8  -8    0.31    1.06   1
  -2  -8   8    0.21    1.20   1
   1   8  -8    5.66    1.56   1
  -1  -8   8    8.59    1.50   1
   0   8  -8   13.83    2.41   1
   0  -8   8   11.60    1.81   1
  -1   8  -8    0.76    1.21   1
   1  -8   8    1.08    2.12   1
  -2   8  -8  110.72    9.54   1
   2  -8   8   99.31   12.39   1
  -3   8  -8    7.67    1.91   1
   3  -8   8    7.94    1.66   1
  -4   8  -8    5.00    1.80   1
   4  -8   8    3.50    1.81   1
  -5   8  -8    7.76    1.88   1
   5  -8   8    7.62    2.71   1
  -6   8  -8    0.25    0.81   1
   6  -8   8    3.55    1.29   1
  -7   8  -8    0.50    0.95   1
   7  -8   8    1.22    1.01   1
   7   7  -8    0.00    0.79   1
  -7  -7   8    0.22    1.68   1
   6   7  -8    0.71    1.70   1
  -6  -7   8    1.95    1.65   1
   5   7  -8    9.52    1.68   1
  -5  -7   8   17.38    5.95   1
   4   7  -8   11.29    1.64   1
  -4  -7   8   14.13    2.42   1
   3   7  -8   29.37    5.75   1
  -3  -7   8   41.21    3.77   1
   2   7  -8    3.46    1.26   1
  -2  -7   8    9.27    1.41   1
   1   7  -8   16.43    1.99   1
  -1  -7   8   19.61    2.03   1
   0   7  -8  100.12    8.40   1
   0  -7   8  112.55    7.28   1
  -1   7  -8    0.31    1.09   1
   1  -7   8    2.12    0.81   1
  -2   7  -8   23.35    2.95   1
   2  -7   8   26.34    3.04   1
  -3   7  -8   15.62    2.16   1
   3  -7   8   11.32    2.75   1
  -4   7  -8    0.27    0.19   1
   4  -7   8    0.17    0.19   1
  -5   7  -8    0.00    0.31   1
   5  -7   8    0.00    0.40   1
  -6   7  -8    0.36    0.96   1
   6  -7   8    0.00    1.79   1
  -7   7  -8    0.00    1.08   1
   7  -7   8    1.07    1.69   1
   8   6  -8    0.00    2.66   1
  -8  -6   8    2.37    3.18   1
   7   6  -8    0.00    4.50   1
  -7  -6   8    4.75    5.35   1
   6   6  -8    0.00    0.56   1
  -6  -6   8    0.00    0.61   1
   5   6  -8    1.54    2.17   1
   4   6  -8    2.23    1.91   1
  -4  -6   8    3.23    3.15   1
   3   6  -8    0.00    0.59   1
  -3  -6   8    0.19    0.43   1
   2   6  -8   58.56    6.82   1
  -2  -6   8   64.12    6.84   1
   1   6  -8   23.89    2.06   1
  -1  -6   8   17.70    2.14   1
   0   6  -8   65.24    5.03   1
   0  -6   8   65.97    5.61   1
  -1   6  -8    1.14    0.95   1
   1  -6   8    1.51    0.68   1
  -2   6  -8   30.08    3.19   1
   2  -6   8   27.34    2.25   1
  -3   6  -8    6.33    1.41   1
   3  -6   8    8.23    1.61   1
  -4   6  -8  172.77   12.37   1
   4  -6   8  180.64   13.81   1
  -5   6  -8    4.70    1.57   1
   5  -6   8    7.02    2.17   1
  -6   6  -8    0.14    0.96   1
   6  -6   8    0.36    1.25   1
  -7   6  -8    0.00    1.45   1
   8   5  -8   63.25   10.36   1
  -8  -5   8  92.273   16.77   1
   7   5  -8   39.66    7.50   1
  -7  -5   8   49.21    8.76   1
   6   5  -8    0.02    1.08   1
  -6  -5   8    0.70    2.47   1
   5   5  -8  124.38   13.72   1
  -5  -5   8  135.69   14.38   1
   4   5  -8   81.78    7.43   1
  -4  -5   8   86.10    9.44   1
   3   5  -8    6.36    0.89   1
  -3  -5   8    8.13    1.40   1
   2   5  -8    2.58    0.61   1
  -2  -5   8    2.41    0.87   1
   1   5  -8   27.31    2.56   1
  -1  -5   8   29.10    2.28   1
   0   5  -8   64.19    5.24   1
   0  -5   8   65.96    4.16   1
  -1   5  -8    1.43    0.62   1
   1  -5   8    1.54    0.44   1
  -2   5  -8   49.64    3.71   1
   2  -5   8   48.57    3.00   1
  -3   5  -8    0.77    0.85   1
   3  -5   8    1.12    0.97   1
  -4   5  -8  167.78   11.32   1
   4  -5   8  155.99   11.60   1
  -5   5  -8    0.30    0.32   1
   5  -5   8    0.12    0.30   1
  -6   5  -8    0.00    0.44   1
   6  -5   8    0.00    0.36   1
  -7   5  -8    0.00    0.91   1
   8   4  -8    0.29    4.80   1
  -8  -4   8    7.41    5.35   1
   7   4  -8    0.00    3.87   1
  -7  -4   8    0.00    4.48   1
   6   4  -8    0.84    0.94   1
  -6  -4   8    0.00    1.21   1
   5   4  -8    1.73    1.72   1
  -5  -4   8    3.45    2.25   1
   4   4  -8    1.38    1.15   1
  -4  -4   8    3.80    1.89   1
   3   4  -8    4.47    1.01   1
  -3  -4   8    5.11    1.16   1
   2   4  -8    3.59    0.98   1
  -2  -4   8    1.78    1.07   1
   1   4  -8    3.77    1.21   1
  -1  -4   8    3.30    1.00   1
   0   4  -8    8.64    1.36   1
   0  -4   8    7.34    1.07   1
  -1   4  -8   54.09    4.90   1
   1  -4   8   53.45    4.17   1
  -2   4  -8   13.72    2.01   1
   2  -4   8   14.37    1.23   1
  -3   4  -8    2.92    1.41   1
   3  -4   8    1.73    1.26   1
  -4   4  -8   65.50    6.42   1
   4  -4   8   70.06    5.54   1
  -5   4  -8   10.94    2.09   1
   5  -4   8    4.22    2.11   1
  -6   4  -8    0.13    0.39   1
   6  -4   8    0.00    0.33   1
  -7   4  -8    2.91    1.89   1
   7  -4   8    0.72    2.05   1
   9   3  -8    0.00    1.85   1
  -9  -3   8    0.52    3.65   1
   8   3  -8    0.00    2.45   1
  -8  -3   8    4.15    3.66   1
   7   3  -8    0.00    1.37   1
  -7  -3   8    0.00    2.45   1
   6   3  -8    5.56    1.69   1
  -6  -3   8    0.47    1.79   1
   5   3  -8   14.23    2.04   1
  -5  -3   8   20.99    2.41   1
   4   3  -8   16.22    1.62   1
  -4  -3   8   15.92    2.10   1
   3   3  -8    0.32    0.59   1
  -3  -3   8    0.51    0.89   1
   2   3  -8   17.17    2.07   1
  -2  -3   8   27.08    1.98   1
   1   3  -8    0.88    0.31   1
  -1  -3   8    0.54    0.40   1
   0   3  -8  177.92   13.76   1
   0  -3   8  178.23   11.94   1
  -1   3  -8   52.33    4.52   1
   1  -3   8   51.26    3.12   1
  -2   3  -8   72.39    6.09   1
   2  -3   8   71.21    4.57   1
  -3   3  -8    6.83    1.53   1
   3  -3   8    4.64    0.98   1
  -4   3  -8   50.53    4.81   1
   4  -3   8   45.31    3.86   1
  -5   3  -8    6.23    1.65   1
   5  -3   8    5.67    1.36   1
  -6   3  -8    9.39    2.81   1
   6  -3   8    4.19    1.54   1
  -7   3  -8    0.18    0.25   1
   7  -3   8    0.10    0.11   1
   9   2  -8   17.16    4.50   1
   8   2  -8   52.62    7.85   1
  -8  -2   8   39.31    6.40   1
   7   2  -8    4.95    2.02   1
  -7  -2   8    5.71    3.01   1
   6   2  -8  390.88   33.40   1
  -6  -2   8  383.67   34.32   1
   5   2  -8  166.54   13.24   1
  -5  -2   8  172.73   13.59   1
   4   2  -8    0.20    0.16   1
  -4  -2   8    0.33    0.28   1
   3   2  -8  261.80   19.91   1
  -3  -2   8  263.02   17.90   1
   2   2  -8   68.82    5.69   1
  -2  -2   8   70.15    5.11   1
   1   2  -8  277.17   18.36   1
  -1  -2   8  260.57   20.27   1
   0   2  -8  149.54    8.81   1
   0  -2   8  133.29    9.69   1
  -1   2  -8    0.57    0.76   1
   1  -2   8    1.04    0.60   1
  -2   2  -8    3.75    1.11   1
   2  -2   8    3.19    0.84   1
  -3   2  -8   16.23    1.62   1
   3  -2   8   11.12    1.65   1
  -4   2  -8   14.12    2.19   1
   4  -2   8   15.13    1.85   1
  -5   2  -8    0.33    2.24   1
   5  -2   8    1.21    1.43   1
  -6   2  -8   20.35    4.26   1
   6  -2   8   19.84    2.54   1
  -7   2  -8    0.43    0.74   1
   9   1  -8    0.85    1.58   1
  -9  -1   8    0.95    3.76   1
   8   1  -8    5.26    2.61   1
  -8  -1   8    1.71    3.15   1
   7   1  -8    1.01    1.07   1
  -7  -1   8    0.00    1.96   1
   6   1  -8    0.01    0.19   1
  -6  -1   8    0.05    0.16   1
   5   1  -8    8.58    1.58   1
  -5  -1   8   10.38    1.41   1
   4   1  -8    0.25    0.28   1
  -4  -1   8    0.15    0.21   1
   3   1  -8    6.40    1.15   1
  -3  -1   8    7.16    1.01   1
   2   1  -8   20.02    1.72   1
  -2  -1   8   21.95    2.07   1
   1   1  -8    3.90    0.61   1
  -1  -1   8    4.60    0.60   1
   0   1  -8   22.16    1.66   1
   0  -1   8   22.42    1.54   1
  -1   1  -8    1.14    0.25   1
   1  -1   8    0.17    0.22   1
  -2   1  -8   25.30    2.03   1
   2  -1   8   24.24    2.06   1
  -3   1  -8    0.31    0.76   1
   3  -1   8    0.64    1.37   1
  -4   1  -8    8.19    1.61   1
   4  -1   8   10.31    2.10   1
  -5   1  -8    0.67    0.93   1
   5  -1   8    0.14    1.22   1
  -6   1  -8    0.00    2.07   1
   6  -1   8    0.91    1.04   1
  -7   1  -8    1.73    3.18   1
   7  -1   8    0.00    1.91   1
   9   0  -8    0.14    0.65   1
  -9   0   8    0.63    1.18   1
   8   0  -8    3.35    2.83   1
  -8   0   8    0.65    3.41   1
   7   0  -8    4.14    1.97   1
  -7   0   8    4.70    1.61   1
   6   0  -8    3.51    1.52   1
  -6   0   8    1.55    1.37   1
   5   0  -8    0.88    1.18   1
  -5   0   8    1.61    0.85   1
   4   0  -8    4.57    1.09   1
  -4   0   8    2.92    1.11   1
   3   0  -8    9.57    1.56   1
  -3   0   8   11.10    1.27   1
   2   0  -8  135.43    9.43   1
  -2   0   8  134.56    9.42   1
   1   0  -8   17.60    1.20   1
  -1   0   8   17.78    1.61   1
   0   0  -8   16.30    1.67   1
   0   0   8   18.42    1.46   1
  -1   0  -8    1.63    1.13   1
   1   0   8    2.92    1.06   1
  -2   0  -8    1.37    0.99   1
   2   0   8    0.25    1.47   1
  -3   0  -8    2.59    1.26   1
   3   0   8    1.75    2.04   1
  -4   0  -8    0.19    1.94   1
   4   0   8    1.01    2.31   1
  -5   0  -8    0.00    1.73   1
   5   0   8    0.19    2.61   1
  -6   0  -8    1.42    1.20   1
   6   0   8    0.00    1.41   1
  -7   0  -8    4.47    2.91   1
   7   0   8   10.49    3.92   1
   9  -1  -8    0.07    0.20   1
  -9   1   8    0.06    0.20   1
   8  -1  -8    9.27    1.99   1
  -8   1   8    4.97    3.36   1
   7  -1  -8   55.42    5.62   1
  -7   1   8   56.75    5.59   1
   6  -1  -8  128.76   11.40   1
  -6   1   8  125.81    8.80   1
   5  -1  -8    4.78    1.33   1
  -5   1   8    7.84    1.23   1
   4  -1  -8  648.64   48.82   1
  -4   1   8  654.45   44.24   1
   3  -1  -8   87.05    6.64   1
  -3   1   8   83.25    6.58   1
   2  -1  -8    1.41    0.53   1
  -2   1   8    2.33    0.64   1
   1  -1  -8   92.16    5.02   1
  -1   1   8   88.16    6.52   1
   0  -1  -8   38.82    2.48   1
   0   1   8   33.97    2.72   1
  -1  -1  -8    2.54    0.89   1
   1   1   8    1.75    0.79   1
  -2  -1  -8    4.10    1.09   1
   2   1   8    3.89    1.02   1
  -3  -1  -8    9.38    1.38   1
   3   1   8    9.41    2.02   1
  -4  -1  -8    0.27    0.33   1
   4   1   8    0.42    0.46   1
  -5  -1  -8    1.13    2.22   1
   5   1   8    0.22    1.90   1
  -6  -1  -8    0.42    2.07   1
   6   1   8    1.54    2.14   1
  -7  -1  -8   7.908    3.23   1
   7   1   8    7.32    3.44   1
   9  -2  -8    0.38    0.89   1
  -9   2   8    0.32    0.83   1
   8  -2  -8    0.00    0.87   1
  -8   2   8    0.55    1.21   1
   7  -2  -8    0.07    0.12   1
  -7   2   8    0.00    0.12   1
   6  -2  -8    0.25    0.50   1
  -6   2   8    1.10    0.65   1
   5  -2  -8    10.1    1.84   1
  -5   2   8    9.67    1.72   1
   4  -2  -8   33.01    3.52   1
  -4   2   8   38.82    3.09   1
   3  -2  -8    2.78    1.26   1
  -3   2   8    5.52    1.03   1
   2  -2  -8   32.41    2.60   1
  -2   2   8   38.40    2.96   1
   1  -2  -8   86.48    5.67   1
  -1   2   8   85.57    7.13   1
   0  -2  -8    2.01    0.88   1
   0   2   8    3.78    0.77   1
  -1  -2  -8    8.71    1.23   1
   1   2   8    7.31    1.42   1
  -2  -2  -8    1.65    1.12   1
   2   2   8    1.35    1.14   1
  -3  -2  -8    0.21    0.84   1
   3   2   8    0.68    1.15   1
  -4  -2  -8   11.13    1.75   1
   4   2   8   10.90    2.12   1
  -5  -2  -8    0.00    0.46   1
   5   2   8    0.00    0.68   1
  -6  -2  -8    3.19    2.06   1
   6   2   8    0.73    3.31   1
   9  -3  -8    0.04    0.32   1
  -9   3   8    0.17    0.40   1
   8  -3  -8    0.18    0.13   1
  -8   3   8    0.52    0.22   1
   7  -3  -8    1.46    1.19   1
  -7   3   8    2.21    1.79   1
   6  -3  -8    4.86    1.19   1
  -6   3   8    4.44    1.60   1
   5  -3  -8    0.60    0.84   1
  -5   3   8    0.72    1.25   1
   4  -3  -8    5.30    1.02   1
  -4   3   8    4.88    1.03   1
   3  -3  -8    10.0    1.12   1
  -3   3   8   10.91    1.18   1
   2  -3  -8   28.13    1.94   1
  -2   3   8   28.75    2.95   1
   1  -3  -8    3.34    0.65   1
  -1   3   8    3.87    1.10   1
   0  -3  -8   53.76    3.57   1
   0   3   8   50.34    3.95   1
  -1  -3  -8   16.32    1.84   1
   1   3   8   17.86    1.93   1
  -2  -3  -8   33.79    2.95   1
   2   3   8   33.64    3.39   1
  -3  -3  -8    1.95    1.16   1
   3   3   8    1.24    1.14   1
  -4  -3  -8    4.22    2.51   1
   4   3   8    0.37    0.68   1
  -5  -3  -8    1.56    2.63   1
   5   3   8    0.20    1.67   1
   6   3   8    3.99    2.97   1
   8  -4  -8   15.97    2.79   1
  -8   4   8   16.17    2.66   1
   7  -4  -8    3.57    1.74   1
  -7   4   8    7.66    2.04   1
   6  -4  -8   22.15    2.48   1
  -6   4   8   26.32    2.79   1
   5  -4  -8   75.93    5.94   1
  -5   4   8   79.78    6.17   1
   4  -4  -8   29.45    2.37   1
  -4   4   8   31.44    3.35   1
   3  -4  -8    0.97    0.78   1
  -3   4   8    0.12    1.48   1
   2  -4  -8  141.38    8.03   1
  -2   4   8  143.82   11.10   1
   1  -4  -8    7.92    0.93   1
  -1   4   8   10.26    1.52   1
   0  -4  -8  102.81    6.51   1
   0   4   8  102.46    7.34   1
  -1  -4  -8   93.18    7.29   1
   1   4   8  107.70    8.28   1
  -2  -4  -8    0.00    0.81   1
   2   4   8    1.13    0.98   1
  -3  -4  -8    6.72    1.71   1
   3   4   8    5.06    2.05   1
  -4  -4  -8   20.89    3.68   1
   4   4   8   30.21    3.61   1
  -5  -4  -8    1.92    1.90   1
   5   4   8    1.36    2.00   1
  -6  -4  -8    3.89    2.40   1
   6   4   8    2.10    3.30   1
   8  -5  -8   20.37    2.97   1
  -8   5   8   19.32    3.23   1
   7  -5  -8    0.47    1.10   1
  -7   5   8    1.33    1.51   1
   6  -5  -8    1.28    1.14   1
  -6   5   8    1.61    1.76   1
   5  -5  -8    6.61    1.28   1
  -5   5   8    7.07    1.72   1
   4  -5  -8    0.52    0.46   1
  -4   5   8    0.10    0.51   1
   3  -5  -8    4.31    1.19   1
  -3   5   8    4.46    1.41   1
   2  -5  -8    0.11    0.46   1
  -2   5   8    0.16    0.51   1
   1  -5  -8    9.42    1.27   1
  -1   5   8    9.61    1.72   1
   0  -5  -8    6.49    1.50   1
   0   5   8    5.35    1.54   1
  -1  -5  -8   18.34    2.21   1
   1   5   8   16.60    2.24   1
  -2  -5  -8    1.23    1.56   1
   2   5   8    3.95    1.21   1
  -3  -5  -8    1.29    2.02   1
   3   5   8    0.70    0.87   1
  -4  -5  -8    0.91    1.39   1
   4   5   8    0.38    0.40   1
   5   5   8    0.00    0.17   1
   8  -6  -8    0.53    0.57   1
  -8   6   8    0.34    0.39   1
   7  -6  -8    7.72    3.01   1
  -7   6   8    7.86    2.07   1
   6  -6  -8    1.14    1.88   1
  -6   6   8    2.23    1.71   1
   5  -6  -8    2.05    1.82   1
  -5   6   8    1.72    1.26   1
   4  -6  -8    2.79    1.49   1
  -4   6   8    3.98    1.62   1
   3  -6  -8    0.25    0.54   1
  -3   6   8    0.08    0.65   1
   2  -6  -8    9.40    1.94   1
  -2   6   8   14.01    2.20   1
   1  -6  -8    1.77    1.58   1
  -1   6   8    3.34    1.96   1
   0  -6  -8   10.05    1.95   1
   0   6   8   12.06    2.26   1
  -1  -6  -8    0.00    1.31   1
   1   6   8    0.59    0.99   1
  -2  -6  -8   24.12    6.34   1
   2   6   8   32.52    3.71   1
  -3  -6  -8    8.44    3.26   1
   3   6   8   12.62    2.68   1
  -4  -6  -8   10.56    3.68   1
   4   6   8   21.15    3.28   1
  -5  -6  -8    0.00    1.79   1
   5   6   8    0.97    1.68   1
   7  -7  -8   15.13    5.02   1
  -7   7   8    6.14    2.44   1
   6  -7  -8   14.31    4.27   1
  -6   7   8   15.82    2.92   1
   5  -7  -8    0.61    1.23   1
  -5   7   8    0.43    1.07   1
   4  -7  -8    3.26    1.58   1
  -4   7   8    4.18    1.68   1
   3  -7  -8    0.78    1.34   1
  -3   7   8    0.71    1.40   1
   2  -7  -8    0.06    0.13   1
  -2   7   8    0.05    0.15   1
   1  -7  -8   30.59    4.10   1
  -1   7   8   31.02    3.68   1
   0  -7  -8  113.57   13.30   1
   0   7   8  120.28   12.30   1
  -1  -7  -8   13.12    3.36   1
   1   7   8   15.62    3.66   1
  -2  -7  -8   53.61    6.64   1
   2   7   8   54.39    9.02   1
  -3  -7  -8   60.94    7.76   1
   3   7   8   45.63    7.58   1
  -4  -7  -8    0.88    1.21   1
   4   7   8    0.00    0.70   1
   7  -8  -8    0.00    2.19   1
  -7   8   8    0.68    1.34   1
   6  -8  -8    0.24    2.76   1
  -6   8   8    6.58    2.20   1
   5  -8  -8    0.00    0.74   1
  -5   8   8    0.00    0.55   1
   4  -8  -8    0.00    0.89   1
  -4   8   8    0.22    0.53   1
   3  -8  -8    0.04    0.32   1
  -3   8   8    0.28    0.34   1
   2  -8  -8    0.30    0.41   1
  -2   8   8    0.25    0.45   1
   1  -8  -8    0.00    2.72   1
  -1   8   8    0.00    1.41   1
   0   8   8    0.25    0.29   1
  -1  -8  -8    0.00    3.41   1
   1   8   8    0.00    2.90   1
  -2  -8  -8    0.28    1.06   1
   2   8   8    0.00    1.33   1
  -3  -8  -8    2.53    3.88   1
   3   8   8   11.61    4.47   1
   6  -9  -8    2.18    1.50   1
  -6   9   8    0.93    1.14   1
   5  -9  -8    1.28    2.74   1
  -5   9   8    0.53    1.87   1
   4  -9  -8    1.71    1.00   1
  -4   9   8    2.93    1.87   1
   3  -9  -8    0.44    0.93   1
  -3   9   8    0.22    0.97   1
   2  -9  -8    2.16    1.44   1
  -2   9   8    3.32    2.01   1
   1  -9  -8    0.24    0.32   1
  -1   9   8    0.00    0.18   1
   0  -9  -8    0.06    0.55   1
   0   9   8    0.29    0.33   1
  -1  -9  -8    0.49    1.91   1
   1   9   8    0.08    0.70   1
  -2  -9  -8    6.64    4.32   1
   2   9   8    0.00    2.68   1
   4 -10  -8  118.57   15.94   1
  -4  10   8  100.93   11.65   1
   3 -10  -8    0.00    1.84   1
  -3  10   8    1.47    1.17   1
   2 -10  -8    0.00    3.40   1
  -2  10   8    0.28    1.19   1
   1 -10  -8   13.47    6.43   1
  -1  10   8    9.16    2.89   1
   0 -10  -8    3.16    6.44   1
   0  10   8    3.84    2.79   1
   2  13  -9    0.00    0.63   1
  -2 -13   9    0.00    0.70   1
   1  13  -9    0.00    4.16   1
  -1 -13   9    0.00    4.65   1
   0  13  -9    0.52    1.22   1
   0 -13   9    1.08    0.60   1
   1 -13   9    2.38    2.07   1
   2 -13   9    1.68    1.48   1
   3  12  -9   13.08    3.03   1
  -3 -12   9   20.33    4.32   1
   2  12  -9    1.95    1.53   1
  -2 -12   9    0.00    4.50   1
   1  12  -9    1.29    1.93   1
  -1 -12   9    1.58    5.88   1
   0  12  -9   13.40    4.23   1
   0 -12   9   15.43    3.63   1
  -1  12  -9    0.43    2.12   1
   1 -12   9    5.24    2.80   1
  -2  12  -9    0.00    2.10   1
   2 -12   9    3.24    3.04   1
  -3  12  -9    0.00    2.36   1
   3 -12   9    3.72    3.83   1
  -4  12  -9    3.09    2.53   1
   4 -12   9    3.42    3.88   1
   5  11  -9    0.35    1.68   1
   4  11  -9    0.41    1.56   1
  -4 -11   9    3.73    2.88   1
   3  11  -9    1.25    1.62   1
  -3 -11   9    2.13    3.37   1
   2  11  -9    1.66    2.37   1
  -2 -11   9    2.27    3.51   1
   1  11  -9   15.22    2.96   1
  -1 -11   9   16.07    3.05   1
   0  11  -9   12.79    2.99   1
   0 -11   9   13.76    2.57   1
  -1  11  -9    0.29    1.04   1
   1 -11   9    0.41    0.83   1
  -2  11  -9    0.12    0.54   1
   2 -11   9    0.14    0.37   1
  -3  11  -9    0.00    0.27   1
   3 -11   9    0.13    0.18   1
  -4  11  -9    2.70    2.35   1
   4 -11   9    2.52    1.34   1
  -5  11  -9    0.00    0.98   1
   5 -11   9    0.16    0.72   1
   5  10  -9    0.73    0.85   1
  -5 -10   9    0.00    1.43   1
   4  10  -9    0.57    0.86   1
  -4 -10   9    0.15    1.33   1
   3  10  -9    1.65    1.38   1
  -3 -10   9    2.20    2.06   1
   2  10  -9    1.21    1.66   1
  -2 -10   9    2.44    1.63   1
   1  10  -9   16.35    2.80   1
  -1 -10   9   21.22    4.55   1
   0  10  -9    0.63    1.86   1
   0 -10   9    7.17    2.87   1
  -1  10  -9    2.45    1.96   1
   1 -10   9    6.82    3.32   1
  -2  10  -9    0.00    0.42   1
   2 -10   9    0.30    0.91   1
  -3  10  -9    0.24    1.08   1
   3 -10   9    0.00    0.65   1
  -4  10  -9    0.00    0.66   1
   4 -10   9    0.00    0.58   1
  -5  10  -9    2.47    2.39   1
   5 -10   9    5.19    2.88   1
   6   9  -9    5.54    2.38   1
  -6  -9   9   8.829    4.63   1
   5   9  -9    1.50    1.18   1
  -5  -9   9    1.54    3.37   1
   4   9  -9    0.30    1.46   1
  -4  -9   9    1.25    2.39   1
   3   9  -9   17.09    2.21   1
  -3  -9   9   19.71    3.43   1
   2   9  -9    7.24    2.09   1
  -2  -9   9    7.59    2.18   1
   1   9  -9  221.18   22.56   1
  -1  -9   9  208.84   18.27   1
   0   9  -9    3.11    1.98   1
   0  -9   9    2.62    1.76   1
  -1   9  -9   28.69    3.79   1
   1  -9   9   34.97    5.15   1
  -2   9  -9    0.47    1.72   1
   2  -9   9    8.31    1.60   1
  -3   9  -9    5.88    1.98   1
   3  -9   9    5.65    1.80   1
  -4   9  -9    7.74    2.28   1
   4  -9   9    4.95    1.78   1
  -5   9  -9    1.68    1.33   1
   5  -9   9    1.49    1.47   1
  -6   9  -9    0.01    0.32   1
   6  -9   9    0.21    0.24   1
   7   8  -9   8.935    2.27   1
  -7  -8   9   14.10    6.06   1
   6   8  -9    0.32    0.87   1
  -6  -8   9    1.36    3.03   1
   5   8  -9    0.75    0.58   1
  -5  -8   9    0.00    2.52   1
   4   8  -9    4.26    1.31   1
  -4  -8   9    8.68    2.20   1
   3   8  -9    5.76    1.47   1
  -3  -8   9    7.95    2.11   1
   2   8  -9    6.93    1.55   1
  -2  -8   9   10.48    2.01   1
   1   8  -9   58.08    6.42   1
  -1  -8   9   59.22    5.12   1
   0   8  -9   51.53    4.80   1
   0  -8   9   49.21    5.32   1
  -1   8  -9    2.37    1.16   1
   1  -8   9    2.59    1.59   1
  -2   8  -9    0.52    0.53   1
   2  -8   9    1.28    0.57   1
  -3   8  -9   29.85    4.06   1
   3  -8   9   23.21    4.23   1
  -4   8  -9    5.50    1.73   1
   4  -8   9   11.77    3.70   1
  -5   8  -9    2.03    1.58   1
   5  -8   9    0.00    3.18   1
  -6   8  -9    0.12    1.80   1
   6  -8   9    2.35    3.26   1
   7   7  -9    0.00    3.41   1
  -7  -7   9    0.00    3.44   1
   6   7  -9    0.34    2.14   1
  -6  -7   9    0.00    3.99   1
   5   7  -9    0.34    1.32   1
  -5  -7   9    2.39    2.83   1
   4   7  -9    9.38    2.79   1
   3   7  -9    0.05    0.97   1
  -3  -7   9    0.01    1.08   1
   2   7  -9   24.51    2.87   1
  -2  -7   9   20.66    2.49   1
   1   7  -9   30.00    2.79   1
  -1  -7   9   28.65    3.24   1
   0   7  -9    7.73    1.32   1
   0  -7   9    8.18    1.13   1
  -1   7  -9   33.08    4.57   1
   1  -7   9   23.12    2.14   1
  -2   7  -9    0.88    1.20   1
   2  -7   9    0.86    1.40   1
  -3   7  -9    4.92    1.44   1
   3  -7   9    5.26    2.08   1
  -4   7  -9    0.62    0.29   1
   4  -7   9    0.00    0.36   1
  -5   7  -9    4.58    1.76   1
   5  -7   9    9.26    4.36   1
  -6   7  -9    0.00    0.14   1
   6  -7   9    0.00    0.21   1
  -7   7  -9    6.45    3.96   1
   7  -7   9    3.62    2.70   1
   8   6  -9    2.05    3.30   1
  -8  -6   9    0.00    6.09   1
   7   6  -9    0.65    2.48   1
  -7  -6   9    1.12    2.78   1
   6   6  -9    0.83    1.26   1
  -6  -6   9    1.05    2.35   1
   5   6  -9   28.76    4.00   1
  -5  -6   9   37.56    4.47   1
   4   6  -9    1.97    0.99   1
  -4  -6   9    4.00    1.39   1
   3   6  -9   19.54    2.11   1
  -3  -6   9   23.53    2.48   1
   2   6  -9  116.75   12.36   1
  -2  -6   9  115.38   10.52   1
   1   6  -9   54.02    4.80   1
  -1  -6   9   62.17    4.30   1
   0   6  -9  117.89    9.85   1
   0  -6   9  128.19    8.32   1
  -1   6  -9  126.00    9.79   1
   1  -6   9  123.72    8.45   1
  -2   6  -9    2.76    1.04   1
   2  -6   9    1.26    0.97   1
  -3   6  -9    0.71    0.99   1
   3  -6   9    0.59    1.49   1
  -4   6  -9   31.33    3.82   1
   4  -6   9   47.43    7.13   1
  -5   6  -9   16.13    2.80   1
   5  -6   9   26.80    5.65   1
  -6   6  -9    6.50    3.13   1
   6  -6   9    8.41    4.08   1
  -7   6  -9    4.48    2.72   1
   7  -6   9   8.991    4.74   1
   8   5  -9   27.68    6.06   1
  -8  -5   9   24.79    7.18   1
   7   5  -9   40.49    7.64   1
  -7  -5   9   41.04    8.31   1
   6   5  -9    2.27    2.02   1
  -6  -5   9    1.57    2.49   1
   5   5  -9   85.23    9.42   1
  -5  -5   9   87.84    9.92   1
   4   5  -9    5.12    1.33   1
  -4  -5   9    9.26    2.16   1
   3   5  -9    0.78    0.59   1
  -3  -5   9    1.25    1.19   1
   2   5  -9   46.82    6.40   1
  -2  -5   9   58.28    4.16   1
   1   5  -9    0.70    0.98   1
  -1  -5   9    0.68    0.76   1
   0   5  -9  104.52    8.48   1
   0  -5   9  105.69    7.60   1
  -1   5  -9   58.91    4.73   1
   1  -5   9   60.48    4.10   1
  -2   5  -9    0.27    0.34   1
   2  -5   9    0.17    0.25   1
  -3   5  -9   10.07    2.05   1
   3  -5   9    7.98    1.41   1
  -4   5  -9    3.06    1.96   1
   4  -5   9   10.25    2.00   1
  -5   5  -9    0.00    0.67   1
   5  -5   9    0.87    0.70   1
  -6   5  -9    0.00    2.27   1
   6  -5   9    0.00    2.67   1
  -7   5  -9    0.00    0.90   1
   8   4  -9    0.00    2.20   1
  -8  -4   9    0.00    2.75   1
   7   4  -9    0.00    1.70   1
  -7  -4   9    1.95    2.41   1
   6   4  -9   10.65    2.01   1
  -6  -4   9    9.40    2.57   1
   5   4  -9    0.69    1.27   1
  -5  -4   9    3.46    1.74   1
   4   4  -9   14.34    1.80   1
  -4  -4   9   21.29    2.67   1
   3   4  -9    10.2    1.45   1
  -3  -4   9   13.41    1.50   1
   2   4  -9    2.49    1.26   1
  -2  -4   9    4.29    0.98   1
   1   4  -9    0.17    0.42   1
  -1  -4   9    0.03    0.43   1
   0   4  -9   42.10    3.88   1
   0  -4   9   45.70    2.95   1
  -1   4  -9   24.06    2.60   1
   1  -4   9   25.74    1.69   1
  -2   4  -9    6.07    1.48   1
   2  -4   9    5.04    0.75   1
  -3   4  -9   65.58    5.55   1
   3  -4   9   59.87    4.91   1
  -4   4  -9    0.13    0.69   1
   4  -4   9    0.41    0.50   1
  -5   4  -9   15.60    2.43   1
   5  -4   9   12.80    1.83   1
  -6   4  -9    0.00    2.13   1
   6  -4   9    0.94    1.36   1
  -7   4  -9    2.72    3.14   1
   7  -4   9    1.33    2.29   1
   9   3  -9    1.96    3.35   1
  -9  -3   9    0.00    4.88   1
   8   3  -9    4.83    4.02   1
  -8  -3   9    5.77    4.81   1
   7   3  -9    2.13    1.99   1
  -7  -3   9    3.03    2.66   1
   6   3  -9   11.99    2.41   1
  -6  -3   9   16.30    2.98   1
   5   3  -9   34.66    3.75   1
  -5  -3   9   36.27    3.99   1
   4   3  -9    3.38    1.05   1
  -4  -3   9    3.75    1.48   1
   3   3  -9   32.48    2.65   1
  -3  -3   9   34.43    3.20   1
   2   3  -9    6.66    1.26   1
  -2  -3   9    6.51    1.20   1
   1   3  -9    5.67    1.25   1
  -1  -3   9    4.57    1.28   1
   0   3  -9    0.13    0.33   1
   0  -3   9    0.29    0.35   1
  -1   3  -9  278.01   21.22   1
   1  -3   9  274.28   16.81   1
  -2   3  -9    2.78    1.46   1
   2  -3   9    0.86    1.04   1
  -3   3  -9  289.08   22.49   1
   3  -3   9  283.88   19.07   1
  -4   3  -9   55.23    6.85   1
   4  -3   9   51.41    4.53   1
  -5   3  -9    0.94    0.62   1
   5  -3   9    0.01    0.94   1
  -6   3  -9    0.57    3.15   1
   6  -3   9    3.56    1.98   1
  -7   3  -9    1.34    1.24   1
   7  -3   9    0.80    1.49   1
   9   2  -9   23.76    5.31   1
  -9  -2   9   22.21    5.61   1
   8   2  -9   40.14    7.31   1
  -8  -2   9   40.68    5.98   1
   7   2  -9    0.00    1.63   1
  -7  -2   9    0.64    2.02   1
   6   2  -9  159.82   14.06   1
  -6  -2   9  159.95   12.88   1
   5   2  -9  192.35   15.65   1
  -5  -2   9  218.19   16.06   1
   4   2  -9    1.69    0.99   1
  -4  -2   9    2.15    0.73   1
   3   2  -9  110.94    8.87   1
  -3  -2   9  109.64    8.00   1
   2   2  -9    0.20    0.35   1
  -2  -2   9    0.56    0.44   1
   1   2  -9   11.63    1.57   1
  -1  -2   9   13.78    1.64   1
   0   2  -9  118.87    7.27   1
   0  -2   9  113.46    8.03   1
  -1   2  -9   79.54    4.69   1
   1  -2   9   68.67    4.64   1
  -2   2  -9   45.57    3.08   1
   2  -2   9   42.15    2.98   1
  -3   2  -9    6.18    1.62   1
   3  -2   9    7.73    1.20   1
  -4   2  -9   20.16    2.76   1
   4  -2   9   23.23    2.60   1
  -5   2  -9    1.31    0.87   1
   5  -2   9    0.95    0.91   1
   6  -2   9   10.83    6.29   1
  -7   2  -9    0.00    0.46   1
   7  -2   9    0.19    0.23   1
   9   1  -9    0.00    0.84   1
  -9  -1   9    0.96    0.90   1
   8   1  -9    0.00    1.65   1
  -8  -1   9    0.00    2.73   1
   7   1  -9    0.00    1.62   1
  -7  -1   9    0.67    2.33   1
   6   1  -9    0.05    1.56   1
  -6  -1   9    3.97    2.03   1
   5   1  -9    0.00    1.15   1
  -5  -1   9    1.22    0.92   1
   4   1  -9   21.11    2.50   1
  -4  -1   9   22.82    2.21   1
   3   1  -9    1.01    1.06   1
  -3  -1   9    0.68    0.60   1
   2   1  -9   50.10    4.42   1
  -2  -1   9   56.48    4.39   1
   1   1  -9   25.61    2.33   1
  -1  -1   9   26.17    2.06   1
   0   1  -9   30.17    2.06   1
   0  -1   9   24.17    2.04   1
  -1   1  -9    8.47    1.12   1
   1  -1   9    8.05    1.09   1
  -2   1  -9   13.11    1.47   1
   2  -1   9    8.42    1.69   1
  -3   1  -9   38.96    3.90   1
   3  -1   9   36.13    3.65   1
  -4   1  -9    0.03    0.22   1
   4  -1   9    0.04    0.42   1
  -5   1  -9    0.00    2.82   1
   5  -1   9    3.57    3.19   1
  -6   1  -9    0.00    2.83   1
   6  -1   9    2.14    3.27   1
  -7   1  -9    4.44    2.11   1
   7  -1   9    4.75    3.51   1
   9   0  -9    0.00    0.73   1
  -9   0   9    0.14    1.77   1
   8   0  -9    0.00    0.58   1
  -8   0   9    0.29    0.70   1
   7   0  -9    9.15    1.87   1
  -7   0   9    9.28    2.18   1
   6   0  -9    2.35    1.40   1
  -6   0   9    0.32    1.31   1
   5   0  -9    0.75    0.74   1
  -5   0   9    0.84    0.60   1
   4   0  -9    6.42    1.30   1
  -4   0   9    8.46    1.21   1
   3   0  -9   25.57    2.64   1
  -3   0   9   26.81    2.72   1
   2   0  -9    3.07    0.70   1
  -2   0   9    2.37    0.64   1
   1   0  -9  202.29   11.50   1
  -1   0   9  196.95   13.77   1
   0   0  -9  113.18    6.34   1
   0   0   9  106.54    7.62   1
  -1   0  -9   25.72    2.74   1
   1   0   9   24.86    2.16   1
  -2   0  -9   64.26    5.59   1
   2   0   9   61.51    5.31   1
  -3   0  -9    0.07    0.63   1
   3   0   9    0.22    0.72   1
  -4   0  -9    2.65    1.23   1
   4   0   9    3.56    1.95   1
  -5   0  -9   17.22    2.79   1
   5   0   9   21.65    3.66   1
  -6   0  -9    3.81    2.41   1
   6   0   9    4.01    2.60   1
  -7   0  -9   20.27    3.93   1
   7   0   9   17.05    4.20   1
   9  -1  -9    2.49    1.81   1
  -9   1   9    0.99    1.66   1
   8  -1  -9    7.21    2.07   1
  -8   1   9    8.51    2.40   1
   7  -1  -9   75.96    8.70   1
  -7   1   9   80.85    7.42   1
   6  -1  -9  131.02   11.79   1
  -6   1   9  129.54    9.38   1
   5  -1  -9   50.10    4.97   1
  -5   1   9   56.28    4.43   1
   4  -1  -9  243.68   19.33   1
  -4   1   9  256.74   17.53   1
   3  -1  -9  151.47   12.80   1
  -3   1   9  160.06   11.18   1
   2  -1  -9    2.71    0.80   1
  -2   1   9    5.49    0.82   1
   1  -1  -9  322.15   17.94   1
  -1   1   9  313.82   23.89   1
   0  -1  -9   90.45    6.42   1
   0   1   9   87.21    6.36   1
  -1  -1  -9    4.51    1.30   1
   1   1   9    6.17    1.37   1
  -2  -1  -9   49.30    4.02   1
   2   1   9   50.80    4.76   1
  -3  -1  -9    0.05    0.75   1
   3   1   9    0.00    1.13   1
  -4  -1  -9   31.86    3.06   1
   4   1   9   29.86    4.92   1
  -5  -1  -9    1.10    2.10   1
   5   1   9    0.00    3.00   1
  -6  -1  -9    1.19    1.72   1
   6   1   9    3.77    2.60   1
   9  -2  -9    0.48    1.67   1
  -9   2   9    1.03    1.83   1
   8  -2  -9    0.08    0.69   1
  -8   2   9    0.59    1.14   1
   7  -2  -9    0.42    0.56   1
  -7   2   9    0.59    0.71   1
   6  -2  -9    0.67    1.19   1
  -6   2   9    0.96    1.22   1
   5  -2  -9    0.14    0.12   1
  -5   2   9    0.23    0.14   1
   4  -2  -9    8.86    1.54   1
  -4   2   9    10.3    1.39   1
   3  -2  -9    1.04    0.69   1
  -3   2   9    2.37    0.52   1
   2  -2  -9   19.56    1.72   1
  -2   2   9   23.59    2.46   1
   1  -2  -9    0.45    0.66   1
  -1   2   9    0.10    0.78   1
   0  -2  -9   19.27    2.05   1
   0   2   9   23.34    2.05   1
  -1  -2  -9    1.57    1.03   1
   1   2   9    0.35    0.87   1
  -2  -2  -9    1.47    1.07   1
   2   2   9    1.21    1.03   1
  -3  -2  -9    8.90    1.47   1
   3   2   9    6.86    1.58   1
  -4  -2  -9    9.14    2.01   1
   4   2   9    7.27    2.31   1
  -5  -2  -9   12.20    3.61   1
   5   2   9    6.29    2.72   1
  -6  -2  -9    1.21    2.29   1
   6   2   9    0.00    1.41   1
   9  -3  -9    0.00    0.58   1
  -9   3   9    0.62    0.79   1
   8  -3  -9    1.00    1.11   1
  -8   3   9    0.33    1.14   1
   7  -3  -9    1.37    0.96   1
  -7   3   9    1.95    1.20   1
   6  -3  -9    0.82    1.06   1
  -6   3   9    0.12    1.35   1
   5  -3  -9    6.96    1.48   1
  -5   3   9    9.81    1.79   1
   4  -3  -9    0.10    0.33   1
  -4   3   9    0.29    0.37   1
   3  -3  -9    3.09    1.10   1
  -3   3   9    7.56    1.56   1
   2  -3  -9   23.54    2.10   1
  -2   3   9   27.52    2.83   1
   1  -3  -9    0.01    0.08   1
  -1   3   9    0.05    0.12   1
   0  -3  -9    6.83    1.38   1
   0   3   9    9.60    1.28   1
  -1  -3  -9   51.34    4.23   1
   1   3   9   56.36    4.67   1
  -2  -3  -9    0.07    0.53   1
   2   3   9    0.86    0.70   1
  -3  -3  -9   30.10    3.25   1
   3   3   9   34.39    3.62   1
  -4  -3  -9    0.10    0.42   1
   4   3   9    0.21    0.64   1
  -5  -3  -9    1.86    1.93   1
   5   3   9    3.85    2.35   1
  -6  -3  -9   23.28    4.72   1
   6   3   9   38.04    3.92   1
   8  -4  -9    1.86    1.33   1
  -8   4   9    1.57    2.25   1
   7  -4  -9    5.94    1.50   1
  -7   4   9    3.89    2.21   1
   6  -4  -9   23.16    2.43   1
  -6   4   9   24.15    4.70   1
   5  -4  -9  132.82    9.77   1
  -5   4   9  137.95   10.03   1
   4  -4  -9   19.14    1.90   1
  -4   4   9   21.18    2.82   1
   3  -4  -9    4.59    0.79   1
  -3   4   9    3.31    1.45   1
   2  -4  -9   91.84    5.58   1
  -2   4   9   89.79    7.54   1
   1  -4  -9   13.68    1.26   1
  -1   4   9   13.68    1.99   1
   0  -4  -9   19.35    1.93   1
   0   4   9   24.72    2.20   1
  -1  -4  -9   47.88    3.66   1
   1   4   9   38.34    4.03   1
  -2  -4  -9   15.46    2.19   1
   2   4   9   14.07    1.95   1
  -3  -4  -9    1.56    1.63   1
   3   4   9    0.59    1.30   1
  -4  -4  -9    1.30    3.59   1
   4   4   9    0.66    1.32   1
   5   4   9    0.00    0.19   1
   8  -5  -9    0.00    2.02   1
  -8   5   9    4.38    1.86   1
   7  -5  -9    6.31    2.19   1
  -7   5   9    7.25    2.27   1
   6  -5  -9    6.08    1.73   1
  -6   5   9    2.80    2.05   1
   5  -5  -9    0.05    0.43   1
  -5   5   9    0.73    0.48   1
   4  -5  -9    0.15    1.15   1
  -4   5   9    0.66    0.75   1
   3  -5  -9    0.00    1.15   1
  -3   5   9    1.30    1.33   1
   2  -5  -9    0.08    0.58   1
  -2   5   9    0.73    0.67   1
   1  -5  -9    0.31    1.31   1
  -1   5   9    0.04    1.11   1
   0  -5  -9   10.27    1.93   1
   0   5   9   13.33    1.63   1
  -1  -5  -9    0.00    0.89   1
   1   5   9    0.82    0.95   1
  -2  -5  -9    9.73    2.02   1
   2   5   9   12.46    2.24   1
  -3  -5  -9    0.58    1.15   1
   3   5   9    1.77    1.50   1
  -4  -5  -9    1.40    2.15   1
   4   5   9    7.62    2.15   1
  -5  -5  -9    1.03    1.99   1
   5   5   9    0.69    2.41   1
   8  -6  -9    0.00    0.33   1
  -8   6   9    0.22    0.30   1
   7  -6  -9    2.25    1.39   1
  -7   6   9    1.42    1.14   1
   6  -6  -9    8.13    2.08   1
  -6   6   9    4.62    2.34   1
   5  -6  -9    0.23    1.80   1
  -5   6   9    2.55    1.47   1
   4  -6  -9    4.35    1.39   1
  -4   6   9    2.49    2.08   1
   3  -6  -9    0.43    1.19   1
  -3   6   9    1.61    1.40   1
   2  -6  -9    0.64    1.02   1
  -2   6   9    0.53    1.24   1
   1  -6  -9    6.15    1.91   1
  -1   6   9   10.34    1.98   1
   0  -6  -9   11.40    2.75   1
   0   6   9   19.00    2.41   1
  -1  -6  -9    0.13    2.21   1
   1   6   9    0.17    0.86   1
  -2  -6  -9   22.79    4.42   1
   2   6   9   19.17    4.15   1
  -3  -6  -9   27.63    7.21   1
   3   6   9   22.69    4.64   1
  -4  -6  -9    1.72    6.31   1
   4   6   9    0.55    1.40   1
   7  -7  -9    4.26    3.11   1
  -7   7   9    5.21    2.32   1
   6  -7  -9    2.80    2.88   1
  -6   7   9    7.91    2.10   1
   5  -7  -9    0.01    0.79   1
  -5   7   9    0.58    0.65   1
   4  -7  -9    0.12    0.25   1
  -4   7   9    0.39    0.32   1
   3  -7  -9    0.27    1.62   1
  -3   7   9    3.24    2.06   1
   2  -7  -9    0.33    1.45   1
  -2   7   9    0.96    1.54   1
   1  -7  -9    0.00    4.33   1
  -1   7   9    1.47    2.52   1
   0  -7  -9   72.12    7.34   1
   0   7   9   94.29    9.33   1
  -1  -7  -9    0.00    0.34   1
   1   7   9    0.00    0.39   1
  -2  -7  -9   12.41    3.73   1
   2   7   9   18.44    4.26   1
  -3  -7  -9   20.28    4.42   1
   3   7   9   23.76    5.24   1
   6  -8  -9    2.84    2.04   1
  -6   8   9    1.07    1.94   1
   5  -8  -9    0.00    2.07   1
  -5   8   9    1.62    1.84   1
   4  -8  -9    1.45    1.62   1
  -4   8   9    0.24    1.86   1
   3  -8  -9    0.07    0.60   1
  -3   8   9    0.09    0.56   1
   2  -8  -9    0.44    0.50   1
  -2   8   9    0.17    0.54   1
   1  -8  -9    0.00    0.32   1
  -1   8   9    0.11    0.16   1
   0  -8  -9    0.00    1.27   1
   0   8   9    0.00    0.45   1
  -1  -8  -9    0.00    0.98   1
   1   8   9    0.10    0.47   1
  -2  -8  -9    0.34    4.67   1
   2   8   9    1.62    2.66   1
   5  -9  -9    0.11    0.81   1
  -5   9   9    0.03    0.50   1
   4  -9  -9    2.36    0.83   1
  -4   9   9    1.27    0.87   1
   3  -9  -9    3.66    1.79   1
  -3   9   9    2.54    1.92   1
   2  -9  -9    1.53    3.19   1
  -2   9   9    2.29    1.79   1
   1  -9  -9    3.57    5.12   1
  -1   9   9    3.17    2.93   1
   0  -9  -9    0.00    5.82   1
   0   9   9    4.62    3.17   1
  -1  -9  -9    8.01    6.09   1
   1   9   9    2.40    3.71   1
   3 -10  -9    2.01    3.06   1
  -3  10   9    2.83    2.35   1
   2 -10  -9    0.52    3.54   1
  -2  10   9    1.02    1.70   1
   1 -10  -9   12.12    5.02   1
  -1  10   9   18.75    3.70   1
   1  13 -10    0.00    1.82   1
  -1 -13  10    0.00    3.24   1
   0 -13  10    3.73    4.51   1
   1 -13  10    2.24    2.63   1
   2 -13  10    0.93    4.25   1
   3  12 -10    4.14    2.32   1
  -3 -12  10    5.28    3.29   1
   2  12 -10    2.12    3.34   1
  -2 -12  10    0.00    4.14   1
   1  12 -10    3.06    2.85   1
  -1 -12  10    0.94    2.27   1
   0  12 -10    7.48    5.34   1
   0 -12  10   8.806    2.56   1
   1 -12  10    2.51    2.02   1
   2 -12  10    4.89    2.26   1
   3 -12  10    8.77    3.54   1
   4  11 -10    0.00    1.83   1
  -4 -11  10    1.47    1.90   1
   3  11 -10    3.31    2.60   1
  -3 -11  10   10.94    2.31   1
   2  11 -10    0.33    1.46   1
  -2 -11  10    0.00    1.63   1
   1  11 -10    0.00    1.07   1
  -1 -11  10    0.02    2.39   1
   0  11 -10    0.00    0.53   1
   0 -11  10    0.00    0.51   1
  -1  11 -10    1.26    1.17   1
   1 -11  10    0.87    2.65   1
  -2  11 -10    0.08    1.44   1
   2 -11  10    1.74    2.65   1
  -3  11 -10    1.76    1.89   1
   3 -11  10    0.00    3.22   1
  -4  11 -10    0.52    1.43   1
   4 -11  10    0.62    1.41   1
   5  10 -10    0.57    1.95   1
  -5 -10  10    0.40    1.95   1
   4  10 -10    0.00    0.56   1
  -4 -10  10    0.00    1.40   1
   3  10 -10    0.23    1.48   1
  -3 -10  10    4.17    3.27   1
   2  10 -10    1.55    1.83   1
  -2 -10  10    4.63    2.30   1
   1  10 -10    7.08    2.14   1
  -1 -10  10    8.52    3.12   1
   0  10 -10    0.70    0.43   1
   0 -10  10    0.00    0.37   1
  -1  10 -10    0.75    0.72   1
   1 -10  10    0.04    0.72   1
  -2  10 -10    0.00    0.42   1
   2 -10  10    0.02    0.43   1
  -3  10 -10    0.00    1.59   1
   3 -10  10    0.09    1.28   1
  -4  10 -10    0.13    2.05   1
   4 -10  10    1.24    1.31   1
  -5  10 -10    0.08    1.82   1
   5 -10  10    2.73    1.52   1
   6   9 -10    3.49    1.43   1
  -6  -9  10   29.86    6.37   1
   5   9 -10    0.10    0.43   1
  -5  -9  10    0.21    0.92   1
   4   9 -10    1.30    1.27   1
  -4  -9  10    0.01    2.47   1
   3   9 -10    3.42    1.20   1
  -3  -9  10    0.74    1.92   1
   2   9 -10   12.08    2.35   1
  -2  -9  10   22.26    3.39   1
   1   9 -10  125.31   13.71   1
  -1  -9  10  128.14   19.18   1
   0   9 -10    3.84    1.75   1
   0  -9  10   13.14    2.67   1
  -1   9 -10   12.43    2.25   1
   1  -9  10   17.28    3.13   1
  -2   9 -10    3.29    1.78   1
   2  -9  10    2.41    1.75   1
  -3   9 -10    0.27    0.18   1
   3  -9  10    0.21    0.31   1
  -4   9 -10    1.97    1.41   1
   4  -9  10    0.00    2.18   1
  -5   9 -10    7.57    2.10   1
   5  -9  10   9.016    2.71   1
  -6   9 -10    0.01    0.71   1
   6  -9  10    0.59    0.72   1
   7   8 -10    0.00    0.63   1
  -7  -8  10    0.99    1.79   1
   6   8 -10    0.00    0.34   1
  -6  -8  10    0.00    0.96   1
   5   8 -10    0.00    1.56   1
  -5  -8  10    0.00    2.93   1
   4   8 -10    4.73    1.57   1
  -4  -8  10   9.908    2.83   1
   3   8 -10    3.99    1.68   1
  -3  -8  10    6.30    2.63   1
   2   8 -10   15.96    2.49   1
  -2  -8  10   20.71    2.91   1
   1   8 -10  100.80    9.18   1
  -1  -8  10  119.85   12.68   1
   0   8 -10    3.47    1.69   1
   0  -8  10    2.52    1.96   1
  -1   8 -10   23.18    2.61   1
   1  -8  10   13.70    2.76   1
  -2   8 -10    0.00    0.52   1
   2  -8  10    0.25    0.63   1
  -3   8 -10    3.40    1.56   1
   3  -8  10    8.00    2.29   1
  -4   8 -10    1.81    1.42   1
   4  -8  10    1.76    1.81   1
  -5   8 -10    4.78    1.82   1
   5  -8  10    4.37    2.22   1
  -6   8 -10    0.27    0.86   1
   6  -8  10    0.00    1.02   1
   7   7 -10    0.31    1.23   1
  -7  -7  10    0.00    1.76   1
   6   7 -10    0.16    1.10   1
  -6  -7  10    0.24    1.70   1
   5   7 -10    5.44    1.51   1
  -5  -7  10    8.26    2.30   1
   3   7 -10    7.67    1.46   1
  -3  -7  10    7.71    1.65   1
   2   7 -10    0.50    0.91   1
  -2  -7  10    3.06    1.23   1
   1   7 -10   19.59    2.80   1
  -1  -7  10   29.41    2.41   1
   0   7 -10   11.98    2.94   1
   0  -7  10   18.20    1.90   1
  -1   7 -10    4.59    1.38   1
   1  -7  10    5.74    1.35   1
  -2   7 -10   12.34    1.64   1
   2  -7  10   11.12    1.89   1
  -3   7 -10    0.00    0.38   1
   3  -7  10    0.00    0.45   1
  -4   7 -10    9.55    2.52   1
   4  -7  10   14.91    4.37   1
  -5   7 -10    0.00    1.42   1
   5  -7  10    3.20    3.10   1
  -6   7 -10    0.70    0.59   1
   6  -7  10    0.66    0.87   1
   8   6 -10    0.86    5.82   1
  -8  -6  10    0.00    4.70   1
   7   6 -10    4.98    5.52   1
  -7  -6  10   8.887    4.99   1
   6   6 -10    0.79    2.32   1
  -6  -6  10    2.64    4.01   1
   5   6 -10    0.00    0.71   1
  -5  -6  10    0.00    0.89   1
   4   6 -10    0.00    0.66   1
  -4  -6  10    0.00    0.93   1
   3   6 -10    0.09    0.44   1
  -3  -6  10    0.00    0.75   1
   2   6 -10   75.25    7.24   1
  -2  -6  10   74.03    7.00   1
   1   6 -10    9.20    2.41   1
  -1  -6  10    8.02    1.41   1
   0   6 -10    7.28    1.61   1
   0  -6  10    3.57    1.09   1
  -1   6 -10   97.07    7.31   1
   1  -6  10   98.41    6.82   1
  -2   6 -10   20.17    2.34   1
   2  -6  10   22.67    1.97   1
  -3   6 -10    4.00    1.24   1
   3  -6  10    2.46    0.84   1
  -4   6 -10   27.48    3.73   1
   4  -6  10   16.31    3.42   1
  -5   6 -10    4.27    2.36   1
   5  -6  10    1.82    2.31   1
  -6   6 -10    2.37    2.70   1
   6  -6  10    1.25    1.56   1
   8   5 -10    6.87    3.59   1
  -8  -5  10    7.72    4.88   1
   7   5 -10    1.56    2.71   1
  -7  -5  10    3.47    2.98   1
   6   5 -10   24.40    3.65   1
  -6  -5  10   40.09    4.88   1
   5   5 -10   13.43    2.28   1
  -5  -5  10   16.66    2.75   1
   4   5 -10    4.66    1.15   1
  -4  -5  10   15.63    2.12   1
   3   5 -10    1.59    0.74   1
  -3  -5  10    1.51    1.07   1
   2   5 -10    6.80    2.06   1
  -2  -5  10   14.28    1.52   1
   1   5 -10    8.18    2.14   1
  -1  -5  10   13.62    1.49   1
   0   5 -10    0.78    0.81   1
   0  -5  10    1.81    0.68   1
  -1   5 -10   45.87    4.33   1
   1  -5  10   45.82    2.86   1
  -2   5 -10    0.36    0.29   1
   2  -5  10    0.18    0.13   1
  -3   5 -10    2.32    1.58   1
   3  -5  10    0.51    0.90   1
  -4   5 -10    3.02    1.68   1
   4  -5  10    7.48    3.68   1
  -5   5 -10    6.69    2.17   1
   5  -5  10   26.35   11.74   1
  -6   5 -10    7.30    3.09   1
  -7   5 -10    0.00    2.25   1
   7  -5  10    2.92    4.26   1
   8   4 -10    0.91    2.19   1
  -8  -4  10    2.05    2.49   1
   7   4 -10    0.00    0.51   1
  -7  -4  10    0.00    0.69   1
   6   4 -10    0.14    0.44   1
  -6  -4  10    0.39    0.57   1
   5   4 -10    7.68    1.97   1
  -5  -4  10    6.05    2.33   1
   4   4 -10    0.29    0.78   1
  -4  -4  10    2.37    1.36   1
   3   4 -10    9.54    2.11   1
  -3  -4  10   11.65    1.62   1
   2   4 -10    0.73    1.11   1
  -2  -4  10    0.70    1.07   1
   1   4 -10   24.14    2.70   1
  -1  -4  10   23.64    2.26   1
   0   4 -10    2.55    1.26   1
   0  -4  10    0.56    1.35   1
  -1   4 -10   28.03    3.43   1
   1  -4  10   32.38    2.89   1
  -2   4 -10    1.35    0.92   1
   2  -4  10    1.16    0.46   1
  -3   4 -10   10.29    2.12   1
   3  -4  10    2.91    1.36   1
  -4   4 -10    0.79    0.71   1
   4  -4  10    0.45    0.85   1
  -5   4 -10   10.25    2.08   1
   5  -4  10   10.98    2.04   1
  -6   4 -10    0.09    0.88   1
   6  -4  10    0.64    0.61   1
  -7   4 -10    0.02    1.72   1
   8   3 -10    5.30    3.26   1
  -8  -3  10    5.39    4.30   1
   7   3 -10    3.67    1.93   1
  -7  -3  10    3.94    2.62   1
   6   3 -10   25.28    3.29   1
  -6  -3  10   36.08    4.20   1
   5   3 -10    2.34    1.08   1
  -5  -3  10    3.56    1.34   1
   4   3 -10    2.37    1.09   1
  -4  -3  10    3.50    1.45   1
   3   3 -10   93.32    8.52   1
  -3  -3  10   94.09    7.66   1
   2   3 -10    2.97    1.00   1
  -2  -3  10    5.10    1.04   1
   1   3 -10  107.97    8.76   1
  -1  -3  10  111.65    8.63   1
   0   3 -10    0.79    0.89   1
   0  -3  10    0.73    0.77   1
  -1   3 -10   57.75    5.04   1
   1  -3  10   56.74    3.83   1
  -2   3 -10    3.30    1.41   1
   2  -3  10    1.69    0.71   1
  -3   3 -10  331.15   24.40   1
   3  -3  10  303.31   20.39   1
  -4   3 -10    0.72    1.57   1
   4  -3  10    3.58    1.21   1
  -5   3 -10    0.24    0.48   1
   5  -3  10    0.46    0.40   1
  -6   3 -10    1.04    1.36   1
   6  -3  10    0.60    0.71   1
  -7   3 -10    0.69    0.79   1
   9   2 -10   21.85    5.72   1
  -9  -2  10   20.75    7.29   1
   8   2 -10   26.01    5.41   1
  -8  -2  10   24.79    4.59   1
   7   2 -10    2.91    2.88   1
  -7  -2  10    7.76    3.06   1
   6   2 -10   37.51    4.13   1
  -6  -2  10   42.52    4.98   1
   5   2 -10   21.59    2.60   1
  -5  -2  10   18.41    2.93   1
   4   2 -10   21.44    2.46   1
  -4  -2  10   21.09    2.15   1
   3   2 -10    1.08    0.66   1
  -3  -2  10    0.96    0.48   1
   2   2 -10   41.04    3.40   1
  -2  -2  10   36.89    3.97   1
   1   2 -10    0.10    1.08   1
  -1  -2  10    1.64    1.07   1
   0   2 -10    2.00    1.33   1
   0  -2  10    1.57    0.81   1
  -1   2 -10   53.39    5.28   1
   1  -2  10   56.10    3.64   1
  -2   2 -10    2.75    1.62   1
   2  -2  10    2.17    1.77   1
  -3   2 -10   98.24    8.67   1
   3  -2  10  110.22    7.73   1
  -4   2 -10    0.52    1.86   1
   4  -2  10    1.82    2.07   1
  -5   2 -10    0.12    0.88   1
   5  -2  10    0.96    1.45   1
  -6   2 -10    0.59    1.14   1
   6  -2  10    1.61    1.38   1
  -7   2 -10    0.00    1.40   1
   7  -2  10    3.12    1.73   1
   9   1 -10    0.00    0.37   1
  -9  -1  10    0.00    0.43   1
   8   1 -10    1.89    2.60   1
  -8  -1  10    0.80    2.95   1
   7   1 -10    4.47    2.23   1
  -7  -1  10    7.22    1.67   1
   6   1 -10    0.97    1.11   1
  -6  -1  10    1.76    0.93   1
   5   1 -10    1.36    1.16   1
  -5  -1  10    1.91    0.88   1
   4   1 -10   12.00    2.40   1
  -4  -1  10   14.75    1.65   1
   3   1 -10   14.49    2.05   1
  -3  -1  10   20.23    1.86   1
   2   1 -10    1.43    0.59   1
  -2  -1  10    1.41    0.53   1
   1   1 -10   33.41    3.28   1
  -1  -1  10   36.88    3.17   1
   0   1 -10    5.24    0.81   1
   0  -1  10    2.16    0.68   1
  -1   1 -10   17.20    1.76   1
   1  -1  10   19.99    1.66   1
  -2   1 -10    1.37    0.66   1
   2  -1  10    0.82    0.90   1
  -3   1 -10    0.40    2.01   1
   3  -1  10    3.75    1.63   1
  -4   1 -10    0.80    1.49   1
   4  -1  10    0.00    1.72   1
  -5   1 -10    0.24    0.99   1
   5  -1  10    0.36    7.01   1
  -6   1 -10    1.72    0.90   1
   9   0 -10    5.14    1.93   1
  -9   0  10    1.07    4.39   1
   8   0 -10    0.00    1.41   1
  -8   0  10    0.23    0.72   1
   7   0 -10   58.21    6.29   1
  -7   0  10   54.29    5.52   1
   6   0 -10   16.02    2.63   1
  -6   0  10   18.46    2.35   1
   5   0 -10    6.56    1.72   1
  -5   0  10    7.54    1.52   1
   4   0 -10   49.31    6.17   1
  -4   0  10   60.04    4.52   1
   3   0 -10    1.80    0.89   1
  -3   0  10    1.13    0.70   1
   2   0 -10  112.77    7.71   1
  -2   0  10  120.05    8.49   1
   1   0 -10   11.87    1.27   1
  -1   0  10   12.42    1.65   1
   0   0 -10    7.17    1.05   1
   0   0  10    10.1    1.31   1
  -1   0 -10    0.00    1.10   1
   1   0  10    0.51    1.08   1
  -2   0 -10   66.15    5.46   1
   2   0  10   78.91    6.79   1
  -3   0 -10    0.49    1.37   1
   3   0  10    3.08    2.37   1
  -4   0 -10    1.00    1.16   1
   4   0  10    1.15    2.86   1
  -5   0 -10    1.80    1.18   1
   5   0  10    9.63    3.85   1
  -6   0 -10    0.00    0.71   1
   6   0  10    0.00    0.94   1
   9  -1 -10   15.18    2.50   1
  -9   1  10   14.54    2.55   1
   8  -1 -10    0.00    0.43   1
  -8   1  10    0.16    0.76   1
   7  -1 -10   90.85    9.24   1
  -7   1  10   82.48    8.16   1
   6  -1 -10   30.51    3.45   1
  -6   1  10   26.62    3.34   1
   5  -1 -10    0.51    0.92   1
  -5   1  10    0.57    0.73   1
   4  -1 -10   29.15    4.02   1
  -4   1  10   29.67    2.78   1
   3  -1 -10    4.07    1.21   1
  -3   1  10    4.53    0.87   1
   2  -1 -10   99.95    6.69   1
  -2   1  10  107.83    8.16   1
   1  -1 -10    2.56    0.75   1
  -1   1  10    1.56    0.94   1
   0  -1 -10   21.71    2.16   1
   0   1  10   23.18    2.24   1
  -1  -1 -10    0.88    1.01   1
   1   1  10    0.27    0.76   1
  -2  -1 -10    0.06    0.38   1
   2   1  10    0.34    0.29   1
  -3  -1 -10    4.58    1.39   1
   3   1  10    4.42    1.36   1
  -4  -1 -10    0.24    1.35   1
   4   1  10    0.40    1.16   1
  -5  -1 -10    4.00    3.62   1
   5   1  10    8.09    2.78   1
  -6  -1 -10    1.71    4.11   1
   6   1  10    5.32    2.40   1
   8  -2 -10    2.04    1.53   1
  -8   2  10    0.97    2.16   1
   7  -2 -10    0.69    1.38   1
  -7   2  10    5.11    1.74   1
   6  -2 -10    0.00    1.13   1
  -6   2  10    0.00    1.01   1
   5  -2 -10    0.64    1.42   1
  -5   2  10    0.04    1.26   1
   4  -2 -10    1.08    1.41   1
  -4   2  10    0.02    1.00   1
   3  -2 -10    0.00    1.49   1
  -3   2  10    0.34    1.10   1
   2  -2 -10    0.00    0.12   1
  -2   2  10    0.07    0.13   1
   1  -2 -10   12.65    1.44   1
  -1   2  10   11.64    1.79   1
   0  -2 -10    0.00    0.84   1
   0   2  10    0.37    0.75   1
  -1  -2 -10   12.37    1.60   1
   1   2  10   12.90    1.95   1
  -2  -2 -10    0.02    0.20   1
   2   2  10    0.00    0.27   1
  -3  -2 -10   11.12    1.79   1
   3   2  10   12.01    2.08   1
  -4  -2 -10    4.65    1.52   1
   4   2  10    4.32    1.79   1
  -5  -2 -10    1.06    1.62   1
   5   2  10    0.29    1.38   1
  -6  -2 -10    0.14    0.93   1
   6   2  10    0.26    0.71   1
   8  -3 -10   12.93    2.35   1
  -8   3  10   15.59    2.81   1
   7  -3 -10    7.77    1.60   1
  -7   3  10    7.61    2.29   1
   6  -3 -10    0.07    0.17   1
  -6   3  10    0.04    0.26   1
   5  -3 -10   69.88    5.57   1
  -5   3  10   80.64    6.15   1
   4  -3 -10    4.63    1.32   1
  -4   3  10    4.95    1.19   1
   3  -3 -10    1.97    1.30   1
  -3   3  10    7.25    1.48   1
   2  -3 -10   27.01    2.75   1
  -2   3  10   28.51    3.05   1
   1  -3 -10   50.14    3.49   1
  -1   3  10   45.32    4.60   1
   0  -3 -10    0.21    0.28   1
   0   3  10    0.22    0.21   1
  -1  -3 -10    10.2    1.63   1
   1   3  10    8.45    1.58   1
  -2  -3 -10    9.32    1.87   1
   2   3  10   17.18    2.03   1
  -3  -3 -10    0.56    0.46   1
   3   3  10    0.20    0.45   1
  -4  -3 -10    0.37    2.18   1
   4   3  10    1.48    1.83   1
  -5  -3 -10    0.00    1.73   1
   5   3  10    0.25    0.76   1
   8  -4 -10   22.44    3.20   1
  -8   4  10   19.53    3.15   1
   7  -4 -10   20.24    2.54   1
  -7   4  10   20.93    2.84   1
   6  -4 -10    4.80    1.67   1
  -6   4  10    5.33    2.02   1
   5  -4 -10   83.75    6.74   1
  -5   4  10   89.91    6.92   1
   4  -4 -10   27.89    2.70   1
  -4   4  10   29.88    3.41   1
   3  -4 -10    0.02    0.11   1
  -3   4  10    0.12    0.22   1
   2  -4 -10    5.72    1.05   1
  -2   4  10    6.92    1.58   1
   1  -4 -10    0.32    0.61   1
  -1   4  10    1.82    0.76   1
   0  -4 -10    6.89    1.54   1
   0   4  10    8.29    1.42   1
  -1  -4 -10    0.00    0.82   1
   1   4  10    0.87    0.87   1
  -2  -4 -10    2.16    1.50   1
   2   4  10    6.37    1.96   1
  -3  -4 -10    3.85    1.56   1
   3   4  10    5.28    2.03   1
  -4  -4 -10    0.01    0.27   1
   4   4  10    0.00    0.40   1
  -5  -4 -10    1.30    1.82   1
   5   4  10    0.00    1.98   1
   8  -5 -10    0.36    0.66   1
  -8   5  10    0.23    0.58   1
   7  -5 -10    1.92    1.48   1
  -7   5  10    2.22    2.12   1
   6  -5 -10    5.71    1.43   1
  -6   5  10    6.64    2.38   1
   5  -5 -10    4.15    1.38   1
  -5   5  10    5.38    1.75   1
   4  -5 -10    4.64    1.28   1
  -4   5  10    2.70    2.10   1
   3  -5 -10    2.60    1.35   1
  -3   5  10    6.33    1.67   1
   2  -5 -10    5.16    1.24   1
  -2   5  10    6.31    1.78   1
   1  -5 -10    0.12    1.35   1
  -1   5  10    1.59    1.24   1
   0  -5 -10    1.74    2.01   1
   0   5  10    2.43    1.01   1
  -1  -5 -10    3.27    2.04   1
   1   5  10    6.78    1.60   1
  -2  -5 -10    1.68    2.01   1
   2   5  10    3.19    1.33   1
  -3  -5 -10    3.35    3.32   1
   3   5  10    1.13    1.50   1
  -4  -5 -10    2.21    4.68   1
   4   5  10    0.00    1.56   1
   7  -6 -10    1.39    2.89   1
  -7   6  10    3.12    1.94   1
   6  -6 -10    7.77    3.08   1
  -6   6  10   10.95    2.42   1
   5  -6 -10    7.07    2.24   1
  -5   6  10    3.93    2.06   1
   4  -6 -10    3.98    1.75   1
  -4   6  10    3.93    2.00   1
   3  -6 -10   26.87    2.90   1
  -3   6  10   26.43    4.53   1
   2  -6 -10    0.12    1.62   1
  -2   6  10    3.20    1.94   1
   1  -6 -10   29.99    3.66   1
  -1   6  10   33.84    3.89   1
   0  -6 -10   15.06    2.58   1
   0   6  10   17.83    2.75   1
  -1  -6 -10    0.57    1.96   1
   1   6  10    1.59    2.44   1
  -2  -6 -10    3.89    2.12   1
   2   6  10    6.57    3.59   1
  -3  -6 -10    0.00    2.96   1
   3   6  10    8.39    3.65   1
  -4  -6 -10    1.31    1.19   1
   4   6  10    1.50    1.49   1
   7  -7 -10   13.21    4.88   1
  -7   7  10   10.50    3.09   1
   6  -7 -10   32.75    5.53   1
  -6   7  10   39.35    4.71   1
   5  -7 -10    3.02    1.57   1
  -5   7  10    6.27    2.76   1
   4  -7 -10    1.23    1.01   1
  -4   7  10    0.51    1.15   1
   3  -7 -10    9.97    2.02   1
  -3   7  10    9.52    2.28   1
   2  -7 -10    0.07    0.88   1
  -2   7  10    0.02    0.94   1
   1  -7 -10    4.17    5.64   1
  -1   7  10    2.48    1.83   1
   0  -7 -10    0.91    2.60   1
   0   7  10    4.28    1.92   1
  -1  -7 -10    0.00    0.40   1
   1   7  10    0.01    0.21   1
  -2  -7 -10    1.22    1.60   1
   2   7  10    0.00    0.91   1
  -3  -7 -10    2.30    3.80   1
   3   7  10    3.25    2.49   1
   6  -8 -10    0.00    0.46   1
  -6   8  10    0.18    0.30   1
   5  -8 -10    0.00    2.32   1
  -5   8  10    4.69    2.04   1
   4  -8 -10    8.26    1.94   1
  -4   8  10    2.46    2.16   1
   3  -8 -10    3.23    2.29   1
  -3   8  10    1.85    2.48   1
   2  -8 -10    3.20    3.77   1
  -2   8  10    0.00    1.99   1
   1  -8 -10    0.00    1.95   1
  -1   8  10    0.28    1.06   1
   0  -8 -10    0.50    4.85   1
   0   8  10    0.00    2.55   1
  -1  -8 -10    0.23    2.77   1
   1   8  10    0.25    2.32   1
  -2  -8 -10    0.35    0.73   1
   2   8  10    0.00    0.83   1
   4  -9 -10    0.02    0.45   1
  -4   9  10    0.11    0.38   1
   3  -9 -10    0.00    0.47   1
  -3   9  10    0.04    0.25   1
   2  -9 -10    3.85    4.05   1
  -2   9  10    5.01    2.42   1
   1  -9 -10   21.07    7.63   1
  -1   9  10   18.85    3.41   1
   0  -9 -10    1.96    3.24   1
   0   9  10    4.07    2.48   1
   1  13 -11    0.00    3.11   1
  -1 -13  11    0.00    2.39   1
   0 -13  11    0.65    2.71   1
   1 -13  11    0.17    1.85   1
   3  12 -11    1.58    1.90   1
  -3 -12  11    0.00    4.64   1
   2  12 -11    0.00    4.09   1
  -2 -12  11    0.94    4.65   1
   1  12 -11    1.66    3.52   1
  -1 -12  11   11.12    5.49   1
   0  12 -11    0.15    0.35   1
   0 -12  11    0.00    0.39   1
  -1  12 -11    0.18    0.91   1
   1 -12  11    0.00    0.99   1
   2 -12  11    0.00    2.31   1
   3 -12  11    0.00    2.66   1
   4  11 -11    3.49    2.50   1
  -4 -11  11    2.11    3.93   1
   3  11 -11    1.01    1.43   1
  -3 -11  11    0.73    3.05   1
   2  11 -11    2.71    4.06   1
  -2 -11  11    0.00    5.09   1
   1  11 -11    0.00    1.10   1
  -1 -11  11    0.40    0.91   1
   0  11 -11    0.00    1.84   1
   0 -11  11    0.32    0.99   1
  -1  11 -11    3.67    3.33   1
   1 -11  11    0.06    1.97   1
  -2  11 -11    7.26    4.28   1
   2 -11  11    4.53    2.64   1
   3 -11  11    1.10    1.04   1
   4 -11  11    1.42    1.90   1
   5  10 -11    0.00    0.89   1
  -5 -10  11    0.00    0.85   1
   4  10 -11    6.37    2.22   1
  -4 -10  11    6.80    2.58   1
   3  10 -11    0.00    2.24   1
  -3 -10  11    1.78    1.75   1
   2  10 -11    0.00    0.27   1
  -2 -10  11    0.04    0.26   1
   1  10 -11    0.81    2.53   1
  -1 -10  11    0.00    4.78   1
   0  10 -11    5.25    3.00   1
   0 -10  11   20.67    5.97   1
  -1  10 -11    0.00    1.74   1
   1 -10  11    3.38    2.28   1
  -2  10 -11   12.85    3.82   1
   2 -10  11   15.53    3.97   1
  -3  10 -11    1.78    2.44   1
   3 -10  11    1.21    1.99   1
  -4  10 -11    2.19    3.02   1
   4 -10  11    4.24    3.48   1
  -5  10 -11    0.00    0.85   1
   5 -10  11    0.00    1.22   1
   6   9 -11   37.24    5.71   1
  -6  -9  11   36.20    7.42   1
   5   9 -11    0.00    0.67   1
  -5  -9  11    0.42    0.67   1
   4   9 -11   13.52    2.77   1
  -4  -9  11   18.74    3.56   1
   3   9 -11    0.53    1.16   1
  -3  -9  11    3.57    2.99   1
   2   9 -11    1.63    1.23   1
  -2  -9  11   12.57    2.46   1
   1   9 -11    2.39    1.34   1
  -1  -9  11   12.83    2.46   1
   0   9 -11    1.49    1.34   1
   0  -9  11    4.16    2.00   1
  -1   9 -11    3.91    1.63   1
   1  -9  11    2.50    1.87   1
  -2   9 -11    0.00    1.74   1
   2  -9  11    0.69    1.56   1
  -3   9 -11    2.48    1.34   1
   3  -9  11   10.14    1.97   1
  -4   9 -11    0.04    0.11   1
   4  -9  11    0.19    0.17   1
  -5   9 -11    0.94    1.26   1
   5  -9  11    1.06    1.42   1
   7   8 -11    1.95    2.44   1
  -7  -8  11    0.00    5.67   1
   6   8 -11    1.47    1.23   1
  -6  -8  11    5.81    3.31   1
   5   8 -11    5.69    2.21   1
  -5  -8  11    7.46    2.36   1
   4   8 -11    0.04    0.69   1
  -4  -8  11    2.14    1.53   1
   3   8 -11    7.91    3.46   1
  -3  -8  11   18.68    2.24   1
   2   8 -11    2.81    1.94   1
  -2  -8  11    5.02    1.28   1
   1   8 -11    3.99    2.17   1
  -1  -8  11    8.73    1.45   1
   0   8 -11    2.21    1.03   1
   0  -8  11    3.10    2.05   1
  -1   8 -11    4.67    2.08   1
   1  -8  11   10.22    2.92   1
  -2   8 -11    0.44    0.71   1
   2  -8  11    0.56    0.89   1
  -3   8 -11    4.52    1.57   1
   3  -8  11    0.81    3.65   1
  -4   8 -11    2.53    2.47   1
   4  -8  11   9.614    4.11   1
  -5   8 -11    0.00    1.17   1
   5  -8  11    0.00    2.11   1
  -6   8 -11    3.38    2.51   1
   6  -8  11    5.39    3.17   1
   7   7 -11    0.00    2.67   1
  -7  -7  11    0.26    3.20   1
   6   7 -11    0.03    1.18   1
  -6  -7  11    3.82    3.26   1
   5   7 -11    0.03    0.75   1
  -5  -7  11    0.64    1.35   1
   4   7 -11   12.76    2.21   1
  -4  -7  11   16.88    3.01   1
   3   7 -11    4.47    1.34   1
  -3  -7  11    0.57    1.62   1
   2   7 -11  114.86   15.07   1
  -2  -7  11  133.57   14.36   1
   1   7 -11   20.49    4.16   1
  -1  -7  11   21.59    2.30   1
   0   7 -11   29.64    4.93   1
   0  -7  11   31.94    2.97   1
  -1   7 -11    0.00    1.53   1
   1  -7  11    0.24    0.63   1
  -2   7 -11    0.91    0.80   1
   2  -7  11    0.95    1.20   1
  -3   7 -11    7.42    1.66   1
   3  -7  11    9.20    2.53   1
  -4   7 -11    4.16    2.74   1
   4  -7  11    2.61    2.28   1
  -5   7 -11    0.06    1.24   1
   5  -7  11    0.00    1.17   1
  -6   7 -11   8.081    4.18   1
   6  -7  11    8.11    2.97   1
   7   6 -11   13.37    3.91   1
  -7  -6  11   14.00    4.95   1
   6   6 -11    0.80    1.49   1
  -6  -6  11    0.96    1.98   1
   5   6 -11   14.24    2.58   1
  -5  -6  11   22.86    3.20   1
   4   6 -11   15.13    2.17   1
  -4  -6  11   15.05    2.21   1
   3   6 -11    0.11    0.98   1
  -3  -6  11    0.02    0.71   1
   2   6 -11  204.24   18.75   1
  -2  -6  11  215.24   14.44   1
   1   6 -11   35.89    4.47   1
  -1  -6  11   40.60    3.22   1
   0   6 -11    2.17    1.18   1
   0  -6  11    3.09    0.86   1
  -1   6 -11    0.64    1.05   1
   1  -6  11    1.16    0.66   1
  -2   6 -11   14.02    2.35   1
   2  -6  11   12.53    1.65   1
  -3   6 -11    10.1    2.65   1
   3  -6  11    9.35    1.43   1
  -4   6 -11    0.18    1.16   1
   4  -6  11    0.18    0.71   1
  -5   6 -11    3.18    2.39   1
   5  -6  11    4.15    4.48   1
  -6   6 -11    1.56    3.30   1
   6  -6  11    0.85    6.22   1
   8   5 -11    3.27    5.37   1
  -8  -5  11    3.50    4.65   1
   7   5 -11    0.00    0.58   1
  -7  -5  11    0.15    0.75   1
   6   5 -11    2.75    2.03   1
  -6  -5  11    1.59    2.36   1
   5   5 -11    7.63    2.11   1
  -5  -5  11    4.71    2.61   1
   4   5 -11    0.32    0.57   1
  -4  -5  11    0.11    1.24   1
   3   5 -11    10.2    2.14   1
  -3  -5  11    7.31    1.58   1
   2   5 -11    0.07    0.19   1
  -2  -5  11    0.16    0.14   1
   1   5 -11    3.22    1.57   1
  -1  -5  11    4.05    1.36   1
   0   5 -11    6.01    1.80   1
   0  -5  11    6.46    1.86   1
  -1   5 -11    0.04    0.47   1
   1  -5  11    0.01    0.29   1
  -2   5 -11    4.85    1.78   1
   2  -5  11    2.14    0.84   1
  -3   5 -11    5.20    2.09   1
   3  -5  11    7.25    1.32   1
  -4   5 -11   16.41    3.03   1
   4  -5  11    8.60    2.50   1
  -5   5 -11    2.14    1.82   1
  -6   5 -11    4.40    4.75   1
   8   4 -11    0.02    0.57   1
  -8  -4  11    0.34    0.60   1
   7   4 -11    1.76    1.40   1
  -7  -4  11    0.62    1.78   1
   6   4 -11    0.03    0.25   1
  -6  -4  11    0.09    0.34   1
   5   4 -11    0.90    1.24   1
  -5  -4  11    3.70    1.67   1
   4   4 -11    1.85    0.90   1
  -4  -4  11    6.56    1.62   1
   3   4 -11    10.3    1.61   1
  -3  -4  11   12.23    1.60   1
   2   4 -11   16.17    2.46   1
  -2  -4  11   31.73    2.37   1
   1   4 -11    3.21    1.15   1
  -1  -4  11    3.17    1.27   1
   0   4 -11  107.31    8.62   1
   0  -4  11  107.74    7.45   1
  -1   4 -11   11.73    2.09   1
   1  -4  11   13.12    1.36   1
  -2   4 -11    0.00    0.43   1
   2  -4  11    0.13    0.20   1
  -3   4 -11   25.91    3.18   1
   3  -4  11   21.89    2.07   1
  -4   4 -11   35.55    4.23   1
   4  -4  11   39.42    3.70   1
  -5   4 -11    0.77    1.71   1
   5  -4  11    0.29    1.98   1
  -6   4 -11   13.47    3.20   1
   6  -4  11    0.68    1.65   1
   8   3 -11    0.00    2.76   1
  -8  -3  11    0.00    2.16   1
   7   3 -11    1.00    2.33   1
  -7  -3  11    4.16    2.80   1
   6   3 -11   25.04    3.67   1
  -6  -3  11   28.09    4.10   1
   5   3 -11    9.52    2.06   1
  -5  -3  11   17.38    2.47   1
   4   3 -11   26.34    2.88   1
  -4  -3  11   27.83    3.29   1
   3   3 -11  117.11    9.88   1
  -3  -3  11  129.02    10.0   1
   2   3 -11   32.15    3.39   1
  -2  -3  11   33.52    2.93   1
   1   3 -11  224.73   17.82   1
  -1  -3  11  234.38   17.52   1
   0   3 -11  162.06   13.01   1
   0  -3  11  165.16   12.55   1
  -1   3 -11    0.70    0.48   1
   1  -3  11    0.69    0.20   1
  -2   3 -11    4.15    1.88   1
   2  -3  11    2.34    1.23   1
  -3   3 -11   16.44    2.49   1
   3  -3  11    7.78    2.24   1
  -4   3 -11    1.26    1.53   1
   4  -3  11    7.22    1.81   1
  -5   3 -11    7.30    2.32   1
   5  -3  11    1.70    2.04   1
  -6   3 -11    0.77    3.93   1
   8   2 -11   13.96    3.54   1
  -8  -2  11   10.51    3.52   1
   7   2 -11    1.22    1.99   1
  -7  -2  11    2.92    2.46   1
   6   2 -11   12.33    2.20   1
  -6  -2  11   11.58    2.65   1
   5   2 -11    0.07    0.97   1
  -5  -2  11    1.99    0.74   1
   4   2 -11    0.02    0.11   1
  -4  -2  11    0.04    0.07   1
   3   2 -11   28.33    3.11   1
  -3  -2  11   36.01    2.83   1
   2   2 -11    1.07    0.94   1
  -2  -2  11    0.07    1.51   1
   1   2 -11  113.92    9.34   1
  -1  -2  11  123.63    9.25   1
   0   2 -11    6.34    1.50   1
   0  -2  11    8.85    1.01   1
  -1   2 -11    9.04    1.94   1
   1  -2  11   12.10    1.09   1
  -2   2 -11   58.54    5.26   1
   2  -2  11   50.89    4.10   1
  -3   2 -11    6.47    1.76   1
   3  -2  11    6.86    1.59   1
  -4   2 -11    1.85    1.67   1
   4  -2  11    4.29    1.51   1
  -5   2 -11    0.25    0.32   1
   5  -2  11    0.01    0.25   1
  -6   2 -11    0.00    2.69   1
   8   1 -11    0.00    1.49   1
  -8  -1  11    0.00    1.72   1
   7   1 -11    3.41    2.35   1
  -7  -1  11    3.59    1.54   1
   6   1 -11    1.24    1.12   1
  -6  -1  11    0.74    0.94   1
   5   1 -11    8.11    1.74   1
  -5  -1  11    6.26    1.48   1
   4   1 -11    0.07    0.77   1
  -4  -1  11    0.49    0.37   1
   3   1 -11    0.46    1.37   1
  -3  -1  11    2.40    0.91   1
   2   1 -11   13.94    1.71   1
  -2  -1  11   15.72    1.66   1
   1   1 -11    3.26    1.55   1
  -1  -1  11    6.62    1.25   1
   0   1 -11   66.55    6.14   1
   0  -1  11   69.89    4.68   1
  -1   1 -11    8.19    1.56   1
   1  -1  11   10.55    1.58   1
  -2   1 -11  101.84    7.48   1
   2  -1  11   94.12    8.49   1
  -3   1 -11   41.29    4.55   1
   3  -1  11   45.17    5.97   1
  -4   1 -11    0.02    0.27   1
   4  -1  11    0.01    0.60   1
  -5   1 -11    0.00    0.47   1
  -6   1 -11    1.17    1.80   1
   8   0 -11    0.00    0.22   1
  -8   0  11    0.04    0.47   1
   7   0 -11   62.47    6.90   1
  -7   0  11   59.57    5.90   1
   6   0 -11   52.43    5.35   1
  -6   0  11   53.08    5.10   1
   5   0 -11    0.46    0.26   1
  -5   0  11    0.56    0.21   1
   4   0 -11    3.71    1.90   1
  -4   0  11    8.64    1.27   1
   3   0 -11    1.48    0.64   1
  -3   0  11    0.35    0.49   1
   2   0 -11    6.00    1.03   1
  -2   0  11    7.76    1.08   1
   1   0 -11   61.22    4.82   1
  -1   0  11   61.28    5.19   1
   0   0 -11  175.15    10.0   1
   0   0  11  153.40   11.12   1
  -1   0 -11   53.40    4.17   1
   1   0  11   50.96    4.06   1
  -2   0 -11  106.47    7.88   1
   2   0  11   101.8    8.45   1
  -3   0 -11   30.39    2.88   1
   3   0  11   27.32    3.20   1
  -4   0 -11    0.09    0.54   1
   4   0  11    2.21    0.76   1
  -5   0 -11    0.20    0.27   1
   5   0  11    0.00    0.26   1
  -6   0 -11    1.48    0.93   1
   8  -1 -11    0.00    1.68   1
  -8   1  11    0.05    2.19   1
   7  -1 -11   17.51    3.10   1
  -7   1  11   20.36    2.67   1
   6  -1 -11   19.85    2.88   1
  -6   1  11   19.17    2.56   1
   5  -1 -11    0.89    1.59   1
  -5   1  11    0.10    1.39   1
   4  -1 -11   15.83    3.62   1
  -4   1  11   20.89    2.18   1
   3  -1 -11    5.42    1.78   1
  -3   1  11    5.85    1.29   1
   2  -1 -11    0.02    1.06   1
  -2   1  11    1.67    1.16   1
   1  -1 -11    5.30    1.42   1
  -1   1  11    6.48    1.58   1
   0  -1 -11   11.03    1.45   1
   0   1  11   13.76    1.65   1
  -1  -1 -11   26.92    2.83   1
   1   1  11   28.99    2.72   1
  -2  -1 -11    0.05    0.37   1
   2   1  11    1.56    0.54   1
  -3  -1 -11    3.24    1.50   1
   3   1  11    5.30    1.97   1
  -4  -1 -11    5.06    1.62   1
   4   1  11    4.69    2.24   1
  -5  -1 -11    0.09    0.39   1
   5   1  11    0.09    0.55   1
  -6  -1 -11    0.51    0.87   1
   6   1  11    0.93    0.67   1
   8  -2 -11    3.19    1.42   1
  -8   2  11    5.72    2.25   1
   7  -2 -11    0.04    0.22   1
  -7   2  11    0.00    0.31   1
   6  -2 -11    3.26    1.47   1
  -6   2  11    1.85    1.55   1
   5  -2 -11    6.08    1.55   1
  -5   2  11    4.27    1.64   1
   4  -2 -11    3.53    2.53   1
  -4   2  11    1.21    0.78   1
   3  -2 -11    3.72    1.68   1
  -3   2  11    3.28    1.27   1
   2  -2 -11    3.44    1.34   1
  -2   2  11    6.87    1.39   1
   1  -2 -11    2.38    1.13   1
  -1   2  11    0.59    1.01   1
   0  -2 -11    7.75    1.45   1
   0   2  11    10.0    1.37   1
  -1  -2 -11    0.04    0.13   1
   1   2  11    0.14    0.10   1
  -2  -2 -11   13.25    2.13   1
   2   2  11   10.49    1.78   1
  -3  -2 -11    0.64    1.32   1
   3   2  11    2.61    1.31   1
  -4  -2 -11   14.29    2.70   1
   4   2  11   14.13    2.53   1
  -5  -2 -11    1.56    4.38   1
   5   2  11    1.92    2.70   1
   8  -3 -11   18.29    2.94   1
  -8   3  11   26.91    3.25   1
   7  -3 -11   25.59    3.02   1
  -7   3  11   29.07    3.39   1
   6  -3 -11    0.39    1.15   1
  -6   3  11    0.39    1.45   1
   5  -3 -11   62.84    5.09   1
  -5   3  11   56.41    5.16   1
   4  -3 -11   24.25    3.25   1
  -4   3  11   27.28    3.22   1
   3  -3 -11    3.02    1.52   1
  -3   3  11    9.22    1.85   1
   2  -3 -11   35.22    3.23   1
  -2   3  11   33.48    3.75   1
   1  -3 -11   42.69    3.79   1
  -1   3  11   44.14    4.38   1
   0  -3 -11    5.40    1.66   1
   0   3  11    5.61    1.31   1
  -1  -3 -11   49.22    4.34   1
   1   3  11   52.02    4.87   1
  -2  -3 -11    0.03    0.36   1
   2   3  11    0.07    0.37   1
  -3  -3 -11   15.30    2.26   1
   3   3  11   16.33    2.63   1
  -4  -3 -11    6.61    2.08   1
   4   3  11    4.10    2.18   1
  -5  -3 -11    0.25    2.71   1
   5   3  11    1.52    2.80   1
   8  -4 -11    8.73    1.86   1
  -8   4  11   12.60    2.65   1
   7  -4 -11   18.58    2.31   1
  -7   4  11   17.44    2.91   1
   6  -4 -11    0.00    1.39   1
  -6   4  11    1.05    1.86   1
   5  -4 -11   24.16    2.41   1
  -5   4  11   24.36    3.02   1
   4  -4 -11    9.52    1.35   1
  -4   4  11    9.40    2.46   1
   3  -4 -11    0.25    0.48   1
  -3   4  11    1.67    1.11   1
   2  -4 -11    5.12    1.12   1
  -2   4  11    4.25    1.63   1
   1  -4 -11    8.91    2.02   1
  -1   4  11   10.36    1.88   1
   0  -4 -11    0.00    0.92   1
   0   4  11    0.11    0.67   1
  -1  -4 -11   11.06    2.10   1
   1   4  11   11.86    1.69   1
  -2  -4 -11    0.13    1.65   1
   2   4  11    0.00    0.99   1
  -3  -4 -11    7.33    2.60   1
   3   4  11    7.07    3.18   1
  -4  -4 -11    0.00    2.79   1
   4   4  11    1.77    1.55   1
   7  -5 -11    0.00    0.25   1
  -7   5  11    0.14    0.23   1
   6  -5 -11    0.00    1.91   1
  -6   5  11    5.79    2.04   1
   5  -5 -11    0.18    0.88   1
  -5   5  11    0.66    0.95   1
   4  -5 -11    0.01    0.22   1
  -4   5  11    0.00    0.34   1
   3  -5 -11    0.36    1.34   1
  -3   5  11    1.15    1.70   1
   2  -5 -11    0.77    0.59   1
  -2   5  11    0.13    0.74   1
   1  -5 -11    0.27    1.53   1
  -1   5  11    0.73    1.20   1
   0  -5 -11    1.64    1.25   1
   0   5  11    0.00    0.93   1
  -1  -5 -11    0.00    0.41   1
   1   5  11    0.13    0.35   1
  -2  -5 -11    2.08    1.66   1
   2   5  11    0.54    2.05   1
  -3  -5 -11    2.38    1.41   1
   3   5  11    0.69    1.65   1
  -4  -5 -11    0.70    3.21   1
   4   5  11    0.43    4.15   1
   7  -6 -11    0.00    0.93   1
  -7   6  11    0.12    1.07   1
   6  -6 -11   28.87    4.48   1
  -6   6  11   35.13    4.11   1
   5  -6 -11    0.00    1.82   1
  -5   6  11    0.04    2.19   1
   4  -6 -11    0.01    0.24   1
  -4   6  11    0.22    0.27   1
   3  -6 -11   31.68    3.42   1
  -3   6  11   40.17    4.34   1
   2  -6 -11    0.81    1.38   1
  -2   6  11    0.53    1.46   1
   1  -6 -11    2.34    2.31   1
  -1   6  11    8.78    2.12   1
   0  -6 -11    5.68    2.60   1
   0   6  11   9.734    2.17   1
  -1  -6 -11    0.00    1.22   1
   1   6  11    0.53    0.98   1
  -2  -6 -11    6.24    4.07   1
   2   6  11    3.40    2.53   1
  -3  -6 -11    0.00    0.65   1
   3   6  11    0.05    0.31   1
   6  -7 -11    8.73    3.63   1
  -6   7  11   17.59    2.97   1
   5  -7 -11    4.04    2.84   1
  -5   7  11    8.21    2.21   1
   4  -7 -11    0.00    1.03   1
  -4   7  11    0.90    1.11   1
   3  -7 -11    7.31    2.27   1
  -3   7  11   10.71    2.48   1
   2  -7 -11    0.42    2.08   1
  -2   7  11    1.93    2.03   1
   1  -7 -11    0.00    4.49   1
  -1   7  11    2.91    2.66   1
   0  -7 -11    0.27    1.74   1
   0   7  11    0.00    1.97   1
  -1  -7 -11    0.19    2.30   1
   1   7  11    1.49    2.80   1
  -2  -7 -11    0.00    1.11   1
   2   7  11    0.73    1.22   1
   5  -8 -11    0.00    0.66   1
  -5   8  11    0.35    0.41   1
   4  -8 -11    2.92    1.89   1
  -4   8  11    5.46    2.18   1
   3  -8 -11    0.00    0.63   1
  -3   8  11    0.35    0.71   1
   2  -8 -11    0.00    0.35   1
  -2   8  11    0.12    0.21   1
   1  -8 -11    0.38    2.01   1
  -1   8  11    0.13    1.19   1
   0  -8 -11    0.40    0.59   1
   0   8  11    0.00    0.27   1
  -1  -8 -11    0.25    1.22   1
   1   8  11    0.15    0.58   1
   3  12 -12    1.27    3.07   1
  -3 -12  12    5.27    4.68   1
   2  12 -12    5.53    4.04   1
  -2 -12  12    0.00    5.15   1
   1  12 -12    0.00    1.16   1
  -1 -12  12    0.11    1.04   1
   0  12 -12    4.57    4.71   1
   0 -12  12    7.43    2.72   1
  -1  12 -12    2.64    3.40   1
   1 -12  12    0.06    2.33   1
   2 -12  12    0.57    2.26   1
   4  11 -12    0.00    1.23   1
  -4 -11  12    0.31    1.70   1
   3  11 -12    0.00    1.89   1
  -3 -11  12    0.84    5.10   1
   2  11 -12    0.00    1.33   1
  -2 -11  12    0.00    3.09   1
   1  11 -12    0.29    0.37   1
  -1 -11  12    0.15    0.88   1
   0  11 -12    0.00    1.74   1
   0 -11  12    3.36    4.62   1
  -1  11 -12    1.53    1.91   1
   1 -11  12    1.91    2.83   1
  -2  11 -12    0.12    0.42   1
   2 -11  12    0.00    0.69   1
  -3  11 -12    1.75    4.93   1
   3 -11  12    0.00    3.00   1
   5  10 -12    1.21    3.00   1
  -5 -10  12    1.23    2.14   1
   4  10 -12    0.00    0.30   1
  -4 -10  12    0.34    0.37   1
   3  10 -12    0.32    0.86   1
  -3 -10  12    0.19    0.69   1
   2  10 -12    0.00    2.23   1
  -2 -10  12    0.00    2.04   1
   1  10 -12    0.00    2.41   1
  -1 -10  12    0.00    2.39   1
   0  10 -12    0.58    3.28   1
   0 -10  12    3.20    2.24   1
  -1  10 -12   13.42    4.34   1
   1 -10  12   14.58    2.67   1
  -2  10 -12   25.80    5.42   1
   2 -10  12   21.68    3.69   1
  -3  10 -12    0.00    1.96   1
   3 -10  12    0.64    1.14   1
  -4  10 -12   10.22    3.76   1
   4 -10  12    9.06    2.61   1
   6   9 -12   21.63    3.60   1
  -6  -9  12   29.62   7.321   1
   5   9 -12    5.43    2.29   1
  -5  -9  12    3.26    2.61   1
   4   9 -12    7.73    2.26   1
  -4  -9  12   13.97    2.09   1
   3   9 -12    0.08    1.30   1
  -3  -9  12    1.34    0.92   1
   2   9 -12    3.32    2.23   1
  -2  -9  12    2.31    1.48   1
   1   9 -12    3.08    2.53   1
  -1  -9  12    7.35    2.14   1
   0   9 -12   13.30    3.56   1
   0  -9  12   14.40    5.52   1
  -1   9 -12    4.82    2.85   1
   1  -9  12   49.54    5.67   1
  -2   9 -12   33.29    4.63   1
   2  -9  12   37.57    5.32   1
  -3   9 -12    2.14    1.87   1
   3  -9  12    1.95    1.45   1
  -4   9 -12   14.48    2.87   1
   4  -9  12   15.73    2.81   1
  -5   9 -12    0.00    0.23   1
   5  -9  12    0.63    0.45   1
   6   8 -12    1.70    1.96   1
  -6  -8  12    0.00    3.13   1
   5   8 -12    0.00    1.95   1
  -5  -8  12    0.00    3.09   1
   4   8 -12    7.65    3.25   1
  -4  -8  12    7.89    2.02   1
   3   8 -12    0.91    1.36   1
  -3  -8  12    0.04    1.05   1
   2   8 -12    0.00    1.79   1
  -2  -8  12    2.94    1.17   1
   1   8 -12    0.13    2.16   1
  -1  -8  12    2.24    1.17   1
   0   8 -12    0.37    2.75   1
   0  -8  12    1.92    2.48   1
  -1   8 -12    4.07    3.07   1
   1  -8  12    2.70    1.86   1
  -2   8 -12    0.46    0.97   1
   2  -8  12    5.36    1.69   1
  -3   8 -12    0.37    1.05   1
   3  -8  12    3.55    2.20   1
  -4   8 -12    0.48    1.16   1
   4  -8  12    1.28    0.97   1
  -5   8 -12    0.97    2.81   1
   5  -8  12    0.20    2.18   1
   7   7 -12   8.421    3.09   1
  -7  -7  12   8.110    2.57   1
   6   7 -12    1.86    1.81   1
  -6  -7  12    1.82    1.94   1
   5   7 -12    0.37    0.65   1
  -5  -7  12    0.74    1.61   1
   4   7 -12    0.41    0.77   1
  -4  -7  12    4.42    1.56   1
   3   7 -12   16.25    4.72   1
  -3  -7  12   29.51    2.95   1
   2   7 -12   19.09    3.72   1
  -2  -7  12   33.16    2.94   1
   1   7 -12    2.04    1.92   1
  -1  -7  12    6.03    1.28   1
   0   7 -12    3.04    1.44   1
   0  -7  12    4.79    1.20   1
  -1   7 -12    0.18    0.82   1
   1  -7  12    0.38    0.70   1
  -2   7 -12    0.41    1.33   1
   2  -7  12    0.00    1.14   1
  -3   7 -12    0.00    0.20   1
   3  -7  12    0.00    0.38   1
  -4   7 -12   11.82    2.74   1
   4  -7  12   14.71    4.50   1
  -5   7 -12    2.16    2.66   1
   5  -7  12   10.27    4.15   1
   7   6 -12   14.59    5.69   1
  -7  -6  12   17.03    3.84   1
   6   6 -12    1.63    1.38   1
  -6  -6  12    1.16    2.11   1
   5   6 -12    0.87    0.73   1
  -5  -6  12    0.30    0.81   1
   4   6 -12    1.86    0.99   1
  -4  -6  12    1.42    1.72   1
   3   6 -12   25.14    4.27   1
  -3  -6  12   26.18    2.76   1
   2   6 -12  231.09   20.34   1
  -2  -6  12  230.75   17.63   1
   1   6 -12    0.21    0.22   1
  -1  -6  12    0.41    0.18   1
   0   6 -12   20.91    3.21   1
   0  -6  12   26.50    2.63   1
  -1   6 -12    0.03    0.34   1
   1  -6  12    0.00    0.21   1
  -2   6 -12    0.92    1.46   1
   2  -6  12    0.46    0.93   1
  -3   6 -12    2.87    2.28   1
   3  -6  12    2.83    1.46   1
  -4   6 -12   23.57    3.36   1
   4  -6  12   15.35    2.85   1
  -5   6 -12    0.00    0.19   1
   5  -6  12    0.00    0.19   1
  -6   6 -12    7.21    5.41   1
   6  -6  12   7.868    2.68   1
   8   5 -12    0.00    0.35   1
  -8  -5  12    0.04    0.48   1
   7   5 -12    1.17    1.21   1
  -7  -5  12    0.62    2.15   1
   6   5 -12    0.00    0.71   1
  -6  -5  12    0.00    0.89   1
   5   5 -12    0.07    1.41   1
  -5  -5  12    0.45    1.67   1
   4   5 -12    7.37    2.31   1
  -4  -5  12   12.87    2.09   1
   3   5 -12    1.27    1.19   1
  -3  -5  12    0.16    1.17   1
   2   5 -12   17.88    2.84   1
  -2  -5  12   33.58    2.61   1
   1   5 -12    7.29    1.67   1
  -1  -5  12    9.66    1.46   1
   0   5 -12    2.51    1.35   1
   0  -5  12    3.36    1.41   1
  -1   5 -12    1.10    0.92   1
   1  -5  12    0.30    0.55   1
  -2   5 -12    0.00    0.26   1
   2  -5  12    0.00    0.18   1
  -3   5 -12    0.05    0.40   1
   3  -5  12    0.02    0.28   1
  -4   5 -12   17.96    2.87   1
   4  -5  12   18.00    3.24   1
  -5   5 -12    0.85    2.17   1
   5  -5  12    4.71    2.76   1
  -6   5 -12    0.59    2.69   1
   8   4 -12   7.918    4.43   1
  -8  -4  12    7.56    3.37   1
   7   4 -12    1.64    1.48   1
  -7  -4  12    0.00    1.81   1
   6   4 -12    4.05    2.35   1
  -6  -4  12    4.92    2.85   1
   5   4 -12    1.92    1.57   1
  -5  -4  12    2.61    1.89   1
   4   4 -12    2.57    0.82   1
  -4  -4  12    5.85    2.38   1
   3   4 -12   17.48    2.24   1
  -3  -4  12   15.02    2.04   1
   2   4 -12    5.57    1.68   1
  -2  -4  12    7.47    1.66   1
   1   4 -12    0.01    0.34   1
  -1  -4  12    0.05    0.40   1
   0   4 -12   12.66    2.13   1
   0  -4  12    10.1    2.20   1
  -1   4 -12    0.78    1.79   1
   1  -4  12    0.01    1.19   1
  -2   4 -12    0.60    0.76   1
   2  -4  12    0.16    0.46   1
  -3   4 -12    0.16    2.28   1
   3  -4  12    3.92    1.49   1
  -4   4 -12    0.85    1.58   1
   4  -4  12    1.09    1.52   1
  -5   4 -12    2.85    1.94   1
   5  -4  12    0.27    3.00   1
  -6   4 -12   20.10    5.83   1
   8   3 -12    0.36    3.23   1
  -8  -3  12    4.64    2.99   1
   7   3 -12    0.81    1.65   1
  -7  -3  12    0.68    1.84   1
   6   3 -12    0.86    0.65   1
  -6  -3  12    0.21    0.81   1
   5   3 -12    0.32    0.28   1
  -5  -3  12    0.17    0.39   1
   4   3 -12    0.20    0.60   1
  -4  -3  12    0.86    1.10   1
   3   3 -12   48.23    4.66   1
  -3  -3  12   57.49    4.83   1
   2   3 -12    1.38    1.13   1
  -2  -3  12    0.73    1.26   1
   1   3 -12    5.99    1.30   1
  -1  -3  12    2.75    1.45   1
   0   3 -12   98.87    7.91   1
   0  -3  12   94.01    6.79   1
  -1   3 -12   22.94    2.88   1
   1  -3  12   23.58    1.75   1
  -2   3 -12    1.41    0.58   1
   2  -3  12    0.30    0.22   1
  -3   3 -12    3.41    1.92   1
   3  -3  12    4.07    1.14   1
  -4   3 -12    4.56    1.75   1
   4  -3  12    3.46    1.80   1
  -5   3 -12    2.77    2.59   1
   5  -3  12    7.56   12.84   1
  -6   3 -12   11.29    3.92   1
   8   2 -12    3.69    3.50   1
  -8  -2  12    1.52    3.01   1
   7   2 -12    1.48    3.63   1
  -7  -2  12    7.51    2.98   1
   6   2 -12    2.32    2.14   1
  -6  -2  12    3.53    2.43   1
   5   2 -12    4.73    1.76   1
  -5  -2  12    8.56    1.49   1
   4   2 -12    0.04    0.20   1
  -4  -2  12    0.19    0.18   1
   3   2 -12    0.93    1.41   1
  -3  -2  12    4.32    0.95   1
   2   2 -12   36.03    3.89   1
  -2  -2  12   40.44    4.98   1
   1   2 -12    0.27    0.77   1
  -1  -2  12    0.58    1.03   1
   0   2 -12   76.77    7.12   1
   0  -2  12   80.60    6.09   1
  -1   2 -12    3.89    1.88   1
   1  -2  12    2.37    1.28   1
  -2   2 -12    2.29    2.14   1
   2  -2  12    7.01    1.68   1
  -3   2 -12    4.46    1.74   1
   3  -2  12    6.69    3.21   1
  -4   2 -12    0.91    1.00   1
   4  -2  12    0.00    2.66   1
  -5   2 -12    3.28    1.48   1
   5  -2  12    0.00    1.63   1
  -6   2 -12    1.70    2.30   1
   8   1 -12    0.34    0.80   1
  -8  -1  12    0.26    0.87   1
   7   1 -12    2.13    1.33   1
  -7  -1  12    0.32    0.77   1
   6   1 -12    4.36    1.56   1
  -6  -1  12    4.62    1.27   1
   5   1 -12    0.15    0.28   1
  -5  -1  12    0.02    0.19   1
   4   1 -12   38.71    5.28   1
  -4  -1  12   48.00    3.84   1
   3   1 -12    0.18    0.28   1
  -3  -1  12    0.02    0.25   1
   2   1 -12   55.82    3.89   1
  -2  -1  12   58.80    4.99   1
   1   1 -12    4.44    1.45   1
  -1  -1  12    4.77    1.05   1
   0   1 -12    1.61    1.54   1
   0  -1  12    3.83    0.88   1
  -1   1 -12   15.83    2.69   1
   1  -1  12   21.75    2.05   1
  -2   1 -12   92.98    8.90   1
   2  -1  12   98.09    7.16   1
  -3   1 -12    0.71    1.64   1
   3  -1  12    3.08    1.31   1
  -4   1 -12    0.00    1.53   1
   4  -1  12    0.51    2.01   1
  -5   1 -12    1.62    2.57   1
   5  -1  12    1.66    1.98   1
  -6   1 -12    0.00    1.03   1
   8   0 -12    0.00    0.44   1
  -8   0  12    0.43    0.77   1
   7   0 -12   32.47    4.13   1
  -7   0  12   28.25    3.48   1
   6   0 -12    4.37    1.98   1
  -6   0  12    6.84    1.77   1
   5   0 -12    5.26    1.80   1
  -5   0  12    5.66    1.57   1
   4   0 -12   32.98    5.22   1
  -4   0  12   42.44    3.57   1
   3   0 -12    4.04    1.53   1
  -3   0  12    3.71    1.11   1
   2   0 -12   77.96    5.21   1
  -2   0  12   85.24    6.72   1
   1   0 -12    1.51    1.04   1
  -1   0  12    2.01    1.05   1
   0   0 -12   38.30    3.65   1
   0   0  12   43.26    3.57   1
  -1   0 -12    8.21    1.75   1
   1   0  12    7.38    1.64   1
  -2   0 -12  122.86   10.16   1
   2   0  12  116.29   9.972   1
  -3   0 -12    0.33    1.34   1
   3   0  12   10.62    2.17   1
  -4   0 -12    0.13    0.24   1
   4   0  12    4.26    2.58   1
  -5   0 -12    1.66    1.81   1
   5   0  12    0.00    2.36   1
   8  -1 -12    0.23    1.20   1
  -8   1  12    1.82    1.54   1
   7  -1 -12    5.78    1.91   1
  -7   1  12    3.33    2.04   1
   6  -1 -12    5.25    1.64   1
  -6   1  12    2.20    1.60   1
   5  -1 -12    1.67    1.33   1
  -5   1  12    1.21    1.05   1
   4  -1 -12    0.03    1.23   1
  -4   1  12    0.38    0.71   1
   3  -1 -12    0.80    1.04   1
  -3   1  12    1.26    0.68   1
   2  -1 -12    0.41    0.85   1
  -2   1  12    2.16    0.84   1
   1  -1 -12    0.11    0.99   1
  -1   1  12    0.63    0.82   1
   0  -1 -12    8.15    1.59   1
   0   1  12    9.09    1.36   1
  -1  -1 -12    0.00    1.11   1
   1   1  12    0.30    0.72   1
  -2  -1 -12   13.57    1.95   1
   2   1  12   12.40    2.07   1
  -3  -1 -12    0.77    1.51   1
   3   1  12    4.15    1.58   1
  -4  -1 -12    1.18    1.83   1
   4   1  12    1.67    1.44   1
  -5  -1 -12    0.00    0.50   1
   5   1  12    0.10    0.21   1
   8  -2 -12    0.00    0.19   1
  -8   2  12    0.30    0.27   1
   7  -2 -12    0.56    1.44   1
  -7   2  12    1.24    1.60   1
   6  -2 -12    0.00    1.58   1
  -6   2  12    0.21    1.59   1
   5  -2 -12    0.00    1.26   1
  -5   2  12    0.32    1.08   1
   4  -2 -12    0.07    2.86   1
  -4   2  12    1.08    1.71   1
   3  -2 -12    3.87    1.49   1
  -3   2  12    1.14    1.74   1
   2  -2 -12    5.51    1.63   1
  -2   2  12    7.37    1.72   1
   1  -2 -12    6.24    1.68   1
  -1   2  12    8.10    1.80   1
   0  -2 -12   15.65    2.27   1
   0   2  12   20.92    2.17   1
  -1  -2 -12   11.13    2.01   1
   1   2  12   17.01    2.07   1
  -2  -2 -12   13.22    2.18   1
   2   2  12   18.18    2.62   1
  -3  -2 -12    8.02    1.89   1
   3   2  12   9.961    2.32   1
  -4  -2 -12    0.75    1.58   1
   4   2  12    0.66    2.08   1
  -5  -2 -12    0.01    0.52   1
   5   2  12    0.03    0.31   1
   8  -3 -12   48.27    5.23   1
  -8   3  12   39.89    4.83   1
   7  -3 -12   14.01    2.31   1
  -7   3  12   15.82    2.67   1
   6  -3 -12    0.10    0.64   1
  -6   3  12    0.03    0.81   1
   5  -3 -12   13.60    1.86   1
  -5   3  12   11.52    2.11   1
   4  -3 -12    0.09    0.29   1
  -4   3  12    0.35    0.25   1
   3  -3 -12   27.68    3.72   1
  -3   3  12   35.52    3.75   1
   2  -3 -12    0.30    1.37   1
  -2   3  12    1.86    1.26   1
   1  -3 -12    3.35    1.59   1
  -1   3  12    2.63    1.50   1
   0  -3 -12    0.51    1.43   1
   0   3  12    2.85    1.08   1
  -1  -3 -12    7.62    2.34   1
   1   3  12   13.52    1.74   1
  -2  -3 -12    0.00    0.75   1
   2   3  12    0.00    0.59   1
  -3  -3 -12    0.55    2.13   1
   3   3  12    2.41    1.56   1
  -4  -3 -12    2.27    2.68   1
   4   3  12    6.34    2.30   1
   7  -4 -12    0.72    1.88   1
  -7   4  12    0.91    2.00   1
   6  -4 -12    0.19    1.43   1
  -6   4  12    0.77    1.79   1
   5  -4 -12    2.32    1.31   1
  -5   4  12    3.25    1.51   1
   4  -4 -12    0.00    1.26   1
  -4   4  12    3.26    1.81   1
   3  -4 -12    2.37    1.22   1
  -3   4  12    5.08    1.91   1
   2  -4 -12    0.61    1.05   1
  -2   4  12    0.00    1.47   1
   1  -4 -12    0.84    1.83   1
  -1   4  12    2.47    1.47   1
   0  -4 -12    0.01    0.22   1
   0   4  12    0.00    0.23   1
  -1  -4 -12    0.84    1.55   1
   1   4  12    2.14    1.37   1
  -2  -4 -12    5.80    1.88   1
   2   4  12    5.90    2.12   1
  -3  -4 -12    0.00    0.84   1
   3   4  12    3.16    0.78   1
  -4  -4 -12    0.00    1.90   1
   4   4  12    0.27    2.75   1
   7  -5 -12    0.00    1.73   1
  -7   5  12    0.96    2.12   1
   6  -5 -12    1.05    1.61   1
  -6   5  12    1.06    1.96   1
   5  -5 -12    0.86    1.33   1
  -5   5  12    1.67    1.65   1
   4  -5 -12    1.80    1.23   1
  -4   5  12    2.04    2.15   1
   3  -5 -12    1.31    0.99   1
  -3   5  12    0.00    1.16   1
   2  -5 -12    6.68    1.39   1
  -2   5  12    6.25    2.05   1
   1  -5 -12    0.24    0.79   1
  -1   5  12    0.03    0.70   1
   0  -5 -12    0.18    1.94   1
   0   5  12    2.22    1.81   1
  -1  -5 -12    0.00    2.25   1
   1   5  12    0.34    1.05   1
  -2  -5 -12    0.72    1.81   1
   2   5  12    0.06    0.89   1
  -3  -5 -12    0.00    2.25   1
   3   5  12    0.10    0.62   1
   6  -6 -12   44.99    7.19   1
  -6   6  12   48.07    5.00   1
   5  -6 -12    4.00    2.50   1
  -5   6  12    6.03    2.48   1
   4  -6 -12    0.18    0.67   1
  -4   6  12    0.44    0.90   1
   3  -6 -12    3.33    1.83   1
  -3   6  12    6.09    2.37   1
   2  -6 -12    8.77    3.22   1
  -2   6  12    6.53    2.18   1
   1  -6 -12    0.47    1.44   1
  -1   6  12    0.69    1.15   1
   0  -6 -12    2.91    2.29   1
   0   6  12    3.90    2.33   1
  -1  -6 -12    0.73    2.09   1
   1   6  12    3.63    2.16   1
  -2  -6 -12    0.11    0.52   1
   2   6  12    0.40    0.70   1
   5  -7 -12    0.00    3.01   1
  -5   7  12    0.00    1.51   1
   4  -7 -12    0.00    0.94   1
  -4   7  12    0.20    0.80   1
   3  -7 -12    0.30    0.55   1
  -3   7  12    0.46    0.69   1
   2  -7 -12    0.06    0.57   1
  -2   7  12    0.27    0.45   1
   1  -7 -12    1.09    1.57   1
  -1   7  12    0.79    1.46   1
   0  -7 -12    0.00    2.02   1
   0   7  12    0.88    1.63   1
  -1  -7 -12    0.10    1.28   1
   1   7  12    0.00    0.71   1
   4  -8 -12    0.20    1.09   1
  -4   8  12    1.77    1.54   1
   3  -8 -12    0.26    0.37   1
  -3   8  12    0.43    0.38   1
   2  -8 -12    4.55    2.84   1
  -2   8  12    2.01    2.81   1
   1  -8 -12    0.00    3.39   1
  -1   8  12    1.86    1.72   1
   2  12 -13    0.00    0.98   1
  -2 -12  13    0.05    3.00   1
   1  12 -13    0.81    1.96   1
  -1 -12  13    0.00    3.95   1
   0  12 -13    0.00    1.32   1
   0 -12  13    0.00    2.91   1
  -1  12 -13    0.62    3.18   1
   1 -12  13    0.00    5.32   1
  -2  12 -13    0.00    1.27   1
   2 -12  13    0.80    1.60   1
   4  11 -13    0.89    1.88   1
  -4 -11  13    0.89    2.99   1
   3  11 -13    2.28    4.34   1
  -3 -11  13   9.517    5.36   1
   2  11 -13    0.00    0.60   1
  -2 -11  13    0.00    0.74   1
   1  11 -13    2.28    5.10   1
  -1 -11  13    6.07    4.25   1
   0  11 -13    0.00    1.34   1
   0 -11  13    0.00    0.76   1
  -1  11 -13    2.37    4.49   1
   1 -11  13    5.45    2.34   1
  -2  11 -13    0.25    0.65   1
   2 -11  13    0.22    0.35   1
  -3  11 -13    1.02    3.53   1
   3 -11  13    1.16    1.34   1
   5  10 -13    0.71    1.45   1
  -5 -10  13    0.00    1.77   1
   4  10 -13    6.94    2.37   1
  -4 -10  13    7.59    2.49   1
   3  10 -13    4.43    2.99   1
  -3 -10  13    6.33    2.98   1
   2  10 -13    0.50    2.35   1
  -2 -10  13    0.00    4.19   1
   1  10 -13    8.46    3.09   1
  -1 -10  13    8.20    6.21   1
   0  10 -13    0.00    0.32   1
   0 -10  13    0.56    0.72   1
  -1  10 -13    0.00    0.33   1
   1 -10  13    0.30    0.55   1
  -2  10 -13    0.00    3.08   1
   2 -10  13    0.00    2.25   1
  -3  10 -13    2.91    3.50   1
   3 -10  13    2.04    2.81   1
  -4  10 -13    0.76    1.11   1
   4 -10  13    0.00    1.31   1
   5   9 -13    0.88    2.05   1
  -5  -9  13    2.81    2.06   1
   4   9 -13    5.72    3.37   1
  -4  -9  13    6.41    1.97   1
   3   9 -13    1.54    1.49   1
  -3  -9  13    0.16    1.17   1
   2   9 -13    1.92    3.21   1
  -2  -9  13    5.34    1.74   1
   1   9 -13    2.93    2.74   1
  -1  -9  13    0.00    1.49   1
   0   9 -13    9.29    3.83   1
   0  -9  13    7.07    2.21   1
  -1   9 -13    2.91    3.38   1
   1  -9  13    1.66    3.03   1
  -2   9 -13    0.51    0.70   1
   2  -9  13    0.29    0.40   1
  -3   9 -13   10.87    2.99   1
   3  -9  13   8.444    2.02   1
  -4   9 -13    0.00    1.70   1
   4  -9  13    0.60    0.91   1
   6   8 -13    0.00    1.13   1
  -6  -8  13    0.29    1.72   1
   5   8 -13    1.31    1.86   1
  -5  -8  13    2.32    2.34   1
   4   8 -13    0.28    0.50   1
  -4  -8  13    0.10    0.32   1
   3   8 -13    0.00    1.85   1
  -3  -8  13    0.00    1.30   1
   2   8 -13    0.00    1.39   1
  -2  -8  13    0.53    0.91   1
   1   8 -13   10.25    3.13   1
  -1  -8  13   11.89    1.99   1
   0   8 -13    0.28    0.39   1
   0  -8  13    0.30    0.44   1
  -1   8 -13   14.66    2.69   1
   1  -8  13   13.64    6.22   1
  -2   8 -13    1.41    2.17   1
   2  -8  13    2.29    3.34   1
  -3   8 -13   9.637    2.58   1
   3  -8  13    9.38    3.58   1
  -4   8 -13    0.00    0.85   1
   4  -8  13    2.49    1.64   1
   5  -8  13    3.31    2.71   1
   7   7 -13   18.25    6.01   1
  -7  -7  13   13.99    6.37   1
   6   7 -13    0.11    0.40   1
  -6  -7  13    0.28    0.58   1
   5   7 -13   13.02    3.20   1
  -5  -7  13   14.33    4.11   1
   4   7 -13    2.75    2.80   1
  -4  -7  13    5.24    1.87   1
   3   7 -13    0.00    1.05   1
  -3  -7  13    0.00    0.81   1
   2   7 -13    0.00    3.42   1
  -2  -7  13    0.16    0.75   1
   1   7 -13   12.39    2.65   1
  -1  -7  13   15.77    2.06   1
   0   7 -13    0.12    0.55   1
   0  -7  13    0.55    0.40   1
  -1   7 -13   22.79    3.86   1
   1  -7  13   28.84    3.43   1
  -2   7 -13    8.61    2.68   1
   2  -7  13    7.95    2.04   1
  -3   7 -13    0.00    2.54   1
   3  -7  13    2.64    2.27   1
  -4   7 -13    1.49    1.70   1
   4  -7  13    0.00    1.35   1
  -5   7 -13    0.00    0.36   1
   5  -7  13    0.00    0.40   1
   7   6 -13   21.19    3.65   1
  -7  -6  13   26.13    3.59   1
   6   6 -13    2.44    1.50   1
  -6  -6  13    2.94    1.95   1
   5   6 -13    2.46    1.83   1
  -5  -6  13   9.496    2.29   1
   4   6 -13    1.12    1.11   1
  -4  -6  13    7.18    1.65   1
   3   6 -13   14.02    2.41   1
  -3  -6  13   25.67    2.42   1
   2   6 -13    0.22    1.08   1
  -2  -6  13    0.27    1.01   1
   1   6 -13    2.11    1.46   1
  -1  -6  13    4.68    1.26   1
   0   6 -13    0.48    0.94   1
   0  -6  13    1.46    0.82   1
  -1   6 -13    0.72    1.33   1
   1  -6  13    2.13    1.23   1
  -2   6 -13    5.44    2.15   1
   2  -6  13    6.10    1.64   1
  -3   6 -13    0.39    1.30   1
   3  -6  13    0.00    0.97   1
  -4   6 -13    0.00    0.44   1
   4  -6  13    0.00    0.86   1
  -5   6 -13    6.22    2.18   1
   5  -6  13    5.54    3.94   1
   7   5 -13    0.10    0.44   1
  -7  -5  13    0.07    0.63   1
   6   5 -13    0.00    4.08   1
  -6  -5  13    0.80    2.90   1
   5   5 -13    2.49    1.92   1
  -5  -5  13    0.79    2.30   1
   4   5 -13    1.99    1.35   1
  -4  -5  13    5.31    2.12   1
   3   5 -13   41.17    4.12   1
  -3  -5  13   34.85    3.33   1
   2   5 -13    3.97    1.99   1
  -2  -5  13    8.59    1.89   1
   1   5 -13    7.87    2.14   1
  -1  -5  13    9.71    1.86   1
   0   5 -13    0.31    1.37   1
   0  -5  13    0.64    1.65   1
  -1   5 -13    0.00    0.92   1
   1  -5  13    0.00    0.61   1
  -2   5 -13    1.90    1.47   1
   2  -5  13    0.06    1.06   1
  -3   5 -13   12.30    3.00   1
   3  -5  13   13.43    2.37   1
  -4   5 -13    0.76    0.66   1
   4  -5  13    0.31    0.58   1
  -5   5 -13    4.07    2.13   1
   5  -5  13    9.76    2.65   1
   8   4 -13    4.48    3.44   1
  -8  -4  13    5.50    2.82   1
   7   4 -13    0.43    0.82   1
  -7  -4  13    0.33    1.01   1
   6   4 -13    0.49    1.54   1
  -6  -4  13    2.00    1.98   1
   5   4 -13    10.0    3.08   1
  -5  -4  13   12.63    2.48   1
   4   4 -13   10.50    2.69   1
  -4  -4  13   19.25    2.49   1
   3   4 -13  171.08   14.85   1
  -3  -4  13  162.51   11.50   1
   2   4 -13   14.44    2.33   1
  -2  -4  13   18.91    2.04   1
   1   4 -13   13.73    2.23   1
  -1  -4  13   17.37    2.27   1
   0   4 -13    8.79    2.05   1
   0  -4  13    9.39    1.53   1
  -1   4 -13    1.64    1.53   1
   1  -4  13    1.95    1.16   1
  -2   4 -13   17.50    2.62   1
   2  -4  13   14.71    1.76   1
  -3   4 -13    0.83    1.90   1
   3  -4  13    1.11    1.15   1
  -4   4 -13    0.55    2.15   1
   4  -4  13    2.22    2.25   1
  -5   4 -13    3.87    3.65   1
   5  -4  13    8.12    4.70   1
   8   3 -13   11.12    4.38   1
  -8  -3  13   13.45    4.49   1
   7   3 -13    1.10    0.95   1
  -7  -3  13    0.69    1.10   1
   6   3 -13    5.03    2.09   1
  -6  -3  13    3.99    3.34   1
   5   3 -13    8.77    2.65   1
  -5  -3  13    5.80    2.58   1
   4   3 -13    0.00    0.62   1
  -4  -3  13    0.23    0.53   1
   3   3 -13  130.72   11.29   1
  -3  -3  13  110.19    10.0   1
   2   3 -13   24.36    3.21   1
  -2  -3  13   32.50    4.22   1
   1   3 -13    0.24    1.00   1
  -1  -3  13    1.09    1.02   1
   0   3 -13    2.35    1.96   1
   0  -3  13    0.09    1.97   1
  -1   3 -13    6.02    2.23   1
   1  -3  13    8.32    1.51   1
  -2   3 -13   14.02    2.64   1
   2  -3  13    10.0    1.64   1
  -3   3 -13    5.12    1.79   1
   3  -3  13    1.52    1.76   1
  -4   3 -13    0.94    1.73   1
   4  -3  13    0.00    1.81   1
  -5   3 -13    1.66    1.78   1
   8   2 -13    0.00    0.24   1
  -8  -2  13    0.07    0.24   1
   7   2 -13    0.32    1.16   1
  -7  -2  13    0.25    1.62   1
   6   2 -13    1.65    1.08   1
  -6  -2  13    1.03    1.41   1
   5   2 -13    1.64    1.65   1
  -5  -2  13    0.27    0.78   1
   4   2 -13    8.92    2.76   1
  -4  -2  13   16.76    1.79   1
   3   2 -13    0.05    1.22   1
  -3  -2  13    2.56    1.42   1
   2   2 -13    6.04    1.49   1
  -2  -2  13    8.17    2.37   1
   1   2 -13   54.02    5.17   1
  -1  -2  13   55.79    4.90   1
   0   2 -13    2.15    1.72   1
   0  -2  13    0.87    1.10   1
  -1   2 -13    6.04    1.95   1
   1  -2  13    6.34    1.17   1
  -2   2 -13    1.63    1.61   1
   2  -2  13    1.21    1.41   1
  -3   2 -13    9.52    2.17   1
   3  -2  13    8.95    1.52   1
  -4   2 -13    1.72    0.92   1
   4  -2  13    6.47    5.71   1
  -5   2 -13   12.62    5.25   1
   8   1 -13    0.48    3.34   1
  -8  -1  13    2.04    2.17   1
   7   1 -13    0.81    1.04   1
  -7  -1  13    0.10    0.64   1
   6   1 -13    0.35    0.99   1
  -6  -1  13    0.15    0.59   1
   5   1 -13    6.24    1.96   1
  -5  -1  13    6.95    1.57   1
   4   1 -13   37.62    6.58   1
  -4  -1  13   45.47    3.94   1
   3   1 -13    8.33    2.27   1
  -3  -1  13   17.57    2.01   1
   2   1 -13   51.97    4.83   1
  -2  -1  13   66.34    5.50   1
   1   1 -13  113.23    8.41   1
  -1  -1  13  120.30    9.39   1
   0   1 -13    6.39    2.04   1
   0  -1  13    5.88    1.71   1
  -1   1 -13    0.75    1.04   1
   1  -1  13    0.19    0.91   1
  -2   1 -13    0.53    1.46   1
   2  -1  13    3.04    1.68   1
  -3   1 -13    2.16    1.73   1
   3  -1  13    4.82    2.26   1
  -4   1 -13   12.52    2.08   1
   4  -1  13    7.25    3.07   1
  -5   1 -13   10.79    5.31   1
   5  -1  13   18.22    4.45   1
   8   0 -13    0.00    1.10   1
  -8   0  13    1.76    1.88   1
   7   0 -13   12.08    2.37   1
  -7   0  13   12.82    2.34   1
   6   0 -13    0.00    0.51   1
  -6   0  13    0.28    0.38   1
   5   0 -13    4.36    1.66   1
  -5   0  13    6.59    1.37   1
   4   0 -13   35.28    6.02   1
  -4   0  13   39.08    3.68   1
   3   0 -13    4.61    1.87   1
  -3   0  13    7.34    1.40   1
   2   0 -13   21.86    2.64   1
  -2   0  13   28.91    2.97   1
   1   0 -13   84.07    6.31   1
  -1   0  13   83.79    7.12   1
   0   0 -13    2.04    1.27   1
   0   0  13    2.52    0.95   1
  -1   0 -13    3.63    1.45   1
   1   0  13    2.21    1.23   1
  -2   0 -13    4.78    1.56   1
   2   0  13    5.34    1.44   1
  -3   0 -13    0.29    0.32   1
   3   0  13    0.24    0.26   1
  -4   0 -13   9.565    2.39   1
   4   0  13    5.95    2.65   1
  -5   0 -13   7.892    4.85   1
   5   0  13    0.83    2.41   1
   8  -1 -13    0.16    0.63   1
  -8   1  13    0.24    0.64   1
   7  -1 -13    0.01    1.06   1
  -7   1  13    0.43    0.80   1
   6  -1 -13    0.13    1.03   1
  -6   1  13    0.00    0.93   1
   5  -1 -13   14.97    2.44   1
  -5   1  13    8.65    2.06   1
   4  -1 -13    0.02    1.09   1
  -4   1  13    0.95    1.08   1
   3  -1 -13    3.68    2.09   1
  -3   1  13    3.68    1.72   1
   2  -1 -13    1.34    1.52   1
  -2   1  13    1.14    1.64   1
   1  -1 -13    2.26    1.79   1
  -1   1  13    7.92    1.79   1
   0  -1 -13    1.60    1.79   1
   0   1  13    3.53    1.88   1
  -1  -1 -13   25.03    2.90   1
   1   1  13   28.09    2.81   1
  -2  -1 -13    3.26    1.50   1
   2   1  13    1.14    1.81   1
  -3  -1 -13    3.64    1.63   1
   3   1  13    4.70    2.39   1
  -4  -1 -13    0.25    0.81   1
   4   1  13    1.27    1.02   1
   8  -2 -13    1.46    1.05   1
  -8   2  13    0.00    1.41   1
   7  -2 -13    3.03    1.75   1
  -7   2  13    1.25    1.78   1
   6  -2 -13    0.63    0.97   1
  -6   2  13    0.16    1.08   1
   5  -2 -13    0.00    0.91   1
  -5   2  13    1.05    0.86   1
   4  -2 -13    0.05    0.69   1
  -4   2  13    0.59    0.59   1
   3  -2 -13    1.30    1.52   1
  -3   2  13    3.83    1.52   1
   2  -2 -13    6.68    1.75   1
  -2   2  13   13.54    2.00   1
   1  -2 -13   36.92    3.79   1
  -1   2  13   39.38    4.43   1
   0  -2 -13    1.19    1.47   1
   0   2  13    2.57    1.21   1
  -1  -2 -13   85.49    8.03   1
   1   2  13  106.61    7.59   1
  -2  -2 -13   23.95    3.22   1
   2   2  13   26.37    2.85   1
  -3  -2 -13    0.21    0.43   1
   3   2  13    0.13    0.30   1
  -4  -2 -13    0.00    3.41   1
   4   2  13    3.02    2.10   1
   7  -3 -13   14.69    2.30   1
  -7   3  13   13.62    2.68   1
   6  -3 -13    0.12    0.40   1
  -6   3  13    0.77    0.49   1
   5  -3 -13    0.00    0.56   1
  -5   3  13    0.23    0.64   1
   4  -3 -13    0.06    0.68   1
  -4   3  13    0.03    0.33   1
   3  -3 -13    2.88    1.81   1
  -3   3  13    7.31    2.18   1
   2  -3 -13   17.82    2.61   1
  -2   3  13   21.83    2.89   1
   1  -3 -13   16.53    2.48   1
  -1   3  13   17.77    2.71   1
   0  -3 -13    8.97    2.28   1
   0   3  13   15.33    2.40   1
  -1  -3 -13   18.88    2.79   1
   1   3  13   26.23    2.61   1
  -2  -3 -13   14.62    2.28   1
   2   3  13   18.78    2.39   1
  -3  -3 -13    3.83    1.99   1
   3   3  13    3.18    2.22   1
  -4  -3 -13    1.04    1.56   1
   4   3  13    0.56    1.30   1
   7  -4 -13    1.05    1.78   1
  -7   4  13    2.58    2.08   1
   6  -4 -13    0.35    0.96   1
  -6   4  13    0.94    1.31   1
   5  -4 -13    0.00    0.59   1
  -5   4  13    0.00    0.79   1
   4  -4 -13    0.34    0.20   1
  -4   4  13    0.20    0.68   1
   3  -4 -13    0.11    0.70   1
  -3   4  13    0.27    0.99   1
   2  -4 -13    0.64    0.70   1
  -2   4  13    0.88    0.96   1
   1  -4 -13    0.00    1.13   1
  -1   4  13    0.12    0.92   1
   0  -4 -13    0.14    2.02   1
   0   4  13    3.22    1.33   1
  -1  -4 -13    0.68    2.22   1
   1   4  13    1.17    1.27   1
  -2  -4 -13    0.71    1.04   1
   2   4  13    0.75    0.90   1
  -3  -4 -13    0.01    2.96   1
   3   4  13    1.77    1.52   1
   6  -5 -13    0.00    0.25   1
  -6   5  13    0.21    0.29   1
   5  -5 -13    0.00    1.45   1
  -5   5  13    1.23    1.65   1
   4  -5 -13    3.20    1.49   1
  -4   5  13    2.79    2.15   1
   3  -5 -13    0.64    1.62   1
  -3   5  13    1.60    2.24   1
   2  -5 -13   13.19    1.75   1
  -2   5  13    8.97    2.23   1
   1  -5 -13    0.30    1.03   1
  -1   5  13    0.04    0.84   1
   0  -5 -13   16.91    2.82   1
   0   5  13   21.46    3.07   1
  -1  -5 -13    0.46    0.86   1
   1   5  13    0.45    0.91   1
  -2  -5 -13    1.05    2.34   1
   2   5  13    0.64    2.22   1
   6  -6 -13   19.20    4.27   1
  -6   6  13   14.91    3.24   1
   5  -6 -13    7.86    2.63   1
  -5   6  13   10.28    3.12   1
   4  -6 -13    0.93    1.42   1
  -4   6  13    2.27    2.64   1
   3  -6 -13    3.46    2.51   1
  -3   6  13    2.11    1.87   1
   2  -6 -13    5.29    2.79   1
  -2   6  13   9.932    2.31   1
   1  -6 -13    0.33    0.27   1
  -1   6  13    0.05    0.23   1
   0  -6 -13   11.66    2.84   1
   0   6  13   14.34    2.87   1
  -1  -6 -13    0.01    1.10   1
   1   6  13    0.28    0.80   1
   4  -7 -13    3.81    1.79   1
  -4   7  13    4.01    2.06   1
   3  -7 -13    0.42    0.89   1
  -3   7  13    0.00    0.45   1
   2  -7 -13    1.24    1.67   1
  -2   7  13    0.00    1.48   1
   1  -7 -13    0.00    2.49   1
  -1   7  13    0.00    1.40   1
   0  -7 -13    0.00    0.24   1
   0   7  13    0.74    0.33   1
   1  12 -14    0.00    2.55   1
  -1 -12  14    0.00    1.99   1
   0  12 -14    0.00    0.55   1
   0 -12  14    1.24    0.75   1
   3  11 -14    1.14    1.43   1
  -3 -11  14    0.57    3.32   1
   2  11 -14    1.39    1.78   1
  -2 -11  14    0.00    4.05   1
   1  11 -14    0.71    2.88   1
  -1 -11  14    0.00    4.81   1
   0  11 -14    5.28    3.42   1
   0 -11  14    8.01    6.59   1
  -1  11 -14    0.11    0.25   1
   1 -11  14    0.00    0.31   1
  -2  11 -14   8.044    4.28   1
   2 -11  14    2.14    4.34   1
   4  10 -14   8.583    3.45   1
  -4 -10  14    6.94    3.64   1
   3  10 -14   9.997    3.68   1
  -3 -10  14    6.09    3.81   1
   2  10 -14    0.19    1.85   1
  -2 -10  14    0.00    1.61   1
   1  10 -14   13.64    4.41   1
  -1 -10  14   14.00    4.24   1
   0  10 -14   15.56    4.21   1
   0 -10  14   11.68    4.47   1
  -1  10 -14    7.25    3.62   1
   1 -10  14    4.45    2.24   1
  -2  10 -14    2.66    3.20   1
   2 -10  14    0.49    2.44   1
  -3  10 -14   11.26    4.06   1
   3 -10  14    7.46    1.91   1
   5   9 -14    0.15    0.29   1
  -5  -9  14    0.06    0.35   1
   4   9 -14    1.39    2.78   1
  -4  -9  14    4.34    1.57   1
   3   9 -14    1.04    2.54   1
  -3  -9  14    2.02    1.58   1
   2   9 -14    0.00    0.73   1
  -2  -9  14    0.85    0.56   1
   1   9 -14    8.34    3.09   1
  -1  -9  14   21.02    6.56   1
   0   9 -14    1.55    1.61   1
   0  -9  14    5.91    4.98   1
  -1   9 -14    0.43    1.79   1
   1  -9  14    1.92    4.65   1
  -2   9 -14    0.00    1.13   1
   2  -9  14    0.00    2.23   1
  -3   9 -14    0.13    0.73   1
   3  -9  14    0.77    0.84   1
  -4   9 -14    3.44    2.65   1
   4  -9  14    5.48    2.35   1
   6   8 -14    0.35    1.92   1
  -6  -8  14    0.16    3.46   1
   5   8 -14    4.03    2.46   1
  -5  -8  14    1.91    3.73   1
   4   8 -14    0.00    0.34   1
  -4  -8  14    0.13    0.27   1
   3   8 -14    0.04    2.02   1
  -3  -8  14    0.87    1.36   1
   2   8 -14    0.00    1.09   1
  -2  -8  14    1.15    0.71   1
   1   8 -14    1.19    1.37   1
  -1  -8  14    1.43    0.85   1
   0   8 -14   10.01    2.78   1
   0  -8  14   10.90    2.21   1
  -1   8 -14    1.54    2.87   1
   1  -8  14    2.82    2.26   1
  -2   8 -14    3.20    2.55   1
   2  -8  14    2.60    1.44   1
  -3   8 -14    6.56    2.79   1
   3  -8  14    2.70    2.04   1
  -4   8 -14    6.49    2.73   1
   4  -8  14    2.75    2.83   1
   6   7 -14    0.97    1.99   1
  -6  -7  14    1.23    2.45   1
   5   7 -14    0.57    0.66   1
  -5  -7  14    0.13    0.91   1
   4   7 -14    0.00    0.31   1
  -4  -7  14    0.23    0.69   1
   3   7 -14    0.19    1.19   1
  -3  -7  14    0.89    1.05   1
   2   7 -14    1.36    1.62   1
  -2  -7  14    3.42    1.59   1
   1   7 -14   15.58    2.94   1
  -1  -7  14   24.59    3.96   1
   0   7 -14    5.74    1.93   1
   0  -7  14    7.01    1.67   1
  -1   7 -14   35.35    4.47   1
   1  -7  14   37.50    4.34   1
  -2   7 -14    0.01    0.27   1
   2  -7  14    0.08    0.25   1
  -3   7 -14   14.64    2.98   1
   3  -7  14   23.19    5.50   1
  -4   7 -14    2.75    2.86   1
   4  -7  14    3.89    3.82   1
   7   6 -14   12.69    2.92   1
  -7  -6  14   10.34    4.00   1
   6   6 -14    6.42    2.57   1
  -6  -6  14    1.54    3.18   1
   5   6 -14    8.81    3.24   1
  -5  -6  14   14.17    3.76   1
   4   6 -14    0.02    0.22   1
  -4  -6  14    0.00    0.39   1
   3   6 -14    1.24    1.81   1
  -3  -6  14    3.04    1.68   1
   2   6 -14    3.98    2.09   1
  -2  -6  14    0.65    1.85   1
   1   6 -14    3.73    2.44   1
  -1  -6  14   11.70    2.02   1
   0   6 -14    0.00    0.22   1
   0  -6  14    0.19    0.24   1
  -1   6 -14   23.35    3.69   1
   1  -6  14   21.61    3.01   1
  -2   6 -14    2.10    2.33   1
   2  -6  14    1.41    1.39   1
  -3   6 -14   9.753    2.94   1
   3  -6  14    8.09    2.04   1
  -4   6 -14    1.61    1.64   1
   4  -6  14    0.96    2.21   1
  -5   6 -14    0.00    0.99   1
   5  -6  14    0.00    1.38   1
   7   5 -14    0.00    0.31   1
  -7  -5  14    0.42    0.42   1
   6   5 -14    0.16    0.62   1
  -6  -5  14    0.00    0.73   1
   5   5 -14    9.15    3.31   1
  -5  -5  14   11.84    2.48   1
   4   5 -14    8.65    3.01   1
  -4  -5  14   12.27    2.49   1
   3   5 -14    0.02    0.15   1
  -3  -5  14    0.03    0.15   1
   2   5 -14    3.14    1.59   1
  -2  -5  14    6.48    1.55   1
   1   5 -14    1.05    1.35   1
  -1  -5  14    1.56    1.15   1
   0   5 -14    0.34    0.86   1
   0  -5  14    0.67    0.77   1
  -1   5 -14    0.39    1.82   1
   1  -5  14    0.62    1.28   1
  -2   5 -14    0.00    1.16   1
   2  -5  14    0.10    0.84   1
  -3   5 -14    3.24    2.30   1
   3  -5  14    2.08    2.02   1
  -4   5 -14    4.14    2.18   1
   4  -5  14    1.61    4.70   1
  -5   5 -14    0.00    2.47   1
   5  -5  14    3.57    3.74   1
   7   4 -14    0.00    0.43   1
  -7  -4  14    0.28    0.68   1
   6   4 -14    8.64    2.42   1
  -6  -4  14    6.71    2.71   1
   5   4 -14    3.65    2.41   1
  -5  -4  14    1.41    2.34   1
   4   4 -14   12.40    3.32   1
  -4  -4  14    6.87    2.47   1
   3   4 -14   36.28    4.27   1
  -3  -4  14   35.70    4.21   1
   2   4 -14    0.11    1.47   1
  -2  -4  14    0.96    1.51   1
   1   4 -14    10.0    2.47   1
  -1  -4  14   15.63    2.60   1
   0   4 -14    0.30    0.56   1
   0  -4  14    0.25    0.59   1
  -1   4 -14    2.70    1.79   1
   1  -4  14    0.85    1.24   1
  -2   4 -14    0.43    2.18   1
   2  -4  14    0.95    0.91   1
  -3   4 -14   13.58    3.85   1
   3  -4  14   36.09    3.62   1
  -4   4 -14    0.00    1.19   1
   4  -4  14    0.14    1.25   1
  -5   4 -14    8.39    4.69   1
   5  -4  14    7.01    3.12   1
   8   3 -14    4.60    2.64   1
  -8  -3  14    4.96    2.46   1
   7   3 -14    0.11    0.78   1
  -7  -3  14    0.12    1.01   1
   6   3 -14    0.37    0.67   1
  -6  -3  14    0.16    0.91   1
   5   3 -14    0.66    2.09   1
  -5  -3  14    0.94    1.82   1
   4   3 -14   15.68    3.73   1
  -4  -3  14   22.73    3.16   1
   3   3 -14   36.72    4.28   1
  -3  -3  14   43.75    4.17   1
   2   3 -14    0.00    0.17   1
  -2  -3  14    0.17    0.18   1
   1   3 -14   19.34    3.05   1
  -1  -3  14   27.04    2.94   1
   0   3 -14    0.00    0.90   1
   0  -3  14    0.06    0.67   1
  -1   3 -14    1.37    1.51   1
   1  -3  14    0.00    0.67   1
  -2   3 -14    5.87    2.08   1
   2  -3  14    6.66    1.47   1
  -3   3 -14   22.51    3.30   1
   3  -3  14   20.63    2.54   1
  -4   3 -14    1.19    2.04   1
   4  -3  14    0.00    3.49   1
  -5   3 -14    0.00    2.12   1
   8   2 -14    0.97    2.62   1
  -8  -2  14    0.93    2.11   1
   7   2 -14    0.00    1.53   1
  -7  -2  14    0.88    1.78   1
   6   2 -14    0.64    0.94   1
  -6  -2  14    0.00    1.20   1
   5   2 -14    2.32    2.51   1
  -5  -2  14    3.11    2.64   1
   4   2 -14    7.08    3.02   1
  -4  -2  14    4.59    1.08   1
   3   2 -14    4.97    2.24   1
  -3  -2  14   15.40    2.38   1
   2   2 -14    4.26    2.06   1
  -2  -2  14    7.89    2.97   1
   1   2 -14    2.36    2.02   1
  -1  -2  14    1.59    2.77   1
   0   2 -14   11.48    2.44   1
   0  -2  14    8.91    2.46   1
  -1   2 -14    2.15    1.02   1
   1  -2  14    0.38    0.55   1
  -2   2 -14   11.74    2.64   1
   2  -2  14    9.21    2.73   1
  -3   2 -14    0.00    0.89   1
   3  -2  14    0.00    0.75   1
  -4   2 -14    0.00    0.16   1
   4  -2  14    0.13    0.20   1
  -5   2 -14    2.69    6.38   1
   8   1 -14    0.00    0.84   1
  -8  -1  14    2.41    1.62   1
   7   1 -14    2.91    1.76   1
  -7  -1  14    1.85    1.46   1
   6   1 -14    0.00    0.22   1
  -6  -1  14    0.09    0.15   1
   5   1 -14    0.01    0.69   1
  -5  -1  14    0.15    0.34   1
   4   1 -14   55.72    8.51   1
  -4  -1  14   40.80    3.84   1
   3   1 -14    0.02    1.68   1
  -3  -1  14    0.35    0.94   1
   2   1 -14    6.07    1.62   1
  -2  -1  14    5.21    1.18   1
   1   1 -14   17.69    2.37   1
  -1  -1  14   22.10    2.49   1
   0   1 -14   23.65    2.66   1
   0  -1  14   24.40    2.44   1
  -1   1 -14    1.60    0.52   1
   1  -1  14    0.52    0.41   1
  -2   1 -14    0.91    1.46   1
   2  -1  14    0.78    1.33   1
  -3   1 -14    3.59    1.61   1
   3  -1  14    2.66    1.53   1
  -4   1 -14    0.58    2.06   1
   4  -1  14    0.00    1.82   1
   8   0 -14    1.35    1.93   1
  -8   0  14    1.14    2.81   1
   7   0 -14    0.80    1.16   1
  -7   0  14    0.92    1.07   1
   6   0 -14    0.04    0.28   1
  -6   0  14    0.00    0.25   1
   5   0 -14    0.00    1.73   1
  -5   0  14    0.27    0.93   1
   4   0 -14   38.08    6.33   1
  -4   0  14   38.95    3.81   1
   3   0 -14    0.00    0.49   1
  -3   0  14    0.63    0.39   1
   2   0 -14    2.64    1.68   1
  -2   0  14    8.45    1.81   1
   1   0 -14    5.28    1.92   1
  -1   0  14    9.21    2.02   1
   0   0 -14    0.00    1.42   1
   0   0  14    0.47    1.42   1
  -1   0 -14    0.07    0.74   1
   1   0  14    0.41    0.67   1
  -2   0 -14    0.22    0.70   1
   2   0  14    0.06    0.86   1
  -3   0 -14    0.33    0.46   1
   3   0  14    0.37    0.70   1
  -4   0 -14    1.55    1.12   1
   4   0  14    0.27    2.79   1
   7  -1 -14    2.13    1.68   1
  -7   1  14    1.48    1.92   1
   6  -1 -14    0.31    0.95   1
  -6   1  14    0.16    0.96   1
   5  -1 -14    2.38    1.64   1
  -5   1  14    3.41    1.14   1
   4  -1 -14    0.00    1.34   1
  -4   1  14    0.86    1.14   1
   3  -1 -14    5.19    1.73   1
  -3   1  14    9.08    1.64   1
   2  -1 -14    0.11    0.30   1
  -2   1  14    0.25    0.26   1
   1  -1 -14    1.21    1.62   1
  -1   1  14    2.98    1.48   1
   0  -1 -14    0.00    1.55   1
   0   1  14    0.65    1.07   1
  -1  -1 -14    1.07    1.22   1
   1   1  14    1.65    0.97   1
  -2  -1 -14    1.56    0.99   1
   2   1  14    0.77    0.77   1
  -3  -1 -14    2.32    2.05   1
   3   1  14    2.96    1.60   1
  -4  -1 -14    0.41    3.24   1
   4   1  14    0.40    1.41   1
   7  -2 -14    1.08    1.01   1
  -7   2  14    0.24    0.92   1
   6  -2 -14    0.17    0.85   1
  -6   2  14    0.00    0.73   1
   5  -2 -14   25.86    4.09   1
  -5   2  14   32.32    3.41   1
   4  -2 -14    0.00    3.18   1
  -4   2  14    0.07    1.79   1
   3  -2 -14   23.96    3.13   1
  -3   2  14   34.64    3.57   1
   2  -2 -14    1.52    1.98   1
  -2   2  14    1.88    1.99   1
   1  -2 -14    3.71    1.98   1
  -1   2  14    5.49    2.07   1
   0  -2 -14    3.35    1.71   1
   0   2  14    1.22    2.06   1
  -1  -2 -14   25.44    3.27   1
   1   2  14   39.48    3.56   1
  -2  -2 -14    1.49    1.44   1
   2   2  14    7.14    2.30   1
  -3  -2 -14    0.29    1.62   1
   3   2  14    1.04    2.40   1
   7  -3 -14    2.89    1.92   1
  -7   3  14    4.76    2.02   1
   6  -3 -14    0.46    0.91   1
  -6   3  14    1.92    1.39   1
   5  -3 -14    6.77    1.70   1
  -5   3  14    2.47    1.93   1
   4  -3 -14   20.65   15.38   1
  -4   3  14    2.03    1.15   1
   3  -3 -14    2.30    1.89   1
  -3   3  14    7.66    1.95   1
   2  -3 -14    0.35    1.54   1
  -2   3  14    0.05    1.20   1
   1  -3 -14    9.04    2.33   1
  -1   3  14   13.18    2.22   1
   0  -3 -14    0.02    1.70   1
   0   3  14    0.83    1.29   1
  -1  -3 -14   22.12    3.09   1
   1   3  14   19.93    2.47   1
  -2  -3 -14    0.25    1.63   1
   2   3  14    3.44    1.26   1
  -3  -3 -14    0.04    0.76   1
   3   3  14    0.07    0.37   1
   6  -4 -14    0.00    1.98   1
  -6   4  14    1.53    2.07   1
   5  -4 -14    1.09    2.10   1
  -5   4  14    3.93    2.15   1
   4  -4 -14    0.16    0.35   1
  -4   4  14    0.01    0.45   1
   3  -4 -14    0.91    0.83   1
  -3   4  14    0.00    1.36   1
   2  -4 -14    0.01    0.56   1
  -2   4  14    0.20    0.75   1
   1  -4 -14    0.00    2.02   1
  -1   4  14    1.58    1.82   1
   0  -4 -14    0.16    0.75   1
   0   4  14    0.08    0.78   1
  -1  -4 -14    3.05    1.69   1
   1   4  14    0.89    1.57   1
  -2  -4 -14    2.18    1.91   1
   2   4  14    2.06    1.46   1
   6  -5 -14    1.09    0.91   1
  -6   5  14    1.06    0.68   1
   5  -5 -14    0.15    0.72   1
  -5   5  14    0.22    0.85   1
   4  -5 -14   10.29    2.27   1
  -4   5  14    8.16    3.30   1
   3  -5 -14    0.74    1.64   1
  -3   5  14    1.06    2.07   1
   2  -5 -14    0.64    2.08   1
  -2   5  14    1.91    1.95   1
   1  -5 -14    0.39    2.17   1
  -1   5  14    0.00    1.68   1
   0  -5 -14   12.98    2.78   1
   0   5  14   12.77    2.72   1
  -1  -5 -14    0.00    2.78   1
   1   5  14    0.66    2.35   1
   5  -6 -14    0.00    0.94   1
  -5   6  14    0.48    1.08   1
   4  -6 -14    5.85    2.58   1
  -4   6  14    9.11    4.15   1
   3  -6 -14    0.00    1.65   1
  -3   6  14    1.94    1.79   1
   2  -6 -14    0.00    1.89   1
  -2   6  14    0.98    1.80   1
   1  -6 -14    0.00    0.64   1
  -1   6  14    0.02    0.50   1
   0  -6 -14    1.63    2.51   1
   0   6  14    0.19    2.47   1
   2  11 -15    0.00    2.42   1
  -2 -11  15    0.00    2.03   1
   1  11 -15    0.01    2.61   1
  -1 -11  15    0.00    1.54   1
   0  11 -15    0.00    1.67   1
   0 -11  15    0.00    1.63   1
  -1  11 -15    4.20    4.97   1
   1 -11  15    4.64    4.77   1
   4  10 -15    8.89    4.30   1
  -4 -10  15   12.84    1.93   1
   3  10 -15    0.00    2.00   1
  -3 -10  15    0.33    6.36   1
   2  10 -15    0.00    0.41   1
  -2 -10  15    0.00    0.96   1
   1  10 -15    0.04    0.29   1
  -1 -10  15    0.00    0.74   1
   0  10 -15    2.85    3.06   1
   0 -10  15   11.67    5.32   1
  -1  10 -15    2.51    2.99   1
   1 -10  15   9.730    4.97   1
  -2  10 -15    2.62    2.37   1
   2 -10  15    4.74    5.14   1
   5   9 -15    0.27    0.32   1
  -5  -9  15    0.00    0.56   1
   4   9 -15    1.12    1.91   1
  -4  -9  15    0.28    3.05   1
   3   9 -15    0.04    0.31   1
  -3  -9  15    0.08    0.25   1
   2   9 -15    0.00    2.87   1
  -2  -9  15    1.55    2.02   1
   1   9 -15    0.33    2.36   1
  -1  -9  15    2.28    2.66   1
   0   9 -15    5.61    3.19   1
   0  -9  15    7.44    3.59   1
  -1   9 -15    0.00    0.79   1
   1  -9  15    0.14    0.61   1
  -2   9 -15    2.73    2.41   1
   2  -9  15    1.34    2.15   1
  -3   9 -15    2.27    2.48   1
   3  -9  15    3.18    1.41   1
   5   8 -15    6.62    2.38   1
  -5  -8  15    6.73    2.68   1
   4   8 -15    7.63    3.41   1
  -4  -8  15    8.18    2.12   1
   3   8 -15    0.03    0.18   1
  -3  -8  15    0.00    0.18   1
   2   8 -15   17.14    3.18   1
  -2  -8  15   25.88    2.86   1
   1   8 -15    0.00    0.46   1
  -1  -8  15    0.11    0.43   1
   0   8 -15    0.66    2.14   1
   0  -8  15    6.99    4.98   1
  -1   8 -15    0.34    1.32   1
   1  -8  15    0.00    2.77   1
  -2   8 -15    0.00    0.65   1
   2  -8  15    0.67    0.75   1
  -3   8 -15    1.08    1.61   1
   3  -8  15    2.25    2.07   1
  -4   8 -15    1.34    1.53   1
   4  -8  15    0.88    1.44   1
   6   7 -15    0.33    0.76   1
  -6  -7  15    1.42    1.29   1
   5   7 -15   13.13    4.02   1
  -5  -7  15   10.62    5.89   1
   4   7 -15    6.03    3.18   1
  -4  -7  15    4.69    3.27   1
   3   7 -15    2.42    2.50   1
  -3  -7  15    5.66    2.68   1
   2   7 -15    3.80    2.67   1
  -2  -7  15    5.94    2.16   1
   1   7 -15    0.07    1.47   1
  -1  -7  15    1.64    1.46   1
   0   7 -15    1.60    2.05   1
   0  -7  15    0.00    1.49   1
  -1   7 -15    0.00    1.64   1
   1  -7  15    2.46    1.03   1
  -2   7 -15    4.43    2.58   1
   2  -7  15    1.71    1.95   1
  -3   7 -15    0.00    0.48   1
   3  -7  15    0.00    0.39   1
  -4   7 -15    2.24    2.77   1
   4  -7  15    1.37    2.22   1
   6   6 -15    1.64    2.04   1
  -6  -6  15    4.50    2.06   1
   5   6 -15    0.70    2.97   1
  -5  -6  15    5.20    2.08   1
   4   6 -15    1.46    2.46   1
  -4  -6  15    0.42    1.79   1
   3   6 -15    0.62    0.91   1
  -3  -6  15    1.42    0.82   1
   2   6 -15    1.10    1.41   1
  -2  -6  15    2.17    1.51   1
   1   6 -15    0.25    0.97   1
  -1  -6  15    0.68    1.22   1
   0   6 -15   14.07    2.71   1
   0  -6  15   16.01    3.28   1
  -1   6 -15    0.30    0.61   1
   1  -6  15    0.17    0.44   1
  -2   6 -15   10.07    2.64   1
   2  -6  15    9.00    1.87   1
  -3   6 -15    2.39    1.55   1
   3  -6  15    0.14    1.28   1
  -4   6 -15    6.00    2.32   1
   4  -6  15    5.85    5.41   1
   7   5 -15    1.08    1.55   1
  -7  -5  15    0.00    2.08   1
   6   5 -15    2.65    2.47   1
  -6  -5  15    1.90    3.76   1
   5   5 -15    0.00    1.03   1
  -5  -5  15    0.43    0.92   1
   4   5 -15    6.87    3.07   1
  -4  -5  15    3.58    2.51   1
   3   5 -15    0.00    1.93   1
  -3  -5  15    0.90    2.32   1
   2   5 -15   14.46    3.17   1
  -2  -5  15   22.29    2.79   1
   1   5 -15    0.06    0.63   1
  -1  -5  15    0.92    0.70   1
   0   5 -15   31.06    4.26   1
   0  -5  15   33.81    4.47   1
  -1   5 -15    1.58    2.53   1
   1  -5  15    1.10    1.78   1
  -2   5 -15    1.15    2.69   1
   2  -5  15    0.58    1.74   1
  -3   5 -15    1.10    1.32   1
   3  -5  15    0.89    1.24   1
  -4   5 -15    0.00    1.08   1
   4  -5  15    0.69    1.28   1
   7   4 -15    0.24    0.46   1
  -7  -4  15    0.11    0.57   1
   6   4 -15    2.03    1.79   1
  -6  -4  15    0.08    2.10   1
   5   4 -15    1.19    2.66   1
  -5  -4  15    0.00    2.01   1
   4   4 -15    0.20    2.50   1
  -4  -4  15    4.30    1.99   1
   3   4 -15    0.46    1.27   1
  -3  -4  15    0.79    1.56   1
   2   4 -15    4.66    1.67   1
  -2  -4  15    6.28    1.74   1
   1   4 -15    2.36    1.88   1
  -1  -4  15    2.82    1.63   1
   0   4 -15   27.75    3.85   1
   0  -4  15   30.83    5.06   1
  -1   4 -15    9.30    2.48   1
   1  -4  15    9.31    1.73   1
  -2   4 -15    0.18    1.52   1
   2  -4  15    0.36    1.21   1
  -3   4 -15    0.31    0.31   1
   3  -4  15    0.63    0.45   1
  -4   4 -15    1.46    1.81   1
   4  -4  15    0.71    3.21   1
   7   3 -15    0.21    0.87   1
  -7  -3  15    0.66    1.12   1
   6   3 -15    0.40    0.94   1
  -6  -3  15    1.06    1.29   1
   5   3 -15    0.42    2.87   1
  -5  -3  15    0.46    2.62   1
   4   3 -15    3.99    3.12   1
  -4  -3  15    4.91    2.59   1
   3   3 -15    0.24    0.33   1
  -3  -3  15    0.29    0.39   1
   2   3 -15    1.73    2.17   1
  -2  -3  15    2.59    3.22   1
   1   3 -15    1.86    2.18   1
  -1  -3  15    3.22    2.93   1
   0   3 -15    0.92    1.17   1
   0  -3  15    5.39    1.26   1
  -1   3 -15    2.70    2.55   1
   1  -3  15    2.09    1.76   1
  -2   3 -15   10.18    2.21   1
   2  -3  15    7.41    2.83   1
  -3   3 -15    0.70    1.53   1
   3  -3  15    0.51    1.14   1
  -4   3 -15    7.22    1.98   1
   4  -3  15   12.40    4.05   1
   7   2 -15    0.09    0.53   1
  -7  -2  15    0.01    0.81   1
   6   2 -15    0.89    1.25   1
  -6  -2  15    1.40    1.67   1
   5   2 -15    7.64    4.12   1
  -5  -2  15    1.34    2.21   1
   4   2 -15   31.31    5.52   1
  -4  -2  15   33.38    4.76   1
   3   2 -15    6.78    2.19   1
  -3  -2  15    5.44    2.63   1
   2   2 -15   14.75    1.99   1
  -2  -2  15   16.21    3.31   1
   1   2 -15    4.04    1.90   1
  -1  -2  15    3.25    2.49   1
   0   2 -15    2.75    1.74   1
   0  -2  15    2.19    1.32   1
  -1   2 -15    6.41    2.31   1
   1  -2  15    7.20    1.28   1
  -2   2 -15   12.95    2.51   1
   2  -2  15   11.04    1.76   1
  -3   2 -15    3.33    2.28   1
   3  -2  15    2.40    2.35   1
  -4   2 -15    3.08    2.26   1
   4  -2  15    6.72    5.11   1
   7   1 -15    1.09    2.65   1
  -7  -1  15    2.74    3.33   1
   6   1 -15    1.59    2.31   1
  -6  -1  15    2.53    3.07   1
   5   1 -15    3.08    3.04   1
  -5  -1  15    0.09    2.79   1
   4   1 -15   98.86   11.99   1
  -4  -1  15   93.68    10.1   1
   3   1 -15    10.0    2.88   1
  -3  -1  15   17.64    2.40   1
   2   1 -15    10.4    2.15   1
  -2  -1  15   12.53    1.99   1
   1   1 -15    8.25    2.15   1
  -1  -1  15    8.46    2.00   1
   0   1 -15    1.01    0.76   1
   0  -1  15    0.47    0.92   1
  -1   1 -15   14.82    2.30   1
   1  -1  15   18.64    2.42   1
  -2   1 -15    4.84    1.82   1
   2  -1  15    5.46    2.10   1
  -3   1 -15    3.36    2.01   1
   3  -1  15    4.92    2.17   1
  -4   1 -15    0.03    2.19   1
   4  -1  15    2.44    4.92   1
   7   0 -15    0.68    1.14   1
  -7   0  15    0.49    0.71   1
   6   0 -15    0.04    0.24   1
  -6   0  15    0.07    0.17   1
   5   0 -15    1.97    2.77   1
  -5   0  15    0.29    0.82   1
   4   0 -15    4.48    3.48   1
  -4   0  15    1.21    0.88   1
   3   0 -15    0.00    0.89   1
  -3   0  15    0.01    0.47   1
   2   0 -15    4.83    1.68   1
  -2   0  15    8.82    1.64   1
   1   0 -15    0.53    0.67   1
  -1   0  15    0.64    0.59   1
   0   0 -15    7.41    1.74   1
   0   0  15    5.84    1.39   1
  -1   0 -15    0.15    0.28   1
   1   0  15    0.42    0.20   1
  -2   0 -15    0.96    1.49   1
   2   0  15    0.01    1.07   1
  -3   0 -15    0.55    1.28   1
   3   0  15    1.43    1.07   1
  -4   0 -15    4.86    4.79   1
   4   0  15    1.69    2.04   1
   7  -1 -15    0.00    0.21   1
  -7   1  15    0.11    0.20   1
   6  -1 -15    0.35    1.57   1
  -6   1  15    0.54    1.18   1
   5  -1 -15    2.38    1.41   1
  -5   1  15    1.72    1.13   1
   4  -1 -15    0.80    2.88   1
  -4   1  15    2.66    1.51   1
   3  -1 -15    0.00    1.74   1
  -3   1  15    4.59    1.76   1
   2  -1 -15   10.50    2.31   1
  -2   1  15   10.84    2.32   1
   1  -1 -15    1.38    1.33   1
  -1   1  15    0.36    1.50   1
   0  -1 -15    0.02    0.23   1
   0   1  15    0.00    0.23   1
  -1  -1 -15    0.57    1.01   1
   1   1  15    2.47    1.23   1
  -2  -1 -15    3.59    1.83   1
   2   1  15    6.22    2.17   1
  -3  -1 -15    2.37    2.08   1
   3   1  15    5.61    2.11   1
   7  -2 -15    0.20    0.66   1
  -7   2  15    0.67    0.57   1
   6  -2 -15    2.02    2.39   1
  -6   2  15    0.57    2.10   1
   5  -2 -15   41.83    4.65   1
  -5   2  15   37.18    4.48   1
   4  -2 -15    0.00    3.70   1
  -4   2  15    1.91    1.41   1
   3  -2 -15    8.91    2.30   1
  -3   2  15   18.37    2.50   1
   2  -2 -15   20.74    3.00   1
  -2   2  15   25.92    3.11   1
   1  -2 -15    0.27    0.48   1
  -1   2  15    0.57    0.45   1
   0  -2 -15    1.59    1.58   1
   0   2  15    0.30    1.28   1
  -1  -2 -15    1.36    1.70   1
   1   2  15    1.70    1.64   1
  -2  -2 -15    1.64    1.48   1
   2   2  15    1.10    1.31   1
  -3  -2 -15   9.605    2.51   1
   3   2  15    8.34    2.11   1
   6  -3 -15    0.00    0.25   1
  -6   3  15    0.03    0.31   1
   5  -3 -15    4.99    2.07   1
  -5   3  15    7.89    2.17   1
   4  -3 -15    0.00    1.46   1
  -4   3  15    0.58    0.72   1
   3  -3 -15    8.09    2.22   1
  -3   3  15   12.97    2.65   1
   2  -3 -15    0.64    1.98   1
  -2   3  15    0.00    1.88   1
   1  -3 -15    0.76    2.18   1
  -1   3  15    1.47    2.18   1
   0  -3 -15    3.26    1.65   1
   0   3  15    2.59    2.19   1
  -1  -3 -15    1.08    0.89   1
   1   3  15    0.56    0.97   1
  -2  -3 -15    0.76    1.24   1
   2   3  15    0.77    1.60   1
   6  -4 -15    0.04    1.16   1
  -6   4  15    0.86    0.83   1
   5  -4 -15    0.00    0.22   1
  -5   4  15    0.02    0.28   1
   4  -4 -15    0.09    0.18   1
  -4   4  15    0.04    0.18   1
   3  -4 -15    0.05    0.20   1
  -3   4  15    0.00    0.42   1
   2  -4 -15    6.38    2.16   1
  -2   4  15    5.98    2.08   1
   1  -4 -15    0.09    0.45   1
  -1   4  15    0.00    0.26   1
   0  -4 -15   14.72    2.62   1
   0   4  15   10.38    2.68   1
  -1  -4 -15   11.66    2.64   1
   1   4  15   9.562    2.66   1
   5  -5 -15    0.03    0.24   1
  -5   5  15    0.42    0.27   1
   4  -5 -15    0.42    2.41   1
  -4   5  15    5.40    2.62   1
   3  -5 -15    4.82    2.27   1
  -3   5  15   15.62    2.84   1
   2  -5 -15    3.77    2.83   1
  -2   5  15    8.52    2.68   1
   1  -5 -15    0.83    2.53   1
  -1   5  15    2.60    1.76   1
   0  -5 -15   13.21    2.94   1
   0   5  15   16.73    3.14   1
   1  11 -16    2.68    3.32   1
  -1 -11  16    3.55    5.46   1
   3  10 -16    2.83    3.71   1
  -3 -10  16   7.540    5.18   1
   2  10 -16    0.88    2.14   1
  -2 -10  16    0.82    2.12   1
   1  10 -16    1.51    2.75   1
  -1 -10  16    0.00    2.65   1
   0  10 -16    2.95    3.61   1
   0 -10  16    3.73    3.29   1
  -1  10 -16    1.42    3.13   1
   1 -10  16    3.45    3.00   1
   4   9 -16    0.00    2.16   1
  -4  -9  16    1.65    1.56   1
   3   9 -16    0.00    0.49   1
  -3  -9  16    0.00    0.33   1
   2   9 -16    0.00    0.32   1
  -2  -9  16    0.00    0.82   1
   1   9 -16    5.89    3.24   1
  -1  -9  16    6.43    5.64   1
   0   9 -16    0.00    1.31   1
   0  -9  16    0.31    1.67   1
  -1   9 -16    2.71    3.59   1
   1  -9  16    5.55    4.79   1
  -2   9 -16    4.15    2.12   1
   5   8 -16    4.44    4.02   1
  -5  -8  16   7.403    3.19   1
   4   8 -16    0.00    2.65   1
  -4  -8  16    2.64    2.62   1
   3   8 -16    0.88    2.06   1
  -3  -8  16    0.00    1.78   1
   2   8 -16    7.63    3.12   1
  -2  -8  16    6.94    2.12   1
   1   8 -16   11.77    3.31   1
  -1  -8  16    9.07    3.62   1
   0   8 -16    3.07    2.46   1
   0  -8  16    2.21    3.24   1
  -1   8 -16    0.00    2.20   1
   1  -8  16    1.51    2.78   1
  -2   8 -16   7.653    2.94   1
   2  -8  16    6.60    2.23   1
  -3   8 -16    1.35    2.02   1
   3  -8  16    0.38    1.81   1
   6   7 -16    0.28    2.11   1
  -6  -7  16    2.17    1.63   1
   5   7 -16    1.30    3.39   1
  -5  -7  16    7.14    2.20   1
   4   7 -16    9.09    3.51   1
  -4  -7  16    8.54    1.89   1
   3   7 -16    0.00    0.46   1
  -3  -7  16    0.22    0.56   1
   2   7 -16   19.38    3.88   1
  -2  -7  16   33.61    3.61   1
   1   7 -16    2.92    2.48   1
  -1  -7  16   10.67    3.97   1
   0   7 -16    5.16    2.06   1
   0  -7  16   9.394    1.95   1
  -1   7 -16    0.17    0.75   1
  -2   7 -16    1.37    2.69   1
  -3   7 -16    2.70    3.00   1
   3  -7  16    4.53    3.62   1
   6   6 -16    2.66    1.60   1
  -6  -6  16    0.00    2.26   1
   5   6 -16    0.00    2.35   1
  -5  -6  16    2.12    2.02   1
   4   6 -16    0.14    3.07   1
  -4  -6  16    0.24    3.07   1
   3   6 -16    0.84    1.72   1
   2   6 -16    3.50    2.43   1
  -2  -6  16    3.30    2.89   1
   1   6 -16    2.62    2.40   1
  -1  -6  16    4.42    2.20   1
   0   6 -16    4.56    2.16   1
   0  -6  16    1.53    2.18   1
  -1   6 -16    4.08    2.69   1
   1  -6  16    7.18    1.99   1
  -2   6 -16    3.41    1.58   1
   2  -6  16    1.73    1.12   1
  -3   6 -16    5.54    2.20   1
   3  -6  16    4.68    1.79   1
   6   5 -16    1.43    2.04   1
  -6  -5  16    3.22    2.68   1
   5   5 -16    5.04    2.62   1
  -5  -5  16    2.12    2.45   1
   4   5 -16    3.41    2.46   1
  -4  -5  16    3.01    1.82   1
   3   5 -16    0.17    1.11   1
  -3  -5  16    0.80    1.99   1
   2   5 -16    1.48    1.80   1
  -2  -5  16    2.83    2.04   1
   1   5 -16    8.13    2.67   1
  -1  -5  16    9.14    2.69   1
   0   5 -16   12.02    2.95   1
   0  -5  16   17.47    3.61   1
  -1   5 -16    4.07    2.34   1
   1  -5  16    5.08    1.75   1
  -2   5 -16   17.89    3.15   1
   2  -5  16   20.06    3.56   1
  -3   5 -16    2.15    2.76   1
   3  -5  16    3.52    3.99   1
  -4   5 -16   9.269    2.27   1
   4  -5  16   10.75    4.17   1
   7   4 -16    0.98    2.74   1
  -7  -4  16    1.63    2.84   1
   6   4 -16    0.69    1.93   1
  -6  -4  16    5.34    2.36   1
   5   4 -16    1.12    3.25   1
  -5  -4  16    1.56    2.79   1
   4   4 -16    3.38    2.08   1
  -4  -4  16    2.22    1.72   1
   3   4 -16    0.00    0.66   1
  -3  -4  16    0.26    0.90   1
   2   4 -16    9.17    2.48   1
  -2  -4  16    5.36    2.47   1
   1   4 -16    2.81    2.28   1
  -1  -4  16    2.97    2.43   1
   0   4 -16   27.87    4.18   1
   0  -4  16   32.97    5.50   1
  -1   4 -16    0.32    0.30   1
   1  -4  16    0.11    0.21   1
  -2   4 -16   17.61    2.93   1
   2  -4  16   16.79    2.78   1
  -3   4 -16    0.35    1.74   1
   3  -4  16    0.19    1.72   1
  -4   4 -16    0.64    2.29   1
   4  -4  16    2.65    1.66   1
   7   3 -16    0.40    1.93   1
  -7  -3  16    1.25    1.81   1
   6   3 -16    2.07    2.00   1
  -6  -3  16    2.07    2.59   1
   5   3 -16    0.00    1.32   1
  -5  -3  16    0.20    1.32   1
   4   3 -16    0.19    0.80   1
  -4  -3  16    0.19    0.72   1
   3   3 -16    0.34    0.71   1
  -3  -3  16    0.79    1.25   1
   2   3 -16    1.79    1.75   1
  -2  -3  16    1.94    2.21   1
   1   3 -16    0.25    1.19   1
  -1  -3  16    0.25    1.11   1
   0   3 -16   11.80    3.31   1
   0  -3  16   11.27    2.31   1
  -1   3 -16    1.43    1.63   1
   1  -3  16    0.33    1.44   1
  -2   3 -16    0.00    1.22   1
   2  -3  16    1.89    1.27   1
  -3   3 -16    1.41    2.50   1
   3  -3  16    5.09    2.99   1
   7   2 -16    0.27    0.98   1
  -7  -2  16    0.00    1.17   1
   6   2 -16    2.91    2.10   1
  -6  -2  16    8.20    2.75   1
   5   2 -16    9.08    3.73   1
  -5  -2  16    7.76    3.06   1
   4   2 -16    0.00    3.25   1
  -4  -2  16    0.00    2.62   1
   3   2 -16    0.31    1.15   1
  -3  -2  16    1.21    1.89   1
   2   2 -16    3.08    2.00   1
  -2  -2  16    2.75    3.47   1
   1   2 -16    0.00    1.43   1
  -1  -2  16    0.36    2.15   1
   0   2 -16    0.25    2.32   1
   0  -2  16    0.69    3.30   1
  -1   2 -16    1.07    0.92   1
   1  -2  16    2.75    1.36   1
  -2   2 -16   10.19    2.83   1
   2  -2  16    9.90    2.77   1
  -3   2 -16    1.81    1.83   1
   3  -2  16    2.03    1.87   1
   7   1 -16    0.75    2.10   1
  -7  -1  16    0.00    2.08   1
   6   1 -16    0.00    1.01   1
  -6  -1  16    0.12    1.36   1
   5   1 -16   11.80    4.84   1
  -5  -1  16   11.25    3.00   1
   4   1 -16   25.47    5.84   1
  -4  -1  16   16.08    3.08   1
   3   1 -16    1.23    1.37   1
  -3  -1  16    7.89    3.00   1
   2   1 -16    1.48    1.37   1
  -2  -1  16    0.37    2.51   1
   1   1 -16    0.08    1.32   1
  -1  -1  16    0.00    2.02   1
   0   1 -16    2.63    1.66   1
   0  -1  16    1.23    2.70   1
  -1   1 -16    1.42    1.70   1
   1  -1  16    1.06    1.83   1
  -2   1 -16    3.84    2.36   1
   2  -1  16    7.25    2.72   1
  -3   1 -16    0.03    0.20   1
   3  -1  16    0.16    0.23   1
   7   0 -16    0.00    0.22   1
  -7   0  16    0.00    0.31   1
   6   0 -16    1.56    2.33   1
  -6   0  16    2.55    2.82   1
   5   0 -16    2.58    3.25   1
  -5   0  16    3.35    2.55   1
   4   0 -16   20.59    4.79   1
  -4   0  16   18.87    4.75   1
   3   0 -16    0.64    1.57   1
  -3   0  16    9.01    3.67   1
   2   0 -16    3.04    1.80   1
  -2   0  16    0.00    3.52   1
   1   0 -16    3.94    1.88   1
  -1   0  16    0.00    3.24   1
   0   0 -16    0.20    0.79   1
   0   0  16    0.20    1.38   1
  -1   0 -16    1.58    0.98   1
   1   0  16    2.73    1.54   1
  -2   0 -16    3.52    1.76   1
   2   0  16    2.38    3.20   1
  -3   0 -16    0.05    1.59   1
   3   0  16    0.33    1.83   1
   6  -1 -16    0.00    0.23   1
  -6   1  16    0.06    0.26   1
   5  -1 -16    8.51    4.74   1
  -5   1  16    1.89    1.23   1
   4  -1 -16    4.66    4.44   1
  -4   1  16    0.77    1.26   1
   3  -1 -16    0.26    0.89   1
  -3   1  16    0.20    1.03   1
   2  -1 -16    1.87    1.52   1
  -2   1  16    0.61    1.46   1
   1  -1 -16    1.94    1.76   1
  -1   1  16    2.06    1.62   1
   0  -1 -16    0.73    0.92   1
   0   1  16    0.47    0.87   1
  -1  -1 -16    0.13    0.21   1
   1   1  16    0.00    0.16   1
  -2  -1 -16    0.00    0.62   1
   2   1  16    0.01    0.54   1
   6  -2 -16    0.26    2.38   1
  -6   2  16    1.19    2.42   1
   5  -2 -16   26.98    3.80   1
  -5   2  16   24.90    3.27   1
   4  -2 -16    0.18    3.51   1
  -4   2  16    4.82    1.68   1
   3  -2 -16    0.16    0.36   1
  -3   2  16    0.00    0.50   1
   2  -2 -16    8.23    2.55   1
  -2   2  16   10.05    2.48   1
   1  -2 -16    5.31    2.24   1
  -1   2  16    0.00    2.17   1
   0  -2 -16    3.28    1.40   1
   0   2  16    1.85    1.82   1
  -1  -2 -16    0.20    0.30   1
   1   2  16    0.10    0.35   1
  -2  -2 -16    0.23    1.30   1
   2   2  16    1.19    1.19   1
   5  -3 -16    1.11    0.82   1
  -5   3  16    2.33    1.29   1
   4  -3 -16    1.46    0.87   1
  -4   3  16    0.72    0.79   1
   3  -3 -16    0.12    0.29   1
  -3   3  16    0.43    0.39   1
   2  -3 -16   15.97    3.14   1
  -2   3  16    7.07    2.09   1
   1  -3 -16    0.56    0.46   1
  -1   3  16    0.02    0.49   1
   0  -3 -16    0.35    0.31   1
   0   3  16    0.33    0.24   1
  -1  -3 -16    0.10    0.39   1
   1   3  16    0.25    0.24   1
   4  -4 -16    6.40    2.17   1
  -4   4  16    5.39    2.61   1
   3  -4 -16    0.65    1.78   1
  -3   4  16    2.49    2.15   1
   2  -4 -16    0.24    0.31   1
  -2   4  16    0.04    0.34   1
   1  -4 -16    1.55    2.75   1
  -1   4  16    1.96    2.63   1
   0  -4 -16    7.08    2.03   1
   0   4  16   11.04    2.78   1
   2  10 -17    0.00    1.64   1
  -2 -10  17    3.88    3.88   1
   1  10 -17    4.95    2.38   1
  -1 -10  17    0.00    4.42   1
   0  10 -17    0.28    1.42   1
   0 -10  17    1.10    1.82   1
   3   9 -17    4.21    3.15   1
  -3  -9  17    1.53    7.05   1
   2   9 -17    0.00    2.12   1
  -2  -9  17    0.98    1.99   1
   1   9 -17    2.01    4.59   1
  -1  -9  17    1.46    4.32   1
   0   9 -17    3.91    5.19   1
   0  -9  17    4.97    3.88   1
  -1   9 -17    2.02    2.42   1
   1  -9  17    0.00    2.10   1
   4   8 -17    0.00    2.15   1
  -4  -8  17    1.41    1.87   1
   3   8 -17    0.00    0.69   1
  -3  -8  17    0.75    0.47   1
   2   8 -17    0.08    0.27   1
  -2  -8  17    0.12    0.34   1
   1   8 -17    0.48    2.04   1
  -1  -8  17    0.00    3.78   1
   0   8 -17    8.03    3.11   1
  -1   8 -17    0.00    1.25   1
   1  -8  17    0.00    1.64   1
  -2   8 -17    0.00    2.98   1
   2  -8  17    0.00    3.81   1
   5   7 -17    5.71    4.08   1
  -5  -7  17    1.86    5.29   1
   4   7 -17    0.00    1.53   1
  -4  -7  17    0.03    2.28   1
   3   7 -17    0.00    2.39   1
  -3  -7  17    1.57    1.31   1
   2   7 -17    0.41    0.41   1
  -2  -7  17    0.20    0.37   1
   1   7 -17   12.16    3.04   1
  -1  -7  17   14.07    3.93   1
   0   7 -17    2.05    2.41   1
   0  -7  17    2.31    1.55   1
  -1   7 -17    5.62    2.72   1
  -2   7 -17    1.92    2.37   1
   2  -7  17    1.35    1.95   1
   5   6 -17    0.00    2.26   1
  -5  -6  17    1.31    2.20   1
   4   6 -17    0.00    0.70   1
  -4  -6  17    0.29    0.56   1
   3   6 -17   10.19    3.28   1
  -3  -6  17   9.162    1.85   1
   2   6 -17    0.00    0.49   1
  -2  -6  17    0.11    0.53   1
   1   6 -17   14.10    2.92   1
  -1  -6  17   16.82    3.13   1
   0   6 -17    0.53    2.05   1
   0  -6  17    1.12    1.72   1
  -1   6 -17    4.05    2.31   1
   1  -6  17    3.66    2.30   1
  -2   6 -17    3.45    2.24   1
  -3   6 -17    0.00    0.33   1
   3  -6  17    0.58    0.62   1
   6   5 -17   9.868    3.19   1
  -6  -5  17    9.51    4.43   1
   5   5 -17    0.00    2.90   1
  -5  -5  17    5.28    3.83   1
   4   5 -17    0.08    0.64   1
  -4  -5  17    0.23    0.46   1
   3   5 -17    6.03    4.16   1
  -3  -5  17   11.34    2.80   1
   2   5 -17    0.00    0.37   1
  -2  -5  17    0.00    0.55   1
   1   5 -17    0.04    0.46   1
  -1  -5  17    0.00    0.53   1
   0   5 -17    4.06    1.95   1
   0  -5  17    5.86    2.43   1
  -1   5 -17    0.05    1.08   1
   1  -5  17    0.69    0.67   1
  -2   5 -17    4.45    2.04   1
   2  -5  17    3.78    1.85   1
  -3   5 -17    1.67    3.22   1
   3  -5  17    0.80    3.27   1
   6   4 -17    7.02    2.46   1
  -6  -4  17    8.00    2.94   1
   5   4 -17    0.00    1.73   1
  -5  -4  17    1.15    1.41   1
   4   4 -17    2.99    3.32   1
  -4  -4  17    0.83    1.75   1
   3   4 -17    1.16    1.50   1
  -3  -4  17    8.10    2.62   1
   2   4 -17    0.46    0.58   1
  -2  -4  17    0.27    0.41   1
   1   4 -17    3.30    2.13   1
  -1  -4  17    2.24    2.02   1
   0   4 -17    0.02    1.22   1
   0  -4  17    0.25    1.31   1
  -1   4 -17    2.33    4.16   1
   1  -4  17   9.088    3.78   1
  -2   4 -17    0.08    0.19   1
   2  -4  17    0.04    0.19   1
  -3   4 -17   11.29    2.25   1
   3  -4  17    5.05    2.81   1
   6   3 -17    0.06    0.45   1
  -6  -3  17    0.40    0.57   1
   5   3 -17    1.21    3.58   1
  -5  -3  17    3.22    2.49   1
   4   3 -17    0.22    0.55   1
  -4  -3  17    0.00    0.45   1
   3   3 -17    1.13    1.40   1
  -3  -3  17    0.13    1.09   1
   2   3 -17    0.00    1.51   1
  -2  -3  17    0.31    2.32   1
   1   3 -17   19.01    3.39   1
  -1  -3  17   23.91    4.99   1
   0   3 -17    0.09    0.71   1
   0  -3  17    0.61    0.99   1
  -1   3 -17    7.09    2.66   1
   1  -3  17    8.67    2.08   1
  -2   3 -17    1.64    1.63   1
   2  -3  17    4.09    1.77   1
  -3   3 -17    1.62    2.40   1
   3  -3  17    0.46    2.44   1
   6   2 -17    3.05    2.10   1
  -6  -2  17    2.38    2.51   1
   5   2 -17    0.16    0.45   1
  -5  -2  17    0.25    0.29   1
   4   2 -17    3.93    3.52   1
  -4  -2  17    0.40    2.43   1
   3   2 -17    2.32    1.78   1
  -3  -2  17    7.47    2.77   1
   2   2 -17    0.82    1.09   1
  -2  -2  17    1.65    1.81   1
   1   2 -17   28.62    3.42   1
  -1  -2  17   34.72    5.38   1
   0   2 -17    3.21    1.92   1
   0  -2  17    9.30    2.83   1
  -1   2 -17    1.47    1.99   1
   1  -2  17    3.65    2.14   1
  -2   2 -17    1.55    0.97   1
   2  -2  17    2.06    1.23   1
  -3   2 -17    0.38    1.11   1
   3  -2  17    0.00    2.00   1
   6   1 -17    5.03    2.38   1
  -6  -1  17    2.55    2.98   1
   5   1 -17    4.22    4.12   1
  -5  -1  17    7.60    3.15   1
   4   1 -17    6.05    2.35   1
  -4  -1  17    0.24    2.03   1
   3   1 -17    0.52    1.18   1
  -3  -1  17    0.75    1.26   1
   2   1 -17    1.69    1.25   1
  -2  -1  17    3.80    2.35   1
   1   1 -17    4.15    2.30   1
  -1  -1  17    0.00    3.74   1
   0   1 -17    1.11    1.91   1
   0  -1  17    0.00    3.11   1
  -1   1 -17    0.12    0.27   1
   1  -1  17    0.00    0.55   1
  -2   1 -17    0.31    0.80   1
   2  -1  17    1.12    1.10   1
   6   0 -17    1.62    1.75   1
  -6   0  17    0.00    1.94   1
   5   0 -17    7.53    4.67   1
  -5   0  17    7.62    3.80   1
   4   0 -17    1.02    0.52   1
  -4   0  17    0.31    0.35   1
   3   0 -17    1.84    4.39   1
  -3   0  17   68.94   17.12   1
   2   0 -17    0.81    1.61   1
  -2   0  17    2.80    2.86   1
   1   0 -17    0.00    0.18   1
  -1   0  17    0.06    0.30   1
   0   0 -17    0.09    0.43   1
   0   0  17    0.00    1.00   1
  -1   0 -17    3.42    1.86   1
   1   0  17    2.73    2.03   1
  -2   0 -17    0.00    0.74   1
   2   0  17    0.26    0.65   1
   6  -1 -17    1.27    2.83   1
  -6   1  17    2.38    2.81   1
   5  -1 -17   16.35    4.83   1
  -5   1  17   12.39    4.15   1
   4  -1 -17   9.075    4.52   1
  -4   1  17   9.946    4.38   1
   3  -1 -17    8.02    4.32   1
  -3   1  17    2.16    4.72   1
   2  -1 -17    6.52    2.76   1
  -2   1  17    7.78    4.35   1
   1  -1 -17    1.46    1.24   1
  -1   1  17    0.00    2.09   1
   0  -1 -17    3.23    1.72   1
   0   1  17    1.68    4.66   1
  -1  -1 -17    3.36    2.29   1
   1   1  17    0.78    5.47   1
   5  -2 -17   15.47    2.87   1
  -5   2  17   15.13    3.59   1
   4  -2 -17    5.25    4.36   1
  -4   2  17    6.79    3.60   1
   3  -2 -17    2.50    1.36   1
  -3   2  17    0.36    1.12   1
   2  -2 -17    3.00    1.80   1
  -2   2  17    3.15    4.97   1
   1  -2 -17    2.52    1.77   1
  -1   2  17    1.57    3.57   1
   0  -2 -17    2.34    1.88   1
   0   2  17    4.02    4.54   1
  -1  -2 -17    1.08    1.02   1
   1   2  17    0.62    1.26   1
   4  -3 -17    3.11    1.44   1
  -4   3  17    3.36    2.85   1
   3  -3 -17    1.93    4.18   1
  -3   3  17    3.68    3.73   1
   2  -3 -17    0.05    0.33   1
  -2   3  17    0.00    0.60   1
   1  -3 -17    2.34    2.08   1
  -1   3  17    0.00    3.48   1
   2   9 -18    1.31    2.06   1
  -2  -9  18   7.261    5.02   1
   1   9 -18    4.89    4.29   1
  -1  -9  18    5.35    7.50   1
   3   8 -18    0.00    1.20   1
  -3  -8  18    0.82    0.71   1
   2   8 -18    2.08    1.70   1
  -2  -8  18    0.00    4.20   1
   1   8 -18    6.26    2.65   1
  -1  -8  18    6.93    4.11   1
   0   8 -18    3.19    2.57   1
  -1   8 -18   8.697    4.61   1
   1  -8  18    6.93    5.24   1
   4   7 -18    0.00    2.18   1
  -4  -7  18    2.91    1.54   1
   3   7 -18    0.00    1.77   1
  -3  -7  18    0.84    1.36   1
   2   7 -18    0.31    1.32   1
  -2  -7  18    0.00    1.80   1
   1   7 -18    1.77    2.02   1
  -1  -7  18    0.00    2.91   1
   0   7 -18    5.71    2.57   1
  -1   7 -18    1.15    2.64   1
   1  -7  18    3.58    4.09   1
   5   6 -18    1.55    1.87   1
  -5  -6  18    0.00    2.00   1
   4   6 -18    0.31    2.33   1
  -4  -6  18    0.64    1.93   1
   3   6 -18    0.55    0.73   1
  -3  -6  18    0.85    0.76   1
   2   6 -18    1.88    3.03   1
  -2  -6  18    5.62    1.96   1
   1   6 -18    1.46    0.94   1
  -1  -6  18    2.18    0.83   1
   0   6 -18    1.11    3.41   1
   0  -6  18    5.90    3.01   1
  -1   6 -18    4.20    2.65   1
  -2   6 -18    0.00    0.35   1
   2  -6  18    0.44    0.43   1
   5   5 -18    5.23    3.61   1
  -5  -5  18    6.37    2.88   1
   4   5 -18    0.00    1.13   1
  -4  -5  18    0.49    0.84   1
   3   5 -18    7.00    3.25   1
  -3  -5  18    7.16    3.68   1
   2   5 -18    2.38    2.32   1
  -2  -5  18    5.00    2.27   1
   1   5 -18    3.61    2.13   1
  -1  -5  18    4.98    2.21   1
   0   5 -18    0.00    1.51   1
   0  -5  18    0.00    1.52   1
  -1   5 -18   11.73    2.73   1
   1  -5  18   19.30    4.57   1
  -2   5 -18    0.28    2.78   1
   5   4 -18    3.05    2.99   1
  -5  -4  18    2.31    3.20   1
   4   4 -18    0.00    0.90   1
  -4  -4  18    0.00    0.73   1
   3   4 -18    7.06    3.67   1
  -3  -4  18   8.589    2.86   1
   2   4 -18    0.00    1.07   1
  -2  -4  18    0.00    1.39   1
   1   4 -18    1.74    3.00   1
  -1  -4  18    0.09    3.96   1
   0   4 -18    0.00    1.87   1
   0  -4  18    0.00    2.46   1
  -1   4 -18    0.59    2.21   1
   1  -4  18    0.74    2.40   1
  -2   4 -18    5.42    1.96   1
   2  -4  18   6.755    2.05   1
   5   3 -18    1.24    0.74   1
  -5  -3  18    0.16    0.47   1
   4   3 -18    0.00    2.56   1
  -4  -3  18    0.44    2.10   1
   3   3 -18    0.00    2.18   1
  -3  -3  18    0.00    1.23   1
   2   3 -18    0.34    1.47   1
  -2  -3  18    3.42    2.59   1
   1   3 -18    0.13    0.66   1
  -1  -3  18    0.88    0.87   1
   0   3 -18    2.71    1.88   1
   0  -3  18    1.29    2.29   1
  -1   3 -18    0.94    2.50   1
   1  -3  18    5.09    3.61   1
  -2   3 -18    3.94    1.89   1
   2  -3  18   7.447    3.36   1
   5   2 -18    1.92    1.87   1
  -5  -2  18    1.16    1.72   1
   4   2 -18    3.45    3.05   1
  -4  -2  18    0.95    3.07   1
   3   2 -18    1.32    4.29   1
  -3  -2  18    4.45    3.28   1
   2   2 -18    0.77    2.21   1
  -2  -2  18    4.91    3.67   1
   1   2 -18   17.47    2.72   1
  -1  -2  18   11.19    4.54   1
   0   2 -18    0.00    0.90   1
   0  -2  18    2.84    1.73   1
  -1   2 -18    3.62    2.13   1
   1  -2  18    3.60    3.66   1
   5   1 -18    0.00    1.40   1
  -5  -1  18    0.32    0.90   1
   4   1 -18    4.74    3.78   1
  -4  -1  18    2.93    2.47   1
   3   1 -18    6.27    3.53   1
  -3  -1  18    1.68    3.33   1
   2   1 -18    0.26    0.44   1
  -2  -1  18    0.00    0.94   1
   1   1 -18    7.32    1.90   1
  -1  -1  18   10.64    3.44   1
   0   1 -18    0.00    1.33   1
   0  -1  18    3.62    1.95   1
  -1   1 -18    1.28    2.44   1
   1  -1  18    3.13    2.04   1
   5   0 -18    1.48    1.43   1
  -5   0  18    0.38    1.08   1
   4   0 -18    1.86    1.23   1
  -4   0  18    1.59    1.06   1
   3   0 -18    0.94    2.86   1
  -3   0  18    0.16    3.26   1
   2   0 -18    0.05    0.72   1
  -2   0  18    1.39    1.28   1
   1   0 -18    0.00    1.08   1
  -1   0  18    2.29    2.34   1
   0   0 -18    0.14    0.54   1
   0   0  18    1.28    1.15   1
  -1   0 -18    0.35    1.72   1
   1   0  18    3.38    2.62   1
   4  -1 -18    0.00    3.35   1
  -4   1  18    5.46    2.95   1
   3  -1 -18    0.91    4.28   1
  -3   1  18    1.48    3.28   1
   2  -1 -18    0.36    1.69   1
  -2   1  18    3.42    4.05   1
   1  -1 -18    0.22    1.11   1
  -1   1  18    0.00    1.40   1
   0  -1 -18    0.46    2.03   1
   0   1  18   9.522    3.60   1
   3  -2 -18    0.00    3.65   1
  -3   2  18    0.00    3.39   1
   2  -2 -18    0.05    1.99   1
  -2   2  18    0.00    3.58   1
   1  -2 -18    0.09    0.25   1
  -1   2  18    0.00    0.59   1
   3   7 -19    0.68    0.64   1
  -3  -7  19    0.42    0.37   1
   2   7 -19    3.60    3.26   1
  -2  -7  19    4.93    3.34   1
   1   7 -19    0.93    1.94   1
  -1  -7  19    1.29    3.90   1
   0   7 -19    2.82    2.27   1
   4   6 -19    0.00    2.89   1
  -4  -6  19    0.47    1.85   1
   3   6 -19    0.00    0.41   1
  -3  -6  19    0.35    0.24   1
   2   6 -19    0.23    1.94   1
  -2  -6  19    2.79    1.88   1
   1   6 -19    2.52    3.25   1
  -1  -6  19    0.00    3.50   1
   0   6 -19    2.04    2.39   1
   4   5 -19    0.00    0.44   1
  -4  -5  19    0.15    0.41   1
   3   5 -19    0.36    0.35   1
  -3  -5  19    0.18    0.27   1
   2   5 -19    0.90    2.64   1
  -2  -5  19    1.45    1.85   1
   1   5 -19   8.347    2.74   1
  -1  -5  19    6.37    3.23   1
   0   5 -19    0.06    0.29   1
   0  -5  19    0.34    0.38   1
  -1   5 -19    0.13    0.31   1
   1  -5  19    0.06    0.52   1
   4   4 -19    0.25    3.57   1
  -4  -4  19    0.61    1.77   1
   3   4 -19    0.38    0.88   1
  -3  -4  19    0.43    0.54   1
   2   4 -19    1.19    2.05   1
  -2  -4  19    7.20    2.51   1
   1   4 -19    0.00    0.85   1
  -1  -4  19    0.00    0.99   1
   0   4 -19    2.41    1.89   1
   0  -4  19    2.74    2.04   1
  -1   4 -19    0.00    2.27   1
   1  -4  19    3.46    3.30   1
   4   3 -19   9.174    3.74   1
  -4  -3  19    5.67    2.85   1
   3   3 -19    0.00    0.52   1
  -3  -3  19    0.18    0.39   1
   2   3 -19    0.00    2.23   1
  -2  -3  19    1.86    2.29   1
   1   3 -19    0.00    1.81   1
  -1  -3  19    0.53    3.43   1
   0   3 -19    0.77    2.50   1
   0  -3  19    6.09    3.50   1
   4   2 -19    0.00    3.79   1
  -4  -2  19    4.62    3.51   1
   3   2 -19    0.52    3.43   1
  -3  -2  19    2.00    1.85   1
   2   2 -19    0.31    0.83   1
  -2  -2  19    0.00    1.38   1
   1   2 -19    0.01    0.18   1
  -1  -2  19    0.00    0.27   1
   0   2 -19    0.00    0.29   1
   0  -2  19    0.65    0.44   1
   4   1 -19    0.00    0.60   1
  -4  -1  19    0.19    0.42   1
   3   1 -19    0.00    0.49   1
  -3  -1  19    0.00    0.59   1
   2   1 -19    0.78    4.92   1
  -2  -1  19   8.235    3.79   1
   1   1 -19    0.57    0.88   1
  -1  -1  19    1.01    1.58   1
   0   1 -19    3.70    1.71   1
   0  -1  19   10.66    3.51   1
   3   0 -19    0.00    0.84   1
  -3   0  19    0.00    0.64   1
   2   0 -19    6.96    3.83   1
  -2   0  19    6.89    3.33   1
   1   0 -19    0.55    2.05   1
  -1   0  19   9.245    4.12   1
   2   4 -20    0.00    1.22   1
  -2  -4  20    0.57    1.05   1
   0   0   0    0.00    0.00   0

;
_shelx_hkl_checksum   51069

