 
data_x14412 
 
_audit_creation_method            SHELXL-2014/6 
# CIF edited on-the-fly by script CIFFIX (S. Parkin, 2000-2014). 
# CIFFIX: http://xray.uky.edu/people/parkin/programs/ciffix 
 
_publ_section_exptl_refinement 
; 
H atoms of the main disorder component were found in difference Fourier 
maps, but subsequently included in the refinement using riding models. 
Minor component hydrogen atoms were all placed at calculated positions.  
The constrained distances were 0.95 %A (C~sp2~H), 0.98 %A (RCH~3~), 0.99 %A 
(R~2~CH~2~) and 1.00 %A (R~3~CH). U~iso~(H) parameters were set to values 
of either 1.2U~eq~ or 1.5U~eq~ (RCH~3~ only) of the attached atom. 
 
To ensure satisfactory refinement of the minor component, a combination of 
constraints and restraints were employed. The constraints (SHELXL command 
EADP) were used to fix overlapping fragments. Restraints were used to 
maintain the integrity of the minor component (SHELXL commands SAME, FLAT 
and RIGU). 

The space group is P1, which is unusual for an achiral molecule. The 
molecule does not itself possess an inversion centre. Nevertheless, in
the crystal, whole-molecule disorder exists that appears to relate the 
components by an (approximate) inversion centre. The refined occupancy 
factors of the disordered components was 0.759(6) and 0.241(6), which 
effectively dictates that, even on average, the structure does not have 
inversion symmetry. There were no extra (weak) diffraction spots that 
would suggest a larger unit cell.  In order to prevent steric clashes, 
there must be ordered bands of molecules, with the disorder being caused 
by adjacent bands being misoriented relative to each other.
; 
 
_publ_section_references 
; 
Bruker-AXS (2006). 
  <i>APEX2</i> Bruker-AXS Inc., Madison, Wisconsin, USA. 
 
Hope, H. (1994). 
  <i>Prog. Inorg. Chem.</i> <b>41</b>, 1--19. 
 
Parkin, S. & Hope, H. (1998). 
  <i>J. Appl. Cryst.</i> <b>31</b>, 945--953. 
 
Parkin, S. (2000). 
  <i>Acta Cryst.</i> A<b>56</b>, 157--162. 
 
Parkin, S. (2013). 
  <i>CIFFIX</i>, http://xray.uky.edu/people/parkin/programs/ciffix 
 
Sheldrick, G.M. (2008a). 
  <i>Acta Cryst.</i> A<b>64</b>, 112--122. 
 
Sheldrick, G.M. (2008b). 
  <i>SADABS</i> University of G\"ottingen, Germany. 
 
Spek, A.L. (2009). 
  <i>Acta Cryst.</i> D<b>65</b>, 148--155. 
; 
 
_chemical_name_systematic         ? 
_chemical_name_common             ? 
_chemical_melting_point           ? 
_chemical_formula_moiety          'C42 H52 O4 Si2' 
_chemical_formula_sum             'C42 H52 O4 Si2' 
_chemical_formula_weight          677.01 
 
loop_ 
 _atom_type_symbol 
 _atom_type_description 
 _atom_type_scat_dispersion_real 
 _atom_type_scat_dispersion_imag 
 _atom_type_scat_source 
 'C'  'C'   0.0181   0.0091 
 'International Tables Vol C Tables 4.2.6.8 and 6.1.1.4' 
 'H'  'H'   0.0000   0.0000 
 'International Tables Vol C Tables 4.2.6.8 and 6.1.1.4' 
 'O'  'O'   0.0492   0.0322 
 'International Tables Vol C Tables 4.2.6.8 and 6.1.1.4' 
 'Si'  'Si'   0.2541   0.3302 
 'International Tables Vol C Tables 4.2.6.8 and 6.1.1.4' 
 
_space_group_crystal_system       triclinic 
_space_group_IT_number            1 
_space_group_name_H-M_alt         'P 1' 
_space_group_name_Hall            'P 1' 
 
_shelx_space_group_comment 
; 
The symmetry employed for this shelxl refinement is uniquely defined 
by the following loop, which should always be used as a source of 
symmetry information in preference to the above space-group names. 
They are only intended as comments. 
; 
 
loop_ 
 _space_group_symop_operation_xyz 
 'x, y, z' 
 
_cell_length_a                    7.2815(4) 
_cell_length_b                    8.2665(4) 
_cell_length_c                    17.4661(9) 
_cell_angle_alpha                 88.946(4) 
_cell_angle_beta                  79.384(4) 
_cell_angle_gamma                 66.082(4) 
_cell_volume                      942.74(9) 
_cell_formula_units_Z             1 
_cell_measurement_temperature     90.0(2) 
_cell_measurement_reflns_used     4147 
_cell_measurement_theta_min       2.58 
_cell_measurement_theta_max       68.09 
 
_exptl_crystal_description        flake 
_exptl_crystal_colour             orange 
_exptl_crystal_density_meas       ? 
_exptl_crystal_density_method     ? 
_exptl_crystal_density_diffrn     1.192 
_exptl_crystal_F_000              364 
_exptl_transmission_factor_min    ? 
_exptl_transmission_factor_max    ? 
_exptl_crystal_size_max           0.180 
_exptl_crystal_size_mid           0.080 
_exptl_crystal_size_min           0.020 
_exptl_absorpt_coefficient_mu     1.163 
_shelx_estimated_absorpt_T_min    0.818 
_shelx_estimated_absorpt_T_max    0.977 
_exptl_absorpt_correction_type    multi-scan 
_exptl_absorpt_correction_T_min   0.607 
_exptl_absorpt_correction_T_max   0.907 
_exptl_absorpt_process_details    '<i>SADABS</i> (Sheldrick, 2008b)' 
_exptl_absorpt_special_details    ? 
_diffrn_ambient_temperature       90.0(2) 
_diffrn_radiation_wavelength      1.54178 
_diffrn_radiation_type            CuK\a 
_diffrn_source                    'fine-focus rotating anode' 
_diffrn_measurement_device_type   'Bruker X8 Proteum diffractometer' 
_diffrn_measurement_method        '\f and \w scans' 
_diffrn_detector_area_resol_mean  5.6 
_diffrn_reflns_number             12722 
_diffrn_reflns_av_unetI/netI      0.0709 
_diffrn_reflns_av_R_equivalents   0.0755 
_diffrn_reflns_limit_h_min        -8 
_diffrn_reflns_limit_h_max        8 
_diffrn_reflns_limit_k_min        -9 
_diffrn_reflns_limit_k_max        5 
_diffrn_reflns_limit_l_min        -20 
_diffrn_reflns_limit_l_max        21 
_diffrn_reflns_theta_min          2.579 
_diffrn_reflns_theta_max          68.276 
_diffrn_reflns_theta_full         67.679 
_diffrn_measured_fraction_theta_max                0.976 
_diffrn_measured_fraction_theta_full               0.981 
_diffrn_reflns_Laue_measured_fraction_max          0.976 
_diffrn_reflns_Laue_measured_fraction_full         0.981 
_diffrn_reflns_point_group_measured_fraction_max   0.543 
_diffrn_reflns_point_group_measured_fraction_full  0.546 
 
_reflns_number_total              3743 
_reflns_number_gt                 2960 
_reflns_threshold_expression      'I > 2\s(I)' 
_reflns_Friedel_coverage          0.113 
_reflns_Friedel_fraction_max      0.111 
_reflns_Friedel_fraction_full     0.112 
 
_reflns_special_details 
; 
Reflections were merged by SHELXL according to the crystal 
class for the calculation of statistics and refinement. 
 
_reflns_Friedel_fraction is defined as the number of unique 
Friedel pairs measured divided by the number that would be 
possible theoretically, ignoring centric projections and 
systematic absences. 
; 
 
_computing_data_collection        '<i>APEX2</i> (Bruker-AXS, 2006)' 
_computing_cell_refinement        '<i>APEX2</i> (Bruker-AXS, 2006)' 
_computing_data_reduction         '<i>APEX2</i> (Bruker-AXS, 2006)' 
_computing_structure_solution     '<i>SHELXS-97</i> (Sheldrick, 2008a)' 
_computing_structure_refinement   '<i>SHELXL-2014/6</i> (Sheldrick, 2008a)' 
_computing_molecular_graphics     '<i>XP in SHELXTL</i> (Sheldrick, 2008a)' 
_computing_publication_material 
'<i>SHELX</i> (Sheldrick, 2008a) and <i>CIFFIX</i> (Parkin, 2013)' 
_refine_special_details 
; 
Refinement progress was checked using <i>Platon</i> (Spek, 2009) and by 
an <i>R</i>-tensor (Parkin, 2000). The final model was further checked 
with the IUCr utility <i>checkCIF</i>. 
; 
_refine_ls_structure_factor_coef  Fsqd 
_refine_ls_matrix_type            full 
_refine_ls_weighting_scheme       calc 
_refine_ls_weighting_details 
'w=1/[\s^2^(Fo^2^)+(0.1433P)^2^+0.5938P] where P=(Fo^2^+2Fc^2^)/3' 
_atom_sites_solution_primary      direct 
_atom_sites_solution_secondary    difmap 
_atom_sites_solution_hydrogens    difmap 
_refine_ls_hydrogen_treatment     constr 
_refine_ls_extinction_method      none 
_refine_ls_extinction_coef        . 
_refine_ls_abs_structure_details 
; 
 Classical Flack method preferred over Parsons because s.u. lower. 
; 
_refine_ls_abs_structure_Flack    0.14(8) 
_chemical_absolute_configuration  ? 
_refine_ls_number_reflns          3743 
_refine_ls_number_parameters      392 
_refine_ls_number_restraints      577 
_refine_ls_R_factor_all           0.0946 
_refine_ls_R_factor_gt            0.0787 
_refine_ls_wR_factor_ref          0.2373 
_refine_ls_wR_factor_gt           0.2210 
_refine_ls_goodness_of_fit_ref    1.096 
_refine_ls_restrained_S_all       1.022 
_refine_ls_shift/su_max           0.000 
_refine_ls_shift/su_mean          0.000 
 
loop_ 
 _atom_site_label 
 _atom_site_type_symbol 
 _atom_site_fract_x 
 _atom_site_fract_y 
 _atom_site_fract_z 
 _atom_site_U_iso_or_equiv 
 _atom_site_adp_type 
 _atom_site_occupancy 
 _atom_site_site_symmetry_order 
 _atom_site_calc_flag 
 _atom_site_refinement_flags_posn 
 _atom_site_refinement_flags_adp 
 _atom_site_refinement_flags_occupancy 
 _atom_site_disorder_assembly 
 _atom_site_disorder_group 
O1 O 0.0593(8) 1.4680(8) 0.4698(4) 0.0403(13) Uani 0.759(6) 1 d D U P A 1 
O2 O 0.2203(8) 1.3810(8) 0.3416(4) 0.0348(12) Uani 0.759(6) 1 d D U P A 1 
O3 O 0.8244(10) -0.1736(10) 0.5082(4) 0.0351(12) Uani 0.759(6) 1 d D U P A 1 
O4 O 0.6601(13) -0.0832(15) 0.6375(8) 0.0349(10) Uani 0.759(6) 1 d D U P A 1 
C1 C 0.4058(16) 0.5438(19) 0.5816(10) 0.0272(12) Uani 0.759(6) 1 d D U P A 1 
C2 C 0.3937(16) 0.6732(19) 0.5269(9) 0.0265(12) Uani 0.759(6) 1 d D U P A 1 
C3 C 0.2861(15) 0.8555(18) 0.5474(9) 0.0280(11) Uani 0.759(6) 1 d D U P A 1 
H3 H 0.2197 0.8921 0.6001 0.034 Uiso 0.759(6) 1 calc R U P A 1 
C4 C 0.2722(15) 0.984(2) 0.4943(8) 0.0284(11) Uani 0.759(6) 1 d D U P A 1 
C5 C 0.1609(13) 1.1701(16) 0.5179(6) 0.0351(12) Uani 0.759(6) 1 d D U P A 1 
H5 H 0.0949 1.2085 0.5706 0.042 Uiso 0.759(6) 1 calc R U P A 1 
C6 C 0.1536(10) 1.2881(11) 0.4626(5) 0.0311(15) Uani 0.759(6) 1 d D U P A 1 
C7 C 0.0948(10) 1.5338(11) 0.3947(5) 0.0369(17) Uani 0.759(6) 1 d D U P A 1 
H7A H 0.1662 1.6129 0.3964 0.044 Uiso 0.759(6) 1 calc R U P A 1 
H7B H -0.0366 1.6015 0.3777 0.044 Uiso 0.759(6) 1 calc R U P A 1 
C8 C 0.2538(10) 1.2326(11) 0.3828(5) 0.0292(17) Uani 0.759(6) 1 d D U P A 1 
C9 C 0.3575(18) 1.065(2) 0.3600(12) 0.0349(10) Uani 0.759(6) 1 d D U P A 1 
H9 H 0.4236 1.0321 0.3070 0.042 Uiso 0.759(6) 1 calc R U P A 1 
C10 C 0.3728(16) 0.929(2) 0.4142(10) 0.0281(11) Uani 0.759(6) 1 d D U P A 1 
C11 C 0.4799(15) 0.7498(19) 0.3935(8) 0.0278(13) Uani 0.759(6) 1 d D U P A 1 
H11 H 0.5466 0.7139 0.3407 0.033 Uiso 0.759(6) 1 calc R U P A 1 
C12 C 0.4945(16) 0.618(2) 0.4474(9) 0.0262(12) Uani 0.759(6) 1 d D U P A 1 
C13 C 0.6061(16) 0.4324(19) 0.4255(10) 0.0272(12) Uani 0.759(6) 1 d D U P A 1 
C14 C 0.6163(16) 0.3046(19) 0.4815(9) 0.0265(12) Uani 0.759(6) 1 d D U P A 1 
C15 C 0.7261(16) 0.1200(18) 0.4599(9) 0.0280(11) Uani 0.759(6) 1 d D U P A 1 
H15 H 0.7943 0.0790 0.4076 0.034 Uiso 0.759(6) 1 calc R U P A 1 
C16 C 0.7298(15) 0.005(2) 0.5167(8) 0.0284(11) Uani 0.759(6) 1 d D U P A 1 
C17 C 0.7872(12) -0.2382(12) 0.5841(6) 0.0304(17) Uani 0.759(6) 1 d D U P A 1 
H17A H 0.9182 -0.3058 0.6013 0.036 Uiso 0.759(6) 1 calc R U P A 1 
H17B H 0.7156 -0.3171 0.5824 0.036 Uiso 0.759(6) 1 calc R U P A 1 
C18 C 0.6317(17) 0.060(2) 0.5938(10) 0.0281(11) Uani 0.759(6) 1 d D U P A 1 
C19 C 0.5244(16) 0.2325(19) 0.6187(8) 0.0278(13) Uani 0.759(6) 1 d D U P A 1 
H19 H 0.4588 0.2667 0.6717 0.033 Uiso 0.759(6) 1 calc R U P A 1 
C20 C 0.5136(16) 0.362(2) 0.5614(9) 0.0262(12) Uani 0.759(6) 1 d D U P A 1 
O1' O 0.946(2) -0.4684(18) 0.5300(9) 0.0403(13) Uani 0.241(6) 1 d D U P A 2 
O2' O 0.784(2) -0.382(2) 0.6580(9) 0.0348(12) Uani 0.241(6) 1 d D U P A 2 
O3' O 0.176(2) 1.172(2) 0.4908(10) 0.0351(12) Uani 0.241(6) 1 d D U P A 2 
O4' O 0.342(3) 1.081(3) 0.3611(15) 0.0349(10) Uani 0.241(6) 1 d D U P A 2 
C1' C 0.599(3) 0.454(3) 0.417(2) 0.0272(12) Uani 0.241(6) 1 d D U P A 2 
C2' C 0.610(3) 0.325(3) 0.4721(19) 0.0265(12) Uani 0.241(6) 1 d D U P A 2 
C3' C 0.719(3) 0.142(3) 0.4521(17) 0.0280(11) Uani 0.241(6) 1 d D U P A 2 
H3' H 0.7863 0.1052 0.3994 0.034 Uiso 0.241(6) 1 calc R U P A 2 
C4' C 0.732(3) 0.014(3) 0.5052(15) 0.0284(11) Uani 0.241(6) 1 d D U P A 2 
C5' C 0.845(3) -0.172(2) 0.4820(11) 0.0351(12) Uani 0.241(6) 1 d D U P A 2 
H5' H 0.9128 -0.2109 0.4295 0.042 Uiso 0.241(6) 1 calc R U P A 2 
C6' C 0.851(2) -0.2889(19) 0.5378(10) 0.0311(15) Uani 0.241(6) 1 d D U P A 2 
C7' C 0.909(2) -0.535(2) 0.6049(11) 0.0369(17) Uani 0.241(6) 1 d D U P A 2 
H7'1 H 1.0397 -0.6033 0.6221 0.044 Uiso 0.241(6) 1 calc R U P A 2 
H7'2 H 0.8366 -0.6129 0.6028 0.044 Uiso 0.241(6) 1 calc R U P A 2 
C8' C 0.749(2) -0.2331(19) 0.6171(10) 0.0292(17) Uani 0.241(6) 1 d D U P A 2 
C9' C 0.645(3) -0.065(3) 0.6397(17) 0.0349(10) Uani 0.241(6) 1 d D U P A 2 
H9' H 0.5787 -0.0321 0.6927 0.042 Uiso 0.241(6) 1 calc R U P A 2 
C10' C 0.630(3) 0.070(3) 0.5852(17) 0.0281(11) Uani 0.241(6) 1 d D U P A 2 
C11' C 0.523(3) 0.249(3) 0.6055(17) 0.0278(13) Uani 0.241(6) 1 d D U P A 2 
H11' H 0.4557 0.2854 0.6582 0.033 Uiso 0.241(6) 1 calc R U P A 2 
C12' C 0.509(3) 0.380(3) 0.5514(19) 0.0262(12) Uani 0.241(6) 1 d D U P A 2 
C13' C 0.397(3) 0.566(3) 0.573(2) 0.0272(12) Uani 0.241(6) 1 d D U P A 2 
C14' C 0.387(3) 0.693(3) 0.5174(19) 0.0265(12) Uani 0.241(6) 1 d D U P A 2 
C15' C 0.276(3) 0.878(3) 0.5387(17) 0.0280(11) Uani 0.241(6) 1 d D U P A 2 
H15' H 0.2071 0.9193 0.5908 0.034 Uiso 0.241(6) 1 calc R U P A 2 
C16' C 0.272(3) 0.993(3) 0.4820(14) 0.0284(11) Uani 0.241(6) 1 d D U P A 2 
C17' C 0.216(3) 1.236(2) 0.4147(13) 0.0304(17) Uani 0.241(6) 1 d D U P A 2 
H17C H 0.2884 1.3142 0.4166 0.036 Uiso 0.241(6) 1 calc R U P A 2 
H17D H 0.0854 1.3047 0.3972 0.036 Uiso 0.241(6) 1 calc R U P A 2 
C18' C 0.372(3) 0.938(3) 0.4050(16) 0.0281(11) Uani 0.241(6) 1 d D U P A 2 
C19' C 0.479(3) 0.765(3) 0.3805(16) 0.0278(13) Uani 0.241(6) 1 d D U P A 2 
H19' H 0.5458 0.7310 0.3275 0.033 Uiso 0.241(6) 1 calc R U P A 2 
C20' C 0.490(3) 0.635(3) 0.4375(19) 0.0262(12) Uani 0.241(6) 1 d D U P A 2 
C21 C 0.2967(14) 0.6090(13) 0.6595(6) 0.0312(9) Uani 1 1 d . . . . . 
C22 C 0.2031(14) 0.6683(14) 0.7232(6) 0.0336(9) Uani 1 1 d . . . . . 
C32 C 0.7120(14) 0.3805(13) 0.3460(6) 0.0312(9) Uani 1 1 d . . . . . 
C33 C 0.8061(14) 0.3252(14) 0.2807(6) 0.0336(9) Uani 1 1 d . . . . . 
Si1 Si 0.0650(6) 0.7710(6) 0.8219(3) 0.0328(3) Uani 1 1 d D . . . . 
C23 C 0.2511(14) 0.6592(13) 0.8888(6) 0.0383(10) Uani 1 1 d D . . . . 
H23 H 0.3761 0.6801 0.8671 0.046 Uiso 1 1 calc R U . . . 
C24 C 0.3244(18) 0.4570(13) 0.8869(7) 0.0542(14) Uani 1 1 d D . . . . 
H24A H 0.4377 0.4064 0.9151 0.081 Uiso 1 1 calc R U . . . 
H24B H 0.3710 0.4084 0.8326 0.081 Uiso 1 1 calc R U . . . 
H24C H 0.2112 0.4269 0.9118 0.081 Uiso 1 1 calc R U . . . 
C25 C 0.1813(16) 0.7424(17) 0.9719(6) 0.0533(14) Uani 1 1 d D . . . . 
H25A H 0.0613 0.7226 0.9975 0.080 Uiso 1 1 calc R U . . . 
H25B H 0.1454 0.8701 0.9706 0.080 Uiso 1 1 calc R U . . . 
H25C H 0.2923 0.6881 1.0009 0.080 Uiso 1 1 calc R U . . . 
C26 C -0.1834(14) 0.7462(14) 0.8436(7) 0.0459(11) Uani 1 1 d D . . . . 
H26 H -0.2599 0.8078 0.8022 0.055 Uiso 1 1 calc R U . . . 
C27 C -0.1551(19) 0.5602(15) 0.8358(12) 0.093(3) Uani 1 1 d D . . . . 
H27A H -0.1708 0.5149 0.8877 0.139 Uiso 1 1 calc R U . . . 
H27B H -0.0178 0.4891 0.8059 0.139 Uiso 1 1 calc R U . . . 
H27C H -0.2579 0.5529 0.8085 0.139 Uiso 1 1 calc R U . . . 
C28 C -0.3215(16) 0.8341(19) 0.9202(7) 0.0631(17) Uani 1 1 d D . . . . 
H28A H -0.4551 0.8301 0.9228 0.095 Uiso 1 1 calc R U . . . 
H28B H -0.3391 0.9578 0.9243 0.095 Uiso 1 1 calc R U . . . 
H28C H -0.2598 0.7713 0.9634 0.095 Uiso 1 1 calc R U . . . 
C29 C 0.0128(14) 1.0140(12) 0.8186(6) 0.0410(10) Uani 1 1 d D . . . . 
H29 H -0.0567 1.0699 0.8723 0.049 Uiso 1 1 calc R U . . . 
C30 C -0.1329(17) 1.1106(15) 0.7630(7) 0.0508(12) Uani 1 1 d D . . . . 
H30A H -0.1680 1.2381 0.7680 0.076 Uiso 1 1 calc R U . . . 
H30B H -0.2580 1.0899 0.7765 0.076 Uiso 1 1 calc R U . . . 
H30C H -0.0654 1.0654 0.7091 0.076 Uiso 1 1 calc R U . . . 
C31 C 0.2070(17) 1.0452(16) 0.7978(8) 0.0542(12) Uani 1 1 d D . . . . 
H31A H 0.2810 0.9900 0.7457 0.081 Uiso 1 1 calc R U . . . 
H31B H 0.2939 0.9929 0.8362 0.081 Uiso 1 1 calc R U . . . 
H31C H 0.1716 1.1730 0.7980 0.081 Uiso 1 1 calc R U . . . 
Si2 Si 0.9343(6) 0.2294(6) 0.1802(3) 0.0328(3) Uani 1 1 d D . . . . 
C34 C 0.9888(14) -0.0151(12) 0.1802(6) 0.0410(10) Uani 1 1 d D . . . . 
H34 H 1.0537 -0.0685 0.1259 0.049 Uiso 1 1 calc R U . . . 
C35 C 0.7918(17) -0.0422(16) 0.2040(8) 0.0542(12) Uani 1 1 d D . . . . 
H35A H 0.8217 -0.1683 0.1967 0.081 Uiso 1 1 calc R U . . . 
H35B H 0.6938 0.0265 0.1716 0.081 Uiso 1 1 calc R U . . . 
H35C H 0.7330 -0.0023 0.2590 0.081 Uiso 1 1 calc R U . . . 
C36 C 1.1411(17) -0.1100(15) 0.2341(7) 0.0508(12) Uani 1 1 d D . . . . 
H36A H 1.0873 -0.0511 0.2866 0.076 Uiso 1 1 calc R U . . . 
H36B H 1.2732 -0.1051 0.2134 0.076 Uiso 1 1 calc R U . . . 
H36C H 1.1596 -0.2341 0.2366 0.076 Uiso 1 1 calc R U . . . 
C37 C 1.1844(14) 0.2547(14) 0.1558(7) 0.0459(11) Uani 1 1 d D . . . . 
H37 H 1.2607 0.2053 0.1989 0.055 Uiso 1 1 calc R U . . . 
C38 C 1.3175(16) 0.1505(19) 0.0805(7) 0.0631(17) Uani 1 1 d D . . . . 
H38A H 1.2381 0.1818 0.0387 0.095 Uiso 1 1 calc R U . . . 
H38B H 1.3632 0.0233 0.0878 0.095 Uiso 1 1 calc R U . . . 
H38C H 1.4369 0.1792 0.0663 0.095 Uiso 1 1 calc R U . . . 
C39 C 1.1519(19) 0.4448(15) 0.1520(12) 0.093(3) Uani 1 1 d D . . . . 
H39A H 1.2849 0.4527 0.1410 0.139 Uiso 1 1 calc R U . . . 
H39B H 1.0731 0.5090 0.2020 0.139 Uiso 1 1 calc R U . . . 
H39C H 1.0765 0.4974 0.1104 0.139 Uiso 1 1 calc R U . . . 
C40 C 0.7418(14) 0.3449(13) 0.1163(6) 0.0383(10) Uani 1 1 d D . . . . 
H40 H 0.6220 0.3156 0.1366 0.046 Uiso 1 1 calc R U . . . 
C41 C 0.6575(17) 0.5460(13) 0.1243(7) 0.0542(14) Uani 1 1 d D . . . . 
H41A H 0.7644 0.5847 0.1004 0.081 Uiso 1 1 calc R U . . . 
H41B H 0.6132 0.5861 0.1797 0.081 Uiso 1 1 calc R U . . . 
H41C H 0.5406 0.5969 0.0980 0.081 Uiso 1 1 calc R U . . . 
C42 C 0.8107(16) 0.2757(16) 0.0307(6) 0.0533(14) Uani 1 1 d D . . . . 
H42A H 0.6968 0.3317 0.0032 0.080 Uiso 1 1 calc R U . . . 
H42B H 0.8539 0.1469 0.0275 0.080 Uiso 1 1 calc R U . . . 
H42C H 0.9257 0.3041 0.0066 0.080 Uiso 1 1 calc R U . . . 
 
loop_ 
 _atom_site_aniso_label 
 _atom_site_aniso_U_11 
 _atom_site_aniso_U_22 
 _atom_site_aniso_U_33 
 _atom_site_aniso_U_23 
 _atom_site_aniso_U_13 
 _atom_site_aniso_U_12 
O1 0.042(3) 0.029(2) 0.034(3) 0.0080(19) -0.001(2) -0.002(2) 
O2 0.030(2) 0.034(2) 0.032(2) 0.0130(19) -0.0072(19) -0.0048(19) 
O3 0.039(2) 0.0315(17) 0.026(3) 0.008(2) -0.009(2) -0.0040(14) 
O4 0.0296(18) 0.034(2) 0.0283(16) 0.0105(15) -0.0021(15) -0.0021(16) 
C1 0.0168(17) 0.032(3) 0.024(3) 0.0078(18) -0.0071(13) 0.0004(16) 
C2 0.0175(16) 0.033(2) 0.022(3) 0.0085(17) -0.0075(13) -0.0015(16) 
C3 0.0200(17) 0.031(2) 0.023(3) 0.0071(17) -0.0061(14) 0.0002(16) 
C4 0.0216(16) 0.0311(18) 0.026(3) 0.0078(16) -0.0083(15) -0.0027(13) 
C5 0.039(2) 0.0315(17) 0.026(3) 0.008(2) -0.009(2) -0.0040(14) 
C6 0.025(3) 0.032(3) 0.025(3) 0.006(2) -0.002(2) -0.002(2) 
C7 0.033(4) 0.034(3) 0.033(3) 0.012(2) -0.005(3) -0.003(3) 
C8 0.025(4) 0.031(3) 0.022(3) 0.008(2) -0.006(3) -0.002(2) 
C9 0.0296(18) 0.034(2) 0.0283(16) 0.0105(15) -0.0021(15) -0.0021(16) 
C10 0.0216(16) 0.0331(19) 0.024(3) 0.0095(15) -0.0085(13) -0.0046(13) 
C11 0.0220(17) 0.033(2) 0.023(3) 0.0104(18) -0.0085(16) -0.0041(14) 
C12 0.0174(16) 0.032(2) 0.022(3) 0.0077(17) -0.0071(14) -0.0010(15) 
C13 0.0168(17) 0.032(3) 0.024(3) 0.0078(18) -0.0071(13) 0.0004(16) 
C14 0.0175(16) 0.033(2) 0.022(3) 0.0085(17) -0.0075(13) -0.0015(16) 
C15 0.0200(17) 0.031(2) 0.023(3) 0.0071(17) -0.0061(14) 0.0002(16) 
C16 0.0216(16) 0.0311(18) 0.026(3) 0.0078(16) -0.0083(15) -0.0027(13) 
C17 0.018(3) 0.035(3) 0.032(4) 0.013(3) -0.009(3) -0.003(3) 
C18 0.0216(16) 0.0331(19) 0.024(3) 0.0095(15) -0.0085(13) -0.0046(13) 
C19 0.0220(17) 0.033(2) 0.023(3) 0.0104(18) -0.0085(16) -0.0041(14) 
C20 0.0174(16) 0.032(2) 0.022(3) 0.0077(17) -0.0071(14) -0.0010(15) 
O1' 0.042(3) 0.029(2) 0.034(3) 0.0080(19) -0.001(2) -0.002(2) 
O2' 0.030(2) 0.034(2) 0.032(2) 0.0130(19) -0.0072(19) -0.0048(19) 
O3' 0.039(2) 0.0315(17) 0.026(3) 0.008(2) -0.009(2) -0.0040(14) 
O4' 0.0296(18) 0.034(2) 0.0283(16) 0.0105(15) -0.0021(15) -0.0021(16) 
C1' 0.0168(17) 0.032(3) 0.024(3) 0.0078(18) -0.0071(13) 0.0004(16) 
C2' 0.0175(16) 0.033(2) 0.022(3) 0.0085(17) -0.0075(13) -0.0015(16) 
C3' 0.0200(17) 0.031(2) 0.023(3) 0.0071(17) -0.0061(14) 0.0002(16) 
C4' 0.0216(16) 0.0311(18) 0.026(3) 0.0078(16) -0.0083(15) -0.0027(13) 
C5' 0.039(2) 0.0315(17) 0.026(3) 0.008(2) -0.009(2) -0.0040(14) 
C6' 0.025(3) 0.032(3) 0.025(3) 0.006(2) -0.002(2) -0.002(2) 
C7' 0.033(4) 0.034(3) 0.033(3) 0.012(2) -0.005(3) -0.003(3) 
C8' 0.025(4) 0.031(3) 0.022(3) 0.008(2) -0.006(3) -0.002(2) 
C9' 0.0296(18) 0.034(2) 0.0283(16) 0.0105(15) -0.0021(15) -0.0021(16) 
C10' 0.0216(16) 0.0331(19) 0.024(3) 0.0095(15) -0.0085(13) -0.0046(13) 
C11' 0.0220(17) 0.033(2) 0.023(3) 0.0104(18) -0.0085(16) -0.0041(14) 
C12' 0.0174(16) 0.032(2) 0.022(3) 0.0077(17) -0.0071(14) -0.0010(15) 
C13' 0.0168(17) 0.032(3) 0.024(3) 0.0078(18) -0.0071(13) 0.0004(16) 
C14' 0.0175(16) 0.033(2) 0.022(3) 0.0085(17) -0.0075(13) -0.0015(16) 
C15' 0.0200(17) 0.031(2) 0.023(3) 0.0071(17) -0.0061(14) 0.0002(16) 
C16' 0.0216(16) 0.0311(18) 0.026(3) 0.0078(16) -0.0083(15) -0.0027(13) 
C17' 0.018(3) 0.035(3) 0.032(4) 0.013(3) -0.009(3) -0.003(3) 
C18' 0.0216(16) 0.0331(19) 0.024(3) 0.0095(15) -0.0085(13) -0.0046(13) 
C19' 0.0220(17) 0.033(2) 0.023(3) 0.0104(18) -0.0085(16) -0.0041(14) 
C20' 0.0174(16) 0.032(2) 0.022(3) 0.0077(17) -0.0071(14) -0.0010(15) 
C21 0.0181(17) 0.032(2) 0.032(2) 0.0028(16) -0.0049(15) 0.0011(14) 
C22 0.0213(17) 0.037(2) 0.035(2) 0.0089(17) -0.0072(16) -0.0038(15) 
C32 0.0181(17) 0.032(2) 0.032(2) 0.0028(16) -0.0049(15) 0.0011(14) 
C33 0.0213(17) 0.037(2) 0.035(2) 0.0089(17) -0.0072(16) -0.0038(15) 
Si1 0.0185(5) 0.0421(6) 0.0279(6) 0.0041(4) -0.0032(4) -0.0033(4) 
C23 0.0223(19) 0.047(2) 0.037(2) 0.0068(18) -0.0035(16) -0.0066(17) 
C24 0.055(3) 0.051(3) 0.057(3) 0.019(2) -0.028(3) -0.016(2) 
C25 0.037(2) 0.082(4) 0.033(2) 0.008(2) -0.0138(19) -0.012(3) 
C26 0.027(2) 0.054(3) 0.049(3) 0.005(2) -0.0049(18) -0.0106(19) 
C27 0.029(3) 0.058(4) 0.181(9) 0.017(4) -0.008(4) -0.012(2) 
C28 0.026(2) 0.117(5) 0.043(3) 0.009(3) -0.004(2) -0.027(3) 
C29 0.031(2) 0.042(2) 0.033(2) 0.0019(18) -0.0089(17) 0.0027(17) 
C30 0.044(3) 0.047(3) 0.047(3) 0.008(2) -0.015(2) -0.002(2) 
C31 0.049(3) 0.044(3) 0.067(3) 0.010(2) -0.018(2) -0.015(2) 
Si2 0.0185(5) 0.0421(6) 0.0279(6) 0.0041(4) -0.0032(4) -0.0033(4) 
C34 0.031(2) 0.042(2) 0.033(2) 0.0019(18) -0.0089(17) 0.0027(17) 
C35 0.049(3) 0.044(3) 0.067(3) 0.010(2) -0.018(2) -0.015(2) 
C36 0.044(3) 0.047(3) 0.047(3) 0.008(2) -0.015(2) -0.002(2) 
C37 0.027(2) 0.054(3) 0.049(3) 0.005(2) -0.0049(18) -0.0106(19) 
C38 0.026(2) 0.117(5) 0.043(3) 0.009(3) -0.004(2) -0.027(3) 
C39 0.029(3) 0.058(4) 0.181(9) 0.017(4) -0.008(4) -0.012(2) 
C40 0.0223(19) 0.047(2) 0.037(2) 0.0068(18) -0.0035(16) -0.0066(17) 
C41 0.055(3) 0.051(3) 0.057(3) 0.019(2) -0.028(3) -0.016(2) 
C42 0.037(2) 0.082(4) 0.033(2) 0.008(2) -0.0138(19) -0.012(3) 
 
_geom_special_details 
; 
 All esds (except the esd in the dihedral angle between two l.s. planes) 
 are estimated using the full covariance matrix.  The cell esds are taken 
 into account individually in the estimation of esds in distances, angles 
 and torsion angles; correlations between esds in cell parameters are only 
 used when they are defined by crystal symmetry.  An approximate (isotropic) 
 treatment of cell esds is used for estimating esds involving l.s. planes. 
; 
 
loop_ 
 _geom_bond_atom_site_label_1 
 _geom_bond_atom_site_label_2 
 _geom_bond_distance 
 _geom_bond_site_symmetry_2 
 _geom_bond_publ_flag 
O1 C6 1.359(9) . ? 
O1 C7 1.431(9) . ? 
O2 C8 1.368(9) . ? 
O2 C7 1.444(10) . ? 
O3 C16 1.350(16) . ? 
O3 C17 1.440(10) . ? 
O4 C18 1.362(17) . ? 
O4 C17 1.460(15) . ? 
C1 C20 1.398(18) . ? 
C1 C2 1.409(15) . ? 
C1 C21 1.433(18) . ? 
C2 C3 1.405(18) . ? 
C2 C12 1.432(15) . ? 
C3 C4 1.383(15) . ? 
C3 H3 0.9500 . ? 
C4 C5 1.441(17) . ? 
C4 C10 1.442(18) . ? 
C5 C6 1.353(11) . ? 
C5 H5 0.9500 . ? 
C6 C8 1.436(11) . ? 
C7 H7A 0.9900 . ? 
C7 H7B 0.9900 . ? 
C8 C9 1.31(2) . ? 
C9 C10 1.44(2) . ? 
C9 H9 0.9500 . ? 
C10 C11 1.383(19) . ? 
C11 C12 1.409(14) . ? 
C11 H11 0.9500 . ? 
C12 C13 1.435(18) . ? 
C13 C14 1.416(14) . ? 
C13 C32 1.437(17) . ? 
C14 C15 1.425(18) . ? 
C14 C20 1.444(15) . ? 
C15 C16 1.357(15) . ? 
C15 H15 0.9500 . ? 
C16 C18 1.392(18) . ? 
C17 H17A 0.9900 . ? 
C17 H17B 0.9900 . ? 
C18 C19 1.350(19) . ? 
C19 C20 1.442(14) . ? 
C19 H19 0.9500 . ? 
O1' C6' 1.357(12) . ? 
O1' C7' 1.431(12) . ? 
O2' C8' 1.366(12) . ? 
O2' C7' 1.443(12) . ? 
O3' C16' 1.352(18) . ? 
O3' C17' 1.443(13) . ? 
O4' C18' 1.36(2) . ? 
O4' C17' 1.461(18) . ? 
C1' C32 1.36(4) . ? 
C1' C20' 1.40(2) . ? 
C1' C2' 1.408(17) . ? 
C2' C3' 1.41(2) . ? 
C2' C12' 1.432(18) . ? 
C3' C4' 1.382(17) . ? 
C3' H3' 0.9500 . ? 
C4' C5' 1.441(19) . ? 
C4' C10' 1.44(2) . ? 
C5' C6' 1.354(14) . ? 
C5' H5' 0.9500 . ? 
C6' C8' 1.432(13) . ? 
C7' H7'1 0.9900 . ? 
C7' H7'2 0.9900 . ? 
C8' C9' 1.31(2) . ? 
C9' C10' 1.44(2) . ? 
C9' H9' 0.9500 . ? 
C10' C11' 1.38(2) . ? 
C11' C12' 1.410(16) . ? 
C11' H11' 0.9500 . ? 
C12' C13' 1.43(2) . ? 
C13' C14' 1.414(17) . ? 
C13' C21 1.53(4) . ? 
C14' C15' 1.42(2) . ? 
C14' C20' 1.446(18) . ? 
C15' C16' 1.357(17) . ? 
C15' H15' 0.9500 . ? 
C16' C18' 1.39(2) . ? 
C17' H17C 0.9900 . ? 
C17' H17D 0.9900 . ? 
C18' C19' 1.35(2) . ? 
C19' C20' 1.441(16) . ? 
C19' H19' 0.9500 . ? 
C21 C22 1.189(13) . ? 
C22 Si1 1.851(10) . ? 
C32 C33 1.207(13) . ? 
C33 Si2 1.851(10) . ? 
Si1 C26 1.871(8) . ? 
Si1 C29 1.889(8) . ? 
Si1 C23 1.893(8) . ? 
C23 C25 1.522(10) . ? 
C23 C24 1.534(11) . ? 
C23 H23 1.0000 . ? 
C24 H24A 0.9800 . ? 
C24 H24B 0.9800 . ? 
C24 H24C 0.9800 . ? 
C25 H25A 0.9800 . ? 
C25 H25B 0.9800 . ? 
C25 H25C 0.9800 . ? 
C26 C27 1.472(11) . ? 
C26 C28 1.509(10) . ? 
C26 H26 1.0000 . ? 
C27 H27A 0.9800 . ? 
C27 H27B 0.9800 . ? 
C27 H27C 0.9800 . ? 
C28 H28A 0.9800 . ? 
C28 H28B 0.9800 . ? 
C28 H28C 0.9800 . ? 
C29 C31 1.517(11) . ? 
C29 C30 1.540(9) . ? 
C29 H29 1.0000 . ? 
C30 H30A 0.9800 . ? 
C30 H30B 0.9800 . ? 
C30 H30C 0.9800 . ? 
C31 H31A 0.9800 . ? 
C31 H31B 0.9800 . ? 
C31 H31C 0.9800 . ? 
Si2 C37 1.887(8) . ? 
Si2 C40 1.890(8) . ? 
Si2 C34 1.895(8) . ? 
C34 C35 1.523(11) . ? 
C34 C36 1.544(9) . ? 
C34 H34 1.0000 . ? 
C35 H35A 0.9800 . ? 
C35 H35B 0.9800 . ? 
C35 H35C 0.9800 . ? 
C36 H36A 0.9800 . ? 
C36 H36B 0.9800 . ? 
C36 H36C 0.9800 . ? 
C37 C39 1.493(12) . ? 
C37 C38 1.520(11) . ? 
C37 H37 1.0000 . ? 
C38 H38A 0.9800 . ? 
C38 H38B 0.9800 . ? 
C38 H38C 0.9800 . ? 
C39 H39A 0.9800 . ? 
C39 H39B 0.9800 . ? 
C39 H39C 0.9800 . ? 
C40 C41 1.519(10) . ? 
C40 C42 1.529(10) . ? 
C40 H40 1.0000 . ? 
C41 H41A 0.9800 . ? 
C41 H41B 0.9800 . ? 
C41 H41C 0.9800 . ? 
C42 H42A 0.9800 . ? 
C42 H42B 0.9800 . ? 
C42 H42C 0.9800 . ? 
 
loop_ 
 _geom_angle_atom_site_label_1 
 _geom_angle_atom_site_label_2 
 _geom_angle_atom_site_label_3 
 _geom_angle 
 _geom_angle_site_symmetry_1 
 _geom_angle_site_symmetry_3 
 _geom_angle_publ_flag 
C6 O1 C7 108.3(6) . . ? 
C8 O2 C7 108.0(6) . . ? 
C16 O3 C17 106.7(8) . . ? 
C18 O4 C17 105.9(11) . . ? 
C20 C1 C2 122.4(13) . . ? 
C20 C1 C21 121.6(10) . . ? 
C2 C1 C21 116.0(11) . . ? 
C3 C2 C1 122.3(13) . . ? 
C3 C2 C12 118.4(10) . . ? 
C1 C2 C12 119.3(11) . . ? 
C4 C3 C2 123.1(13) . . ? 
C4 C3 H3 118.5 . . ? 
C2 C3 H3 118.5 . . ? 
C3 C4 C5 121.3(12) . . ? 
C3 C4 C10 118.5(12) . . ? 
C5 C4 C10 120.2(10) . . ? 
C6 C5 C4 117.8(10) . . ? 
C6 C5 H5 121.1 . . ? 
C4 C5 H5 121.1 . . ? 
C5 C6 O1 129.1(9) . . ? 
C5 C6 C8 121.9(8) . . ? 
O1 C6 C8 109.1(6) . . ? 
O1 C7 O2 106.6(6) . . ? 
O1 C7 H7A 110.4 . . ? 
O2 C7 H7A 110.4 . . ? 
O1 C7 H7B 110.4 . . ? 
O2 C7 H7B 110.4 . . ? 
H7A C7 H7B 108.6 . . ? 
C9 C8 O2 130.4(12) . . ? 
C9 C8 C6 121.5(11) . . ? 
O2 C8 C6 108.1(7) . . ? 
C8 C9 C10 120.9(16) . . ? 
C8 C9 H9 119.5 . . ? 
C10 C9 H9 119.5 . . ? 
C11 C10 C9 123.4(14) . . ? 
C11 C10 C4 118.8(11) . . ? 
C9 C10 C4 117.7(13) . . ? 
C10 C11 C12 122.8(12) . . ? 
C10 C11 H11 118.6 . . ? 
C12 C11 H11 118.6 . . ? 
C11 C12 C2 118.3(11) . . ? 
C11 C12 C13 122.5(12) . . ? 
C2 C12 C13 119.2(10) . . ? 
C14 C13 C12 120.6(12) . . ? 
C14 C13 C32 121.1(11) . . ? 
C12 C13 C32 118.2(9) . . ? 
C13 C14 C15 120.8(12) . . ? 
C13 C14 C20 119.5(11) . . ? 
C15 C14 C20 119.7(10) . . ? 
C16 C15 C14 117.6(13) . . ? 
C16 C15 H15 121.2 . . ? 
C14 C15 H15 121.2 . . ? 
O3 C16 C15 126.7(12) . . ? 
O3 C16 C18 110.5(10) . . ? 
C15 C16 C18 122.8(13) . . ? 
O3 C17 O4 106.9(8) . . ? 
O3 C17 H17A 110.3 . . ? 
O4 C17 H17A 110.3 . . ? 
O3 C17 H17B 110.3 . . ? 
O4 C17 H17B 110.3 . . ? 
H17A C17 H17B 108.6 . . ? 
C19 C18 O4 127.0(13) . . ? 
C19 C18 C16 123.0(11) . . ? 
O4 C18 C16 110.0(13) . . ? 
C18 C19 C20 117.2(12) . . ? 
C18 C19 H19 121.4 . . ? 
C20 C19 H19 121.4 . . ? 
C1 C20 C19 121.4(12) . . ? 
C1 C20 C14 119.0(10) . . ? 
C19 C20 C14 119.6(11) . . ? 
C6' O1' C7' 107.9(10) . . ? 
C8' O2' C7' 108.3(10) . . ? 
C16' O3' C17' 106.2(12) . . ? 
C18' O4' C17' 105.7(15) . . ? 
C32 C1' C20' 125.9(16) . . ? 
C32 C1' C2' 111.9(16) . . ? 
C20' C1' C2' 122.1(17) . . ? 
C3' C2' C1' 122.4(17) . . ? 
C3' C2' C12' 118.3(14) . . ? 
C1' C2' C12' 119.3(15) . . ? 
C4' C3' C2' 123.2(18) . . ? 
C4' C3' H3' 118.4 . . ? 
C2' C3' H3' 118.4 . . ? 
C3' C4' C5' 121.3(16) . . ? 
C3' C4' C10' 118.6(16) . . ? 
C5' C4' C10' 120.1(14) . . ? 
C6' C5' C4' 117.5(14) . . ? 
C6' C5' H5' 121.2 . . ? 
C4' C5' H5' 121.2 . . ? 
C5' C6' O1' 128.2(13) . . ? 
C5' C6' C8' 122.2(12) . . ? 
O1' C6' C8' 109.6(10) . . ? 
O1' C7' O2' 106.5(10) . . ? 
O1' C7' H7'1 110.4 . . ? 
O2' C7' H7'1 110.4 . . ? 
O1' C7' H7'2 110.4 . . ? 
O2' C7' H7'2 110.4 . . ? 
H7'1 C7' H7'2 108.6 . . ? 
C9' C8' O2' 130.8(16) . . ? 
C9' C8' C6' 121.5(15) . . ? 
O2' C8' C6' 107.7(10) . . ? 
C8' C9' C10' 121(2) . . ? 
C8' C9' H9' 119.7 . . ? 
C10' C9' H9' 119.7 . . ? 
C11' C10' C9' 123.4(18) . . ? 
C11' C10' C4' 118.7(15) . . ? 
C9' C10' C4' 117.9(17) . . ? 
C10' C11' C12' 122.9(17) . . ? 
C10' C11' H11' 118.5 . . ? 
C12' C11' H11' 118.5 . . ? 
C11' C12' C2' 118.4(15) . . ? 
C11' C12' C13' 122.3(16) . . ? 
C2' C12' C13' 119.4(13) . . ? 
C14' C13' C12' 120.5(16) . . ? 
C14' C13' C21 124.8(16) . . ? 
C12' C13' C21 114.7(14) . . ? 
C13' C14' C15' 121.0(16) . . ? 
C13' C14' C20' 119.4(15) . . ? 
C15' C14' C20' 119.7(14) . . ? 
C16' C15' C14' 117.9(17) . . ? 
C16' C15' H15' 121.1 . . ? 
C14' C15' H15' 121.1 . . ? 
O3' C16' C15' 126.5(16) . . ? 
O3' C16' C18' 110.9(13) . . ? 
C15' C16' C18' 122.6(17) . . ? 
O3' C17' O4' 107.3(12) . . ? 
O3' C17' H17C 110.3 . . ? 
O4' C17' H17C 110.3 . . ? 
O3' C17' H17D 110.3 . . ? 
O4' C17' H17D 110.3 . . ? 
H17C C17' H17D 108.5 . . ? 
C19' C18' O4' 127.1(18) . . ? 
C19' C18' C16' 122.9(16) . . ? 
O4' C18' C16' 110.0(16) . . ? 
C18' C19' C20' 117.5(16) . . ? 
C18' C19' H19' 121.2 . . ? 
C20' C19' H19' 121.2 . . ? 
C1' C20' C19' 121.3(16) . . ? 
C1' C20' C14' 119.3(14) . . ? 
C19' C20' C14' 119.4(15) . . ? 
C22 C21 C1 177.9(10) . . ? 
C22 C21 C13' 169.9(12) . . ? 
C21 C22 Si1 176.4(10) . . ? 
C33 C32 C1' 175.8(14) . . ? 
C33 C32 C13 175.6(10) . . ? 
C32 C33 Si2 174.5(10) . . ? 
C22 Si1 C26 108.8(5) . . ? 
C22 Si1 C29 106.5(5) . . ? 
C26 Si1 C29 109.5(4) . . ? 
C22 Si1 C23 105.1(4) . . ? 
C26 Si1 C23 116.1(4) . . ? 
C29 Si1 C23 110.4(4) . . ? 
C25 C23 C24 112.0(8) . . ? 
C25 C23 Si1 114.2(6) . . ? 
C24 C23 Si1 114.0(7) . . ? 
C25 C23 H23 105.2 . . ? 
C24 C23 H23 105.2 . . ? 
Si1 C23 H23 105.2 . . ? 
C23 C24 H24A 109.5 . . ? 
C23 C24 H24B 109.5 . . ? 
H24A C24 H24B 109.5 . . ? 
C23 C24 H24C 109.5 . . ? 
H24A C24 H24C 109.5 . . ? 
H24B C24 H24C 109.5 . . ? 
C23 C25 H25A 109.5 . . ? 
C23 C25 H25B 109.5 . . ? 
H25A C25 H25B 109.5 . . ? 
C23 C25 H25C 109.5 . . ? 
H25A C25 H25C 109.5 . . ? 
H25B C25 H25C 109.5 . . ? 
C27 C26 C28 110.7(10) . . ? 
C27 C26 Si1 112.4(7) . . ? 
C28 C26 Si1 115.4(7) . . ? 
C27 C26 H26 105.8 . . ? 
C28 C26 H26 105.8 . . ? 
Si1 C26 H26 105.8 . . ? 
C26 C27 H27A 109.5 . . ? 
C26 C27 H27B 109.5 . . ? 
H27A C27 H27B 109.5 . . ? 
C26 C27 H27C 109.5 . . ? 
H27A C27 H27C 109.5 . . ? 
H27B C27 H27C 109.5 . . ? 
C26 C28 H28A 109.5 . . ? 
C26 C28 H28B 109.5 . . ? 
H28A C28 H28B 109.5 . . ? 
C26 C28 H28C 109.5 . . ? 
H28A C28 H28C 109.5 . . ? 
H28B C28 H28C 109.5 . . ? 
C31 C29 C30 109.7(8) . . ? 
C31 C29 Si1 112.8(6) . . ? 
C30 C29 Si1 112.6(7) . . ? 
C31 C29 H29 107.1 . . ? 
C30 C29 H29 107.1 . . ? 
Si1 C29 H29 107.1 . . ? 
C29 C30 H30A 109.5 . . ? 
C29 C30 H30B 109.5 . . ? 
H30A C30 H30B 109.5 . . ? 
C29 C30 H30C 109.5 . . ? 
H30A C30 H30C 109.5 . . ? 
H30B C30 H30C 109.5 . . ? 
C29 C31 H31A 109.5 . . ? 
C29 C31 H31B 109.5 . . ? 
H31A C31 H31B 109.5 . . ? 
C29 C31 H31C 109.5 . . ? 
H31A C31 H31C 109.5 . . ? 
H31B C31 H31C 109.5 . . ? 
C33 Si2 C37 108.6(5) . . ? 
C33 Si2 C40 105.8(4) . . ? 
C37 Si2 C40 116.1(4) . . ? 
C33 Si2 C34 106.8(5) . . ? 
C37 Si2 C34 109.2(4) . . ? 
C40 Si2 C34 110.0(4) . . ? 
C35 C34 C36 111.0(8) . . ? 
C35 C34 Si2 111.1(6) . . ? 
C36 C34 Si2 110.5(7) . . ? 
C35 C34 H34 108.0 . . ? 
C36 C34 H34 108.0 . . ? 
Si2 C34 H34 108.0 . . ? 
C34 C35 H35A 109.5 . . ? 
C34 C35 H35B 109.5 . . ? 
H35A C35 H35B 109.5 . . ? 
C34 C35 H35C 109.5 . . ? 
H35A C35 H35C 109.5 . . ? 
H35B C35 H35C 109.5 . . ? 
C34 C36 H36A 109.5 . . ? 
C34 C36 H36B 109.5 . . ? 
H36A C36 H36B 109.5 . . ? 
C34 C36 H36C 109.5 . . ? 
H36A C36 H36C 109.5 . . ? 
H36B C36 H36C 109.5 . . ? 
C39 C37 C38 110.2(10) . . ? 
C39 C37 Si2 111.9(7) . . ? 
C38 C37 Si2 112.0(7) . . ? 
C39 C37 H37 107.5 . . ? 
C38 C37 H37 107.5 . . ? 
Si2 C37 H37 107.5 . . ? 
C37 C38 H38A 109.5 . . ? 
C37 C38 H38B 109.5 . . ? 
H38A C38 H38B 109.5 . . ? 
C37 C38 H38C 109.5 . . ? 
H38A C38 H38C 109.5 . . ? 
H38B C38 H38C 109.5 . . ? 
C37 C39 H39A 109.5 . . ? 
C37 C39 H39B 109.5 . . ? 
H39A C39 H39B 109.5 . . ? 
C37 C39 H39C 109.5 . . ? 
H39A C39 H39C 109.5 . . ? 
H39B C39 H39C 109.5 . . ? 
C41 C40 C42 111.5(8) . . ? 
C41 C40 Si2 114.0(6) . . ? 
C42 C40 Si2 114.7(6) . . ? 
C41 C40 H40 105.2 . . ? 
C42 C40 H40 105.2 . . ? 
Si2 C40 H40 105.2 . . ? 
C40 C41 H41A 109.5 . . ? 
C40 C41 H41B 109.5 . . ? 
H41A C41 H41B 109.5 . . ? 
C40 C41 H41C 109.5 . . ? 
H41A C41 H41C 109.5 . . ? 
H41B C41 H41C 109.5 . . ? 
C40 C42 H42A 109.5 . . ? 
C40 C42 H42B 109.5 . . ? 
H42A C42 H42B 109.5 . . ? 
C40 C42 H42C 109.5 . . ? 
H42A C42 H42C 109.5 . . ? 
H42B C42 H42C 109.5 . . ? 
 
_refine_diff_density_max    0.728 
_refine_diff_density_min   -0.773 
_refine_diff_density_rms    0.082 
 
_shelxl_version_number 2014/6 
 
_iucr_refine_instructions_details 
; 
TITL x14412_b.res in P1 
CELL  1.54178   7.2815   8.2665  17.4661   88.946   79.384   66.082 
ZERR    1.000   0.0004   0.0004   0.0009    0.004    0.004    0.004 
LATT -1 
SFAC C H O SI 
UNIT 42 52 4 2 
SIZE 0.18 0.08 0.02 
TEMP -183 
REM COLR orange 
REM FORM flake 
L.S. 10 
BOND $H 
ACTA 
LIST 4 
FMAP 2 
PLAN 20 
EADP O1 O1' 
EADP O2 O2' 
EADP C1 C1' C13 C13' 
EADP C2 C2' C14 C14' 
EADP C3 C3' C15 C15' 
EADP C4 C4' C16 C16' 
EADP C5 C5' O3 O3' 
EADP C6 C6' 
EADP C7 C7' 
EADP C8 C8' 
EADP C9 C9' O4 O4' 
EADP C10 C10' C18 C18' 
EADP C11 C11' C19 C19' 
EADP C12 C12' C20 C20' 
EADP C17 C17' 
SAME 0.010 O1' > C20' 
RIGU O1 > C20' 
FLAT O1 > C20 
FLAT O1' > C20' 
WGHT    0.143300    0.593800 
FVAR       0.20205   0.75917 
PART 1 
O1    3    0.059348    1.467980    0.469782    21.00000    0.04215    0.02927 = 
         0.03417    0.00803   -0.00068   -0.00217 
O2    3    0.220273    1.380977    0.341626    21.00000    0.02998    0.03439 = 
         0.03166    0.01303   -0.00724   -0.00478 
O3    3    0.824380   -0.173573    0.508175    21.00000    0.03895    0.03148 = 
         0.02567    0.00825   -0.00934   -0.00398 
O4    3    0.660100   -0.083201    0.637476    21.00000    0.02963    0.03407 = 
         0.02830    0.01050   -0.00211   -0.00211 
C1    1    0.405815    0.543828    0.581641    21.00000    0.01676    0.03184 = 
         0.02384    0.00777   -0.00710    0.00035 
C2    1    0.393713    0.673214    0.526865    21.00000    0.01751    0.03260 = 
         0.02184    0.00853   -0.00748   -0.00150 
C3    1    0.286075    0.855543    0.547365    21.00000    0.01996    0.03091 = 
         0.02337    0.00715   -0.00612    0.00015 
AFIX  43 
H3    2    0.219700    0.892127    0.600146    21.00000   -1.20000 
AFIX   0 
C4    1    0.272178    0.984326    0.494315    21.00000    0.02165    0.03105 = 
         0.02576    0.00783   -0.00826   -0.00270 
C5    1    0.160912    1.170102    0.517932    21.00000    0.03895    0.03148 = 
         0.02567    0.00825   -0.00934   -0.00398 
AFIX  43 
H5    2    0.094913    1.208480    0.570615    21.00000   -1.20000 
AFIX   0 
C6    1    0.153561    1.288068    0.462573    21.00000    0.02532    0.03156 = 
         0.02491    0.00619   -0.00156   -0.00171 
C7    1    0.094809    1.533843    0.394672    21.00000    0.03264    0.03427 = 
         0.03266    0.01226   -0.00512   -0.00335 
AFIX  23 
H7A   2    0.166194    1.612900    0.396395    21.00000   -1.20000 
H7B   2   -0.036571    1.601530    0.377723    21.00000   -1.20000 
AFIX   0 
C8    1    0.253812    1.232556    0.382790    21.00000    0.02517    0.03105 = 
         0.02192    0.00828   -0.00586   -0.00164 
C9    1    0.357537    1.064618    0.360038    21.00000    0.02963    0.03407 = 
         0.02830    0.01050   -0.00211   -0.00211 
AFIX  43 
H9    2    0.423563    1.032054    0.306979    21.00000   -1.20000 
AFIX   0 
C10   1    0.372838    0.929019    0.414195    21.00000    0.02162    0.03307 = 
         0.02446    0.00948   -0.00846   -0.00455 
C11   1    0.479946    0.749800    0.393504    21.00000    0.02195    0.03277 = 
         0.02312    0.01037   -0.00845   -0.00409 
AFIX  43 
H11   2    0.546584    0.713879    0.340702    21.00000   -1.20000 
AFIX   0 
C12   1    0.494495    0.618185    0.447362    21.00000    0.01744    0.03175 = 
         0.02161    0.00771   -0.00709   -0.00104 
C13   1    0.606052    0.432444    0.425481    21.00000    0.01676    0.03184 = 
         0.02384    0.00777   -0.00710    0.00035 
C14   1    0.616342    0.304633    0.481515    21.00000    0.01751    0.03260 = 
         0.02184    0.00853   -0.00748   -0.00150 
C15   1    0.726118    0.120048    0.459893    21.00000    0.01996    0.03091 = 
         0.02337    0.00715   -0.00612    0.00015 
AFIX  43 
H15   2    0.794254    0.078980    0.407635    21.00000   -1.20000 
AFIX   0 
C16   1    0.729804    0.005026    0.516670    21.00000    0.02165    0.03105 = 
         0.02576    0.00783   -0.00826   -0.00270 
C17   1    0.787176   -0.238182    0.584056    21.00000    0.01783    0.03499 = 
         0.03163    0.01299   -0.00939   -0.00258 
AFIX  23 
H17A  2    0.918152   -0.305806    0.601300    21.00000   -1.20000 
H17B  2    0.715588   -0.317113    0.582448    21.00000   -1.20000 
AFIX   0 
C18   1    0.631723    0.060209    0.593841    21.00000    0.02162    0.03307 = 
         0.02446    0.00948   -0.00846   -0.00455 
C19   1    0.524443    0.232462    0.618684    21.00000    0.02195    0.03277 = 
         0.02312    0.01037   -0.00845   -0.00409 
AFIX  43 
H19   2    0.458779    0.266710    0.671685    21.00000   -1.20000 
AFIX   0 
C20   1    0.513630    0.362352    0.561443    21.00000    0.01744    0.03175 = 
         0.02161    0.00771   -0.00709   -0.00104 
PART 2 
O1'   3    0.945943   -0.468443    0.530044   -21.00000    0.04215    0.02927 = 
         0.03417    0.00803   -0.00068   -0.00217 
O2'   3    0.783760   -0.381828    0.657974   -21.00000    0.02998    0.03439 = 
         0.03166    0.01303   -0.00724   -0.00478 
O3'   3    0.176344    1.172246    0.490757   -21.00000    0.03895    0.03148 = 
         0.02567    0.00825   -0.00934   -0.00398 
O4'   3    0.342363    1.081090    0.361147   -21.00000    0.02963    0.03407 = 
         0.02830    0.01050   -0.00211   -0.00211 
C1'   1    0.598543    0.453842    0.417111   -21.00000    0.01676    0.03184 = 
         0.02384    0.00777   -0.00710    0.00035 
C2'   1    0.610437    0.324883    0.472076   -21.00000    0.01751    0.03260 = 
         0.02184    0.00853   -0.00748   -0.00150 
C3'   1    0.718841    0.142238    0.452056   -21.00000    0.01996    0.03091 = 
         0.02337    0.00715   -0.00612    0.00015 
AFIX  43 
H3'   2    0.786262    0.105180    0.399409   -21.00000   -1.20000 
AFIX   0 
C4'   1    0.732110    0.013993    0.505217   -21.00000    0.02165    0.03105 = 
         0.02576    0.00783   -0.00826   -0.00270 
C5'   1    0.844934   -0.171929    0.482007   -21.00000    0.03895    0.03148 = 
         0.02567    0.00825   -0.00934   -0.00398 
AFIX  43 
H5'   2    0.912771   -0.210933    0.429546   -21.00000   -1.20000 
AFIX   0 
C6'   1    0.850601   -0.288877    0.537771   -21.00000    0.02532    0.03156 = 
         0.02491    0.00619   -0.00156   -0.00171 
C7'   1    0.908845   -0.534667    0.604932   -21.00000    0.03264    0.03427 = 
         0.03266    0.01226   -0.00512   -0.00335 
AFIX  23 
H7'1  2    1.039653   -0.603252    0.622126   -21.00000   -1.20000 
H7'2  2    0.836634   -0.612906    0.602782   -21.00000   -1.20000 
AFIX   0 
C8'   1    0.749210   -0.233131    0.617129   -21.00000    0.02517    0.03105 = 
         0.02192    0.00828   -0.00586   -0.00164 
C9'   1    0.645030   -0.065091    0.639723   -21.00000    0.02963    0.03407 = 
         0.02830    0.01050   -0.00211   -0.00211 
AFIX  43 
H9'   2    0.578722   -0.032101    0.692731   -21.00000   -1.20000 
AFIX   0 
C10'  1    0.630028    0.069691    0.585224   -21.00000    0.02162    0.03307 = 
         0.02446    0.00948   -0.00846   -0.00455 
C11'  1    0.522846    0.249035    0.605487   -21.00000    0.02195    0.03277 = 
         0.02312    0.01037   -0.00845   -0.00409 
AFIX  43 
H11'  2    0.455652    0.285435    0.658202   -21.00000   -1.20000 
AFIX   0 
C12'  1    0.508805    0.380281    0.551438   -21.00000    0.01744    0.03175 = 
         0.02161    0.00771   -0.00709   -0.00104 
C13'  1    0.396839    0.565862    0.573396   -21.00000    0.01676    0.03184 = 
         0.02384    0.00777   -0.00710    0.00035 
C14'  1    0.386558    0.693471    0.517423   -21.00000    0.01751    0.03260 = 
         0.02184    0.00853   -0.00748   -0.00150 
C15'  1    0.276027    0.878130    0.538666   -21.00000    0.01996    0.03091 = 
         0.02337    0.00715   -0.00612    0.00015 
AFIX  43 
H15'  2    0.207052    0.919280    0.590836   -21.00000   -1.20000 
AFIX   0 
C16'  1    0.272399    0.993392    0.482003   -21.00000    0.02165    0.03105 = 
         0.02576    0.00783   -0.00826   -0.00270 
C17'  1    0.215792    1.236111    0.414702   -21.00000    0.01783    0.03499 = 
         0.03163    0.01299   -0.00939   -0.00258 
AFIX  23 
H17C  2    0.288354    1.314171    0.416550   -21.00000   -1.20000 
H17D  2    0.085423    1.304659    0.397197   -21.00000   -1.20000 
AFIX   0 
C18'  1    0.371511    0.937843    0.405013   -21.00000    0.02162    0.03307 = 
         0.02446    0.00948   -0.00846   -0.00455 
C19'  1    0.479415    0.765300    0.380457   -21.00000    0.02195    0.03277 = 
         0.02312    0.01037   -0.00845   -0.00409 
AFIX  43 
H19'  2    0.545834    0.730968    0.327534   -21.00000   -1.20000 
AFIX   0 
C20'  1    0.490001    0.635299    0.437524   -21.00000    0.01744    0.03175 = 
         0.02161    0.00771   -0.00709   -0.00104 
PART 0 
EADP C21 C32 
EADP C22 C33 
C21   1    0.296702    0.608995    0.659534    11.00000    0.01806    0.03211 = 
         0.03225    0.00284   -0.00489    0.00108 
C22   1    0.203121    0.668345    0.723243    11.00000    0.02126    0.03656 = 
         0.03535    0.00885   -0.00720   -0.00375 
C32   1    0.711977    0.380498    0.345982    11.00000    0.01806    0.03211 = 
         0.03225    0.00284   -0.00489    0.00108 
C33   1    0.806146    0.325181    0.280679    11.00000    0.02126    0.03656 = 
         0.03535    0.00885   -0.00720   -0.00375 
EADP Si1 Si2 
EADP C23 C40 
EADP C24 C41 
EADP C25 C42 
EADP C26 C37 
EADP C27 C39 
EADP C28 C38 
EADP C29 C34 
EADP C30 C36 
EADP C31 C35 
SAME Si2 c40 c41 c42 c37 c39 c38 c34 c36 c35 
SI1   4    0.064960    0.771015    0.821930    11.00000    0.01854    0.04213 = 
         0.02792    0.00413   -0.00322   -0.00327 
C23   1    0.251145    0.659213    0.888821    11.00000    0.02235    0.04701 = 
         0.03699    0.00682   -0.00352   -0.00664 
AFIX  13 
H23   2    0.376146    0.680073    0.867066    11.00000   -1.20000 
AFIX   0 
C24   1    0.324353    0.456958    0.886921    11.00000    0.05514    0.05113 = 
         0.05746    0.01893   -0.02781   -0.01624 
AFIX 137 
H24A  2    0.437724    0.406387    0.915083    11.00000   -1.50000 
H24B  2    0.370950    0.408382    0.832634    11.00000   -1.50000 
H24C  2    0.211152    0.426903    0.911831    11.00000   -1.50000 
AFIX   0 
C25   1    0.181336    0.742405    0.971871    11.00000    0.03664    0.08165 = 
         0.03256    0.00770   -0.01383   -0.01214 
AFIX 137 
H25A  2    0.061320    0.722582    0.997519    11.00000   -1.50000 
H25B  2    0.145441    0.870090    0.970641    11.00000   -1.50000 
H25C  2    0.292302    0.688105    1.000922    11.00000   -1.50000 
AFIX   0 
C26   1   -0.183397    0.746242    0.843648    11.00000    0.02719    0.05431 = 
         0.04905    0.00511   -0.00488   -0.01064 
AFIX  13 
H26   2   -0.259922    0.807797    0.802154    11.00000   -1.20000 
AFIX   0 
C27   1   -0.155121    0.560229    0.835759    11.00000    0.02858    0.05780 = 
         0.18070    0.01703   -0.00845   -0.01232 
AFIX 137 
H27A  2   -0.170815    0.514853    0.887687    11.00000   -1.50000 
H27B  2   -0.017800    0.489081    0.805868    11.00000   -1.50000 
H27C  2   -0.257921    0.552904    0.808472    11.00000   -1.50000 
AFIX   0 
C28   1   -0.321457    0.834067    0.920238    11.00000    0.02574    0.11742 = 
         0.04259    0.00903   -0.00393   -0.02702 
AFIX 137 
H28A  2   -0.455141    0.830112    0.922784    11.00000   -1.50000 
H28B  2   -0.339098    0.957797    0.924277    11.00000   -1.50000 
H28C  2   -0.259823    0.771349    0.963409    11.00000   -1.50000 
AFIX   0 
C29   1    0.012845    1.014019    0.818632    11.00000    0.03141    0.04194 = 
         0.03316    0.00191   -0.00895    0.00274 
AFIX  13 
H29   2   -0.056735    1.069912    0.872301    11.00000   -1.20000 
AFIX   0 
C30   1   -0.132891    1.110636    0.763014    11.00000    0.04372    0.04712 = 
         0.04740    0.00759   -0.01481   -0.00208 
AFIX 137 
H30A  2   -0.168015    1.238129    0.768021    11.00000   -1.50000 
H30B  2   -0.257957    1.089881    0.776492    11.00000   -1.50000 
H30C  2   -0.065438    1.065380    0.709136    11.00000   -1.50000 
AFIX   0 
C31   1    0.207015    1.045226    0.797791    11.00000    0.04904    0.04449 = 
         0.06714    0.01017   -0.01768   -0.01459 
AFIX 137 
H31A  2    0.281029    0.989984    0.745750    11.00000   -1.50000 
H31B  2    0.293916    0.992895    0.836165    11.00000   -1.50000 
H31C  2    0.171552    1.172963    0.797992    11.00000   -1.50000 
AFIX   0 
SI2   4    0.934301    0.229385    0.180196    11.00000    0.01854    0.04213 = 
         0.02792    0.00413   -0.00322   -0.00327 
C34   1    0.988781   -0.015086    0.180229    11.00000    0.03141    0.04194 = 
         0.03316    0.00191   -0.00895    0.00274 
AFIX  13 
H34   2    1.053662   -0.068473    0.125886    11.00000   -1.20000 
AFIX   0 
C35   1    0.791772   -0.042216    0.203985    11.00000    0.04904    0.04449 = 
         0.06714    0.01017   -0.01768   -0.01459 
AFIX 137 
H35A  2    0.821716   -0.168298    0.196704    11.00000   -1.50000 
H35B  2    0.693815    0.026461    0.171562    11.00000   -1.50000 
H35C  2    0.732988   -0.002273    0.258977    11.00000   -1.50000 
AFIX   0 
C36   1    1.141127   -0.110036    0.234140    11.00000    0.04372    0.04712 = 
         0.04740    0.00759   -0.01481   -0.00208 
AFIX 137 
H36A  2    1.087290   -0.051140    0.286627    11.00000   -1.50000 
H36B  2    1.273190   -0.105130    0.213386    11.00000   -1.50000 
H36C  2    1.159577   -0.234093    0.236616    11.00000   -1.50000 
AFIX   0 
C37   1    1.184376    0.254716    0.155838    11.00000    0.02719    0.05431 = 
         0.04905    0.00511   -0.00488   -0.01064 
AFIX  13 
H37   2    1.260718    0.205263    0.198890    11.00000   -1.20000 
AFIX   0 
C38   1    1.317477    0.150504    0.080453    11.00000    0.02574    0.11742 = 
         0.04259    0.00903   -0.00393   -0.02702 
AFIX 137 
H38A  2    1.238125    0.181818    0.038677    11.00000   -1.50000 
H38B  2    1.363189    0.023258    0.087770    11.00000   -1.50000 
H38C  2    1.436945    0.179236    0.066302    11.00000   -1.50000 
AFIX   0 
C39   1    1.151928    0.444760    0.151971    11.00000    0.02858    0.05780 = 
         0.18070    0.01703   -0.00845   -0.01232 
AFIX 137 
H39A  2    1.284866    0.452654    0.140975    11.00000   -1.50000 
H39B  2    1.073137    0.508966    0.202021    11.00000   -1.50000 
H39C  2    1.076486    0.497395    0.110380    11.00000   -1.50000 
AFIX   0 
C40   1    0.741788    0.344927    0.116336    11.00000    0.02235    0.04701 = 
         0.03699    0.00682   -0.00352   -0.00664 
AFIX  13 
H40   2    0.621956    0.315623    0.136635    11.00000   -1.20000 
AFIX   0 
C41   1    0.657538    0.545974    0.124301    11.00000    0.05514    0.05113 = 
         0.05746    0.01893   -0.02781   -0.01624 
AFIX 137 
H41A  2    0.764449    0.584685    0.100360    11.00000   -1.50000 
H41B  2    0.613248    0.586062    0.179705    11.00000   -1.50000 
H41C  2    0.540574    0.596861    0.097975    11.00000   -1.50000 
AFIX   0 
C42   1    0.810742    0.275698    0.030737    11.00000    0.03664    0.08165 = 
         0.03256    0.00770   -0.01383   -0.01214 
AFIX 137 
H42A  2    0.696795    0.331727    0.003250    11.00000   -1.50000 
H42B  2    0.853890    0.146869    0.027533    11.00000   -1.50000 
H42C  2    0.925746    0.304116    0.006551    11.00000   -1.50000 
 
AFIX   0 
HKLF 4 
 
REM  x14412_b.res in P1 
REM R1 =  0.0787 for    2960 Fo > 4sig(Fo)  and  0.0946 for all    3743 data 
REM    392 parameters refined using    577 restraints 
 
END 
 
WGHT      0.1411      0.6221 
 
REM Highest difference peak  0.728,  deepest hole -0.773,  1-sigma level  0.082 
Q1    1   1.0090  0.0847  0.1601  11.00000  0.05    0.73 
Q2    1  -0.0232  0.9110  0.8456  11.00000  0.05    0.72 
Q3    1  -0.2337  0.6414  0.7831  11.00000  0.05    0.65 
Q4    1   1.2205  0.3723  0.2205  11.00000  0.05    0.59 
Q5    1   0.8404  0.3503  0.2107  11.00000  0.05    0.54 
Q6    1   0.1411  0.6370  0.7960  11.00000  0.05    0.52 
Q7    1   0.1653  0.6619  0.7901  11.00000  0.05    0.52 
Q8    1   0.0960  1.4748  0.4759  11.00000  0.05    0.50 
Q9    1   0.1568  0.7005  0.8637  11.00000  0.05    0.50 
Q10   1   0.7925 -0.1814  0.4981  11.00000  0.05    0.47 
Q11   1   0.8666  0.2869  0.1369  11.00000  0.05    0.44 
Q12   1   0.0599  1.5200  0.3844  11.00000  0.05    0.43 
Q13   1   0.8387  0.3746  0.1363  11.00000  0.05    0.42 
Q14   1   0.9058 -0.4725  0.5258  11.00000  0.05    0.41 
Q15   1   0.1199  0.7427  0.7600  11.00000  0.05    0.40 
Q16   1  -0.0600  0.7830  0.8132  11.00000  0.05    0.39 
Q17   1   0.9377 -0.5149  0.6200  11.00000  0.05    0.38 
Q18   1   0.1989  0.7421  0.9158  11.00000  0.05    0.35 
Q19   1   0.9031  0.2477  0.2437  11.00000  0.05    0.34 
Q20   1   0.6369  0.4626  0.4258  11.00000  0.05    0.34 
; 
_shelx_res_checksum   69247 
 
_shelx_hkl_file
;
  -1   0   0   15.06    1.70
  -1   0   0   14.59    1.60
  -1   0   0   14.46    1.41
  -1   0   0   16.72    1.41
   1   0   0   16.16    1.42
   1   0   0   16.23    1.41
   1   0   0   15.36    1.60
   1   0   0   13.33    1.69
   1   0   0   15.55    1.60
  -2   0   0   86.37   10.36
  -2   0   0  100.50    9.14
  -2   0   0  108.50    9.15
  -2   0   0   90.86   11.01
   2   0   0  103.67   10.36
   2   0   0  112.41    9.15
   2   0   0   97.55    9.14
   2   0   0  115.25   11.02
  -3   0   0    0.57    0.22
   3   0   0    1.22    0.29
   3   0   0    1.04    0.40
   3   0   0    0.68    0.23
   3   0   0    0.92    0.34
   3   0   0    1.09    0.35
   4   0   0    0.33    0.31
   4   0   0    0.36    0.32
   4   0   0    0.58    0.36
   5   0   0    0.16    0.20
   5   0   0   -0.11    0.22
   5   0   0    0.24    0.36
   5   0   0    0.21    0.17
   5   0   0    0.18    0.13
   5   0   0    0.04    0.45
   5   0   0    0.02    0.31
   6   0   0    0.36    0.26
   6   0   0    0.12    0.07
   6   0   0    0.32    0.21
   6   0   0   -0.05    0.28
   6   0   0   -0.01    0.22
   7   0   0    5.87    0.61
   7   0   0    5.81    0.57
   7  -1   0    0.54    0.16
   7  -1   0    0.57    0.17
   7  -1   0    0.85    0.18
   6  -1   0    0.07    0.17
   6  -1   0   -0.09    0.25
   6  -1   0    0.11    0.25
   5  -1   0   10.11    0.97
   5  -1   0    7.14    1.26
   5  -1   0   10.18    0.88
   5  -1   0   10.40    0.91
   5  -1   0    8.00    1.28
   5  -1   0    8.80    0.94
   4  -1   0    5.34    0.55
   4  -1   0    6.00    0.82
   4  -1   0    6.93    0.84
   4  -1   0    5.93    0.61
   4  -1   0    5.25    0.58
   4  -1   0    4.70    0.55
   4  -1   0    7.51    0.91
   4  -1   0    5.11    0.59
   3  -1   0    3.59    0.63
   3  -1   0    4.01    0.69
   3  -1   0    3.27    0.52
   2  -1   0    4.00    0.47
   2  -1   0    4.62    0.48
   2  -1   0    4.39    0.55
   2  -1   0    4.07    0.56
   2  -1   0    4.09    0.53
   2  -1   0    4.01    0.57
   2  -1   0    3.68    0.48
   2  -1   0    4.41    0.65
  -2   1   0    4.11    0.48
  -2   1   0    3.71    0.46
   1  -1   0    2.19    0.35
   1  -1   0    2.78    0.27
   1  -1   0    1.82    0.31
   1  -1   0    1.76    0.29
   1  -1   0    3.21    0.84
   1  -1   0    1.61    0.25
   1  -1   0    2.45    0.32
   1  -1   0    2.23    0.30
   1  -1   0    2.09    0.27
  -1   1   0    2.67    0.27
  -1   1   0    1.74    0.25
   0  -1   0    1.23    0.17
   0  -1   0    1.45    0.45
   0  -1   0    1.53    0.25
   0  -1   0    1.05    0.17
  -1  -1   0   18.43    1.79
  -1  -1   0   20.08    2.15
  -1  -1   0   21.10    1.79
  -1  -1   0   20.67    2.16
  -1  -1   0   19.34    2.02
   1   1   0   16.48    2.14
   1   1   0   17.18    2.02
   1   1   0   21.19    1.80
   1   1   0   22.01    1.79
  -2  -1   0   11.94    1.43
  -2  -1   0   13.46    1.20
  -2  -1   0   11.53    1.34
  -2  -1   0   12.65    1.19
   2   1   0   11.34    1.34
   2   1   0   13.40    1.20
   2   1   0   11.44    1.43
   2   1   0   13.36    1.21
  -3  -1   0   64.27    5.77
  -3  -1   0   56.20    5.74
  -3  -1   0   57.66    6.51
  -3  -1   0   60.69    6.92
   3   1   0   62.08    5.76
   3   1   0   65.08    5.77
   3   1   0   68.59    6.53
   3   1   0   72.12    6.94
   4   1   0   13.46    1.75
   4   1   0   15.71    1.67
   4   1   0   13.89    1.69
   5   1   0   12.66    1.18
   5   1   0   14.39    1.61
   5   1   0   13.80    1.61
   5   1   0   11.21    1.18
   5   1   0   12.34    1.30
   5   1   0   14.94    1.72
   6   1   0    1.37    0.53
   6   1   0    3.14    0.40
   6   1   0    2.31    0.35
   6   1   0    3.01    0.37
   7   1   0    0.02    0.06
   7   1   0    0.75    0.28
   7   1   0    0.15    0.28
   7   1   0    0.26    0.17
   8   1   0    0.44    0.20
   8   1   0    0.43    0.15
   8   1   0    0.30    0.10
   6  -2   0    1.01    0.20
   6  -2   0    1.35    0.28
   6  -2   0    1.20    0.30
   5  -2   0   -0.24    0.23
   5  -2   0    0.22    0.10
   5  -2   0    0.51    0.27
   5  -2   0    0.13    0.24
   5  -2   0    0.29    0.17
   4  -2   0    3.70    0.48
   4  -2   0    4.08    0.46
   4  -2   0    4.09    0.48
   4  -2   0    3.90    0.49
   4  -2   0    5.90    0.79
   4  -2   0    3.99    0.40
   4  -2   0    2.62    0.62
   4  -2   0    4.77    0.83
   3  -2   0   10.67    1.03
   3  -2   0   13.12    1.31
   3  -2   0   12.26    1.38
   3  -2   0   10.79    1.08
   3  -2   0   12.99    1.45
   2  -2   0   11.22    1.08
   2  -2   0    9.87    1.28
   2  -2   0   11.94    1.34
   2  -2   0   11.76    1.21
   2  -2   0   15.87    2.15
   2  -2   0   13.09    1.30
   2  -2   0   11.11    1.21
   2  -2   0   11.19    1.26
  -2   2   0    9.54    1.08
   1  -2   0    0.95    0.14
   1  -2   0    1.43    0.25
   1  -2   0    1.27    0.19
   1  -2   0    1.13    0.15
   1  -2   0    1.01    0.42
   1  -2   0    1.10    0.27
   1  -2   0    1.44    0.83
   1  -2   0    1.10    0.17
   1  -2   0    1.04    0.16
   1  -2   0    1.22    0.17
  -1   2   0    1.11    0.15
  -1   2   0    1.16    0.15
   0  -2   0    5.17    0.62
   0  -2   0    5.78    0.64
   0  -2   0    6.13    1.06
   0  -2   0    4.66    0.74
  -1  -2   0   36.62    3.72
  -1  -2   0   32.03    3.52
  -1  -2   0   35.26    3.11
  -1  -2   0   32.09    3.74
  -1  -2   0   38.01    3.80
  -1  -2   0   30.73    3.52
  -1  -2   0   36.99    3.11
  -1  -2   0   34.42    3.74
   1   2   0   34.04    3.11
   1   2   0   34.73    3.11
  -2  -2   0   26.30    2.43
  -2  -2   0   30.52    2.95
  -2  -2   0   26.18    2.76
  -2  -2   0   25.81    2.92
  -2  -2   0   26.29    2.43
   2   2   0   26.87    2.45
   2   2   0   24.46    2.75
   2   2   0   24.79    2.92
   2   2   0   26.41    2.44
  -3  -2   0   87.10    8.99
  -3  -2   0   77.20    8.45
  -3  -2   0   76.41    7.45
  -3  -2   0   91.09    8.99
  -3  -2   0   80.00    7.47
   3   2   0   85.16    8.99
   3   2   0   79.28    7.47
   3   2   0   80.82    8.46
   3   2   0   84.85    7.49
  -4  -2   0    0.17    0.23
   4   2   0    0.10    0.34
   4   2   0    0.04    0.24
   4   2   0   -0.07    0.30
   5   2   0    0.54    0.19
   5   2   0    0.47    0.28
   6   2   0   -0.14    0.20
   7   2   0    3.02    0.42
   7   2   0    2.52    0.36
   8   2   0    6.82    0.66
   6  -3   0    2.99    0.32
   6  -3   0    2.49    0.36
   5  -3   0    7.45    0.71
   5  -3   0    6.52    0.73
   5  -3   0    7.28    0.69
   5  -3   0    7.32    0.81
   4  -3   0   15.56    1.42
   4  -3   0   16.56    1.46
   4  -3   0   15.21    1.47
   4  -3   0   18.27    1.99
   4  -3   0   15.80    1.56
   4  -3   0   13.81    1.91
   3  -3   0    6.18    0.62
   3  -3   0    8.67    1.06
   3  -3   0    5.66    0.60
   3  -3   0    5.81    0.72
   3  -3   0    5.68    0.65
   3  -3   0    6.74    0.88
   2  -3   0   -0.13    0.90
   2  -3   0    0.07    0.25
   1  -3   0    8.47    1.00
   1  -3   0    8.43    0.97
   1  -3   0    7.01    1.10
   1  -3   0   10.85    1.69
   0  -3   0    4.32    0.76
   0  -3   0    5.71    0.65
   0  -3   0    5.39    0.67
   0  -3   0    6.83    1.33
  -1  -3   0   11.60    1.23
  -1  -3   0   11.46    1.35
  -1  -3   0   12.14    1.20
  -1  -3   0    8.82    1.66
  -1  -3   0   11.13    0.99
  -1  -3   0   10.26    0.99
  -1  -3   0    9.08    1.11
  -1  -3   0   10.53    1.19
  -1  -3   0   11.05    1.13
   1   3   0   10.06    1.00
   1   3   0   10.46    0.99
  -2  -3   0   13.52    2.35
  -2  -3   0   15.81    1.55
  -2  -3   0   13.97    1.74
  -2  -3   0   17.23    1.77
  -2  -3   0   15.22    1.85
  -2  -3   0   14.06    1.55
  -2  -3   0   19.71    1.96
  -2  -3   0   19.10    1.88
   2   3   0   19.44    1.59
   2   3   0   17.63    1.57
  -3  -3   0   10.91    1.27
  -3  -3   0   13.48    1.60
  -3  -3   0   11.38    1.29
  -3  -3   0   14.45    1.48
  -3  -3   0   13.71    1.55
   3   3   0   14.73    1.35
  -4  -3   0    1.84    0.49
  -4  -3   0    2.37    0.55
  -4  -3   0    1.60    0.51
   4   3   0    1.00    0.32
  -5  -3   0    1.25    0.52
   6   3   0    3.10    0.45
   7   3   0    4.10    0.51
   8   3   0   12.94    1.27
   5  -4   0    2.27    0.38
   5  -4   0    3.17    0.33
   4  -4   0    3.89    0.47
   4  -4   0    2.67    0.40
   4  -4   0    3.27    0.49
   4  -4   0    3.11    0.29
   3  -4   0    3.50    0.36
   3  -4   0    4.21    0.57
   3  -4   0    3.55    0.40
   3  -4   0    4.24    0.50
   3  -4   0    3.12    0.68
   3  -4   0    4.52    0.79
   2  -4   0    7.11    1.06
   2  -4   0    7.42    1.23
   2  -4   0    7.33    0.68
   2  -4   0    6.96    0.79
   2  -4   0    7.13    0.64
   2  -4   0    6.93    0.70
   2  -4   0    6.75    0.95
   1  -4   0    0.25    0.17
   1  -4   0    0.65    0.92
   1  -4   0    0.34    0.24
   0  -4   0   11.07    1.77
   0  -4   0   10.27    1.14
   0  -4   0    9.28    1.35
   0  -4   0    9.35    1.16
  -1  -4   0   95.81   13.36
  -1  -4   0  108.34   10.89
  -1  -4   0   98.53   11.08
  -2  -4   0   21.00    2.32
  -2  -4   0   23.30    2.20
  -2  -4   0   20.34    2.34
  -2  -4   0   16.82    2.92
  -2  -4   0   21.23    2.48
  -3  -4   0    3.67    0.66
  -3  -4   0    4.16    0.60
  -3  -4   0    3.90    0.83
  -4  -4   0    4.10    0.52
  -4  -4   0    3.15    0.71
  -4  -4   0    4.80    0.78
  -4  -4   0    5.63    0.92
  -5  -4   0    0.82    0.27
  -5  -4   0    0.29    0.47
  -5  -4   0    0.81    0.49
  -5  -4   0    0.93    0.51
  -6  -4   0    1.59    0.35
   7   4   0    2.86    0.41
   8   4   0    1.85    0.26
   5  -5   0    1.05    0.17
   4  -5   0    0.69    0.16
   4  -5   0    1.72    0.25
   3  -5   0    6.87    0.73
   3  -5   0    8.70    1.26
   3  -5   0    7.36    0.83
   3  -5   0    7.96    0.79
   2  -5   0    0.27    0.16
   2  -5   0    0.04    0.40
   2  -5   0    0.08    0.13
   2  -5   0    0.26    0.21
   2  -5   0    0.35    0.35
   2  -5   0   -0.09    0.80
   1  -5   0    8.60    0.76
   1  -5   0    6.03    0.96
   1  -5   0    8.84    0.73
   1  -5   0    6.96    0.97
   1  -5   0    7.53    1.11
   1  -5   0    7.64    0.82
   1  -5   0   11.31    2.29
   1  -5   0    6.62    0.88
   1  -5   0    7.32    1.17
   1  -5   0    7.14    0.83
   0  -5   0    2.33    0.29
   0  -5   0    1.96    0.39
   0  -5   0    1.76    0.58
   0  -5   0    1.58    0.73
   0  -5   0    3.44    1.15
   0  -5   0    2.44    0.33
   0  -5   0    1.82    0.39
   0  -5   0    2.55    0.28
   0  -5   0    1.74    0.50
   0  -5   0    2.09    0.30
   0  -5   0    1.11    0.36
   0  -5   0    2.00    0.43
  -1  -5   0    2.41    0.47
  -1  -5   0    2.67    0.44
  -1  -5   0    2.36    0.72
  -2  -5   0    0.75    0.20
  -2  -5   0    0.95    0.22
  -2  -5   0    1.30    0.55
  -2  -5   0    1.20    0.26
  -2  -5   0    0.65    0.19
  -3  -5   0   15.81    2.06
  -3  -5   0   14.18    1.48
  -3  -5   0   18.73    2.17
  -3  -5   0   19.20    1.86
  -3  -5   0   16.26    1.53
  -3  -5   0   15.41    1.70
  -3  -5   0   20.16    1.96
  -3  -5   0   16.28    1.66
  -4  -5   0   25.83    2.51
  -4  -5   0   21.86    2.60
  -4  -5   0   22.91    2.06
  -4  -5   0   20.64    2.73
  -4  -5   0   21.93    1.98
  -4  -5   0   22.75    2.21
  -4  -5   0   21.43    2.25
  -5  -5   0    0.05    0.24
  -5  -5   0    0.35    0.59
  -5  -5   0    0.18    0.37
  -5  -5   0   -0.06    0.35
  -5  -5   0    0.00    0.22
  -5  -5   0   -0.08    0.20
  -5  -5   0   -0.11    0.19
  -6  -5   0   -0.27    0.21
  -6  -5   0   -0.02    0.19
   4  -6   0    0.32    0.12
   3  -6   0    0.50    0.18
   3  -6   0    0.59    0.27
   2  -6   0    2.12    0.29
   2  -6   0    1.71    0.54
   2  -6   0    2.02    0.36
   2  -6   0    1.22    0.24
   1  -6   0    0.40    0.22
   1  -6   0   -0.15    0.34
   1  -6   0    0.43    0.13
   1  -6   0    0.27    0.77
   1  -6   0    0.09    0.36
   1  -6   0    0.05    0.19
   1  -6   0    0.51    0.20
   1  -6   0    0.30    0.20
   0  -6   0    2.63    0.36
   0  -6   0    2.53    0.37
   0  -6   0    2.63    0.32
   0  -6   0    2.42    0.60
   0  -6   0    2.69    0.70
   0  -6   0    2.25    0.46
   0  -6   0    2.59    0.59
   0  -6   0    2.42    0.30
  -1  -6   0   -0.39    0.62
  -1  -6   0    0.24    0.22
  -1  -6   0    0.20    0.22
  -1  -6   0   -0.15    0.24
  -1  -6   0    0.34    0.67
  -1  -6   0    0.19    0.16
  -1  -6   0    0.33    0.48
  -2  -6   0    0.96    0.20
  -2  -6   0    0.89    0.49
  -2  -6   0    1.56    0.25
  -2  -6   0    0.41    0.76
  -2  -6   0    1.06    0.18
  -2  -6   0    1.33    0.30
  -2  -6   0    0.86    0.59
  -3  -6   0    3.61    0.53
  -3  -6   0    3.89    0.97
  -3  -6   0    4.93    0.64
  -3  -6   0    3.82    0.56
  -3  -6   0    3.84    0.45
  -3  -6   0    4.86    0.52
  -3  -6   0    3.31    0.42
  -3  -6   0    3.71    0.98
  -4  -6   0   19.80    2.42
  -4  -6   0   20.75    1.87
  -4  -6   0   16.72    1.60
  -4  -6   0   15.81    2.09
  -4  -6   0   17.20    1.87
  -4  -6   0   16.69    2.24
  -4  -6   0   19.98    1.68
  -5  -6   0    0.97    0.38
  -5  -6   0    0.50    0.59
  -5  -6   0    0.54    0.64
  -5  -6   0    0.41    0.26
  -5  -6   0    0.44    0.16
  -5  -6   0    0.35    0.39
  -5  -6   0    0.68    0.21
  -6  -6   0    0.43    0.30
  -6  -6   0    0.76    0.19
  -6  -6   0    0.59    0.30
  -7  -6   0    7.87    0.83
  -7  -6   0    8.57    0.81
  -8  -6   0    0.13    0.32
  -8  -6   0    0.44    0.17
   2  -7   0    0.17    0.14
   1  -7   0    0.29    0.46
   1  -7   0    0.10    0.14
   1  -7   0    0.15    0.11
   1  -7   0   -0.29    0.42
   1  -7   0    0.10    0.74
   1  -7   0    0.33    0.22
   0  -7   0    1.04    0.28
   0  -7   0    1.69    0.28
   0  -7   0    0.92    0.38
   0  -7   0    1.83    0.25
   0  -7   0    1.84    0.48
   0  -7   0    1.20    0.75
   0  -7   0    1.81    0.41
   0  -7   0    1.48    0.25
  -1  -7   0    1.04    0.45
  -1  -7   0    0.77    0.75
  -1  -7   0    0.32    0.60
  -1  -7   0    0.92    0.27
  -1  -7   0    1.01    0.18
  -1  -7   0    0.80    0.37
  -2  -7   0    8.56    0.91
  -2  -7   0    9.05    1.17
  -2  -7   0    8.45    1.01
  -2  -7   0    5.88    1.44
  -2  -7   0    7.22    1.33
  -3  -7   0    2.61    0.51
  -3  -7   0    1.57    0.75
  -3  -7   0    2.13    0.35
  -3  -7   0    2.41    0.41
  -3  -7   0    2.21    0.94
  -3  -7   0    1.45    0.28
  -4  -7   0    4.19    0.64
  -4  -7   0    5.50    1.11
  -4  -7   0    3.37    0.46
  -4  -7   0    2.99    0.40
  -4  -7   0    2.31    0.29
  -4  -7   0    2.73    0.97
  -5  -7   0    0.04    0.18
  -5  -7   0    0.21    0.16
  -5  -7   0    0.06    0.29
  -5  -7   0    1.20    0.63
  -6  -7   0    3.42    0.48
  -6  -7   0    3.56    0.45
  -6  -7   0    3.47    0.50
  -6  -7   0    2.63    0.87
  -7  -7   0    1.27    0.60
  -7  -7   0    1.12    0.25
  -7  -7   0    0.74    0.23
  -8  -7   0   -0.21    0.25
   0  -8   0    0.00    0.43
   0  -8   0    0.61    0.51
   0  -8   0    0.72    0.24
   0  -8   0    0.67    0.16
  -1  -8   0   -0.06    0.59
  -1  -8   0    0.02    0.14
  -1  -8   0   -0.52    0.29
  -1  -8   0   -0.21    0.19
  -2  -8   0    1.60    0.57
  -2  -8   0    0.93    0.71
  -2  -8   0    1.61    0.27
  -2  -8   0    1.29    0.40
  -3  -8   0    3.25    0.74
  -3  -8   0    3.39    0.55
  -3  -8   0    3.18    0.59
  -4  -8   0   10.83    1.57
  -4  -8   0    9.72    0.94
  -4  -8   0    9.91    1.22
  -4  -8   0    9.33    1.08
  -5  -8   0    7.97    1.28
  -5  -8   0    6.73    0.74
  -5  -8   0    7.57    0.94
  -6  -8   0    1.99    0.55
  -6  -8   0    1.40    0.37
  -6  -8   0    1.28    0.28
  -7  -8   0   -0.17    0.29
  -1  -9   0    0.23    0.28
  -1  -9   0    0.71    0.21
  -2  -9   0    0.10    0.28
  -2  -9   0    0.21    0.20
  -2  -9   0    0.49    0.35
  -3  -9   0    0.57    0.36
  -3  -9   0    0.37    0.30
  -4  -9   0    0.29    0.16
  -4  -9   0    0.14    0.26
  -4  -9   0   -0.03    0.46
  -5  -9   0    0.13    0.23
  -5  -9   0    0.27    0.43
  -6  -9   0    3.48    0.55
  -6  -9   0    3.54    0.45
  -6  -9   1   -0.08    0.17
  -6  -9   1    0.02    0.08
  -5  -9   1    0.48    0.24
  -5  -9   1    0.80    0.32
  -4  -9   1    0.96    0.33
  -4  -9   1    1.14    0.38
  -4  -9   1    1.04    0.26
  -3  -9   1    0.49    0.32
  -2  -9   1   -0.16    0.24
  -1  -9   1   -0.15    0.15
  -1  -9   1    0.16    0.33
  -7  -8   1    0.33    0.33
  -6  -8   1    0.21    0.24
  -6  -8   1    0.23    0.43
  -6  -8   1    0.63    0.18
  -5  -8   1    0.45    0.21
  -5  -8   1    0.29    0.28
  -5  -8   1   -0.81    0.70
  -4  -8   1   37.20    3.21
  -4  -8   1   30.74    3.61
  -4  -8   1   28.66    2.84
  -3  -8   1   -0.48    0.48
  -3  -8   1    0.22    0.31
  -3  -8   1   -0.25    0.40
  -2  -8   1    0.08    0.34
  -2  -8   1    0.17    0.22
  -2  -8   1    0.26    0.23
  -2  -8   1    0.11    0.55
  -1  -8   1    0.49    0.42
  -1  -8   1    1.08    0.40
  -1  -8   1    0.51    0.32
  -1  -8   1    0.50    0.23
   0  -8   1    1.36    0.19
   0  -8   1    0.48    0.44
   0  -8   1    1.97    0.27
   0  -8   1    1.08    0.30
  -7  -7   1    0.53    0.20
  -7  -7   1    0.24    0.24
  -7  -7   1    1.51    0.61
  -6  -7   1    1.40    0.39
  -6  -7   1    0.90    0.25
  -6  -7   1    1.46    0.73
  -6  -7   1    1.06    0.25
  -5  -7   1    1.27    0.46
  -5  -7   1    1.09    0.63
  -5  -7   1    1.08    0.25
  -5  -7   1    2.02    0.29
  -4  -7   1    0.33    0.15
  -4  -7   1    0.53    0.22
  -4  -7   1    0.78    0.63
  -4  -7   1    0.55    0.29
  -4  -7   1    0.57    0.61
  -4  -7   1    0.83    0.37
  -3  -7   1    3.07    0.44
  -3  -7   1    1.73    0.29
  -3  -7   1    2.42    0.37
  -3  -7   1    0.92    0.87
  -3  -7   1    2.16    0.91
  -3  -7   1    2.85    0.64
  -2  -7   1   12.99    1.43
  -2  -7   1   13.66    1.30
  -2  -7   1   10.05    1.73
  -2  -7   1   11.59    1.39
  -1  -7   1    7.70    0.80
  -1  -7   1    5.71    1.01
  -1  -7   1    7.76    0.95
  -1  -7   1    5.30    1.07
  -1  -7   1    8.26    0.71
   0  -7   1    1.09    0.54
   0  -7   1    1.75    0.27
   0  -7   1    1.67    0.25
   0  -7   1    1.10    0.41
   0  -7   1    1.04    0.27
   0  -7   1    1.22    0.40
   0  -7   1    1.44    0.41
   0  -7   1    1.31    0.24
   1  -7   1    1.61    0.62
   1  -7   1    2.20    0.48
   1  -7   1    1.64    0.26
   1  -7   1    2.11    0.25
   1  -7   1    1.25    0.31
   1  -7   1    1.63    0.27
   2  -7   1    0.99    0.20
   2  -7   1    1.10    0.20
   3  -7   1    0.93    0.16
  -8  -6   1    0.01    0.14
  -8  -6   1    0.34    0.42
  -7  -6   1    2.18    0.39
  -7  -6   1    2.30    0.33
  -6  -6   1    0.24    0.18
  -6  -6   1    0.38    0.23
  -6  -6   1   -0.02    0.24
  -6  -6   1    0.46    0.21
  -5  -6   1    0.24    0.13
  -5  -6   1    0.25    0.23
  -5  -6   1    0.29    0.18
  -5  -6   1    0.43    0.62
  -5  -6   1    0.18    0.35
  -5  -6   1    0.17    0.74
  -4  -6   1    8.82    1.02
  -4  -6   1    9.52    0.89
  -4  -6   1    8.81    1.49
  -4  -6   1    9.03    1.39
  -4  -6   1   10.12    0.93
  -4  -6   1    9.09    1.06
  -3  -6   1   18.30    1.82
  -3  -6   1   15.98    1.59
  -3  -6   1   18.53    1.66
  -3  -6   1   22.11    2.48
  -3  -6   1   16.66    2.30
  -3  -6   1   19.24    1.91
  -3  -6   1   16.69    2.06
  -3  -6   1   21.61    1.95
  -2  -6   1   -0.64    0.66
  -2  -6   1   -0.08    0.59
  -2  -6   1    0.15    0.20
  -2  -6   1    0.12    0.20
  -2  -6   1   -0.11    0.12
  -2  -6   1   -0.22    0.32
  -2  -6   1    0.05    0.15
  -1  -6   1    2.26    0.44
  -1  -6   1    1.44    0.68
  -1  -6   1    0.82    0.68
  -1  -6   1    1.67    0.47
  -1  -6   1    2.59    0.52
  -1  -6   1    1.84    0.28
  -1  -6   1    2.72    0.30
  -1  -6   1    2.40    0.37
   0  -6   1    0.37    0.14
   0  -6   1    0.23    0.26
   0  -6   1    0.05    0.21
   0  -6   1    0.07    0.43
   0  -6   1   -0.04    0.38
   0  -6   1    0.39    0.18
   0  -6   1    0.09    0.20
   0  -6   1    0.64    0.64
   0  -6   1    0.16    0.13
   1  -6   1   -0.31    0.20
   1  -6   1    0.28    0.30
   1  -6   1    0.10    0.21
   1  -6   1   -0.07    0.24
   1  -6   1    0.04    0.16
   1  -6   1    0.30    0.32
   1  -6   1    0.74    0.78
   1  -6   1    0.33    0.48
   2  -6   1    0.05    0.17
   2  -6   1    0.28    0.16
   2  -6   1   -0.06    0.27
   2  -6   1    0.28    0.56
   3  -6   1    0.11    0.16
   3  -6   1    0.03    0.16
   3  -6   1    0.09    0.18
   4  -6   1    1.19    0.19
   8   5  -1    2.68    0.32
  -8  -5   1    2.01    0.30
  -7  -5   1    0.75    0.21
  -6  -5   1    0.95    0.27
  -6  -5   1    0.85    0.31
  -5  -5   1    0.70    0.24
  -5  -5   1    0.67    0.27
  -5  -5   1    1.03    0.24
  -5  -5   1    0.94    0.29
  -5  -5   1    1.45    0.65
  -5  -5   1    0.89    0.46
  -4  -5   1   17.29    1.78
  -4  -5   1   18.03    1.60
  -4  -5   1   18.98    1.84
  -4  -5   1   19.39    2.17
  -4  -5   1   17.64    1.67
  -4  -5   1   17.19    2.28
  -3  -5   1   -0.08    0.65
  -3  -5   1    0.45    0.17
  -3  -5   1    0.19    0.38
  -3  -5   1    0.45    0.17
  -3  -5   1    0.12    0.29
  -3  -5   1    0.19    0.26
  -3  -5   1    0.25    0.18
  -3  -5   1    0.08    0.24
  -2  -5   1    9.64    1.16
  -2  -5   1    8.45    1.15
  -2  -5   1   13.57    1.33
  -2  -5   1   12.64    1.24
  -2  -5   1   10.73    1.22
  -1  -5   1    0.52    0.28
  -1  -5   1    0.38    0.27
  -1  -5   1    0.58    0.61
  -1  -5   1    0.75    0.23
   0  -5   1    0.01    0.34
   0  -5   1    0.79    0.17
   0  -5   1    0.52    0.17
   0  -5   1    0.00    0.19
   0  -5   1    0.15    0.19
   0  -5   1    0.33    0.29
   0  -5   1    0.53    0.18
   0  -5   1    0.68    0.56
   0  -5   1    0.34    0.31
   0  -5   1    0.39    0.37
   0  -5   1    0.47    0.27
   1  -5   1   11.48    1.13
   1  -5   1   12.02    1.45
   1  -5   1   12.74    1.18
   1  -5   1    8.57    1.22
   1  -5   1   12.93    1.03
   1  -5   1   12.01    1.07
   1  -5   1    9.34    1.21
   1  -5   1   11.89    1.38
   1  -5   1    9.40    1.55
   2  -5   1    8.38    0.80
   2  -5   1    9.17    0.96
   2  -5   1    8.40    1.28
   2  -5   1    8.91    0.84
   2  -5   1    7.88    1.32
   3  -5   1   11.04    1.41
   3  -5   1    8.74    0.90
   3  -5   1    9.27    0.87
   3  -5   1    9.27    1.03
   4  -5   1    3.72    0.51
   4  -5   1    4.22    0.43
   4  -5   1    4.06    0.46
   5  -5   1    0.06    0.12
   8   4  -1   -0.05    0.14
  -8  -4   1   -0.04    0.14
   7   4  -1    0.32    0.19
  -6  -4   1    1.36    0.29
  -5  -4   1    0.72    0.30
  -5  -4   1    0.37    0.24
  -5  -4   1   -0.06    0.38
  -5  -4   1    0.32    0.41
  -5  -4   1    0.11    0.53
  -4  -4   1    2.60    0.62
  -4  -4   1    2.22    0.61
  -4  -4   1    2.57    0.75
  -4  -4   1    2.81    0.38
  -3  -4   1   18.12    2.10
  -3  -4   1   16.90    1.96
  -3  -4   1   15.94    1.86
  -2  -4   1   24.12    2.76
  -2  -4   1   25.51    2.89
  -2  -4   1   25.07    2.76
  -1  -4   1   -0.06    0.49
  -1  -4   1    0.25    0.38
  -1  -4   1    0.39    0.25
   0  -4   1    0.43    0.44
   0  -4   1    0.68    0.64
   0  -4   1    0.46    0.23
   0  -4   1    0.13    0.18
   1  -4   1    1.68    0.41
   1  -4   1    1.99    0.39
   1  -4   1    2.26    0.98
   1  -4   1    1.85    0.60
   2  -4   1    2.39    0.53
   2  -4   1    2.22    0.23
   2  -4   1    2.75    0.66
   2  -4   1    2.92    0.33
   2  -4   1    3.02    0.56
   2  -4   1    2.60    0.35
   2  -4   1    2.56    0.42
   2  -4   1    1.88    0.33
   3  -4   1    8.26    1.18
   3  -4   1    8.66    0.78
   3  -4   1    8.19    0.83
   3  -4   1    8.59    0.96
   3  -4   1    9.14    0.85
   4  -4   1    2.62    0.33
   4  -4   1    2.14    0.21
   4  -4   1    1.99    0.43
   4  -4   1    2.17    0.34
   5  -4   1    0.94    0.23
   5  -4   1    1.02    0.24
   5  -4   1    0.92    0.26
   8   3  -1    0.04    0.10
   8   3  -1    0.00    0.14
   7   3  -1    5.20    0.65
   6   3  -1    0.80    0.28
   5   3  -1    0.25    0.29
  -5  -3   1    0.74    0.37
  -4  -3   1    3.15    0.72
  -4  -3   1    5.06    0.82
  -4  -3   1    4.79    0.81
   3   3  -1    2.13    0.46
  -3  -3   1    2.81    0.56
  -3  -3   1    2.46    0.43
  -3  -3   1    3.20    0.59
  -3  -3   1    3.91    0.71
   2   3  -1   14.70    1.32
   2   3  -1   14.67    1.36
  -2  -3   1   14.98    1.32
  -2  -3   1   13.28    1.57
  -2  -3   1   10.71    1.46
  -2  -3   1   15.17    1.67
  -2  -3   1   14.93    1.51
  -2  -3   1   16.03    1.57
  -2  -3   1   11.25    1.55
  -2  -3   1   12.94    1.31
   1   3  -1  115.72   11.19
   1   3  -1  122.69   11.18
  -1  -3   1  138.39   13.40
  -1  -3   1  134.69   13.58
  -1  -3   1  129.40   12.70
  -1  -3   1  116.57   11.18
  -1  -3   1  130.86   13.48
  -1  -3   1  132.42   13.48
  -1  -3   1  115.62   12.68
  -1  -3   1  123.36   16.31
  -1  -3   1  117.25   11.19
   0  -3   1   22.99    2.52
   0  -3   1   20.78    2.62
   0  -3   1   25.00    3.23
   0  -3   1   23.04    2.48
   1  -3   1   34.49    3.58
   1  -3   1   30.94    3.54
   2  -3   1   -0.02    0.15
   2  -3   1    0.12    0.25
   3  -3   1    4.19    0.46
   3  -3   1    3.26    0.41
   3  -3   1    2.17    0.61
   3  -3   1    2.91    0.38
   3  -3   1    4.85    0.71
   3  -3   1    3.91    0.51
   4  -3   1    1.06    0.22
   4  -3   1    1.20    0.27
   4  -3   1    0.83    0.35
   4  -3   1   -0.01    0.33
   4  -3   1    1.17    0.30
   5  -3   1    1.20    0.27
   5  -3   1    1.17    0.31
   5  -3   1    0.81    0.28
   5  -3   1    0.98    0.21
   6  -3   1    0.17    0.20
   6  -3   1    0.13    0.14
   8   2  -1    0.31    0.16
   8   2  -1    0.23    0.18
   7   2  -1    0.11    0.18
   7   2  -1    0.20    0.18
   6   2  -1   12.24    1.68
   6   2  -1   14.03    1.37
   5   2  -1    2.21    0.55
   5   2  -1    2.58    0.37
   4   2  -1    5.38    0.89
   4   2  -1    3.73    0.74
   4   2  -1    5.13    0.76
  -4  -2   1    4.76    0.73
   3   2  -1   77.27    8.82
   3   2  -1   89.52    8.34
   3   2  -1   86.96    7.35
   3   2  -1   84.30    7.36
  -3  -2   1   76.94    8.82
  -3  -2   1   81.05    8.32
  -3  -2   1   76.65    7.33
  -3  -2   1   75.42    7.32
   2   2  -1   98.35    8.20
   2   2  -1   88.85    9.28
   2   2  -1   98.40    8.19
   2   2  -1   78.10    9.84
  -2  -2   1   98.15    9.88
  -2  -2   1   84.83    8.17
  -2  -2   1   78.56    8.17
  -2  -2   1   97.68    9.29
  -2  -2   1   96.34    9.86
   1   2  -1   22.95    2.28
   1   2  -1   25.76    2.28
  -1  -2   1   22.24    2.73
  -1  -2   1   26.54    2.74
  -1  -2   1   22.31    2.57
  -1  -2   1   26.32    2.72
  -1  -2   1   29.15    2.80
  -1  -2   1   23.48    2.58
  -1  -2   1   25.54    2.28
  -1  -2   1   26.34    2.28
   0  -2   1   80.04    8.52
   0  -2   1   77.96    8.77
   0  -2   1   79.62    8.67
   0  -2   1   86.57   10.61
  -1   2  -1   24.81    2.15
  -1   2  -1   24.31    2.15
   1  -2   1   21.49    2.15
   1  -2   1   23.77    2.43
   1  -2   1   25.92    2.59
   1  -2   1   21.61    2.15
   1  -2   1   24.11    2.59
   1  -2   1   25.03    2.43
   1  -2   1   23.91    2.60
   1  -2   1   24.15    2.59
  -2   2  -1    1.62    0.27
   2  -2   1    1.18    0.23
   2  -2   1    1.28    0.29
   2  -2   1    1.72    0.29
   2  -2   1    1.52    0.25
   2  -2   1    1.59    0.29
   2  -2   1    1.91    0.27
   2  -2   1    5.01    1.32
   2  -2   1    1.99    0.32
   2  -2   1    2.68    0.47
   3  -2   1   35.95    4.10
   3  -2   1   36.77    3.86
   3  -2   1   39.28    4.09
   4  -2   1    2.38    0.36
   4  -2   1    1.19    0.36
   4  -2   1    2.52    0.33
   4  -2   1    2.07    0.25
   4  -2   1    2.64    0.33
   4  -2   1    2.30    0.34
   4  -2   1    2.26    0.61
   4  -2   1    1.30    0.41
   5  -2   1    0.27    0.19
   5  -2   1    0.29    0.25
   5  -2   1    0.32    0.11
   5  -2   1    0.21    0.19
   5  -2   1    0.49    0.23
   6  -2   1    0.56    0.19
   6  -2   1   -0.06    0.23
   6  -2   1    0.35    0.18
   8   1  -1    6.63    0.63
   8   1  -1    6.88    0.60
   7   1  -1    5.38    0.61
   7   1  -1    5.53    0.57
   7   1  -1    4.94    0.55
   6   1  -1    1.00    0.33
   6   1  -1    1.39    0.25
   6   1  -1    1.07    0.27
   6   1  -1    0.60    0.51
   5   1  -1    0.30    0.37
   5   1  -1    0.08    0.38
   5   1  -1    0.19    0.19
   5   1  -1    0.15    0.19
   5   1  -1    0.00    0.37
   5   1  -1    0.19    0.17
   4   1  -1    3.96    0.75
   4   1  -1    2.77    0.63
   4   1  -1    3.34    0.64
   3   1  -1    1.53    0.33
   3   1  -1    1.77    0.41
   3   1  -1    1.13    0.33
   3   1  -1    2.32    0.50
   3   1  -1    1.22    0.31
  -3  -1   1    1.29    0.37
  -3  -1   1    1.48    0.43
  -3  -1   1    1.13    0.32
  -3  -1   1    1.47    0.32
   2   1  -1   14.31    1.23
   2   1  -1   12.84    1.38
   2   1  -1   12.27    1.45
   2   1  -1   12.18    1.21
  -2  -1   1   11.90    1.20
  -2  -1   1   11.97    1.21
  -2  -1   1   12.38    1.37
  -2  -1   1   12.28    1.44
   1   1  -1  132.39   14.30
   1   1  -1  154.32   12.61
   1   1  -1  125.72   15.19
   1   1  -1  160.84   12.61
  -1  -1   1  137.15   12.61
  -1  -1   1  144.11   15.20
  -1  -1   1  135.89   15.10
  -1  -1   1  136.45   14.30
  -1  -1   1  142.54   12.60
   0   1  -1  126.80   10.36
   0   1  -1  109.29   10.36
   0  -1   1  115.58   12.48
   0  -1   1  119.60   10.37
   0  -1   1  119.92   11.74
   0  -1   1  121.12   15.00
   0  -1   1  109.46   10.36
   0  -1   1  112.94   12.37
   0  -1   1  107.51   11.70
   0  -1   1  107.94   12.44
   0  -1   1  122.17   12.21
  -1   1  -1    6.10    0.61
  -1   1  -1    6.08    0.59
   1  -1   1    5.68    0.69
   1  -1   1    6.26    0.67
   1  -1   1    5.99    0.71
   1  -1   1    6.41    0.59
   1  -1   1    6.46    0.71
   1  -1   1    6.02    0.59
   1  -1   1    7.75    1.18
   1  -1   1    6.47    0.71
   1  -1   1    5.64    0.66
  -2   1  -1    0.64    0.17
  -2   1  -1    0.74    0.19
   2  -1   1    0.65    0.24
   2  -1   1    0.51    0.29
   2  -1   1    0.37    0.16
   2  -1   1    0.63    0.21
   2  -1   1    0.87    0.26
   2  -1   1    0.64    0.19
   2  -1   1    0.63    0.19
   2  -1   1    0.92    0.22
   3  -1   1    0.30    0.30
   3  -1   1    0.40    0.16
   3  -1   1    0.28    0.24
   3  -1   1    0.56    0.31
   4  -1   1    0.00    0.26
   4  -1   1    0.10    0.28
   4  -1   1    0.06    0.08
   4  -1   1   -0.05    0.19
   4  -1   1    0.10    0.15
   4  -1   1    0.15    0.18
   4  -1   1    0.11    0.18
   4  -1   1    0.20    0.27
   5  -1   1    2.58    0.36
   5  -1   1    3.15    0.38
   5  -1   1    1.92    0.31
   5  -1   1    2.23    0.66
   5  -1   1    2.46    0.37
   6  -1   1    9.41    0.97
   6  -1   1   10.07    0.94
   6  -1   1    9.73    1.00
   7  -1   1    3.64    0.43
   7  -1   1    3.28    0.39
   7   0  -1    0.09    0.15
   7   0  -1   -0.01    0.13
   7   0  -1    0.13    0.23
   7   0  -1    0.09    0.24
   6   0  -1    1.33    0.34
   6   0  -1    1.55    0.30
   6   0  -1    1.67    0.30
   6   0  -1    1.42    0.32
   5   0  -1    9.91    1.06
   5   0  -1   11.50    1.51
   5   0  -1   10.66    1.03
   5   0  -1   10.81    1.07
   5   0  -1    9.44    1.34
   5   0  -1   11.06    1.00
   5   0  -1   11.30    1.42
   4   0  -1    6.10    0.72
   4   0  -1    8.07    0.95
   4   0  -1    7.26    0.97
   4   0  -1    7.36    0.99
   3   0  -1    0.42    0.31
   3   0  -1    0.90    0.39
   3   0  -1    0.72    0.37
   3   0  -1    0.66    0.25
   2   0  -1    0.32    0.20
   2   0  -1    0.46    0.73
   2   0  -1    0.20    0.28
   2   0  -1    0.12    0.24
   2   0  -1    0.15    0.24
   2   0  -1    0.38    0.20
  -2   0   1    0.25    0.24
  -2   0   1    0.23    0.19
  -2   0   1    0.27    0.19
  -2   0   1    0.24    0.21
   1   0  -1   71.84    7.49
   1   0  -1   79.58    6.61
   1   0  -1   67.26    7.96
   1   0  -1   75.56    6.61
   1   0  -1   82.58    9.66
   1   0  -1   69.31    7.50
  -1   0   1   83.67    6.61
  -1   0   1   66.60    6.61
  -1   0   1   75.00    7.97
  -1   0   1   66.94    7.49
   0   0  -1   94.53    9.81
   0   0  -1   94.51   10.46
   0   0  -1  104.19    8.68
   0   0  -1   93.93    9.83
   0   0  -1   99.53    8.70
   0   0   1  105.79    8.69
   0   0   1   99.10   10.46
   0   0   1   85.80    9.82
   0   0   1   92.44    8.69
  -1   0  -1   70.24    7.56
  -1   0  -1   72.83    8.04
  -1   0  -1   78.00    6.67
  -1   0  -1   75.11    6.67
   1   0   1   82.20    6.67
   1   0   1   76.44    7.56
   1   0   1   76.31    7.56
   1   0   1   66.87    7.83
   1   0   1   72.57    8.04
  -2   0  -1    1.72    0.30
  -2   0  -1    1.78    0.36
  -2   0  -1    2.52    0.43
  -2   0  -1    2.09    0.33
   2   0   1    2.11    0.37
   2   0   1    1.72    0.30
   2   0   1    1.81    0.37
   2   0   1    2.00    0.39
   2   0   1    2.17    0.32
  -3   0  -1    1.13    0.27
   3   0   1    0.99    0.29
   3   0   1    1.30    0.39
   3   0   1    1.77    0.37
   3   0   1    1.03    0.25
   3   0   1    1.18    0.37
   4   0   1    8.92    1.04
   4   0   1    7.43    1.04
   4   0   1    7.62    1.11
   5   0   1    9.80    1.00
   5   0   1   11.20    1.44
   5   0   1   10.96    1.38
   5   0   1   10.77    0.99
   5   0   1   10.14    1.05
   5   0   1   10.19    1.05
   5   0   1   10.59    1.36
   6   0   1    4.86    0.62
   6   0   1    5.12    0.58
   6   0   1    4.42    0.53
   6   0   1    4.17    0.50
   7   0   1   -0.22    0.15
   7  -1  -1    0.05    0.12
   7  -1  -1    0.07    0.12
   7  -1  -1    0.12    0.13
   6  -1  -1    0.27    0.26
   6  -1  -1   -0.10    0.13
   6  -1  -1   -0.04    0.17
   6  -1  -1    0.16    0.19
   5  -1  -1    3.04    0.79
   5  -1  -1    3.49    0.46
   5  -1  -1    4.81    0.56
   5  -1  -1    3.92    0.83
   5  -1  -1    4.12    0.48
   5  -1  -1    4.06    0.47
   4  -1  -1    0.38    0.34
   4  -1  -1    0.36    0.37
   4  -1  -1    0.32    0.10
   4  -1  -1    0.41    0.21
   4  -1  -1    0.41    0.29
   4  -1  -1    0.61    0.18
   4  -1  -1    0.39    0.21
   4  -1  -1    0.60    0.33
   4  -1  -1    0.46    0.20
   3  -1  -1    1.54    0.45
   3  -1  -1    1.92    0.44
   3  -1  -1    1.36    0.35
   2  -1  -1    8.51    0.94
   2  -1  -1    7.40    0.79
   2  -1  -1   10.58    1.49
   2  -1  -1    8.65    0.78
   2  -1  -1    7.01    0.87
   2  -1  -1    7.31    0.94
   2  -1  -1    7.29    0.93
   2  -1  -1    8.46    0.90
   2  -1  -1    6.68    0.84
  -2   1   1    7.41    0.78
  -2   1   1    8.46    0.79
   1  -1  -1    4.47    0.60
   1  -1  -1    6.89    1.19
   1  -1  -1    5.00    0.57
   1  -1  -1    4.52    0.55
   1  -1  -1    4.58    0.56
   1  -1  -1    4.53    0.59
   1  -1  -1    4.77    0.50
   1  -1  -1    5.40    0.51
  -1   1   1    6.16    0.51
   0  -1  -1  150.95   13.71
   0  -1  -1  164.88   15.57
   0  -1  -1  152.40   16.42
   0  -1  -1  152.14   16.55
   0  -1  -1  136.08   16.50
   0  -1  -1  131.68   19.90
   0  -1  -1  150.22   15.55
   0  -1  -1  130.08   16.12
   0  -1  -1  170.90   13.75
   0  -1  -1  159.97   16.53
   0   1   1  171.28   13.75
   0   1   1  169.54   13.75
  -1  -1  -1   30.89    3.49
  -1  -1  -1   28.78    3.29
  -1  -1  -1   33.78    3.50
  -1  -1  -1   31.58    2.89
  -1  -1  -1   31.17    2.90
  -1  -1  -1   31.45    3.28
   1   1   1   28.54    3.48
   1   1   1   32.03    3.28
   1   1   1   35.99    2.91
   1   1   1   37.03    2.90
  -2  -1  -1  841.20   78.70
  -2  -1  -1  796.54   78.63
  -2  -1  -1  911.88   94.84
  -2  -1  -1  771.71   89.27
  -2  -1  -1  918.02   94.72
   2   1   1  847.40   94.86
   2   1   1 1000.00   78.77
   2   1   1  961.05   78.88
   2   1   1  874.02   89.30
  -3  -1  -1   15.12    1.77
  -3  -1  -1   16.47    1.56
  -3  -1  -1   13.53    1.56
  -3  -1  -1   16.62    1.84
  -3  -1  -1   16.24    1.88
   3   1   1   18.30    1.60
   3   1   1   17.13    1.89
   3   1   1   15.83    1.58
   3   1   1   18.49    1.79
   3   1   1   14.85    1.80
   4   1   1    4.14    0.75
   4   1   1    4.50    0.82
   4   1   1    4.84    0.77
   5   1   1    4.15    0.57
   5   1   1    4.73    0.57
   5   1   1    4.80    0.73
   5   1   1    5.70    0.94
   5   1   1    5.49    0.98
   6   1   1    8.58    0.91
   6   1   1    9.95    0.95
   6   1   1    7.39    1.23
   7   1   1    2.36    0.28
   7   1   1    2.40    0.43
   7   1   1    2.52    0.39
   8   1   1    0.96    0.22
   8   1   1    1.48    0.19
   8   1   1    1.62    0.26
   6  -2  -1    4.58    0.50
   6  -2  -1    4.09    0.54
   6  -2  -1    4.15    0.50
   5  -2  -1   13.45    1.45
   5  -2  -1   15.36    1.37
   5  -2  -1   16.12    1.40
   5  -2  -1   14.46    1.41
   5  -2  -1   14.76    1.29
   4  -2  -1   14.17    1.92
   4  -2  -1   19.75    1.59
   4  -2  -1   18.66    2.06
   4  -2  -1   17.31    1.71
   4  -2  -1   17.84    1.64
   4  -2  -1   16.31    2.06
   4  -2  -1   17.79    1.64
   4  -2  -1   19.36    1.55
   4  -2  -1   17.14    2.13
   3  -2  -1    9.74    1.34
   3  -2  -1   10.83    1.00
   3  -2  -1   13.73    1.36
   3  -2  -1   13.48    1.29
   3  -2  -1   13.27    1.41
   3  -2  -1   10.54    1.06
   3  -2  -1   10.56    1.11
   3  -2  -1   10.22    1.04
   2  -2  -1    0.08    0.13
   2  -2  -1    0.30    0.18
   2  -2  -1    0.43    0.19
   2  -2  -1    0.35    0.18
   2  -2  -1    0.46    0.24
   2  -2  -1    0.24    0.17
   2  -2  -1    0.85    1.00
   1  -2  -1    1.82    0.35
   1  -2  -1    1.26    0.20
   1  -2  -1    1.28    0.22
   1  -2  -1    2.07    0.26
   1  -2  -1    3.33    0.97
   1  -2  -1    1.35    0.20
   1  -2  -1    1.35    0.23
   1  -2  -1    1.21    0.17
   1  -2  -1    1.14    0.17
  -1   2   1    0.95    0.17
  -1   2   1    1.27    0.18
   0  -2  -1    8.96    1.24
   0  -2  -1   10.59    1.04
   0  -2  -1   10.12    1.04
   0  -2  -1   10.24    1.10
   0  -2  -1    8.70    1.67
   0  -2  -1    9.85    0.91
   0  -2  -1    9.72    1.13
   0  -2  -1   11.24    0.92
   0  -2  -1    9.33    1.11
   0  -2  -1    9.65    1.10
   0   2   1   10.20    0.92
   0   2   1   11.14    0.92
  -1  -2  -1    2.23    0.31
  -1  -2  -1    1.72    0.25
  -1  -2  -1    2.05    0.29
  -1  -2  -1    1.49    0.26
  -1  -2  -1    1.93    0.30
  -1  -2  -1    2.36    0.34
  -1  -2  -1    2.16    0.81
  -1  -2  -1    2.24    0.49
  -1  -2  -1    1.86    0.25
   1   2   1    1.43    0.25
   1   2   1    1.71    0.26
  -2  -2  -1   55.82    5.37
  -2  -2  -1   49.58    4.73
  -2  -2  -1   56.28    5.70
  -2  -2  -1   52.78    5.72
  -2  -2  -1   47.10    4.73
   2   2   1   45.87    5.69
   2   2   1   51.46    5.37
   2   2   1   59.73    4.75
  -3  -2  -1   58.88    6.25
  -3  -2  -1   64.28    6.64
  -3  -2  -1   57.93    5.51
  -3  -2  -1   52.38    5.52
  -3  -2  -1   64.20    6.64
   3   2   1   66.28    6.27
   3   2   1   55.83    6.64
   3   2   1   67.24    5.55
   3   2   1   59.03    5.54
  -4  -2  -1   17.17    1.95
   4   2   1   17.65    1.90
   4   2   1   16.43    2.00
   4   2   1   15.47    1.88
   5   2   1    0.31    0.15
   5   2   1    0.09    0.28
   6   2   1    2.24    0.37
   7   2   1    6.81    0.68
   7   2   1    5.18    0.69
   8   2   1    3.24    0.37
   8   2   1    3.23    0.38
   6  -3  -1    0.38    0.15
   5  -3  -1    1.34    0.36
   5  -3  -1    2.21    0.34
   5  -3  -1    1.56    0.31
   5  -3  -1    2.24    0.27
   4  -3  -1    3.10    0.44
   4  -3  -1    3.04    0.38
   4  -3  -1    1.26    0.60
   4  -3  -1    3.08    0.40
   4  -3  -1    3.99    0.83
   4  -3  -1    3.26    0.51
   3  -3  -1    0.37    0.15
   3  -3  -1    0.57    0.19
   3  -3  -1    0.72    0.42
   3  -3  -1    0.79    0.52
   3  -3  -1    0.77    0.30
   3  -3  -1    0.37    0.19
   2  -3  -1    0.92    0.37
   2  -3  -1    1.49    1.12
   1  -3  -1   97.74   10.09
   1  -3  -1   93.11   10.22
   0  -3  -1   10.17    1.39
   0  -3  -1   10.97    1.23
   0  -3  -1   12.15    1.79
   0  -3  -1   10.41    1.20
  -1  -3  -1   59.41    5.53
  -1  -3  -1   61.48    6.27
  -1  -3  -1   56.94    6.76
  -1  -3  -1   64.76    6.63
  -1  -3  -1   69.60    6.66
  -1  -3  -1   55.64    8.23
  -1  -3  -1   64.66    5.52
  -1  -3  -1   62.51    6.26
  -1  -3  -1   55.33    6.65
   1   3   1   64.29    5.53
   1   3   1   60.55    5.53
  -2  -3  -1    6.10    0.69
  -2  -3  -1    4.58    0.70
  -2  -3  -1    5.71    0.79
  -2  -3  -1    5.57    0.60
  -2  -3  -1    6.02    0.72
  -2  -3  -1    5.84    0.60
  -2  -3  -1    5.09    0.65
   2   3   1    5.49    0.60
   2   3   1    6.25    0.66
  -3  -3  -1   26.07    2.59
  -3  -3  -1   23.52    2.73
  -3  -3  -1   29.01    2.81
  -3  -3  -1   20.75    2.27
  -3  -3  -1   23.67    2.27
   3   3   1   22.62    2.31
  -4  -3  -1    4.36    0.79
  -4  -3  -1    3.03    0.63
  -4  -3  -1    3.63    0.72
  -5  -3  -1    1.70    0.57
   6   3   1    6.49    0.77
   7   3   1    1.62    0.32
   5  -4  -1   -0.05    0.16
   5  -4  -1   -0.14    0.21
   4  -4  -1    3.24    0.30
   4  -4  -1    3.45    0.48
   4  -4  -1    3.26    0.42
   3  -4  -1    2.83    0.66
   3  -4  -1    4.41    0.56
   3  -4  -1    4.17    0.50
   3  -4  -1    3.48    0.36
   3  -4  -1    3.36    0.43
   3  -4  -1    4.98    0.81
   2  -4  -1    1.37    1.07
   2  -4  -1    1.03    0.46
   2  -4  -1    1.56    0.24
   2  -4  -1    1.18    0.79
   2  -4  -1    1.35    0.17
   2  -4  -1    1.61    0.47
   2  -4  -1    1.26    0.33
   2  -4  -1    1.83    0.30
   2  -4  -1    1.37    0.40
   1  -4  -1    3.48    0.56
   1  -4  -1    7.63    1.71
   1  -4  -1    4.14    0.66
   0  -4  -1   14.65    1.58
   0  -4  -1   11.24    1.74
   0  -4  -1   17.64    2.38
   0  -4  -1   13.17    1.54
  -1  -4  -1   13.81    1.58
  -1  -4  -1   14.38    1.74
  -1  -4  -1   13.22    2.19
  -2  -4  -1    0.70    0.23
  -2  -4  -1    1.00    0.55
  -2  -4  -1    0.20    0.76
  -2  -4  -1    0.23    0.18
  -2  -4  -1    0.77    0.23
  -2  -4  -1    0.73    0.28
  -3  -4  -1    2.81    0.53
  -3  -4  -1    2.43    0.90
  -3  -4  -1    1.99    0.57
  -3  -4  -1    2.93    0.52
  -4  -4  -1    6.88    1.00
  -4  -4  -1    7.35    1.11
  -4  -4  -1    8.09    0.99
  -5  -4  -1    0.00    0.33
  -5  -4  -1    0.20    0.41
  -5  -4  -1    0.05    0.33
  -5  -4  -1    0.31    0.18
  -5  -4  -1    0.22    0.26
  -6  -4  -1   -0.08    0.26
  -7  -4  -1    0.08    0.26
   7   4   1    0.05    0.22
   4  -5  -1   10.57    1.06
   4  -5  -1    9.82    0.97
   3  -5  -1    0.43    0.66
   3  -5  -1    0.79    0.34
   3  -5  -1    0.37    0.26
   3  -5  -1    0.62    0.20
   2  -5  -1    2.34    0.67
   2  -5  -1    0.45    0.39
   2  -5  -1    2.08    0.35
   2  -5  -1    1.96    0.94
   2  -5  -1    1.28    0.30
   2  -5  -1    1.79    0.26
   2  -5  -1    1.41    0.53
   1  -5  -1    2.24    0.34
   1  -5  -1    1.55    0.36
   1  -5  -1    1.74    0.24
   1  -5  -1    1.52    0.60
   1  -5  -1    2.22    0.31
   1  -5  -1    1.86    0.49
   1  -5  -1    1.05    0.35
   1  -5  -1    1.67    0.35
   1  -5  -1    1.01    1.16
   1  -5  -1    0.95    0.39
   0  -5  -1   -0.04    0.19
   0  -5  -1    0.23    0.20
   0  -5  -1    0.12    0.09
   0  -5  -1    0.37    0.61
   0  -5  -1    1.01    0.44
   0  -5  -1    0.25    0.25
   0  -5  -1    0.17    0.75
   0  -5  -1    0.27    0.27
   0  -5  -1   -0.07    0.48
   0  -5  -1    0.05    0.11
  -1  -5  -1    0.44    0.63
  -1  -5  -1    0.90    0.24
  -1  -5  -1    0.82    0.62
  -1  -5  -1    1.13    0.41
  -2  -5  -1    1.24    0.26
  -2  -5  -1    0.96    0.23
  -2  -5  -1    1.25    0.68
  -2  -5  -1    1.27    0.26
  -2  -5  -1    1.07    0.23
  -3  -5  -1   30.73    3.32
  -3  -5  -1   28.39    2.71
  -3  -5  -1   27.65    3.20
  -3  -5  -1   26.83    2.75
  -3  -5  -1   25.90    2.48
  -3  -5  -1   27.55    3.10
  -4  -5  -1   20.38    1.92
  -4  -5  -1   24.62    2.37
  -4  -5  -1   23.01    2.63
  -4  -5  -1   18.71    1.86
  -4  -5  -1   20.73    2.07
  -4  -5  -1   22.42    2.46
  -4  -5  -1   20.00    2.13
  -5  -5  -1    4.44    0.64
  -5  -5  -1    3.99    0.96
  -5  -5  -1    4.00    0.53
  -5  -5  -1    4.28    0.87
  -5  -5  -1    5.33    0.59
  -5  -5  -1    5.69    0.92
  -5  -5  -1    4.87    0.58
  -6  -5  -1   -0.21    0.23
  -6  -5  -1    0.28    0.22
  -7  -5  -1    0.30    0.25
   4  -6  -1    2.04    0.26
   4  -6  -1    2.21    0.30
   3  -6  -1    0.66    0.23
   3  -6  -1    0.93    0.24
   2  -6  -1    0.76    0.67
   2  -6  -1    1.34    0.48
   2  -6  -1    0.51    0.30
   2  -6  -1    0.52    0.18
   1  -6  -1   18.10    2.25
   1  -6  -1   21.32    1.84
   1  -6  -1   24.19    1.91
   1  -6  -1   18.95    2.20
   1  -6  -1   18.98    2.58
   1  -6  -1   21.09    2.44
   1  -6  -1   22.89    2.03
   0  -6  -1    3.23    0.41
   0  -6  -1    2.71    0.37
   0  -6  -1    1.34    0.73
   0  -6  -1    2.91    0.59
   0  -6  -1    2.58    0.35
   0  -6  -1    3.89    0.54
   0  -6  -1    2.21    0.59
   0  -6  -1    2.90    0.75
   0  -6  -1    3.04    0.35
  -1  -6  -1    0.43    0.29
  -1  -6  -1   -0.04    0.14
  -1  -6  -1   -0.04    0.13
  -1  -6  -1   -0.09    0.57
  -1  -6  -1   -0.02    0.46
  -1  -6  -1    0.15    0.20
  -1  -6  -1   -0.02    0.43
  -2  -6  -1    0.37    0.22
  -2  -6  -1    0.30    0.17
  -2  -6  -1    0.47    0.56
  -2  -6  -1   -0.13    0.33
  -2  -6  -1    0.55    0.30
  -2  -6  -1    0.66    0.45
  -3  -6  -1    1.66    0.26
  -3  -6  -1    1.66    0.63
  -3  -6  -1    1.19    0.22
  -3  -6  -1    0.90    0.27
  -3  -6  -1    1.91    0.31
  -3  -6  -1    2.09    0.43
  -3  -6  -1    1.86    0.72
  -3  -6  -1    2.29    0.36
  -3  -6  -1    1.61    0.35
  -4  -6  -1    1.59    0.29
  -4  -6  -1    1.11    0.68
  -4  -6  -1    1.82    0.49
  -4  -6  -1    1.45    0.30
  -4  -6  -1    2.09    0.87
  -4  -6  -1    1.54    0.31
  -4  -6  -1    1.99    0.39
  -5  -6  -1   -0.93    0.73
  -5  -6  -1   -0.33    0.40
  -5  -6  -1   -0.02    0.24
  -5  -6  -1   -0.24    0.33
  -5  -6  -1   -0.18    0.11
  -5  -6  -1   -0.12    0.16
  -5  -6  -1   -0.11    0.41
  -6  -6  -1    5.30    0.63
  -6  -6  -1    4.95    0.55
  -6  -6  -1    4.13    0.60
  -7  -6  -1    0.30    0.27
  -8  -6  -1    1.45    0.16
  -8  -6  -1    1.56    0.44
   2  -7  -1    1.54    0.56
   2  -7  -1    0.83    0.21
   2  -7  -1    0.93    0.21
   1  -7  -1    0.44    0.50
   1  -7  -1    0.57    0.20
   1  -7  -1    0.29    0.36
   1  -7  -1    0.71    0.20
   1  -7  -1   -0.19    0.57
   0  -7  -1    1.33    0.78
   0  -7  -1    0.93    0.26
   0  -7  -1    1.02    0.50
   0  -7  -1    0.89    0.29
   0  -7  -1    1.35    0.22
   0  -7  -1    0.85    0.53
   0  -7  -1    1.64    0.27
  -1  -7  -1   -0.20    0.30
  -1  -7  -1    0.12    0.11
  -1  -7  -1   -0.24    0.38
  -1  -7  -1   -0.52    0.80
  -1  -7  -1    0.08    0.22
  -1  -7  -1   -0.32    0.69
  -1  -7  -1    0.50    0.50
  -2  -7  -1    1.56    0.27
  -2  -7  -1    0.37    0.81
  -2  -7  -1    1.84    0.49
  -2  -7  -1    1.05    0.38
  -2  -7  -1    0.64    0.77
  -3  -7  -1   -0.11    0.60
  -3  -7  -1    0.18    0.46
  -3  -7  -1   -0.10    0.21
  -3  -7  -1    0.37    0.67
  -3  -7  -1   -0.15    0.29
  -4  -7  -1    0.45    0.11
  -4  -7  -1    0.95    0.32
  -4  -7  -1    0.37    0.53
  -4  -7  -1    1.24    0.46
  -4  -7  -1    0.66    0.23
  -4  -7  -1    0.45    0.87
  -5  -7  -1    0.87    0.81
  -5  -7  -1    0.34    0.24
  -5  -7  -1    0.37    0.39
  -5  -7  -1    0.43    0.21
  -6  -7  -1    0.10    0.21
  -6  -7  -1   -0.29    0.70
  -6  -7  -1   -0.01    0.24
  -7  -7  -1    0.99    0.26
  -7  -7  -1    2.27    0.67
  -8  -7  -1    0.22    0.28
   0  -8  -1    1.02    0.50
   0  -8  -1    1.10    0.42
   0  -8  -1    1.83    0.78
   0  -8  -1    2.37    0.36
  -1  -8  -1    1.00    0.53
  -1  -8  -1    0.27    0.46
  -1  -8  -1    0.99    0.28
  -2  -8  -1    0.50    0.37
  -2  -8  -1    0.54    0.54
  -2  -8  -1    0.60    0.26
  -3  -8  -1    3.67    0.53
  -3  -8  -1    3.22    0.76
  -3  -8  -1    3.09    0.68
  -4  -8  -1    1.84    0.44
  -4  -8  -1    1.84    0.39
  -4  -8  -1    1.82    0.30
  -4  -8  -1    2.41    0.87
  -5  -8  -1    0.47    0.30
  -5  -8  -1    1.09    0.26
  -5  -8  -1    0.98    0.80
  -6  -8  -1    0.76    0.33
  -6  -8  -1    0.70    0.25
  -6  -8  -1    1.78    0.55
  -7  -8  -1    0.01    0.32
  -1  -9  -1    0.04    0.28
  -1  -9  -1    0.25    0.40
  -2  -9  -1    0.31    0.35
  -2  -9  -1    0.45    0.20
  -2  -9  -1    0.04    0.29
  -3  -9  -1    0.71    0.42
  -3  -9  -1    1.05    0.56
  -3  -9  -1    1.31    0.27
  -4  -9  -1    0.35    0.26
  -4  -9  -1    0.87    0.53
  -4  -9  -1    0.25    0.17
  -5  -9  -1    0.01    0.44
  -5  -9  -1   -0.05    0.30
  -6  -9   2    0.22    0.16
  -6  -9   2    0.23    0.08
  -5  -9   2    1.22    0.29
  -4  -9   2    2.17    0.34
  -4  -9   2    1.27    0.37
  -3  -9   2    0.69    0.22
  -3  -9   2    0.53    0.30
  -2  -9   2    0.29    0.28
  -1  -9   2    0.90    0.22
  -1  -9   2    0.37    0.25
  -7  -8   2   -0.06    0.29
  -7  -8   2    0.21    0.12
  -6  -8   2    1.53    0.29
  -6  -8   2    2.01    0.64
  -6  -8   2    2.09    0.35
  -5  -8   2    0.03    0.45
  -5  -8   2    0.13    0.18
  -5  -8   2    0.29    0.29
  -4  -8   2    3.61    0.85
  -4  -8   2    3.57    0.45
  -4  -8   2    6.13    0.70
  -3  -8   2    0.46    0.55
  -3  -8   2    0.80    0.41
  -3  -8   2    0.50    0.24
  -3  -8   2    0.48    0.31
  -2  -8   2    2.08    0.52
  -2  -8   2    2.52    0.42
  -2  -8   2    2.34    0.37
  -1  -8   2    0.44    0.18
  -1  -8   2    0.81    0.27
  -1  -8   2    0.44    0.35
   0  -8   2    1.73    0.37
   0  -8   2    0.96    0.45
   0  -8   2    1.39    0.26
  -7  -7   2    0.27    0.22
  -7  -7   2    0.30    0.37
  -7  -7   2    0.11    0.17
  -6  -7   2    0.16    0.46
  -6  -7   2    0.06    0.23
  -6  -7   2   -0.28    0.22
  -6  -7   2    0.30    0.20
  -5  -7   2    0.19    0.28
  -5  -7   2    0.00    0.19
  -5  -7   2    0.66    0.71
  -5  -7   2    0.19    0.18
  -4  -7   2    3.44    0.49
  -4  -7   2    2.25    0.89
  -4  -7   2    2.37    0.96
  -4  -7   2    3.78    0.42
  -4  -7   2    2.21    0.32
  -4  -7   2    3.91    0.63
  -3  -7   2    6.31    1.45
  -3  -7   2    7.73    0.93
  -3  -7   2    7.17    0.75
  -3  -7   2    7.59    0.82
  -3  -7   2    8.68    0.99
  -3  -7   2    6.83    1.18
  -2  -7   2   17.47    1.72
  -2  -7   2   19.26    1.95
  -2  -7   2   17.42    1.81
  -2  -7   2   13.91    2.04
  -1  -7   2    8.58    0.77
  -1  -7   2    8.36    0.79
  -1  -7   2    8.73    1.17
  -1  -7   2    7.69    0.97
  -1  -7   2    8.02    0.89
   0  -7   2    0.50    0.23
   0  -7   2    0.63    0.21
   0  -7   2    0.73    0.35
   0  -7   2    0.86    0.23
   0  -7   2    1.00    0.37
   0  -7   2    0.77    0.18
   1  -7   2    1.62    0.25
   1  -7   2    1.26    0.38
   1  -7   2    1.73    0.33
   1  -7   2    1.41    0.26
   1  -7   2    1.96    0.30
   1  -7   2    2.03    0.46
   2  -7   2    2.92    0.32
   2  -7   2    2.47    0.33
   2  -7   2    3.47    0.40
   3  -7   2    0.62    0.14
  -8  -6   2    3.01    0.40
  -8  -6   2    3.71    0.57
  -7  -6   2   -0.22    0.24
  -7  -6   2   -0.08    0.10
  -6  -6   2    0.38    0.19
  -6  -6   2    0.26    0.32
  -6  -6   2    0.28    0.26
  -6  -6   2    0.50    0.16
  -5  -6   2    5.12    0.67
  -5  -6   2    3.70    1.07
  -5  -6   2    5.41    0.60
  -5  -6   2    4.79    1.07
  -5  -6   2    4.66    0.53
  -5  -6   2    5.48    0.61
  -4  -6   2    1.14    0.44
  -4  -6   2    0.95    0.24
  -4  -6   2    1.39    0.28
  -4  -6   2    1.28    0.43
  -4  -6   2    0.58    0.64
  -4  -6   2    2.00    0.81
  -4  -6   2    0.45    0.37
  -4  -6   2    0.93    0.25
  -3  -6   2    3.63    0.51
  -3  -6   2    2.84    0.87
  -3  -6   2    3.66    0.42
  -3  -6   2    3.41    0.46
  -3  -6   2    3.11    0.40
  -3  -6   2    3.99    0.64
  -3  -6   2    2.64    0.93
  -2  -6   2    2.50    0.30
  -2  -6   2    0.89    0.74
  -2  -6   2    1.66    0.26
  -2  -6   2    2.91    0.38
  -2  -6   2    1.69    0.76
  -2  -6   2    2.62    0.40
  -2  -6   2    2.58    0.51
  -1  -6   2    1.68    0.24
  -1  -6   2    1.92    0.41
  -1  -6   2    2.63    0.37
  -1  -6   2    2.20    0.60
  -1  -6   2    1.00    0.40
  -1  -6   2    2.06    0.25
  -1  -6   2    0.54    0.66
  -1  -6   2    1.00    0.62
   0  -6   2   11.44    1.13
   0  -6   2   10.37    1.00
   0  -6   2   10.92    0.96
   0  -6   2   10.46    1.06
   0  -6   2    9.52    1.22
   0  -6   2   10.41    1.19
   1  -6   2    0.36    0.17
   1  -6   2    0.32    0.69
   1  -6   2    0.38    0.19
   1  -6   2    0.49    0.48
   1  -6   2    0.27    0.30
   1  -6   2    0.18    0.18
   1  -6   2    0.32    0.25
   2  -6   2    1.57    0.28
   2  -6   2    2.51    0.55
   2  -6   2    1.53    0.31
   2  -6   2    1.43    0.36
   2  -6   2    2.00    0.33
   3  -6   2    0.09    0.16
   3  -6   2    0.20    0.18
   3  -6   2   -0.24    0.11
   4  -6   2    0.91    0.18
   8   5  -2    0.21    0.12
  -8  -5   2    0.32    0.15
  -7  -5   2    0.07    0.15
  -6  -5   2    0.26    0.23
  -6  -5   2   -0.13    0.28
  -6  -5   2   -0.10    0.19
  -5  -5   2   25.42    2.37
  -5  -5   2   23.85    2.21
  -5  -5   2   25.51    2.15
  -5  -5   2   19.89    2.72
  -5  -5   2   20.53    2.81
  -5  -5   2   24.67    2.94
  -5  -5   2   25.77    2.43
  -4  -5   2    4.79    0.79
  -4  -5   2    5.38    0.59
  -4  -5   2    5.24    0.58
  -4  -5   2    5.26    0.58
  -4  -5   2    5.67    0.73
  -4  -5   2    3.86    0.82
  -4  -5   2    5.82    1.12
  -3  -5   2   28.40    3.06
  -3  -5   2   31.84    2.84
  -3  -5   2   28.05    2.79
  -3  -5   2   24.36    2.73
  -3  -5   2   29.27    3.21
  -3  -5   2   27.68    2.89
  -3  -5   2   28.16    2.47
  -3  -5   2   31.86    2.56
  -3  -5   2   31.86    3.40
  -3  -5   2   25.43    3.28
  -2  -5   2    3.85    0.92
  -2  -5   2    4.56    0.63
  -2  -5   2    2.88    0.37
  -2  -5   2    3.31    0.61
  -2  -5   2    3.68    0.47
  -2  -5   2    3.23    0.48
  -2  -5   2    3.60    0.38
  -2  -5   2    3.61    0.44
  -1  -5   2    7.50    0.68
  -1  -5   2    7.56    1.21
  -1  -5   2    8.39    0.97
  -1  -5   2    7.41    0.83
  -1  -5   2    7.02    0.87
  -1  -5   2    6.42    0.76
   0  -5   2    0.17    0.26
   0  -5   2   -0.38    0.53
   0  -5   2    0.32    0.19
   0  -5   2    0.17    0.16
   0  -5   2    0.15    0.20
   0  -5   2    0.70    0.43
   0  -5   2    0.14    0.51
   0  -5   2    0.25    0.23
   0  -5   2    0.15    0.17
   1  -5   2   -0.07    0.22
   1  -5   2    0.00    0.38
   1  -5   2    0.09    0.34
   1  -5   2    0.24    0.20
   1  -5   2    0.09    0.14
   1  -5   2    0.06    0.41
   1  -5   2    0.12    0.23
   1  -5   2    0.13    0.26
   1  -5   2    0.43    0.24
   1  -5   2    0.16    0.17
   2  -5   2    2.61    0.40
   2  -5   2    2.84    0.46
   2  -5   2    2.82    0.62
   2  -5   2    2.79    0.41
   2  -5   2    3.09    0.37
   2  -5   2    1.36    0.79
   2  -5   2    2.52    0.57
   3  -5   2    1.83    0.31
   3  -5   2    1.46    0.40
   3  -5   2    2.20    0.32
   4  -5   2    3.33    0.41
   4  -5   2    1.89    0.33
   4  -5   2    2.80    0.35
   8   4  -2    2.17    0.27
  -8  -4   2    1.74    0.28
   7   4  -2    0.61    0.20
  -7  -4   2    0.46    0.28
  -6  -4   2    0.19    0.27
  -5  -4   2    0.16    0.49
  -5  -4   2    0.19    0.22
  -4  -4   2    5.02    0.61
  -4  -4   2    6.18    0.93
  -4  -4   2    5.28    0.82
  -3  -4   2   -0.13    0.40
  -3  -4   2    0.40    0.31
  -2  -4   2   34.75    3.64
  -2  -4   2   33.13    3.47
  -2  -4   2   28.77    3.46
  -2  -4   2   30.26    3.30
   1   4  -2    7.34    0.84
  -1  -4   2   10.75    1.02
  -1  -4   2    8.65    0.95
  -1  -4   2    9.36    1.01
  -1  -4   2    7.29    0.85
  -1  -4   2    9.80    1.28
  -1  -4   2   10.55    0.97
  -1  -4   2    9.73    1.10
   0  -4   2    3.91    0.82
   0  -4   2    4.50    1.04
   0  -4   2    3.33    0.50
   0  -4   2    3.02    0.49
   1  -4   2    7.53    0.93
   1  -4   2    6.99    0.90
   2  -4   2    3.11    0.71
   2  -4   2    3.63    0.46
   2  -4   2    4.66    0.56
   2  -4   2    3.71    0.60
   2  -4   2    4.21    0.43
   2  -4   2    4.70    0.71
   2  -4   2    3.60    0.35
   2  -4   2    3.83    0.49
   3  -4   2    0.13    0.30
   3  -4   2    0.18    0.26
   3  -4   2    0.34    0.09
   3  -4   2    0.20    0.24
   3  -4   2    0.25    0.16
   3  -4   2   -0.62    0.53
   4  -4   2    1.81    0.35
   4  -4   2    1.90    0.29
   4  -4   2    1.79    0.34
   4  -4   2    1.45    0.16
   5  -4   2    4.27    0.42
   5  -4   2    3.04    0.45
   8   3  -2    4.83    0.50
   7   3  -2    1.87    0.30
   6   3  -2    1.25    0.28
   5   3  -2    0.64    0.38
  -5  -3   2    0.83    0.41
  -4  -3   2    0.43    0.30
  -4  -3   2    0.75    0.47
  -4  -3   2    0.27    0.36
  -3  -3   2    4.35    0.64
  -3  -3   2    2.64    0.65
  -3  -3   2    3.23    0.59
  -3  -3   2    1.75    0.40
   2   3  -2   12.05    1.17
   2   3  -2   10.52    1.14
  -2  -3   2   13.38    1.47
  -2  -3   2    9.59    1.13
  -2  -3   2   12.26    1.36
  -2  -3   2   12.30    1.34
   1   3  -2   10.70    0.97
   1   3  -2    9.41    0.95
  -1  -3   2   11.13    1.15
  -1  -3   2    8.59    1.39
  -1  -3   2   11.71    1.18
  -1  -3   2    8.16    1.13
  -1  -3   2   11.14    1.10
  -1  -3   2   12.32    1.32
  -1  -3   2    9.20    1.07
  -1  -3   2    9.10    0.95
  -1  -3   2   10.78    0.97
   0  -3   2  118.62   13.25
   0  -3   2  142.89   16.21
   0  -3   2  111.09   13.41
   0  -3   2  123.20   13.03
   1  -3   2    2.84    0.61
   1  -3   2    3.16    0.47
   1  -3   2    3.55    0.50
   2  -3   2   -0.08    0.23
   2  -3   2   -0.14    0.15
   3  -3   2    8.16    1.24
   3  -3   2    8.95    0.88
   3  -3   2    8.08    1.17
   3  -3   2    9.07    0.83
   3  -3   2    9.33    0.93
   3  -3   2    9.41    0.85
   4  -3   2    7.85    0.77
   4  -3   2    6.10    1.06
   4  -3   2    7.87    0.78
   4  -3   2    8.71    0.90
   4  -3   2    8.76    0.81
   5  -3   2    4.56    0.52
   5  -3   2    3.98    0.48
   5  -3   2    4.16    0.43
   5  -3   2    3.23    0.53
   6  -3   2    1.79    0.25
   6  -3   2    1.76    0.26
   8   2  -2    2.44    0.30
   8   2  -2    2.62    0.30
   7   2  -2    3.04    0.41
   7   2  -2    2.85    0.39
   6   2  -2    9.68    1.01
   6   2  -2    8.76    0.92
   5   2  -2    3.58    0.53
   5   2  -2    3.74    0.77
  -5  -2   2    4.33    0.83
   4   2  -2    0.47    0.41
   4   2  -2    0.04    0.25
   4   2  -2    0.40    0.37
   3   2  -2   12.78    1.68
   3   2  -2   15.76    1.61
   3   2  -2   15.74    1.44
   3   2  -2   13.68    1.44
  -3  -2   2   15.43    1.70
  -3  -2   2   14.69    1.60
  -3  -2   2   11.86    1.40
  -3  -2   2   14.06    1.40
   2   2  -2   26.06    2.53
   2   2  -2   27.41    2.86
   2   2  -2   26.02    3.02
   2   2  -2   27.11    2.52
  -2  -2   2   28.15    2.87
  -2  -2   2   27.72    3.03
  -2  -2   2   27.28    2.52
  -2  -2   2   27.60    2.51
  -2  -2   2   27.21    2.96
   1   2  -2   15.80    1.30
   1   2  -2   14.65    1.31
  -1  -2   2   12.41    1.54
  -1  -2   2   13.38    1.29
  -1  -2   2   16.29    1.62
  -1  -2   2   13.63    1.53
  -1  -2   2   12.23    1.45
  -1  -2   2   13.00    1.30
  -1  -2   2   13.28    1.48
   0   2  -2    0.59    0.15
   0   2  -2    0.66    0.14
   0  -2   2    0.53    0.14
   0  -2   2    1.03    0.24
   0  -2   2    0.70    0.15
   0  -2   2    0.96    0.19
   0  -2   2    1.08    0.26
   0  -2   2    1.02    0.20
   0  -2   2    1.13    0.47
   0  -2   2    1.26    0.38
   0  -2   2    0.80    0.15
   0  -2   2    0.90    0.18
  -1   2  -2    1.58    0.22
  -1   2  -2    1.56    0.22
   1  -2   2    1.80    0.22
   1  -2   2    1.76    0.24
   1  -2   2    1.61    0.23
   1  -2   2    3.71    0.84
   1  -2   2    2.38    0.43
   1  -2   2    1.47    0.26
   1  -2   2    2.31    0.37
   1  -2   2    2.53    0.36
   1  -2   2    1.83    0.22
   1  -2   2    2.10    0.27
  -2   2  -2    0.15    0.15
   2  -2   2    0.25    0.19
   2  -2   2    0.28    0.14
   2  -2   2    0.23    0.26
   2  -2   2    0.16    0.17
   2  -2   2    0.26    0.14
   2  -2   2    0.16    0.16
   2  -2   2    0.22    0.17
   3  -2   2   25.50    2.65
   3  -2   2   21.64    2.46
   4  -2   2    4.41    0.50
   4  -2   2    2.20    0.53
   4  -2   2    2.96    0.68
   4  -2   2    3.15    0.38
   4  -2   2    3.22    0.34
   4  -2   2    3.20    0.41
   4  -2   2    3.12    0.38
   4  -2   2    2.12    0.49
   5  -2   2   15.64    1.72
   5  -2   2   17.32    1.66
   5  -2   2   19.92    1.64
   5  -2   2   19.15    1.67
   6  -2   2    3.70    0.49
   6  -2   2    4.99    0.51
   6  -2   2    4.70    0.50
   7  -2   2    0.93    0.17
   7   1  -2    3.03    0.43
   7   1  -2    3.52    0.40
   7   1  -2    2.60    0.38
   7   1  -2    4.00    0.47
   6   1  -2    1.87    0.32
   6   1  -2    1.69    0.29
   6   1  -2    2.27    0.36
   5   1  -2    3.00    0.37
   5   1  -2    2.41    0.64
   5   1  -2    2.54    0.40
   5   1  -2    1.78    0.59
   5   1  -2    1.17    0.58
   5   1  -2    2.77    0.38
   4   1  -2    0.22    0.35
   4   1  -2    0.53    0.32
   4   1  -2    0.35    0.26
   3   1  -2   24.81    2.59
   3   1  -2   27.35    3.11
   3   1  -2   30.63    2.61
   3   1  -2   32.58    2.96
  -3  -1   2   28.71    2.59
  -3  -1   2   23.26    2.58
  -3  -1   2   27.77    3.11
  -3  -1   2   25.64    2.94
   2   1  -2   21.49    1.94
   2   1  -2   20.03    1.95
   2   1  -2   20.01    2.32
   2   1  -2   21.04    2.20
  -2  -1   2   20.52    2.32
  -2  -1   2   21.78    1.94
  -2  -1   2   19.23    2.19
  -2  -1   2   20.74    1.94
   1   1  -2   15.13    1.68
   1   1  -2   15.22    1.78
   1   1  -2   17.17    1.50
   1   1  -2   15.00    1.49
  -1  -1   2   15.43    1.78
  -1  -1   2   16.88    1.74
  -1  -1   2   17.47    1.50
   0   1  -2    9.17    0.84
   0   1  -2    8.79    0.84
   0  -1   2    8.86    1.00
   0  -1   2   10.42    0.99
   0  -1   2    7.64    0.94
   0  -1   2    9.47    1.00
   0  -1   2    8.99    0.83
   0  -1   2    9.53    0.95
   0  -1   2    7.58    1.00
   0  -1   2    9.50    0.84
  -1   1  -2    6.54    0.64
  -1   1  -2    6.33    0.61
   1  -1   2    6.24    0.68
   1  -1   2    6.32    0.72
   1  -1   2    5.52    0.68
   1  -1   2    6.17    0.72
   1  -1   2    5.82    0.62
   1  -1   2    5.98    0.62
   1  -1   2    6.43    0.74
   1  -1   2    7.04    0.74
  -2   1  -2   10.93    1.08
  -2   1  -2    9.79    1.05
   2  -1   2   11.01    1.19
   2  -1   2   12.33    1.08
   2  -1   2   10.75    1.27
   2  -1   2   10.74    1.28
   2  -1   2   11.37    1.27
   2  -1   2   10.88    1.06
   2  -1   2   10.94    1.20
   2  -1   2   11.17    1.24
   3  -1   2    4.03    0.60
   3  -1   2    3.22    0.48
   3  -1   2    3.55    0.53
   3  -1   2    3.39    0.55
   4  -1   2    4.26    0.50
   4  -1   2    5.81    0.90
   4  -1   2    3.99    0.48
   4  -1   2    4.41    0.47
   4  -1   2    4.88    0.69
   4  -1   2    5.04    0.54
   4  -1   2    4.63    0.51
   4  -1   2    4.83    0.73
   4  -1   2    4.93    0.47
   5  -1   2   10.96    0.97
   5  -1   2   10.27    0.92
   5  -1   2    8.25    1.25
   5  -1   2    9.48    1.34
   5  -1   2   10.56    1.00
   5  -1   2    9.03    0.94
   6  -1   2    1.91    0.32
   6  -1   2    1.59    0.33
   6  -1   2    1.87    0.36
   7  -1   2    0.15    0.21
   7  -1   2    0.25    0.19
   7   0  -2    1.09    0.22
   7   0  -2    1.45    0.28
   7   0  -2    1.78    0.22
   7   0  -2    1.90    0.33
   6   0  -2    4.43    0.59
   6   0  -2    4.14    0.52
   6   0  -2    4.66    0.56
   6   0  -2    3.88    0.49
   5   0  -2    7.96    1.11
   5   0  -2    8.04    1.18
   5   0  -2    7.34    0.86
   5   0  -2    8.30    0.83
   5   0  -2    7.67    0.79
   5   0  -2    7.74    1.18
   5   0  -2    8.12    0.82
   4   0  -2    6.20    0.69
   4   0  -2    7.13    0.98
   4   0  -2    6.68    0.72
   4   0  -2    6.60    0.92
   4   0  -2    7.83    1.02
   3   0  -2    4.01    0.71
   3   0  -2    4.09    0.67
   3   0  -2    4.36    0.56
   3   0  -2    4.53    0.63
   2   0  -2    4.58    0.58
   2   0  -2    5.40    0.64
   2   0  -2    4.53    0.56
   2   0  -2    5.35    0.71
  -2   0   2    4.26    0.67
  -2   0   2    5.00    0.58
  -2   0   2    4.44    0.63
  -2   0   2    5.17    0.56
   1   0  -2  198.41   17.49
   1   0  -2  202.85   20.98
   1   0  -2  198.86   25.21
   1   0  -2  202.25   17.46
   1   0  -2  187.29   19.67
  -1   0   2  178.87   20.91
  -1   0   2  210.66   17.55
  -1   0   2  190.69   19.68
  -1   0   2  179.23   17.53
   0   0  -2   27.57    2.33
   0   0  -2   24.92    2.80
   0   0  -2   27.51    2.33
   0   0  -2   24.77    2.63
   0   0   2   25.09    2.33
   0   0   2   25.07    2.33
   0   0   2   26.73    2.81
   0   0   2   24.27    2.64
  -1   0  -2   14.68    1.34
  -1   0  -2   12.73    1.60
  -1   0  -2   14.04    1.33
  -1   0  -2   14.61    1.50
   1   0   2   13.48    1.54
   1   0   2   15.99    1.34
   1   0   2   12.99    1.60
   1   0   2   16.42    1.34
   1   0   2   15.07    1.51
  -2   0  -2    2.91    0.42
  -2   0  -2    2.41    0.34
  -2   0  -2    3.45    0.53
  -2   0  -2    2.49    0.36
  -2   0  -2    2.60    0.42
   2   0   2    2.73    0.41
   2   0   2    2.86    0.39
   2   0   2    2.74    0.40
   2   0   2    2.76    0.42
   2   0   2    2.94    0.44
  -3   0  -2    8.12    0.97
   3   0   2    9.84    1.12
   3   0   2    8.96    0.99
   3   0   2    9.34    1.01
   3   0   2   11.49    1.22
   3   0   2   10.40    1.16
   4   0   2    7.16    1.07
   4   0   2    6.12    0.82
   4   0   2    5.15    0.81
   5   0   2    5.90    0.63
   5   0   2    5.85    0.61
   5   0   2    5.56    0.60
   5   0   2    6.00    0.61
   5   0   2    5.84    0.89
   5   0   2    4.15    0.88
   6   0   2    7.90    0.83
   6   0   2    9.11    0.84
   6   0   2    8.25    0.87
   7   0   2    1.68    0.28
   7   0   2    1.44    0.32
   7  -1  -2    9.06    0.90
   7  -1  -2   10.30    0.92
   6  -1  -2    0.51    0.30
   6  -1  -2    0.82    0.24
   6  -1  -2    0.78    0.27
   6  -1  -2    0.86    0.20
   5  -1  -2    6.74    1.10
   5  -1  -2    6.07    0.75
   5  -1  -2    8.16    0.73
   5  -1  -2    8.13    0.76
   5  -1  -2    6.67    0.78
   4  -1  -2    7.09    0.86
   4  -1  -2    5.15    0.64
   4  -1  -2    5.47    0.66
   4  -1  -2    5.89    0.67
   4  -1  -2    6.12    1.05
   4  -1  -2    6.34    0.62
   4  -1  -2    6.28    0.89
   4  -1  -2    6.06    0.61
   4  -1  -2    6.35    0.94
   3  -1  -2    2.21    0.52
   3  -1  -2    1.80    0.41
   3  -1  -2    4.10    1.37
   3  -1  -2    3.18    0.58
   2  -1  -2    9.95    0.98
   2  -1  -2    7.58    1.14
   2  -1  -2   10.18    1.09
   2  -1  -2   11.32    0.98
   2  -1  -2   10.12    1.11
   2  -1  -2    8.47    1.15
   2  -1  -2   11.77    1.18
  -2   1   2    9.81    0.97
  -2   1   2    9.01    0.98
   1  -1  -2   15.71    1.48
   1  -1  -2   16.35    1.68
   1  -1  -2   15.19    2.39
   1  -1  -2   15.53    1.79
   1  -1  -2   13.84    1.48
   1  -1  -2   15.42    1.69
   1  -1  -2   17.11    1.78
  -1   1   2   17.80    1.50
  -1   1   2   16.85    1.49
   0  -1  -2   64.75    6.36
   0  -1  -2   65.71    6.75
   0  -1  -2   58.98    5.60
   0  -1  -2   60.54    6.75
   0  -1  -2   61.18    6.35
   0  -1  -2   56.17    5.60
   0   1   2   67.75    5.61
   0   1   2   65.24    5.60
  -1  -1  -2    6.42    0.69
  -1  -1  -2    5.95    0.75
  -1  -1  -2    6.13    0.77
  -1  -1  -2    5.99    0.62
  -1  -1  -2    6.20    0.63
   1   1   2    6.73    0.64
   1   1   2    7.51    0.63
   1   1   2    5.42    0.74
   1   1   2    6.28    0.70
  -2  -1  -2  409.67   44.81
  -2  -1  -2  433.81   37.40
  -2  -1  -2  396.62   44.89
  -2  -1  -2  384.33   42.36
  -2  -1  -2  463.75   37.29
   2   1   2  377.36   43.76
   2   1   2  433.77   37.46
   2   1   2  427.13   37.40
   2   1   2  387.07   42.28
   2   1   2  450.10   45.14
  -3  -1  -2    9.24    1.27
  -3  -1  -2    9.61    1.21
  -3  -1  -2   10.61    1.23
  -3  -1  -2    9.36    1.05
  -3  -1  -2   10.42    1.09
   3   1   2   11.50    1.30
   3   1   2   11.70    1.10
   3   1   2   11.76    1.23
   3   1   2   10.43    1.22
   3   1   2   11.35    1.10
   4   1   2    5.03    0.77
   4   1   2    5.58    0.81
   4   1   2    4.06    0.63
   5   1   2    0.01    0.38
   5   1   2    0.67    0.25
   5   1   2    0.60    0.16
   5   1   2    0.26    0.30
   5   1   2    0.32    0.44
   6   1   2    0.93    0.48
   6   1   2    0.82    0.28
   6   1   2    0.98    0.21
   6   1   2    0.16    0.58
   7   1   2    2.53    0.35
   7   1   2    2.24    0.42
   7   1   2    2.60    0.37
   8   1   2    2.86    0.35
   6  -2  -2    2.37    0.31
   6  -2  -2    1.71    0.30
   6  -2  -2    2.47    0.38
   5  -2  -2   -0.35    0.22
   5  -2  -2    0.03    0.17
   5  -2  -2    0.17    0.11
   5  -2  -2    0.36    0.23
   5  -2  -2   -0.05    0.25
   4  -2  -2    0.75    0.54
   4  -2  -2    0.50    0.25
   4  -2  -2    0.49    0.14
   4  -2  -2    0.41    0.41
   4  -2  -2    0.04    0.27
   4  -2  -2    0.92    0.30
   4  -2  -2    0.72    0.18
   4  -2  -2    0.59    0.23
   4  -2  -2    0.17    0.26
   3  -2  -2   10.72    1.01
   3  -2  -2   10.80    1.06
   3  -2  -2   11.13    1.29
   3  -2  -2    9.65    0.95
   3  -2  -2   10.25    1.29
   3  -2  -2   10.34    1.02
   3  -2  -2   10.94    1.22
   3  -2  -2   13.42    1.39
   2  -2  -2   35.62    3.35
   2  -2  -2   26.20    3.33
   2  -2  -2   27.77    3.30
   2  -2  -2   30.27    3.16
   2  -2  -2   31.17    3.14
   1  -2  -2    7.09    0.74
   1  -2  -2    7.46    0.76
   1  -2  -2    6.08    0.63
   1  -2  -2    8.15    1.46
   1  -2  -2    6.29    0.63
   1  -2  -2    6.78    0.71
   1  -2  -2    6.38    0.76
   1  -2  -2    6.09    0.73
   1  -2  -2    5.01    0.76
  -1   2   2    6.37    0.63
  -1   2   2    7.17    0.64
   0  -2  -2    6.57    0.83
   0  -2  -2    7.74    0.82
   0  -2  -2    7.93    0.88
   0  -2  -2    8.58    0.74
   0  -2  -2    8.04    1.06
   0  -2  -2    7.93    0.88
   0  -2  -2    7.20    0.87
   0  -2  -2    7.37    0.73
   0  -2  -2    8.85    1.69
   0  -2  -2    7.30    0.88
   0   2   2    8.71    0.74
   0   2   2    8.21    0.74
  -1  -2  -2    5.48    0.50
  -1  -2  -2    5.22    0.59
  -1  -2  -2    4.40    0.48
  -1  -2  -2    4.18    0.55
  -1  -2  -2    5.93    1.34
  -1  -2  -2    4.58    0.71
  -1  -2  -2    4.89    0.56
  -1  -2  -2    3.85    0.57
   1   2   2    4.90    0.50
   1   2   2    5.63    0.52
  -2  -2  -2    9.74    1.02
  -2  -2  -2    9.21    0.91
  -2  -2  -2    9.30    1.08
  -2  -2  -2    9.17    0.90
  -2  -2  -2    8.54    1.09
   2   2   2    8.77    1.02
   2   2   2    8.55    1.07
   2   2   2    9.06    0.91
   2   2   2    9.04    0.93
  -3  -2  -2   29.61    2.74
  -3  -2  -2   26.55    2.71
  -3  -2  -2   28.16    3.08
  -3  -2  -2   33.19    3.29
  -3  -2  -2   28.98    3.28
   3   2   2   31.38    3.10
   3   2   2   25.51    3.13
   3   2   2   30.25    3.30
   3   2   2   31.44    2.76
  -4  -2  -2    7.17    1.09
  -4  -2  -2    8.57    1.04
   4   2   2    8.12    1.09
   4   2   2    7.08    0.95
   4   2   2    8.77    1.01
   5   2   2   18.94    2.03
   5   2   2   16.51    1.75
   6   2   2    4.03    0.50
   7   2   2    0.52    0.20
   8   2   2    0.24    0.16
   6  -3  -2    2.20    0.30
   5  -3  -2    5.81    0.58
   5  -3  -2    5.85    0.71
   5  -3  -2    5.83    0.68
   4  -3  -2    0.96    0.23
   4  -3  -2    0.95    0.30
   4  -3  -2    0.97    0.21
   4  -3  -2    1.01    0.48
   4  -3  -2    0.85    0.50
   4  -3  -2    0.89    0.30
   3  -3  -2    4.55    0.73
   3  -3  -2    4.69    0.57
   3  -3  -2    4.66    0.50
   3  -3  -2    4.47    0.49
   3  -3  -2    6.87    0.93
   3  -3  -2    4.59    0.52
   2  -3  -2    7.35    1.16
   2  -3  -2    7.35    0.90
   2  -3  -2    5.54    0.87
   2  -3  -2    6.54    0.63
   2  -3  -2    7.32    0.67
   2  -3  -2    5.97    0.72
   1  -3  -2   31.10    3.37
   0  -3  -2   31.59    3.55
   0  -3  -2   39.53    4.72
   0  -3  -2   32.95    3.50
   0  -3  -2   29.81    3.71
  -1  -3  -2    7.98    0.91
  -1  -3  -2    7.53    1.08
  -1  -3  -2    7.70    1.72
  -1  -3  -2    6.61    0.89
  -1  -3  -2    8.29    0.86
  -1  -3  -2    8.04    0.75
  -1  -3  -2    7.44    0.77
  -1  -3  -2    8.56    0.88
   1   3   2    7.39    0.76
   1   3   2    9.07    0.78
  -2  -3  -2    2.20    0.40
  -2  -3  -2    3.34    0.60
  -2  -3  -2    2.71    0.45
  -2  -3  -2    2.42    0.35
  -2  -3  -2    2.39    0.38
  -2  -3  -2    2.72    0.44
  -2  -3  -2    2.85    0.44
   2   3   2    3.01    0.39
   2   3   2    3.38    0.42
  -3  -3  -2    0.92    0.36
  -3  -3  -2    1.04    0.34
  -3  -3  -2    0.75    0.25
  -3  -3  -2    0.88    0.36
   3   3   2    0.60    0.33
  -4  -3  -2    2.16    0.55
  -4  -3  -2    1.89    0.50
  -4  -3  -2    0.83    0.37
   6   3   2    0.71    0.26
   7   3   2    6.53    0.76
   8   3   2    0.23    0.17
   5  -4  -2    4.44    0.45
   5  -4  -2    3.36    0.45
   4  -4  -2   13.77    1.29
   4  -4  -2   14.30    1.37
   4  -4  -2   17.27    1.90
   4  -4  -2   15.93    1.51
   3  -4  -2   11.86    1.06
   3  -4  -2   10.35    1.39
   3  -4  -2   10.36    0.98
   3  -4  -2   10.56    0.96
   3  -4  -2    8.62    1.33
   3  -4  -2   11.52    1.16
   2  -4  -2    3.00    0.67
   2  -4  -2    3.85    0.71
   2  -4  -2    4.86    1.03
   2  -4  -2    5.45    0.79
   2  -4  -2    4.86    0.60
   2  -4  -2    4.45    0.47
   2  -4  -2    4.56    0.45
   2  -4  -2    3.95    0.42
   2  -4  -2    6.27    1.90
   1  -4  -2    2.42    0.33
   1  -4  -2    1.20    0.38
   1  -4  -2    2.32    0.57
   1  -4  -2    2.63    0.57
   1  -4  -2    3.30    1.38
   0  -4  -2   -0.08    0.42
   0  -4  -2    0.37    0.82
   0  -4  -2   -0.02    0.12
  -1  -4  -2   49.05    6.10
  -1  -4  -2   60.99    5.56
  -1  -4  -2   51.04    7.50
  -2  -4  -2    1.43    0.90
  -2  -4  -2    1.34    0.48
  -2  -4  -2    1.03    0.25
  -2  -4  -2    0.93    0.28
  -3  -4  -2    0.15    0.27
  -3  -4  -2    0.24    0.24
  -3  -4  -2   -0.24    0.72
  -3  -4  -2    0.50    0.36
  -4  -4  -2    9.97    1.30
  -4  -4  -2   10.21    1.43
  -4  -4  -2   11.85    1.37
  -5  -4  -2    5.52    0.81
  -5  -4  -2    5.19    0.66
  -5  -4  -2    5.24    0.65
  -5  -4  -2    4.45    0.95
  -5  -4  -2    5.86    0.89
  -6  -4  -2    2.75    0.45
  -7  -4  -2    1.73    0.40
   7   4   2    2.25    0.34
   4  -5  -2    6.40    0.68
   4  -5  -2    4.74    0.56
   3  -5  -2    0.19    0.63
   3  -5  -2    0.00    0.31
   3  -5  -2    0.07    0.18
   2  -5  -2    9.69    1.48
   2  -5  -2   10.38    1.12
   2  -5  -2   10.37    1.01
   2  -5  -2   11.28    1.70
   1  -5  -2    8.87    1.30
   1  -5  -2   18.66    2.70
   1  -5  -2   10.64    1.28
   1  -5  -2   13.00    1.49
   1  -5  -2   13.02    1.10
   1  -5  -2   13.08    1.22
   1  -5  -2   10.37    1.59
   0  -5  -2    2.81    0.37
   0  -5  -2    2.97    0.35
   0  -5  -2    3.52    0.59
   0  -5  -2    2.76    0.83
   0  -5  -2    2.88    1.18
   0  -5  -2    2.77    0.52
   0  -5  -2    3.43    0.85
   0  -5  -2    2.95    0.47
   0  -5  -2    3.75    0.45
  -1  -5  -2    2.21    0.44
  -1  -5  -2    2.45    0.64
  -1  -5  -2    2.08    0.86
  -1  -5  -2    2.65    0.38
  -1  -5  -2    0.93    0.66
  -2  -5  -2    0.44    0.15
  -2  -5  -2    0.28    0.70
  -2  -5  -2    0.55    0.22
  -2  -5  -2    0.51    0.42
  -2  -5  -2    0.35    0.19
  -3  -5  -2    3.84    0.80
  -3  -5  -2    3.77    0.58
  -3  -5  -2    2.87    0.37
  -3  -5  -2    2.91    0.55
  -3  -5  -2    2.64    0.72
  -3  -5  -2    2.77    0.52
  -3  -5  -2    3.01    0.39
  -4  -5  -2    7.49    0.86
  -4  -5  -2    6.49    0.72
  -4  -5  -2    6.17    0.74
  -4  -5  -2    9.39    1.00
  -4  -5  -2    7.12    0.98
  -4  -5  -2    8.03    1.13
  -4  -5  -2    7.09    0.78
  -5  -5  -2    0.04    0.23
  -5  -5  -2    0.03    0.50
  -5  -5  -2    0.16    0.37
  -5  -5  -2    0.02    0.20
  -5  -5  -2    0.03    0.38
  -5  -5  -2   -0.07    0.24
  -6  -5  -2    4.18    0.58
  -6  -5  -2    4.25    0.58
  -7  -5  -2    3.36    0.52
  -7  -5  -2    2.96    0.46
   3  -6  -2    0.99    0.26
   3  -6  -2    1.39    0.49
   3  -6  -2    1.50    0.23
   2  -6  -2    4.70    0.58
   2  -6  -2    6.06    0.93
   2  -6  -2    5.87    1.14
   2  -6  -2    5.44    0.63
   1  -6  -2    2.43    0.69
   1  -6  -2    3.84    0.90
   1  -6  -2    3.93    0.80
   1  -6  -2    3.42    0.50
   1  -6  -2    4.19    2.02
   1  -6  -2    2.86    0.47
   1  -6  -2    3.64    0.42
   0  -6  -2    1.55    0.55
   0  -6  -2    1.40    0.43
   0  -6  -2    1.51    0.39
   0  -6  -2    1.77    0.27
   0  -6  -2    1.88    0.31
   0  -6  -2    2.86    0.90
   0  -6  -2    1.92    0.31
  -1  -6  -2    0.30    0.14
  -1  -6  -2    0.60    0.41
  -1  -6  -2    0.07    0.29
  -1  -6  -2   -0.53    0.67
  -1  -6  -2    0.33    0.44
  -1  -6  -2    0.32    0.20
  -1  -6  -2    0.51    0.66
  -2  -6  -2    0.26    0.38
  -2  -6  -2    0.62    0.35
  -2  -6  -2    0.91    0.32
  -2  -6  -2    1.09    0.22
  -2  -6  -2    1.28    0.60
  -2  -6  -2    1.28    0.26
  -2  -6  -2    1.17    0.83
  -3  -6  -2    4.65    0.67
  -3  -6  -2    6.42    1.22
  -3  -6  -2    5.24    0.55
  -3  -6  -2    6.04    0.63
  -3  -6  -2    6.93    0.85
  -3  -6  -2    8.13    1.15
  -4  -6  -2    3.14    0.51
  -4  -6  -2    3.65    0.43
  -4  -6  -2    2.52    0.90
  -4  -6  -2    3.99    0.69
  -4  -6  -2    3.76    0.60
  -4  -6  -2    2.54    0.42
  -4  -6  -2    5.52    0.95
  -5  -6  -2    0.55    0.41
  -5  -6  -2    0.64    0.26
  -5  -6  -2    0.34    0.50
  -5  -6  -2    0.57    0.27
  -5  -6  -2    0.84    0.15
  -5  -6  -2    0.58    0.37
  -5  -6  -2    0.67    0.60
  -6  -6  -2    0.85    0.19
  -6  -6  -2    1.24    0.33
  -6  -6  -2    1.16    0.32
  -6  -6  -2    0.96    0.79
  -7  -6  -2    0.67    0.23
  -7  -6  -2    0.30    0.48
  -8  -6  -2   -0.19    0.33
   2  -7  -2    0.42    0.17
   2  -7  -2    0.70    0.19
   2  -7  -2    1.24    0.40
   1  -7  -2    4.46    0.98
   1  -7  -2    4.78    0.58
   1  -7  -2    5.40    0.79
   1  -7  -2    4.12    0.45
   0  -7  -2    6.34    0.90
   0  -7  -2    6.66    0.68
   0  -7  -2    5.97    0.68
   0  -7  -2    5.93    1.18
   0  -7  -2    4.92    0.73
   0  -7  -2    6.56    0.99
  -1  -7  -2    0.78    0.45
  -1  -7  -2    0.84    0.25
  -1  -7  -2    0.93    0.30
  -1  -7  -2    0.49    0.63
  -1  -7  -2    0.84    0.63
  -1  -7  -2    0.86    0.53
  -2  -7  -2    0.64    0.35
  -2  -7  -2    0.43    0.40
  -2  -7  -2    0.70    0.25
  -2  -7  -2    0.83    0.38
  -2  -7  -2    0.69    0.81
  -2  -7  -2    0.39    0.58
  -3  -7  -2   -0.92    0.86
  -3  -7  -2   -0.23    0.29
  -3  -7  -2   -0.79    0.67
  -3  -7  -2   -0.22    0.44
  -3  -7  -2   -0.08    0.22
  -4  -7  -2    0.16    0.26
  -4  -7  -2   -0.11    0.21
  -4  -7  -2    0.12    0.40
  -4  -7  -2   -0.10    0.44
  -4  -7  -2   -0.02    0.10
  -4  -7  -2    0.00    0.59
  -5  -7  -2   -0.06    0.36
  -5  -7  -2   -0.12    0.24
  -5  -7  -2   -0.34    0.17
  -5  -7  -2   -0.20    0.54
  -6  -7  -2    1.91    0.62
  -6  -7  -2    1.63    0.30
  -6  -7  -2    1.29    0.35
  -7  -7  -2    3.66    0.71
  -8  -7  -2    0.38    0.30
   1  -8  -2    0.03    0.25
   1  -8  -2    0.03    0.10
   0  -8  -2    0.46    0.77
   0  -8  -2    0.43    0.30
   0  -8  -2    0.34    0.34
  -1  -8  -2    0.69    0.40
  -1  -8  -2    0.67    0.30
  -1  -8  -2    1.18    0.30
  -1  -8  -2    1.81    0.60
  -2  -8  -2    3.72    0.96
  -2  -8  -2    3.95    0.54
  -2  -8  -2    2.88    0.68
  -3  -8  -2    0.46    0.55
  -3  -8  -2    0.00    0.20
  -3  -8  -2    0.24    0.33
  -4  -8  -2    3.63    0.51
  -4  -8  -2    5.06    0.89
  -4  -8  -2    3.49    0.45
  -4  -8  -2    3.36    0.57
  -5  -8  -2    1.05    0.26
  -5  -8  -2    0.76    0.31
  -5  -8  -2    1.96    0.66
  -6  -8  -2    0.50    0.48
  -6  -8  -2   -0.15    0.20
  -7  -8  -2   -0.51    0.32
  -1  -9  -2   -0.02    0.39
  -1  -9  -2    0.34    0.26
  -2  -9  -2    0.49    0.43
  -2  -9  -2    0.00    0.38
  -3  -9  -2    0.36    0.28
  -3  -9  -2   -0.28    0.55
  -3  -9  -2    0.19    0.18
  -4  -9  -2    1.20    0.31
  -4  -9  -2    0.97    0.59
  -5  -9  -2    2.62    0.68
  -5  -9  -2    3.51    0.47
  -6  -9  -2    0.88    0.31
  -5  -9   3    1.59    0.32
  -4  -9   3   -0.02    0.25
  -4  -9   3    0.15    0.19
  -3  -9   3    0.73    0.34
  -2  -9   3    0.22    0.26
  -1  -9   3    0.23    0.24
  -7  -8   3    0.01    0.11
  -6  -8   3    0.86    0.22
  -6  -8   3    1.42    0.29
  -5  -8   3    2.29    0.31
  -5  -8   3    2.39    0.45
  -4  -8   3   -0.19    0.16
  -4  -8   3   -0.15    0.33
  -4  -8   3   -0.13    0.17
  -3  -8   3   -0.01    0.36
  -3  -8   3    0.11    0.14
  -3  -8   3    0.42    0.23
  -2  -8   3    0.33    0.23
  -2  -8   3    0.50    0.36
  -2  -8   3    0.02    0.14
  -1  -8   3    0.47    0.33
  -1  -8   3    0.71    0.19
  -1  -8   3   -0.08    0.31
   0  -8   3    0.08    0.10
   0  -8   3    0.07    0.14
   0  -8   3    0.14    0.21
   1  -8   3    0.30    0.17
   1  -8   3    0.54    0.11
  -7  -7   3    0.64    0.15
  -7  -7   3    0.86    0.20
  -7  -7   3    0.90    0.38
  -6  -7   3    1.07    0.31
  -6  -7   3    1.70    0.24
  -6  -7   3    1.41    0.31
  -6  -7   3    2.91    0.72
  -5  -7   3   -0.06    0.27
  -5  -7   3    0.09    0.20
  -5  -7   3    0.04    0.17
  -5  -7   3   -0.69    0.66
  -4  -7   3    1.59    0.28
  -4  -7   3    1.44    0.59
  -4  -7   3    0.98    0.18
  -4  -7   3    1.26    0.32
  -4  -7   3    1.44    0.52
  -3  -7   3    0.43    0.18
  -3  -7   3    0.28    0.19
  -3  -7   3    0.71    0.56
  -3  -7   3    0.43    0.24
  -3  -7   3    0.93    0.65
  -3  -7   3    0.31    0.72
  -2  -7   3   43.68    4.23
  -2  -7   3   48.45    4.12
  -2  -7   3   36.65    3.69
  -2  -7   3   33.94    4.92
  -2  -7   3   45.35    4.28
  -1  -7   3    0.10    0.33
  -1  -7   3    0.41    0.56
  -1  -7   3    0.06    0.13
  -1  -7   3    0.07    0.17
   0  -7   3    1.24    0.26
   0  -7   3    0.94    0.32
   0  -7   3    1.32    0.22
   0  -7   3    0.92    0.26
   0  -7   3    1.03    0.20
   0  -7   3    1.29    0.39
   1  -7   3    0.14    0.21
   1  -7   3   -0.40    0.18
   1  -7   3    0.50    0.20
   1  -7   3    0.16    0.15
   1  -7   3    0.06    0.23
   2  -7   3    0.19    0.18
   2  -7   3    0.34    0.15
   3  -7   3    0.10    0.10
  -8  -6   3    0.42    0.15
  -7  -6   3    0.86    0.16
  -7  -6   3    1.16    0.29
  -7  -6   3    0.46    0.42
  -6  -6   3    2.89    0.41
  -6  -6   3    3.15    0.51
  -6  -6   3    2.48    0.35
  -6  -6   3    2.76    0.43
  -5  -6   3    0.79    0.16
  -5  -6   3    0.88    0.24
  -5  -6   3    1.21    0.25
  -5  -6   3    1.23    0.34
  -5  -6   3    0.68    0.53
  -5  -6   3    0.90    0.55
  -4  -6   3    3.02    0.38
  -4  -6   3    1.47    0.62
  -4  -6   3    2.14    0.39
  -4  -6   3    2.72    0.47
  -4  -6   3    2.04    0.33
  -4  -6   3    1.71    0.77
  -3  -6   3    4.53    0.53
  -3  -6   3    4.48    1.06
  -3  -6   3    3.40    0.88
  -3  -6   3    5.37    0.68
  -3  -6   3    4.27    0.56
  -3  -6   3    3.95    0.48
  -3  -6   3    4.01    0.46
  -2  -6   3    1.30    0.22
  -2  -6   3    0.97    0.18
  -2  -6   3    1.67    0.30
  -2  -6   3    1.01    0.28
  -2  -6   3    0.88    0.37
  -2  -6   3    0.29    0.69
  -2  -6   3    1.05    0.59
  -2  -6   3    0.71    0.51
  -1  -6   3    1.42    0.24
  -1  -6   3    0.80    0.40
  -1  -6   3    1.98    0.24
  -1  -6   3    1.96    0.40
  -1  -6   3    1.48    0.64
  -1  -6   3    1.25    0.16
  -1  -6   3    1.74    0.47
   0  -6   3   11.80    1.03
   0  -6   3    9.59    1.40
   0  -6   3    9.40    1.34
   0  -6   3   11.83    1.06
   0  -6   3   11.25    1.14
   0  -6   3   12.47    1.21
   0  -6   3   11.69    1.26
   1  -6   3    8.63    1.28
   1  -6   3   10.79    1.01
   1  -6   3   10.74    1.10
   1  -6   3   10.22    1.06
   1  -6   3   11.97    0.98
   1  -6   3    9.56    1.16
   2  -6   3    0.89    0.25
   2  -6   3    0.57    0.26
   2  -6   3    0.81    0.27
   2  -6   3    0.98    0.23
   3  -6   3    0.65    0.22
   3  -6   3    0.57    0.17
   3  -6   3    0.22    0.22
   4  -6   3    0.39    0.12
   4  -6   3    0.30    0.14
   8   5  -3    0.65    0.13
  -8  -5   3    0.42    0.14
  -7  -5   3    0.28    0.21
  -6  -5   3    0.84    0.24
  -6  -5   3    0.66    0.25
  -6  -5   3    0.71    0.25
  -5  -5   3    4.89    0.57
  -5  -5   3    2.66    0.80
  -5  -5   3    4.47    0.61
  -5  -5   3    5.07    0.57
  -5  -5   3    4.18    1.04
  -4  -5   3    6.37    0.95
  -4  -5   3    5.87    0.70
  -4  -5   3    6.96    0.70
  -4  -5   3    6.85    0.74
  -4  -5   3    7.58    1.10
  -4  -5   3    6.69    0.96
  -4  -5   3    6.70    0.80
  -3  -5   3   22.75    2.45
  -3  -5   3   19.57    1.73
  -3  -5   3   15.15    2.29
  -3  -5   3   18.09    1.88
  -3  -5   3   19.52    1.67
  -3  -5   3   19.81    2.20
  -3  -5   3   16.64    1.84
  -3  -5   3   20.99    2.14
  -3  -5   3   20.69    1.97
  -3  -5   3   19.57    1.97
  -2  -5   3    2.24    0.49
  -2  -5   3    2.44    0.78
  -2  -5   3    2.10    0.26
  -2  -5   3    1.58    0.36
  -2  -5   3    2.55    0.45
  -2  -5   3    1.42    0.35
  -2  -5   3    2.20    0.28
  -2  -5   3    2.73    0.31
  -2  -5   3    2.72    0.35
  -2  -5   3    2.10    0.39
  -1  -5   3    1.83    0.47
  -1  -5   3    1.12    0.63
  -1  -5   3    1.02    0.27
  -1  -5   3    1.18    0.17
  -1  -5   3    1.14    0.26
  -1  -5   3    1.09    0.19
  -1  -5   3    1.24    0.33
   0  -5   3    6.37    0.83
   0  -5   3    5.87    0.68
   0  -5   3    5.03    0.58
   0  -5   3    5.76    0.55
   0  -5   3    5.26    0.55
   0  -5   3    5.57    0.61
   0  -5   3    5.67    0.78
   1  -5   3    4.75    0.81
   1  -5   3    7.23    0.69
   1  -5   3    5.43    0.64
   1  -5   3    6.42    0.62
   1  -5   3    6.15    0.84
   1  -5   3    6.11    0.76
   1  -5   3    5.12    0.80
   1  -5   3    5.58    0.57
   2  -5   3    1.64    0.33
   2  -5   3    2.27    0.37
   2  -5   3    1.86    0.35
   2  -5   3    2.30    0.29
   2  -5   3    1.53    0.51
   3  -5   3    0.04    0.21
   3  -5   3    0.25    0.25
   3  -5   3    0.24    0.16
   4  -5   3    1.35    0.30
   4  -5   3    1.89    0.34
   4  -5   3    1.77    0.29
   5  -5   3    0.59    0.14
   5  -5   3    0.80    0.16
   8   4  -3    2.40    0.27
  -8  -4   3    1.60    0.30
   7   4  -3    0.31    0.19
  -7  -4   3    0.22    0.25
  -6  -4   3    1.60    0.34
  -5  -4   3    7.90    1.21
  -5  -4   3    7.96    0.88
  -4  -4   3    0.94    0.23
  -4  -4   3    1.12    0.47
  -4  -4   3    1.07    0.45
  -4  -4   3    0.65    0.40
  -4  -4   3    0.74    0.25
  -3  -4   3   16.00    2.00
  -3  -4   3   16.57    1.85
  -3  -4   3   15.87    1.90
  -2  -4   3   20.62    2.53
  -2  -4   3   22.53    2.43
  -2  -4   3   24.19    2.70
  -2  -4   3   23.81    2.54
  -1  -4   3    8.21    0.95
  -1  -4   3    9.03    1.10
  -1  -4   3    7.09    0.87
  -1  -4   3    7.80    0.89
  -1  -4   3    8.25    0.86
  -1  -4   3    6.51    0.82
   0  -4   3   16.36    2.09
   0  -4   3   17.47    1.93
   0  -4   3   17.58    1.96
   1  -4   3    8.97    1.05
   1  -4   3    8.80    1.06
   1  -4   3    7.71    0.82
   2  -4   3    9.71    1.43
   2  -4   3   12.80    1.15
   2  -4   3   12.10    1.23
   2  -4   3   13.41    1.11
   2  -4   3   11.86    1.46
   2  -4   3   11.68    1.25
   2  -4   3   12.57    1.08
   2  -4   3   12.65    1.48
   3  -4   3    3.86    0.43
   3  -4   3    5.29    0.82
   3  -4   3    3.31    0.52
   3  -4   3    4.18    0.51
   3  -4   3    2.27    0.68
   3  -4   3    4.19    0.38
   3  -4   3    4.27    0.58
   4  -4   3    0.56    0.21
   4  -4   3    0.60    0.09
   4  -4   3    0.83    0.21
   4  -4   3    0.77    0.33
   5  -4   3   13.14    1.14
   5  -4   3   11.84    1.16
   8   3  -3    2.27    0.28
   8   3  -3    2.15    0.21
  -8  -3   3    1.51    0.28
   7   3  -3    0.30    0.17
   6   3  -3    0.21    0.19
   5   3  -3    0.05    0.28
  -5  -3   3    0.34    0.46
  -4  -3   3    1.20    0.45
  -4  -3   3    0.77    0.41
  -3  -3   3    4.43    0.75
  -3  -3   3    3.68    0.76
   2   3  -3    1.40    0.33
   2   3  -3    1.12    0.28
  -2  -3   3    1.37    0.39
  -2  -3   3    1.11    0.29
  -2  -3   3    2.21    0.39
  -2  -3   3    1.90    0.47
  -2  -3   3    1.69    0.39
  -2  -3   3    1.73    0.33
   1   3  -3   21.40    1.87
  -1  -3   3   19.05    2.23
  -1  -3   3   21.40    2.24
  -1  -3   3   18.04    1.86
  -1  -3   3   23.82    2.34
  -1  -3   3   21.58    2.24
  -1  -3   3   18.82    2.10
  -1  -3   3   19.87    2.12
  -1  -3   3   18.02    1.86
   0   3  -3   10.43    1.04
   0   3  -3   11.62    1.05
   0  -3   3   10.89    1.26
   0  -3   3   10.98    1.05
   0  -3   3    9.90    1.17
   0  -3   3   11.72    1.18
   0  -3   3   13.20    1.25
   0  -3   3   11.93    1.40
   0  -3   3   11.99    1.30
   0  -3   3    9.93    1.04
   0  -3   3   12.79    1.30
   1  -3   3    2.76    0.50
   1  -3   3    3.09    0.44
   1  -3   3    2.29    0.50
   2  -3   3    2.57    0.48
   2  -3   3    3.07    0.54
   3  -3   3    7.37    0.86
   3  -3   3    8.19    0.88
   3  -3   3    7.88    0.80
   3  -3   3    8.53    1.18
   3  -3   3    8.46    0.76
   3  -3   3    8.35    1.09
   3  -3   3    7.85    0.77
   4  -3   3    8.78    0.84
   4  -3   3    8.80    0.93
   4  -3   3    7.96    0.85
   4  -3   3    6.96    1.15
   4  -3   3    8.95    0.81
   5  -3   3    3.58    0.51
   5  -3   3    4.45    0.54
   5  -3   3    4.11    0.43
   5  -3   3    4.11    0.51
   6  -3   3    0.63    0.18
   6  -3   3    0.55    0.23
   8   2  -3    4.79    0.46
   7   2  -3   13.95    1.36
   7   2  -3   13.04    1.25
   6   2  -3    1.85    0.35
   6   2  -3    2.68    0.40
   6   2  -3    2.44    0.42
   5   2  -3    5.35    1.02
   5   2  -3    5.83    0.68
  -5  -2   3    6.69    0.96
   3   2  -3    3.22    0.52
   3   2  -3    2.99    0.62
   3   2  -3    2.88    0.57
  -3  -2   3    2.00    0.43
  -3  -2   3    3.17    0.60
   2   2  -3    0.68    0.30
   2   2  -3    1.01    0.35
   2   2  -3    0.94    0.27
   2   2  -3    0.69    0.28
  -2  -2   3    0.78    0.26
  -2  -2   3    1.06    0.27
  -2  -2   3    1.04    0.35
   1   2  -3    5.03    0.71
   1   2  -3    6.15    0.64
   1   2  -3    5.51    0.65
  -1  -2   3    6.54    0.79
  -1  -2   3    6.27    0.65
  -1  -2   3    5.83    0.71
  -1  -2   3    4.89    0.73
  -1  -2   3    7.28    0.75
  -1  -2   3    6.69    0.73
  -1  -2   3    7.31    0.65
   0   2  -3   15.00    1.58
   0   2  -3   15.37    1.57
   0  -2   3   16.99    1.89
   0  -2   3   19.29    1.87
   0  -2   3   15.88    1.88
   0  -2   3   19.07    1.95
   0  -2   3   16.96    1.57
   0  -2   3   17.57    1.89
   0  -2   3   19.82    1.59
   0  -2   3   18.81    1.80
   0  -2   3   14.62    1.77
  -1   2  -3   19.97    1.94
  -1   2  -3   22.50    1.95
   1  -2   3   22.20    2.33
   1  -2   3   19.81    2.18
   1  -2   3   22.64    2.33
   1  -2   3   18.99    1.94
   1  -2   3   23.88    2.32
   1  -2   3   21.80    2.33
   1  -2   3   20.90    2.19
   1  -2   3   19.71    1.94
  -2   2  -3    0.75    0.19
   2  -2   3    0.49    0.16
   2  -2   3    0.46    0.21
   2  -2   3    0.48    0.22
   2  -2   3    0.39    0.19
   2  -2   3    0.99    0.33
   2  -2   3    0.60    0.19
   2  -2   3    0.60    0.24
   3  -2   3    0.49    0.32
   3  -2   3    0.21    0.25
   3  -2   3    0.51    0.24
   3  -2   3    0.39    0.21
   4  -2   3    0.22    0.14
   4  -2   3    0.43    0.30
   4  -2   3    0.13    0.26
   4  -2   3    0.55    0.38
   4  -2   3    0.35    0.21
   4  -2   3    0.56    0.26
   4  -2   3    0.36    0.17
   4  -2   3    0.49    0.19
   5  -2   3    1.70    0.36
   5  -2   3    1.96    0.35
   5  -2   3    1.80    0.30
   5  -2   3    1.63    0.33
   5  -2   3    1.27    0.47
   6  -2   3    1.11    0.23
   6  -2   3    1.58    0.30
   6  -2   3    1.18    0.24
   7  -2   3    0.68    0.15
   7  -2   3    0.34    0.07
   7   1  -3    2.41    0.35
   7   1  -3    2.99    0.36
   7   1  -3    2.55    0.42
   7   1  -3    2.04    0.31
   6   1  -3    0.08    0.22
   6   1  -3    0.55    0.21
   6   1  -3    0.38    0.20
   5   1  -3    9.92    1.05
   5   1  -3   10.50    1.52
   5   1  -3   11.08    1.47
   5   1  -3   10.37    1.39
   5   1  -3   11.59    1.14
   4   1  -3   60.84    7.58
   4   1  -3   76.30    7.35
   4   1  -3   74.41    7.80
   3   1  -3    2.61    0.48
   3   1  -3    3.34    0.58
   3   1  -3    2.61    0.46
   3   1  -3    2.59    0.54
   2   1  -3   65.47    6.53
   2   1  -3   56.72    6.92
   2   1  -3   65.51    5.76
   2   1  -3   70.47    5.78
  -2  -1   3   65.11    6.93
  -2  -1   3   58.35    5.75
   1   1  -3   11.67    1.52
   1   1  -3   13.57    1.44
   1   1  -3   11.98    1.28
   1   1  -3   13.38    1.82
   1   1  -3   14.32    1.27
  -1  -1   3   14.17    1.29
  -1  -1   3   14.73    1.53
  -1  -1   3   12.74    1.45
  -1  -1   3   12.98    1.28
  -1  -1   3   14.31    1.47
   0   1  -3   13.09    1.23
   0   1  -3   13.58    1.24
   0   1  -3   11.07    1.38
   0  -1   3   13.72    1.40
   0  -1   3   13.48    1.23
   0  -1   3   13.82    1.48
   0  -1   3   13.48    1.44
  -1   1  -3   91.49    7.79
  -1   1  -3   81.68    7.78
   1  -1   3   80.95    9.28
   1  -1   3   91.71    9.38
   1  -1   3   84.56    9.37
   1  -1   3   90.29    9.14
   1  -1   3  100.13    7.79
   1  -1   3   77.29    8.81
   1  -1   3   87.84    7.78
   1  -1   3   82.11    8.82
  -2   1  -3    1.44    0.28
  -2   1  -3    1.06    0.25
   2  -1   3    1.65    0.36
   2  -1   3    1.85    0.38
   2  -1   3    1.17    0.25
   2  -1   3    1.65    0.36
   2  -1   3    1.48    0.33
   2  -1   3    1.40    0.27
   2  -1   3    1.26    0.28
   2  -1   3    1.86    0.33
   3  -1   3   24.08    2.65
   3  -1   3   23.42    2.71
   3  -1   3   24.35    2.55
   3  -1   3   23.67    2.66
   4  -1   3    0.22    0.13
   4  -1   3    0.19    0.19
   4  -1   3    0.11    0.33
   4  -1   3    0.06    0.08
   4  -1   3    0.06    0.20
   4  -1   3    0.03    0.29
   4  -1   3    0.27    0.18
   4  -1   3    0.06    0.18
   4  -1   3    0.07    0.24
   5  -1   3   22.75    2.05
   5  -1   3   22.06    2.01
   5  -1   3   20.70    2.49
   5  -1   3   21.60    2.60
   5  -1   3   22.83    1.95
   5  -1   3   20.67    2.64
   5  -1   3   23.32    1.97
   6  -1   3   -0.02    0.26
   6  -1   3    0.30    0.17
   6  -1   3    0.25    0.22
   7  -1   3    0.40    0.24
   7   0  -3    4.47    0.41
   7   0  -3    3.71    0.41
   7   0  -3    3.63    0.44
   7   0  -3    4.05    0.47
   6   0  -3    5.85    0.69
   6   0  -3    5.15    0.60
   6   0  -3    5.28    0.57
   6   0  -3    5.38    0.62
   5   0  -3    0.56    0.27
   5   0  -3    0.51    0.48
   5   0  -3    0.49    0.16
   5   0  -3    0.56    0.21
   5   0  -3    0.20    0.29
   5   0  -3    0.15    0.41
   5   0  -3    0.29    0.44
   4   0  -3    0.86    0.21
   4   0  -3    1.07    0.26
   4   0  -3    1.40    0.50
   4   0  -3    1.00    0.47
   4   0  -3    0.58    0.28
   4   0  -3    0.85    0.38
   3   0  -3    1.52    0.46
   3   0  -3    0.95    0.40
   3   0  -3    1.74    0.42
   2   0  -3    0.76    0.28
   2   0  -3    1.12    0.78
   2   0  -3    0.71    0.24
   2   0  -3    0.82    0.30
   2   0  -3    1.22    0.37
  -2   0   3    0.96    0.35
  -2   0   3    0.87    0.33
  -2   0   3    0.85    0.29
  -2   0   3    0.96    0.26
   1   0  -3   34.38    3.42
   1   0  -3   35.06    4.11
   1   0  -3   38.05    3.88
   1   0  -3   40.06    3.42
   1   0  -3   38.34    5.05
  -1   0   3   38.80    4.13
  -1   0   3   37.53    3.89
  -1   0   3   35.93    3.43
  -1   0   3   40.46    3.43
   0   0  -3  258.63   27.48
   0   0  -3  238.19   22.79
   0   0  -3  268.86   22.98
   0   0  -3  249.28   25.95
   0   0   3  258.60   22.97
   0   0   3  263.43   22.86
   0   0   3  245.85   27.48
   0   0   3  262.37   26.10
  -1   0  -3  141.19   12.40
  -1   0  -3  136.04   14.05
  -1   0  -3  129.30   12.40
  -1   0  -3  139.62   14.94
   1   0   3  131.53   12.40
   1   0   3  148.28   14.07
   1   0   3  148.69   12.40
   1   0   3  147.93   14.61
   1   0   3  124.47   14.94
  -2   0  -3    9.63    1.01
  -2   0  -3    8.69    1.19
  -2   0  -3    8.98    1.11
  -2   0  -3    9.46    1.00
   2   0   3   12.08    1.03
   2   0   3   10.10    1.13
   2   0   3   11.49    1.13
   2   0   3   10.64    1.20
   2   0   3   10.25    1.02
  -3   0  -3    0.91    0.27
   3   0   3    1.37    0.30
   3   0   3    1.55    0.35
   3   0   3    1.95    0.47
   3   0   3    1.70    0.35
   3   0   3    1.67    0.38
   4   0   3    0.31    0.24
   4   0   3    0.44    0.37
   4   0   3    0.27    0.31
   5   0   3    0.21    0.46
   5   0   3   -0.14    0.31
   5   0   3    0.56    0.43
   5   0   3    0.46    0.16
   5   0   3    0.38    0.25
   5   0   3    0.40    0.14
   6   0   3    0.27    0.20
   6   0   3    0.13    0.21
   6   0   3    0.49    0.25
   7   0   3    3.48    0.43
   7   0   3    2.91    0.41
   8   0   3    5.81    0.55
   7  -1  -3   14.63    1.33
   6  -1  -3   14.59    1.35
   6  -1  -3   14.78    1.22
   6  -1  -3   13.23    1.30
   6  -1  -3   12.58    1.26
   5  -1  -3    2.67    0.45
   5  -1  -3    3.29    0.45
   5  -1  -3    2.26    0.64
   5  -1  -3    2.40    0.38
   5  -1  -3    2.59    0.36
   4  -1  -3    4.86    0.61
   4  -1  -3    5.34    0.63
   4  -1  -3    5.11    0.77
   4  -1  -3    5.76    0.85
   4  -1  -3    5.21    0.77
   4  -1  -3    5.10    0.54
   4  -1  -3    6.33    1.04
   4  -1  -3    5.15    0.56
   4  -1  -3    4.99    0.56
   3  -1  -3    4.81    0.78
   3  -1  -3    9.96    1.84
   3  -1  -3    5.64    0.76
   3  -1  -3    6.21    0.83
   2  -1  -3    1.71    0.43
   2  -1  -3    1.23    0.30
   2  -1  -3    1.27    0.26
   2  -1  -3    1.42    0.34
   2  -1  -3    0.98    0.36
   2  -1  -3    1.12    0.92
  -2   1   3    1.20    0.28
  -2   1   3    1.37    0.30
   1  -1  -3    9.94    1.21
   1  -1  -3   10.48    1.07
   1  -1  -3    9.08    1.27
   1  -1  -3   12.41    1.79
   1  -1  -3   12.60    1.08
   1  -1  -3   12.56    1.21
   1  -1  -3   12.03    1.29
  -1   1   3   12.25    1.10
  -1   1   3   10.38    1.07
   0  -1  -3   57.67    7.58
   0  -1  -3   71.06    6.26
   0  -1  -3   75.31    7.53
   0  -1  -3   63.88    9.22
   0  -1  -3   74.36    7.09
   0  -1  -3   68.91    7.54
   0  -1  -3   68.10    7.10
   0  -1  -3   67.27    6.25
   0   1   3   74.38    6.26
   0   1   3   77.99    6.26
   0   1   3   65.23    7.09
  -1  -1  -3   82.48    7.96
  -1  -1  -3   79.93    9.60
  -1  -1  -3   91.72    7.96
  -1  -1  -3   89.11    9.02
  -1  -1  -3   95.29    9.59
   1   1   3   96.81    7.97
   1   1   3   80.77    9.59
   1   1   3   93.49    7.97
   1   1   3   89.18    9.03
  -2  -1  -3  598.09   64.33
  -2  -1  -3  617.09   60.85
  -2  -1  -3  570.89   53.52
  -2  -1  -3  571.10   64.29
  -2  -1  -3  539.16   53.32
   2   1   3  652.92   60.97
   2   1   3  662.70   53.77
   2   1   3  674.85   53.54
   2   1   3  540.90   62.76
   2   1   3  564.90   64.47
  -3  -1  -3   20.68    2.41
  -3  -1  -3   18.98    2.35
  -3  -1  -3   19.61    2.00
  -3  -1  -3   20.79    2.27
  -3  -1  -3   19.53    2.02
   3   1   3   25.42    2.30
   3   1   3   23.54    2.44
   3   1   3   22.41    2.04
   3   1   3   18.95    2.02
   3   1   3   22.78    2.32
   4   1   3  103.67   10.14
   4   1   3   93.23   10.44
   4   1   3   98.93   10.79
   5   1   3   15.13    1.97
   5   1   3   15.68    1.83
   5   1   3   13.36    1.37
   5   1   3   17.47    1.87
   5   1   3   16.19    1.54
   6   1   3    0.47    0.60
   6   1   3    2.32    0.36
   6   1   3    2.58    0.35
   7   1   3    0.09    0.19
   7   1   3   -0.23    0.23
   7   1   3    0.24    0.19
   8   1   3    0.48    0.22
   6  -2  -3    9.04    0.85
   6  -2  -3    8.45    0.85
   5  -2  -3   -0.14    0.18
   5  -2  -3    0.00    0.09
   5  -2  -3   -0.08    0.26
   5  -2  -3    0.00    0.24
   5  -2  -3    0.05    0.26
   4  -2  -3    0.08    0.18
   4  -2  -3   -0.03    0.18
   4  -2  -3    0.31    0.24
   4  -2  -3    0.24    0.16
   4  -2  -3    0.07    0.19
   4  -2  -3   -0.06    0.27
   4  -2  -3    0.30    0.24
   4  -2  -3    0.32    0.39
   4  -2  -3    0.48    0.37
   3  -2  -3    2.39    0.50
   3  -2  -3    3.51    0.46
   3  -2  -3    2.69    0.38
   3  -2  -3    4.06    0.45
   3  -2  -3    6.12    1.59
   3  -2  -3    3.75    0.65
   3  -2  -3    3.56    0.72
   3  -2  -3    3.28    0.37
   3  -2  -3    4.02    0.66
   2  -2  -3    4.20    0.64
   2  -2  -3    4.51    0.62
   2  -2  -3    9.12    1.77
   2  -2  -3    4.66    0.59
   1  -2  -3    6.15    0.82
   1  -2  -3    7.60    0.79
   1  -2  -3    7.38    1.38
   1  -2  -3    6.93    0.80
   1  -2  -3    6.95    0.70
   1  -2  -3    6.12    0.83
   1  -2  -3    7.36    0.71
   1  -2  -3    7.90    0.84
  -1   2   3    6.85    0.70
  -1   2   3    7.04    0.71
   0  -2  -3   33.19    3.06
   0  -2  -3   23.34    3.32
   0  -2  -3   28.97    2.67
   0  -2  -3   32.32    2.69
   0  -2  -3   31.46    3.03
   0  -2  -3   31.26    4.19
   0  -2  -3   25.91    3.22
   0  -2  -3   30.34    3.22
   0   2   3   28.86    2.68
   0   2   3   28.60    2.68
  -1  -2  -3    2.78    0.38
  -1  -2  -3    2.89    0.42
  -1  -2  -3    2.74    0.38
  -1  -2  -3    2.29    0.35
  -1  -2  -3    3.99    1.07
  -1  -2  -3    3.35    0.63
  -1  -2  -3    2.02    0.40
  -1  -2  -3    3.29    0.44
   1   2   3    3.73    0.38
   1   2   3    3.88    0.42
  -2  -2  -3   19.65    1.99
  -2  -2  -3   16.76    1.75
  -2  -2  -3   19.24    2.11
  -2  -2  -3   17.88    1.75
  -2  -2  -3   17.27    2.11
   2   2   3   15.78    2.10
   2   2   3   21.14    2.01
   2   2   3   22.57    1.78
  -3  -2  -3    5.62    0.66
  -3  -2  -3    5.76    0.79
  -3  -2  -3    5.87    0.82
  -3  -2  -3    5.94    0.70
  -3  -2  -3    5.70    0.76
   3   2   3    5.79    0.70
   3   2   3    6.44    0.73
   3   2   3    6.62    0.79
   3   2   3    5.98    0.82
   3   2   3    5.83    0.69
  -4  -2  -3   85.78   10.91
   4   2   3  108.88   10.36
   4   2   3  107.67   11.02
   4   2   3  101.13   10.63
   5   2   3    4.78    0.59
   6   2   3    6.32    0.70
   7   2   3    4.34    0.56
   8   2   3    3.05    0.37
   6  -3  -3    0.14    0.13
   5  -3  -3    4.97    0.58
   5  -3  -3    5.34    0.53
   5  -3  -3    5.27    0.65
   4  -3  -3   21.93    2.00
   4  -3  -3   22.24    2.03
   4  -3  -3   21.04    2.13
   4  -3  -3   23.35    2.59
   3  -3  -3   12.97    1.71
   3  -3  -3   13.03    1.29
   3  -3  -3   19.69    2.86
   3  -3  -3   14.09    1.31
   3  -3  -3   13.31    1.67
   3  -3  -3   14.83    1.41
   2  -3  -3   10.12    1.31
   2  -3  -3    8.17    0.81
   2  -3  -3    8.70    0.90
   2  -3  -3    8.27    1.08
   2  -3  -3   13.36    1.98
   2  -3  -3    8.61    1.08
   2  -3  -3    9.01    0.91
   2  -3  -3    7.80    0.80
   2  -3  -3    7.74    0.73
   2  -3  -3    9.42    0.96
   2  -3  -3    7.82    0.96
   2  -3  -3    8.08    0.89
   1  -3  -3    8.87    0.93
   1  -3  -3    7.14    0.81
   1  -3  -3    9.61    0.98
   1  -3  -3    8.83    0.97
   1  -3  -3   13.17    1.97
   1  -3  -3    8.42    1.04
   1  -3  -3    9.02    0.92
   0  -3  -3    0.51    0.11
   0  -3  -3    0.46    0.21
   0  -3  -3    0.49    0.17
   0  -3  -3    0.63    0.41
   0  -3  -3    0.37    0.14
   0  -3  -3    1.01    0.99
   0  -3  -3    0.40    0.12
   0  -3  -3    0.50    0.17
   0  -3  -3    0.48    0.13
   0   3   3    0.52    0.13
   0   3   3    0.38    0.12
  -1  -3  -3    0.91    1.00
  -1  -3  -3    0.48    0.14
  -1  -3  -3    0.75    0.21
  -1  -3  -3    0.30    0.08
  -1  -3  -3    0.55    0.22
  -1  -3  -3    0.04    0.18
  -1  -3  -3    0.48    0.18
  -1  -3  -3    0.22    0.44
  -1  -3  -3    0.65    0.23
   1   3   3    0.47    0.18
   1   3   3    0.74    0.21
  -2  -3  -3    3.23    0.43
  -2  -3  -3    2.52    0.34
  -2  -3  -3    3.14    0.45
  -2  -3  -3    2.26    0.36
  -2  -3  -3    3.37    0.68
   2   3   3    2.11    0.37
   2   3   3    2.62    0.41
  -3  -3  -3    4.36    0.63
  -3  -3  -3    3.36    0.56
  -3  -3  -3    4.76    0.74
  -3  -3  -3    5.07    0.67
   3   3   3    4.91    0.62
  -4  -3  -3   18.42    2.20
  -4  -3  -3   20.21    2.10
  -4  -3  -3   17.43    2.20
  -5  -3  -3    8.25    0.95
   6   3   3    2.46    0.40
   7   3   3    4.36    0.58
   5  -4  -3    0.38    0.20
   5  -4  -3    0.19    0.16
   4  -4  -3    0.54    0.47
   4  -4  -3    0.49    0.22
   4  -4  -3    0.24    0.07
   4  -4  -3    0.85    0.35
   3  -4  -3    4.51    0.54
   3  -4  -3    2.90    0.66
   3  -4  -3    5.26    0.88
   3  -4  -3    2.86    0.35
   3  -4  -3    3.14    0.46
   2  -4  -3    1.02    0.18
   2  -4  -3    1.26    1.37
   2  -4  -3    0.85    0.37
   2  -4  -3    1.31    0.24
   2  -4  -3    1.59    0.47
   2  -4  -3    1.60    0.30
   2  -4  -3    1.30    0.85
   1  -4  -3    1.11    0.64
   1  -4  -3    1.37    0.51
   1  -4  -3    1.53    0.21
   1  -4  -3    1.28    0.26
   1  -4  -3    0.88    0.35
   1  -4  -3    1.00    0.30
   1  -4  -3    1.21    0.90
   1  -4  -3    1.17    0.18
   0  -4  -3   22.82    2.94
   0  -4  -3   29.71    3.82
   0  -4  -3   23.75    2.66
  -1  -4  -3  112.57   10.43
  -1  -4  -3  113.18   15.54
  -1  -4  -3  112.88   12.58
  -1  -4  -3  108.13   12.76
  -1  -4  -3  134.69   11.84
  -2  -4  -3    0.95    0.32
  -2  -4  -3    1.13    0.27
  -2  -4  -3    0.94    0.96
  -2  -4  -3    1.19    0.56
  -3  -4  -3    4.90    1.62
  -3  -4  -3    6.62    0.90
  -3  -4  -3    7.73    0.88
  -3  -4  -3    7.10    1.06
  -4  -4  -3    0.36    0.48
  -4  -4  -3    0.93    0.42
  -4  -4  -3    0.96    0.38
  -4  -4  -3    1.06    0.25
  -5  -4  -3    1.59    0.35
  -5  -4  -3    2.16    0.35
  -5  -4  -3    1.72    0.57
  -5  -4  -3    1.72    0.53
  -5  -4  -3    0.70    0.51
  -6  -4  -3    5.53    0.73
  -7  -4  -3    3.35    0.53
   7   4   3    3.93    0.54
   4  -5  -3    0.90    0.21
   4  -5  -3    1.40    0.27
   3  -5  -3    4.45    0.51
   3  -5  -3    5.17    0.86
   3  -5  -3    4.11    0.62
   2  -5  -3    0.06    0.22
   2  -5  -3   -0.44    1.44
   2  -5  -3    0.09    0.21
   2  -5  -3   -0.62    0.85
   2  -5  -3   -0.01    0.39
   1  -5  -3    4.40    0.66
   1  -5  -3    5.58    0.85
   1  -5  -3    8.08    1.99
   1  -5  -3    6.42    1.16
   1  -5  -3    5.72    0.55
   1  -5  -3    6.04    0.87
   1  -5  -3    4.93    0.61
   0  -5  -3    1.85    0.82
   0  -5  -3    2.71    0.37
   0  -5  -3    2.59    0.45
   0  -5  -3    2.92    0.50
   0  -5  -3    2.80    0.86
   0  -5  -3    2.92    0.41
   0  -5  -3    2.91    0.57
   0  -5  -3    4.25    1.48
  -1  -5  -3    5.25    0.98
  -1  -5  -3    4.91    1.01
  -1  -5  -3    4.10    1.37
  -1  -5  -3    5.04    0.53
  -1  -5  -3    4.59    0.57
  -1  -5  -3    3.74    0.67
  -1  -5  -3    3.71    0.65
  -2  -5  -3    3.91    0.57
  -2  -5  -3    4.85    0.95
  -2  -5  -3    1.87    0.75
  -2  -5  -3    3.81    0.45
  -2  -5  -3    4.08    1.35
  -2  -5  -3    2.75    0.39
  -2  -5  -3    3.54    0.48
  -2  -5  -3    3.51    0.44
  -2  -5  -3    3.74    0.51
  -3  -5  -3    2.36    0.34
  -3  -5  -3    1.37    1.06
  -3  -5  -3    1.67    0.28
  -3  -5  -3    1.68    0.28
  -3  -5  -3    1.14    0.32
  -3  -5  -3    2.67    0.77
  -3  -5  -3    2.79    0.71
  -3  -5  -3    1.93    0.36
  -3  -5  -3    1.25    0.38
  -4  -5  -3    5.60    0.72
  -4  -5  -3    9.54    0.97
  -4  -5  -3    6.74    0.70
  -4  -5  -3    7.49    0.96
  -4  -5  -3    6.16    0.73
  -4  -5  -3    7.75    1.16
  -4  -5  -3    6.46    0.78
  -5  -5  -3   12.10    1.30
  -5  -5  -3   12.84    1.21
  -5  -5  -3   11.98    1.73
  -5  -5  -3   12.80    1.63
  -5  -5  -3   15.63    1.61
  -5  -5  -3   11.76    1.25
  -6  -5  -3    0.28    0.25
  -6  -5  -3    0.63    0.32
  -7  -5  -3    1.87    0.32
  -7  -5  -3    1.96    0.37
   3  -6  -3   -0.22    0.11
   3  -6  -3    0.26    0.40
   3  -6  -3    0.10    0.18
   2  -6  -3   16.30    1.63
   2  -6  -3   15.93    1.51
   2  -6  -3   18.16    2.38
   2  -6  -3   17.96    2.09
   1  -6  -3    2.38    0.57
   1  -6  -3    2.21    0.36
   1  -6  -3    1.72    0.26
   1  -6  -3    1.32    0.59
   1  -6  -3    0.50    0.94
   0  -6  -3    0.14    0.19
   0  -6  -3    0.31    0.78
   0  -6  -3    0.42    0.82
   0  -6  -3    0.40    0.22
   0  -6  -3    0.25    0.33
   0  -6  -3   -0.27    0.47
   0  -6  -3    0.52    0.20
  -1  -6  -3    1.01    0.58
  -1  -6  -3    0.45    0.88
  -1  -6  -3    0.80    0.36
  -1  -6  -3    0.42    0.21
  -1  -6  -3    0.29    0.59
  -1  -6  -3    0.54    0.25
  -1  -6  -3    0.47    0.42
  -2  -6  -3   -0.40    0.79
  -2  -6  -3    0.09    0.37
  -2  -6  -3    0.15    0.20
  -2  -6  -3   -0.08    0.15
  -2  -6  -3   -0.25    0.35
  -2  -6  -3    0.11    0.21
  -2  -6  -3   -0.12    0.26
  -3  -6  -3    4.14    0.51
  -3  -6  -3    6.75    1.19
  -3  -6  -3    5.27    0.63
  -3  -6  -3    5.73    0.77
  -3  -6  -3    3.21    0.70
  -3  -6  -3    4.56    0.56
  -3  -6  -3    4.15    1.07
  -3  -6  -3    6.40    0.68
  -4  -6  -3    4.69    0.71
  -4  -6  -3    4.81    0.66
  -4  -6  -3    5.67    0.78
  -4  -6  -3    5.53    0.75
  -4  -6  -3    4.50    0.59
  -4  -6  -3    4.94    1.05
  -4  -6  -3    4.41    0.56
  -4  -6  -3    6.82    1.07
  -5  -6  -3    0.61    0.67
  -5  -6  -3    0.74    0.61
  -5  -6  -3    0.85    0.46
  -5  -6  -3    1.07    0.30
  -5  -6  -3    0.70    0.16
  -5  -6  -3    1.14    0.26
  -6  -6  -3    0.73    0.19
  -6  -6  -3    1.23    0.81
  -6  -6  -3    0.95    0.32
  -6  -6  -3    0.72    0.33
  -7  -6  -3    2.64    0.43
  -7  -6  -3    2.90    0.80
  -8  -6  -3    0.85    0.41
   2  -7  -3    0.84    0.40
   2  -7  -3    0.72    0.20
   1  -7  -3    0.00    0.50
   1  -7  -3   -0.66    0.82
   1  -7  -3   -0.12    0.23
   0  -7  -3    0.76    0.50
   0  -7  -3    0.84    0.63
   0  -7  -3    0.44    0.23
   0  -7  -3   -0.33    0.53
   0  -7  -3    0.22    0.28
  -1  -7  -3   13.13    1.52
  -1  -7  -3   13.10    1.66
  -1  -7  -3   13.70    1.48
  -1  -7  -3   14.65    1.99
  -2  -7  -3    2.54    0.62
  -2  -7  -3    3.20    0.50
  -2  -7  -3    1.77    0.79
  -2  -7  -3    2.63    0.97
  -2  -7  -3    1.59    0.54
  -3  -7  -3    1.75    0.78
  -3  -7  -3    1.00    0.25
  -3  -7  -3    0.70    0.47
  -3  -7  -3    0.86    0.77
  -3  -7  -3    1.71    0.34
  -4  -7  -3   -0.19    0.39
  -4  -7  -3    0.50    0.66
  -4  -7  -3    0.23    0.28
  -4  -7  -3    0.79    0.73
  -4  -7  -3   -0.31    0.22
  -5  -7  -3   -0.53    0.77
  -5  -7  -3    0.16    0.19
  -5  -7  -3   -0.06    0.17
  -5  -7  -3    0.27    0.27
  -6  -7  -3    0.43    0.30
  -6  -7  -3    0.68    0.55
  -6  -7  -3    0.26    0.22
  -7  -7  -3    0.56    0.60
  -7  -7  -3    0.37    0.28
  -8  -7  -3    2.14    0.45
   1  -8  -3    2.27    0.27
   1  -8  -3    1.35    0.45
   0  -8  -3    0.36    0.36
   0  -8  -3    0.59    0.32
   0  -8  -3    1.21    0.62
  -1  -8  -3   -0.18    0.35
  -1  -8  -3    0.21    0.21
  -1  -8  -3    0.13    0.49
  -1  -8  -3    0.17    0.71
  -2  -8  -3   -0.08    0.23
  -2  -8  -3    0.24    0.34
  -2  -8  -3    0.24    0.21
  -2  -8  -3    0.36    0.54
  -3  -8  -3    0.32    0.30
  -3  -8  -3   -0.09    0.41
  -3  -8  -3   -0.06    0.74
  -4  -8  -3    0.10    0.38
  -4  -8  -3    0.04    0.18
  -4  -8  -3    0.30    0.76
  -4  -8  -3    0.22    0.20
  -5  -8  -3   -0.35    0.76
  -5  -8  -3    0.35    0.27
  -5  -8  -3    0.29    0.23
  -6  -8  -3   -0.04    0.66
  -6  -8  -3    0.28    0.23
  -7  -8  -3    1.23    0.46
  -1  -9  -3    0.64    0.43
  -1  -9  -3   -0.07    0.25
  -2  -9  -3   -0.34    0.26
  -2  -9  -3   -0.22    0.40
  -3  -9  -3    0.59    0.37
  -3  -9  -3    0.24    0.42
  -4  -9  -3    0.29    0.41
  -4  -9  -3    0.03    0.31
  -5  -9  -3    0.62    0.22
  -5  -9  -3    0.26    0.35
  -6  -9  -3    1.33    0.16
  -6  -9  -3    1.31    0.36
  -5  -9   4    0.18    0.21
  -4  -9   4    0.49    0.16
  -4  -9   4    1.05    0.31
  -3  -9   4    0.25    0.27
  -3  -9   4    1.06    0.23
  -2  -9   4   -0.20    0.16
  -2  -9   4    0.05    0.22
  -1  -9   4    0.00    0.22
  -1  -9   4    0.14    0.12
  -6  -8   4    0.00    0.20
  -6  -8   4    0.27    0.17
  -5  -8   4    0.84    0.32
  -5  -8   4    0.63    0.19
  -4  -8   4    1.76    0.43
  -4  -8   4    1.10    0.23
  -4  -8   4    1.14    0.26
  -3  -8   4    6.22    0.68
  -3  -8   4    5.42    0.90
  -3  -8   4    5.73    0.72
  -2  -8   4    1.56    0.48
  -2  -8   4    1.41    0.26
  -1  -8   4   -0.21    0.39
  -1  -8   4    0.07    0.21
  -1  -8   4    0.47    0.24
   0  -8   4    1.42    0.19
   0  -8   4    1.11    0.23
   0  -8   4    0.95    0.34
   1  -8   4    1.80    0.26
  -7  -7   4    0.61    0.16
  -7  -7   4    0.49    0.16
  -6  -7   4    2.84    0.43
  -6  -7   4    3.15    0.66
  -6  -7   4    2.09    0.36
  -6  -7   4    2.36    0.30
  -5  -7   4    0.37    0.18
  -5  -7   4    0.03    0.26
  -5  -7   4    0.30    0.21
  -5  -7   4   -0.23    0.63
  -4  -7   4    1.04    0.49
  -4  -7   4    0.70    0.22
  -4  -7   4    0.64    0.16
  -4  -7   4    0.39    0.21
  -3  -7   4   -0.49    0.48
  -3  -7   4   -0.16    0.14
  -3  -7   4    0.12    0.21
  -3  -7   4    0.11    0.27
  -3  -7   4    0.19    0.55
  -2  -7   4   20.67    2.99
  -2  -7   4   21.27    2.10
  -2  -7   4   24.30    2.46
  -2  -7   4   26.41    2.36
  -2  -7   4   24.68    2.47
  -1  -7   4    0.24    0.55
  -1  -7   4    1.03    0.23
  -1  -7   4   -0.08    0.25
  -1  -7   4    0.53    0.21
  -1  -7   4    0.66    0.27
   0  -7   4    8.96    0.75
   0  -7   4    7.34    0.74
   0  -7   4    7.15    0.83
   0  -7   4    6.83    0.96
   1  -7   4    3.63    0.63
   1  -7   4    5.20    0.62
   1  -7   4    5.02    0.53
   1  -7   4    5.44    0.52
   2  -7   4    4.33    0.42
   2  -7   4    3.26    0.44
   2  -7   4    3.81    0.42
   3  -7   4    0.31    0.12
   3  -7   4    0.61    0.13
  -7  -6   4    0.22    0.33
  -7  -6   4    0.34    0.17
  -7  -6   4    0.02    0.07
  -6  -6   4    1.30    0.67
  -6  -6   4    1.54    0.31
  -6  -6   4    1.12    0.30
  -6  -6   4    1.38    0.38
  -6  -6   4    0.85    0.19
  -5  -6   4    0.28    0.24
  -5  -6   4    0.32    0.27
  -5  -6   4    0.13    0.63
  -5  -6   4    0.63    0.25
  -5  -6   4    0.11    0.13
  -4  -6   4    0.61    0.70
  -4  -6   4    1.17    0.25
  -4  -6   4    1.35    0.29
  -4  -6   4    1.38    0.37
  -4  -6   4    1.31    0.27
  -4  -6   4    0.01    0.47
  -3  -6   4    0.74    0.36
  -3  -6   4    2.21    0.30
  -3  -6   4    1.97    0.29
  -3  -6   4    1.91    0.73
  -3  -6   4    1.58    0.24
  -3  -6   4    1.91    0.38
  -3  -6   4    2.31    0.47
  -2  -6   4    8.94    0.80
  -2  -6   4    7.09    1.09
  -2  -6   4    9.13    0.80
  -2  -6   4    9.19    1.14
  -2  -6   4    6.94    1.50
  -2  -6   4    8.52    0.92
  -2  -6   4    7.95    1.00
  -1  -6   4   15.71    1.40
  -1  -6   4   14.79    1.58
  -1  -6   4   15.37    1.67
  -1  -6   4   15.51    1.75
  -1  -6   4   15.54    1.42
  -1  -6   4   14.29    1.87
  -1  -6   4   17.84    1.40
   0  -6   4   31.68    3.71
   0  -6   4   37.87    3.65
   0  -6   4   33.75    3.46
   0  -6   4   37.80    3.28
   0  -6   4   39.46    3.80
   0  -6   4   41.24    3.21
   1  -6   4    2.72    0.43
   1  -6   4    3.02    0.36
   1  -6   4    2.98    0.47
   1  -6   4    2.23    0.33
   1  -6   4    1.96    0.40
   2  -6   4    1.33    0.30
   2  -6   4    1.69    0.31
   2  -6   4    2.06    0.29
   2  -6   4    1.34    0.27
   3  -6   4    0.17    0.16
   3  -6   4    0.28    0.15
   4  -6   4    1.69    0.18
   4  -6   4    0.48    0.15
  -8  -5   4    1.77    0.21
  -7  -5   4    1.91    0.29
  -7  -5   4    1.23    0.35
  -6  -5   4    3.68    0.47
  -6  -5   4    3.21    0.46
  -6  -5   4    3.53    0.50
  -5  -5   4   -0.33    0.25
  -5  -5   4   -0.13    0.23
  -5  -5   4    0.10    0.60
  -5  -5   4    0.26    0.47
  -5  -5   4   -0.08    0.19
  -4  -5   4    0.01    0.20
  -4  -5   4    0.29    0.35
  -4  -5   4    0.23    0.33
  -4  -5   4    0.29    0.16
  -4  -5   4    0.13    0.36
  -4  -5   4    0.33    0.21
  -4  -5   4    0.02    0.38
  -3  -5   4    2.65    0.45
  -3  -5   4    1.66    0.49
  -3  -5   4    1.08    0.44
  -3  -5   4    2.05    0.31
  -3  -5   4    1.93    0.29
  -3  -5   4    2.34    0.38
  -3  -5   4    2.56    0.34
  -3  -5   4    2.76    0.74
  -3  -5   4    2.36    0.31
  -2  -5   4    2.26    0.51
  -2  -5   4    1.95    0.25
  -2  -5   4    2.06    0.35
  -2  -5   4    1.12    0.35
  -2  -5   4    2.15    0.77
  -2  -5   4    2.42    0.28
  -2  -5   4    1.71    0.45
  -2  -5   4    1.73    0.23
  -2  -5   4    2.15    0.32
  -1  -5   4    0.92    0.15
  -1  -5   4    0.56    0.50
  -1  -5   4    0.33    0.17
  -1  -5   4    0.90    0.20
  -1  -5   4    0.85    0.24
  -1  -5   4    0.43    0.30
  -1  -5   4    0.33    0.43
  -1  -5   4    0.99    0.24
   0  -5   4   19.08    1.77
   0  -5   4   16.45    1.85
   0  -5   4   17.19    2.04
   0  -5   4   17.44    1.54
   0  -5   4   19.12    1.58
   0  -5   4   15.27    1.66
   0  -5   4   17.87    1.55
   1  -5   4   15.58    2.12
   1  -5   4   19.66    1.88
   1  -5   4   14.97    2.14
   1  -5   4   20.97    1.70
   1  -5   4   16.47    2.14
   1  -5   4   20.32    1.81
   1  -5   4   21.27    1.66
   1  -5   4   18.17    1.97
   2  -5   4   10.52    1.03
   2  -5   4   11.79    1.14
   2  -5   4   11.29    1.06
   2  -5   4   11.71    1.17
   2  -5   4    9.84    1.38
   2  -5   4   11.40    1.39
   3  -5   4    2.78    0.36
   3  -5   4    2.79    0.34
   3  -5   4    2.73    0.41
   3  -5   4    1.58    0.36
   4  -5   4    0.03    0.21
   4  -5   4    0.24    0.28
   4  -5   4   -0.21    0.15
   5  -5   4    0.08    0.12
   5  -5   4   -0.06    0.10
   8   4  -4    0.13    0.08
  -8  -4   4   -0.03    0.16
   7   4  -4    0.00    0.22
  -7  -4   4   -0.13    0.16
  -6  -4   4    0.34    0.26
  -5  -4   4    4.57    1.04
  -5  -4   4    5.41    0.62
  -4  -4   4    3.33    0.81
  -4  -4   4    6.37    1.10
  -4  -4   4    5.80    0.61
  -4  -4   4    5.80    0.99
  -4  -4   4    5.04    0.59
  -3  -4   4   49.82    5.78
  -3  -4   4   55.72    5.88
  -3  -4   4   51.90    5.50
  -2  -4   4    0.71    0.30
  -2  -4   4    1.43    0.38
  -2  -4   4    1.35    0.37
  -2  -4   4    1.08    0.53
  -1  -4   4    1.22    0.29
  -1  -4   4    1.26    0.29
  -1  -4   4    1.18    0.29
  -1  -4   4    1.48    0.37
  -1  -4   4    1.52    0.60
  -1  -4   4    0.99    0.23
   0  -4   4   12.90    1.76
   0  -4   4   14.41    1.61
   1  -4   4    0.41    0.23
   1  -4   4    0.77    0.15
   1  -4   4    0.48    0.27
   1  -4   4    0.35    0.28
   1  -4   4    0.60    0.10
   1  -4   4    0.56    0.15
   1  -4   4    1.05    0.24
   2  -4   4    9.57    1.00
   2  -4   4    9.56    0.98
   2  -4   4    9.74    1.20
   2  -4   4    9.31    0.93
   2  -4   4   10.65    1.23
   2  -4   4    9.50    0.89
   2  -4   4    9.98    0.86
   2  -4   4    7.70    1.26
   3  -4   4    3.21    0.31
   3  -4   4    3.41    0.41
   3  -4   4    3.36    0.45
   3  -4   4    2.86    0.48
   3  -4   4    1.43    0.55
   3  -4   4    3.22    0.42
   4  -4   4    1.13    0.29
   4  -4   4    1.29    0.36
   4  -4   4    1.21    0.15
   4  -4   4    1.03    0.28
   5  -4   4    0.15    0.16
   5  -4   4    0.31    0.22
   7   3  -4    7.21    0.80
   6   3  -4    1.25    0.28
   5   3  -4    2.16    0.60
  -5  -3   4    2.88    0.74
  -5  -3   4    3.08    0.44
  -4  -3   4    0.63    0.41
  -4  -3   4    0.42    0.39
  -4  -3   4    0.00    0.35
  -3  -3   4    9.02    1.16
  -3  -3   4    8.84    1.15
  -2  -3   4    0.68    0.32
  -2  -3   4    1.35    0.42
  -2  -3   4    1.13    0.29
  -2  -3   4    1.08    0.34
  -2  -3   4    0.60    0.24
   1   3  -4    2.59    0.39
  -1  -3   4    2.43    0.38
  -1  -3   4    3.31    0.47
  -1  -3   4    2.62    0.43
  -1  -3   4    2.66    0.39
  -1  -3   4    2.67    0.42
  -1  -3   4    4.04    0.71
  -1  -3   4    3.50    0.46
  -1  -3   4    3.38    0.46
   0   3  -4   45.54    4.47
   0  -3   4   50.95    5.38
   0  -3   4   48.70    4.49
   0  -3   4   53.88    5.40
   0  -3   4   42.55    4.47
   0  -3   4   54.77    5.50
   0  -3   4   49.76    5.39
   0  -3   4   45.07    5.06
   0  -3   4   57.19    5.09
   1  -3   4    5.05    0.62
   1  -3   4    4.27    0.50
   1  -3   4    4.62    0.53
   1  -3   4    5.06    0.55
   1  -3   4    3.73    0.45
   1  -3   4    4.24    0.50
   1  -3   4    5.26    0.65
   2  -3   4    0.40    0.13
   2  -3   4    0.36    0.11
   2  -3   4    0.20    0.24
   2  -3   4    0.42    0.30
   2  -3   4    0.30    0.10
   2  -3   4    0.27    0.12
   3  -3   4    0.44    0.13
   3  -3   4    0.28    0.22
   3  -3   4    0.41    0.34
   3  -3   4    0.72    0.22
   3  -3   4    0.55    0.18
   3  -3   4    0.57    0.20
   4  -3   4   -0.01    0.15
   4  -3   4    0.08    0.27
   4  -3   4   -0.30    0.22
   4  -3   4   -0.10    0.36
   4  -3   4    0.07    0.14
   5  -3   4    0.55    0.22
   5  -3   4    0.27    0.21
   5  -3   4    0.04    0.24
   5  -3   4    0.60    0.15
   6  -3   4    0.36    0.16
   6  -3   4    0.17    0.14
   7   2  -4    0.49    0.27
   7   2  -4    0.06    0.13
   7   2  -4   -0.02    0.19
   6   2  -4    5.35    0.60
   6   2  -4    4.82    0.60
   6   2  -4    4.68    0.59
   5   2  -4    1.31    0.31
   5   2  -4    1.53    0.52
   3   2  -4   16.01    2.07
   3   2  -4   19.74    2.17
   3   2  -4   16.68    1.83
  -3  -2   4   17.01    1.81
  -3  -2   4   20.18    2.11
  -3  -2   4   20.38    2.17
   2   2  -4    1.54    0.38
   2   2  -4    1.27    0.30
   2   2  -4    1.33    0.40
   2   2  -4    1.24    0.31
  -2  -2   4    1.78    0.44
  -2  -2   4    1.49    0.42
  -2  -2   4    0.98    0.29
  -2  -2   4    1.33    0.30
  -2  -2   4    1.54    0.30
   1   2  -4    1.66    0.37
   1   2  -4    1.47    0.31
   1   2  -4    1.85    0.32
   1   2  -4    1.85    0.37
  -1  -2   4    1.82    0.31
  -1  -2   4    2.07    0.34
  -1  -2   4    2.54    0.37
  -1  -2   4    1.31    0.31
  -1  -2   4    2.73    0.44
  -1  -2   4    2.53    0.44
   0   2  -4    1.64    0.30
   0   2  -4    1.59    0.30
   0  -2   4    1.84    0.31
   0  -2   4    3.15    0.41
   0  -2   4    2.07    0.34
   0  -2   4    2.15    0.32
   0  -2   4    2.80    0.41
   0  -2   4    3.63    0.53
   0  -2   4    2.19    0.29
   0  -2   4    2.30    0.31
  -1   2  -4    4.03    0.45
  -1   2  -4    3.78    0.46
   1  -2   4    4.45    0.46
   1  -2   4    3.67    0.47
   1  -2   4    3.91    0.53
   1  -2   4    4.45    0.53
   1  -2   4    4.35    0.55
   1  -2   4    4.28    0.53
   1  -2   4    3.98    0.50
   1  -2   4    3.32    0.43
   1  -2   4    3.08    0.50
   2  -2   4   12.00    1.25
   2  -2   4   11.72    1.33
   2  -2   4   10.90    1.34
   2  -2   4   11.88    1.35
   2  -2   4   10.65    1.24
   2  -2   4   11.41    1.33
   3  -2   4   18.39    2.04
   3  -2   4   19.58    1.62
   3  -2   4   16.80    2.04
   3  -2   4   17.42    1.93
   3  -2   4   16.86    1.57
   3  -2   4   16.98    1.54
   3  -2   4   18.98    2.07
   4  -2   4    6.44    0.57
   4  -2   4    5.84    0.82
   4  -2   4    6.19    0.63
   4  -2   4    5.62    0.64
   4  -2   4    5.83    0.91
   4  -2   4    5.92    0.67
   4  -2   4    6.53    0.65
   4  -2   4    5.95    0.70
   5  -2   4    1.67    0.27
   5  -2   4    0.83    0.14
   5  -2   4    1.00    0.31
   5  -2   4    0.36    0.43
   5  -2   4    1.05    0.30
   5  -2   4    1.17    0.28
   6  -2   4    1.22    0.24
   6  -2   4    1.02    0.24
   6  -2   4    1.26    0.23
   7  -2   4    0.44    0.15
   7   1  -4   14.50    1.21
   7   1  -4   12.15    1.25
   7   1  -4   12.76    1.18
   6   1  -4    3.75    0.49
   6   1  -4    4.09    0.49
   6   1  -4    4.06    0.51
   5   1  -4    2.20    0.35
   5   1  -4    1.41    0.66
   5   1  -4    2.63    0.40
   5   1  -4    1.14    0.55
   5   1  -4    1.52    0.58
   4   1  -4   10.27    1.27
   4   1  -4    7.74    0.95
   4   1  -4   11.31    1.22
   4   1  -4    8.45    1.22
   3   1  -4   26.56    2.68
   3   1  -4   33.55    3.21
  -3  -1   4   24.02    2.66
   2   1  -4   19.50    2.32
   2   1  -4   19.89    1.94
   2   1  -4   23.12    2.21
   2   1  -4   19.29    1.95
  -2  -1   4   19.73    2.22
  -2  -1   4   22.42    2.34
  -2  -1   4   19.65    1.95
  -2  -1   4   19.69    1.94
   1   1  -4   31.10    3.26
   1   1  -4   28.29    3.45
   1   1  -4   31.19    2.88
   1   1  -4   27.42    4.14
   1   1  -4   32.65    2.89
  -1  -1   4   31.64    3.28
  -1  -1   4   34.00    3.39
  -1  -1   4   29.38    2.88
  -1  -1   4   34.42    2.90
  -1  -1   4   34.10    3.48
   0   1  -4   25.19    2.83
   0   1  -4   27.63    2.51
   0   1  -4   29.73    2.52
   0  -1   4   27.87    2.85
   0  -1   4   28.68    2.96
   0  -1   4   25.53    2.83
   0  -1   4   26.06    2.50
   0  -1   4   27.83    2.50
   0  -1   4   27.73    3.01
  -1   1  -4  168.50   14.06
  -1   1  -4  150.69   14.06
   1  -1   4  147.27   14.06
   1  -1   4  159.58   16.89
   1  -1   4  170.07   16.51
   1  -1   4  153.69   16.78
   1  -1   4  162.85   16.95
   1  -1   4  140.06   15.93
   1  -1   4  144.91   16.94
   1  -1   4  154.22   14.06
   1  -1   4  176.04   15.95
  -2   1  -4   89.91    9.09
  -2   1  -4   92.28    9.08
   2  -1   4  108.69    9.11
   2  -1   4  108.55   10.31
   2  -1   4  102.50   10.84
   2  -1   4  104.42   10.67
   2  -1   4  105.17    9.10
   2  -1   4   99.51   10.95
   2  -1   4   96.44   10.95
   2  -1   4  102.99   10.31
   3  -1   4    2.56    0.48
   3  -1   4    2.10    0.48
   3  -1   4    2.07    0.50
   3  -1   4    2.45    0.47
   4  -1   4    2.94    0.39
   4  -1   4    3.26    0.37
   4  -1   4    3.55    0.68
   4  -1   4    4.20    0.44
   4  -1   4    3.48    0.46
   4  -1   4    3.41    0.70
   4  -1   4    3.57    0.56
   4  -1   4    4.53    0.72
   4  -1   4    3.65    0.45
   4  -1   4    4.00    0.43
   5  -1   4    0.64    0.20
   5  -1   4   -0.02    0.32
   5  -1   4    0.40    0.22
   5  -1   4    0.79    0.26
   5  -1   4    0.46    0.39
   5  -1   4    0.54    0.19
   5  -1   4    0.21    0.37
   6  -1   4    3.37    0.46
   6  -1   4    3.13    0.42
   7  -1   4    0.68    0.19
   7   0  -4    0.15    0.20
   7   0  -4    0.60    0.24
   7   0  -4    0.47    0.10
   6   0  -4    1.90    0.35
   6   0  -4    2.39    0.43
   6   0  -4    2.38    0.38
   6   0  -4    2.64    0.34
   5   0  -4   11.05    1.13
   5   0  -4   12.33    1.11
   5   0  -4    8.89    1.48
   5   0  -4   10.56    1.52
   5   0  -4   11.06    1.11
   5   0  -4   11.35    1.08
   4   0  -4   13.35    1.44
   4   0  -4   10.74    1.08
   4   0  -4   15.45    1.58
   4   0  -4   11.19    1.16
   4   0  -4    9.29    1.13
   4   0  -4   11.60    1.51
   3   0  -4    1.80    1.01
   3   0  -4    1.14    0.41
   3   0  -4    1.72    0.49
   3   0  -4    0.98    0.41
   2   0  -4   17.43    2.35
   2   0  -4   14.46    1.75
   2   0  -4   17.22    1.68
   2   0  -4   15.42    1.47
   2   0  -4   13.65    1.47
  -2   0   4   15.77    1.49
  -2   0   4   12.82    1.46
   1   0  -4   23.14    2.16
   1   0  -4   23.75    2.58
   1   0  -4   24.55    2.43
   1   0  -4   23.82    3.24
   1   0  -4   23.15    2.14
  -1   0   4   22.48    2.15
  -1   0   4   22.85    2.48
  -1   0   4   20.60    2.44
  -1   0   4   22.46    2.16
  -1   0   4   23.90    2.59
   0   0  -4   23.34    3.75
   0   0  -4   28.94    2.52
   0   0  -4   27.75    2.84
   0   0  -4   27.48    3.01
   0   0  -4   27.71    2.52
   0   0   4   27.36    2.85
   0   0   4   26.78    2.51
   0   0   4   29.73    2.52
   0   0   4   26.40    3.02
  -1   0  -4   43.90    4.80
  -1   0  -4   49.11    4.25
  -1   0  -4   47.11    4.25
  -1   0  -4   42.85    5.10
   1   0   4   48.93    5.12
   1   0   4   46.60    4.81
   1   0   4   51.00    4.26
   1   0   4   45.64    4.25
  -2   0  -4    7.36    0.74
  -2   0  -4    6.01    0.79
  -2   0  -4    6.11    0.85
  -2   0  -4    6.23    0.71
   2   0   4    6.43    0.77
   2   0   4    7.11    0.81
   2   0   4    6.70    0.72
   2   0   4    7.26    0.73
   2   0   4    7.37    0.87
   3   0   4   70.63    6.82
   3   0   4   71.79    8.21
   3   0   4   81.12    7.98
   3   0   4   76.45    7.72
   4   0   4   23.58    2.95
   4   0   4   26.57    2.86
   4   0   4   26.44    2.79
   5   0   4    0.87    0.44
   5   0   4    1.07    0.23
   5   0   4    0.81    0.17
   5   0   4    1.00    0.24
   5   0   4    0.86    0.36
   5   0   4    0.83    0.49
   6   0   4    3.38    0.45
   6   0   4    4.03    0.53
   6   0   4    4.26    0.49
   7   0   4    5.25    0.58
   7   0   4    5.16    0.61
   8   0   4    0.02    0.11
   7  -1  -4    3.12    0.33
   6  -1  -4   23.72    2.11
   6  -1  -4   22.69    2.13
   6  -1  -4   22.83    1.99
   5  -1  -4    1.50    0.30
   5  -1  -4    0.70    0.26
   5  -1  -4    1.17    0.33
   5  -1  -4    1.03    0.27
   4  -1  -4    5.10    0.53
   4  -1  -4    6.75    0.87
   4  -1  -4    5.28    0.59
   4  -1  -4    5.39    0.56
   4  -1  -4    4.58    0.88
   4  -1  -4    4.30    0.95
   4  -1  -4    4.99    0.63
   4  -1  -4    3.96    0.58
   4  -1  -4    4.72    0.52
   4  -1  -4    5.23    0.77
   3  -1  -4   -0.08    0.26
   3  -1  -4    0.27    0.41
   3  -1  -4   -0.07    0.25
   3  -1  -4    0.34    0.12
   3  -1  -4   -0.19    0.67
   2  -1  -4    3.35    1.11
   2  -1  -4    2.84    0.52
   2  -1  -4    2.13    0.44
   2  -1  -4    2.39    0.52
   1  -1  -4   43.48    4.14
   1  -1  -4   41.11    4.97
   1  -1  -4   50.55    6.24
   1  -1  -4   47.47    4.98
   1  -1  -4   49.28    4.69
   1  -1  -4   48.18    4.14
   1  -1  -4   39.57    4.69
  -1   1   4   46.93    4.14
  -1   1   4   44.44    4.14
   0  -1  -4   46.82    4.42
   0  -1  -4   35.94    4.43
   0  -1  -4   42.12    3.90
   0  -1  -4   40.37    5.88
   0  -1  -4   42.65    4.69
   0  -1  -4   43.96    3.91
   0   1   4   40.15    4.70
   0   1   4   49.04    3.91
   0   1   4   48.32    3.91
   0   1   4   40.47    4.42
  -1  -1  -4   43.68    4.59
  -1  -1  -4   44.94    4.06
  -1  -1  -4   46.72    4.06
  -1  -1  -4   41.28    4.87
   1   1   4   45.24    4.06
   1   1   4   48.60    4.07
   1   1   4   45.13    4.89
   1   1   4   42.54    4.60
  -2  -1  -4   46.32    3.97
  -2  -1  -4   41.61    4.77
  -2  -1  -4   37.05    4.75
  -2  -1  -4   43.41    3.97
  -2  -1  -4   41.51    4.49
   2   1   4   48.91    4.60
   2   1   4   45.03    4.51
   2   1   4   42.69    3.99
   2   1   4   42.87    3.98
   2   1   4   45.58    4.79
  -3  -1  -4    0.40    0.26
  -3  -1  -4    0.76    0.29
  -3  -1  -4    0.50    0.28
  -3  -1  -4    1.21    0.38
   3   1   4    0.93    0.32
   3   1   4    1.19    0.30
   3   1   4    0.78    0.38
   3   1   4    0.44    0.31
   3   1   4    0.64    0.23
   4   1   4    9.79    1.33
   4   1   4   10.60    1.21
   4   1   4    9.44    1.24
   5   1   4   16.08    1.90
   5   1   4   14.17    1.76
   5   1   4   15.89    1.74
   5   1   4   14.51    1.45
   5   1   4   12.78    1.32
   6   1   4    1.52    0.78
   6   1   4    3.45    0.44
   6   1   4    3.90    0.47
   7   1   4    1.28    0.33
   7   1   4    0.93    0.29
   7   1   4    1.47    0.27
   8   1   4    1.18    0.22
   6  -2  -4    0.52    0.18
   6  -2  -4    0.19    0.12
   5  -2  -4   24.24    2.02
   5  -2  -4   20.35    2.23
   5  -2  -4   23.26    2.15
   5  -2  -4   26.66    2.19
   4  -2  -4    0.73    0.21
   4  -2  -4    0.53    0.47
   4  -2  -4    0.72    0.31
   4  -2  -4    0.54    0.34
   4  -2  -4    0.54    0.27
   4  -2  -4    0.94    0.53
   4  -2  -4    0.72    0.28
   3  -2  -4   15.07    1.37
   3  -2  -4   15.44    1.32
   3  -2  -4   13.46    1.75
   3  -2  -4   15.23    1.47
   3  -2  -4   16.98    1.84
   3  -2  -4   15.44    1.41
   3  -2  -4   13.04    1.64
   2  -2  -4    0.13    0.66
   2  -2  -4    0.12    0.20
   2  -2  -4    0.51    0.28
   2  -2  -4    0.40    0.30
   1  -2  -4    3.03    0.41
   1  -2  -4    3.16    0.50
   1  -2  -4    2.80    0.39
   1  -2  -4    2.35    0.35
   1  -2  -4    1.77    0.41
   1  -2  -4    3.44    0.46
   1  -2  -4    3.32    1.21
   1  -2  -4    2.39    0.36
  -1   2   4    3.03    0.38
   0  -2  -4    4.12    0.52
   0  -2  -4    3.05    0.47
   0  -2  -4    3.82    0.47
   0  -2  -4    3.48    0.40
   0  -2  -4    3.97    0.81
   0  -2  -4    3.88    0.50
   0  -2  -4    2.67    0.43
   0  -2  -4    4.03    0.45
   0  -2  -4    5.65    1.33
   0   2   4    3.26    0.41
   0   2   4    4.07    0.45
  -1  -2  -4    1.10    0.29
  -1  -2  -4    1.60    0.30
  -1  -2  -4    2.42    0.39
  -1  -2  -4    1.47    0.27
  -1  -2  -4    2.12    1.23
  -1  -2  -4    1.80    0.55
  -1  -2  -4    1.41    0.33
  -1  -2  -4    1.01    0.22
   1   2   4    1.26    0.27
   1   2   4    1.38    0.28
   1   2   4    1.07    0.32
  -2  -2  -4    1.58    0.30
  -2  -2  -4    3.82    0.60
  -2  -2  -4    2.53    0.45
  -2  -2  -4    1.81    0.38
  -2  -2  -4    2.05    0.34
   2   2   4    2.06    0.38
   2   2   4    1.71    0.34
   2   2   4    1.81    0.42
   2   2   4    1.92    0.41
  -3  -2  -4    0.47    0.22
  -3  -2  -4    1.11    0.38
  -3  -2  -4    0.62    0.28
  -3  -2  -4    0.88    0.35
  -3  -2  -4    0.31    0.24
   3   2   4    0.69    0.29
   3   2   4    0.67    0.36
   3   2   4    0.75    0.34
   3   2   4    0.81    0.18
   3   2   4    0.69    0.27
   4   2   4  330.58   38.57
   4   2   4  383.87   36.31
   5   2   4    2.40    0.36
   6   2   4   21.86    2.16
   7   2   4    2.64    0.41
   8   2   4    0.35    0.16
   6  -3  -4    1.26    0.20
   5  -3  -4    0.85    0.23
   5  -3  -4    0.71    0.17
   5  -3  -4    0.62    0.29
   4  -3  -4    4.21    0.51
   4  -3  -4    4.19    0.52
   4  -3  -4    4.18    0.56
   4  -3  -4    4.87    0.88
   3  -3  -4    1.04    0.28
   3  -3  -4    1.20    1.56
   3  -3  -4    0.43    0.16
   3  -3  -4    0.83    0.36
   3  -3  -4    1.53    0.55
   3  -3  -4    0.95    0.24
   3  -3  -4    0.80    0.09
   3  -3  -4    1.09    0.24
   3  -3  -4    0.46    0.17
   2  -3  -4   -0.29    0.18
   2  -3  -4    0.18    0.18
   2  -3  -4   -0.03    0.13
   2  -3  -4   -0.11    0.17
   2  -3  -4    0.32    0.18
   2  -3  -4   -0.07    0.25
   2  -3  -4    0.02    0.09
   2  -3  -4    0.39    0.78
   2  -3  -4    0.67    0.72
   2  -3  -4   -0.14    0.39
   1  -3  -4   35.12    3.36
   1  -3  -4   37.68    4.69
   1  -3  -4   26.75    3.35
   1  -3  -4   28.24    3.33
   1  -3  -4   29.71    3.17
   1  -3  -4   30.92    3.15
   0  -3  -4   26.50    3.13
   0  -3  -4   26.38    3.33
   0  -3  -4   26.64    3.07
   0  -3  -4   34.11    2.96
   0  -3  -4   31.22    4.31
   0  -3  -4   27.13    2.60
   0   3   4   29.45    2.62
  -1  -3  -4    2.59    0.31
  -1  -3  -4    2.07    0.35
  -1  -3  -4    2.97    1.37
  -1  -3  -4    2.48    0.43
  -1  -3  -4    2.07    0.36
  -1  -3  -4    2.37    0.44
  -1  -3  -4    2.50    0.35
  -1  -3  -4    2.68    0.67
   1   3   4    2.39    0.36
   1   3   4    2.53    0.37
  -2  -3  -4    4.15    0.57
  -2  -3  -4    5.25    0.68
  -2  -3  -4    4.77    1.63
  -2  -3  -4    4.97    0.80
  -2  -3  -4    4.02    0.53
  -2  -3  -4    5.07    0.63
   2   3   4    6.06    0.62
   2   3   4    5.27    0.59
  -3  -3  -4    1.48    0.37
  -3  -3  -4    1.04    0.46
  -3  -3  -4    1.23    0.31
  -3  -3  -4    1.49    0.42
  -4  -3  -4    3.25    0.63
  -4  -3  -4    1.81    0.50
  -4  -3  -4    3.19    0.63
  -5  -3  -4    0.80    0.23
   6   3   4    2.98    0.43
   7   3   4   10.96    1.14
   8   3   4    0.49    0.20
   5  -4  -4    0.03    0.20
   5  -4  -4    0.28    0.14
   4  -4  -4    6.25    0.90
   4  -4  -4    5.31    0.50
   4  -4  -4    6.69    0.74
   4  -4  -4    5.75    0.62
   3  -4  -4    4.59    0.59
   3  -4  -4    4.14    0.46
   3  -4  -4    4.43    0.57
   3  -4  -4    6.15    0.96
   2  -4  -4    3.82    1.02
   2  -4  -4    1.80    0.41
   2  -4  -4    2.29    0.67
   2  -4  -4    1.47    0.49
   2  -4  -4    2.58    0.31
   2  -4  -4    3.31    1.69
   2  -4  -4    3.30    0.37
   1  -4  -4    9.85    1.27
   1  -4  -4    9.29    1.08
   1  -4  -4    8.09    1.03
   1  -4  -4    8.38    0.97
   1  -4  -4    9.56    0.84
   1  -4  -4    9.19    1.13
   1  -4  -4    8.16    0.83
   1  -4  -4    8.20    0.92
   0  -4  -4   23.40    2.86
  -1  -4  -4    0.81    0.24
  -1  -4  -4    1.09    0.25
  -1  -4  -4    1.07    0.22
  -1  -4  -4    0.92    0.45
  -1  -4  -4    1.00    0.23
  -1  -4  -4    2.08    1.03
  -2  -4  -4    4.50    0.97
  -2  -4  -4    5.93    0.74
  -2  -4  -4    5.50    0.70
  -2  -4  -4    6.03    1.56
  -3  -4  -4    0.39    1.05
  -3  -4  -4    1.50    0.41
  -3  -4  -4    1.50    0.44
  -3  -4  -4    1.24    0.52
  -4  -4  -4    4.38    0.84
  -4  -4  -4    5.63    0.70
  -4  -4  -4    3.28    0.52
  -4  -4  -4    3.49    0.71
  -5  -4  -4    7.72    0.91
  -5  -4  -4    7.14    0.84
  -5  -4  -4    8.87    1.14
  -5  -4  -4    9.05    1.17
  -6  -4  -4    0.49    0.29
  -7  -4  -4    4.96    0.77
   7   4   4    6.87    0.73
   4  -5  -4    0.48    0.17
   4  -5  -4    0.15    0.18
   3  -5  -4    9.62    1.04
   3  -5  -4    9.62    1.29
   3  -5  -4    8.93    0.90
   2  -5  -4    6.78    0.77
   2  -5  -4    8.24    1.21
   2  -5  -4    7.88    2.28
   2  -5  -4    5.46    1.21
   2  -5  -4    6.55    0.68
   1  -5  -4    0.63    0.27
   1  -5  -4    1.46    0.55
   1  -5  -4    0.34    0.57
   1  -5  -4   -0.06    0.73
   1  -5  -4    0.29    0.53
   1  -5  -4    0.43    0.16
   0  -5  -4    3.83    0.46
   0  -5  -4    2.70    1.31
   0  -5  -4    2.50    0.32
   0  -5  -4    3.98    0.66
   0  -5  -4    3.01    0.59
   0  -5  -4    3.59    0.50
   0  -5  -4    4.19    0.81
  -1  -5  -4    2.41    0.79
  -1  -5  -4    1.54    0.27
  -1  -5  -4    2.34    0.33
  -1  -5  -4    2.73    0.39
  -1  -5  -4    2.76    0.51
  -1  -5  -4    3.09    1.33
  -1  -5  -4    1.86    0.74
  -1  -5  -4    2.23    0.42
  -2  -5  -4    3.44    0.45
  -2  -5  -4    2.84    0.39
  -2  -5  -4    3.50    0.88
  -2  -5  -4    1.99    0.31
  -2  -5  -4    2.47    0.37
  -2  -5  -4    2.37    0.70
  -2  -5  -4    3.33    0.47
  -2  -5  -4    3.42    1.51
  -2  -5  -4    3.24    0.52
  -2  -5  -4    2.36    0.51
  -3  -5  -4   25.86    2.45
  -3  -5  -4   19.70    2.25
  -3  -5  -4   20.57    3.59
  -3  -5  -4   23.83    2.79
  -3  -5  -4   22.83    2.33
  -3  -5  -4   27.69    2.80
  -3  -5  -4   18.67    2.05
  -3  -5  -4   25.29    2.60
  -4  -5  -4    1.24    0.28
  -4  -5  -4    1.01    0.23
  -4  -5  -4    0.61    1.08
  -4  -5  -4    0.61    0.20
  -4  -5  -4    0.90    0.40
  -4  -5  -4    1.64    0.67
  -4  -5  -4    0.60    0.26
  -4  -5  -4    0.76    0.33
  -4  -5  -4    1.18    0.77
  -4  -5  -4    0.84    0.35
  -5  -5  -4    7.40    1.13
  -5  -5  -4    8.39    1.10
  -5  -5  -4    5.63    0.74
  -5  -5  -4    7.55    1.04
  -5  -5  -4    6.74    0.78
  -5  -5  -4    7.96    0.81
  -6  -5  -4    4.27    0.53
  -6  -5  -4    3.94    0.53
  -7  -5  -4    1.46    0.28
  -7  -5  -4    1.57    0.40
  -8  -5  -4    0.20    0.14
   3  -6  -4    0.95    0.17
   3  -6  -4    0.86    0.42
   3  -6  -4    0.56    0.20
   2  -6  -4    0.27    0.20
   2  -6  -4    0.67    0.25
   2  -6  -4    0.41    0.47
   1  -6  -4    4.83    0.79
   1  -6  -4    4.76    0.64
   1  -6  -4    4.71    0.52
   1  -6  -4    5.11    0.95
   1  -6  -4    5.16    1.08
   0  -6  -4    1.94    0.93
   0  -6  -4    1.34    1.29
   0  -6  -4    1.90    0.49
   0  -6  -4    2.11    0.41
   0  -6  -4    2.09    0.37
   0  -6  -4    1.86    0.65
  -1  -6  -4    1.46    1.13
  -1  -6  -4    0.61    0.42
  -1  -6  -4    1.80    0.84
  -1  -6  -4    0.83    0.33
  -1  -6  -4    1.03    0.51
  -1  -6  -4    0.88    0.23
  -1  -6  -4    0.53    0.72
  -2  -6  -4    2.30    0.52
  -2  -6  -4    1.80    0.30
  -2  -6  -4    1.82    0.82
  -2  -6  -4    3.09    0.46
  -2  -6  -4    0.78    1.04
  -2  -6  -4    2.27    0.90
  -2  -6  -4    1.77    0.46
  -3  -6  -4    0.64    0.20
  -3  -6  -4    0.58    0.58
  -3  -6  -4    1.95    0.38
  -3  -6  -4    1.50    0.37
  -3  -6  -4    0.95    0.31
  -3  -6  -4    1.14    0.64
  -3  -6  -4    0.54    0.41
  -3  -6  -4    1.02    0.26
  -4  -6  -4    0.07    0.24
  -4  -6  -4    0.50    0.23
  -4  -6  -4   -0.09    0.56
  -4  -6  -4    0.32    0.28
  -4  -6  -4    0.49    0.82
  -4  -6  -4    0.44    0.36
  -4  -6  -4    0.51    0.32
  -4  -6  -4    0.47    0.31
  -4  -6  -4    0.30    0.26
  -5  -6  -4    3.20    0.40
  -5  -6  -4    4.23    0.50
  -5  -6  -4    6.04    0.95
  -5  -6  -4    2.65    0.89
  -5  -6  -4    4.71    0.55
  -6  -6  -4    0.52    0.30
  -6  -6  -4   -0.01    0.18
  -6  -6  -4    0.71    0.71
  -6  -6  -4    0.42    0.30
  -7  -6  -4    4.84    0.54
  -7  -6  -4    5.67    0.63
  -7  -6  -4    4.14    0.92
  -8  -6  -4    2.19    0.34
  -8  -6  -4    2.32    0.50
   2  -7  -4    1.20    0.24
   2  -7  -4    1.43    0.43
   1  -7  -4    1.61    0.74
   1  -7  -4    1.80    0.53
   0  -7  -4    0.91    0.26
   0  -7  -4    1.18    0.45
   0  -7  -4    0.87    0.88
   0  -7  -4    0.40    0.52
  -1  -7  -4    7.08    0.87
  -1  -7  -4    7.63    0.94
  -1  -7  -4    4.75    0.99
  -1  -7  -4    8.31    1.26
  -2  -7  -4    0.83    0.26
  -2  -7  -4    0.57    0.35
  -2  -7  -4    0.09    0.33
  -2  -7  -4    0.34    0.58
  -2  -7  -4    0.79    0.85
  -3  -7  -4    1.80    0.34
  -3  -7  -4    2.74    0.81
  -3  -7  -4    1.44    0.50
  -3  -7  -4    1.72    0.51
  -3  -7  -4    1.26    0.90
  -3  -7  -4    2.22    0.39
  -4  -7  -4    1.06    0.93
  -4  -7  -4    0.77    0.78
  -4  -7  -4    1.30    0.32
  -4  -7  -4    1.09    0.44
  -4  -7  -4    1.68    0.38
  -5  -7  -4    0.32    0.28
  -5  -7  -4   -0.10    0.32
  -5  -7  -4    0.24    0.80
  -5  -7  -4   -0.14    0.19
  -6  -7  -4    0.52    0.50
  -6  -7  -4   -0.12    0.28
  -6  -7  -4    0.10    0.20
  -7  -7  -4    1.43    0.27
  -7  -7  -4    2.17    0.66
  -7  -7  -4    1.39    0.29
  -8  -7  -4    1.21    0.36
   1  -8  -4    1.39    0.33
   1  -8  -4    0.54    0.15
   0  -8  -4    3.61    0.83
  -1  -8  -4    3.76    0.63
  -1  -8  -4    4.20    0.84
  -1  -8  -4    2.75    0.62
  -2  -8  -4    1.43    0.45
  -2  -8  -4    1.37    0.41
  -2  -8  -4    0.99    0.81
  -2  -8  -4    1.81    0.36
  -3  -8  -4    0.29    0.42
  -3  -8  -4   -0.46    0.74
  -3  -8  -4    0.17    0.30
  -4  -8  -4    0.74    0.23
  -4  -8  -4    2.72    0.89
  -4  -8  -4    0.38    0.38
  -5  -8  -4    0.01    0.21
  -5  -8  -4    0.08    0.55
  -5  -8  -4    0.06    0.24
  -6  -8  -4    0.18    0.22
  -6  -8  -4    0.54    0.48
  -7  -8  -4    0.20    0.20
  -7  -8  -4    0.69    0.38
  -1  -9  -4   -0.06    0.44
  -2  -9  -4   -0.56    0.54
  -2  -9  -4    0.39    0.29
  -3  -9  -4    0.14    0.59
  -3  -9  -4    1.05    0.41
  -4  -9  -4    2.12    0.44
  -4  -9  -4    3.21    0.75
  -5  -9  -4    0.53    0.20
  -5  -9  -4    0.96    0.51
  -6  -9  -4    0.53    0.09
  -6  -9  -4    0.28    0.29
  -5  -9   5    0.18    0.19
  -4  -9   5    0.83    0.18
  -4  -9   5    0.58    0.26
  -3  -9   5    3.24    0.44
  -2  -9   5    1.06    0.24
  -2  -9   5    0.52    0.23
  -1  -9   5    0.08    0.10
  -1  -9   5   -0.01    0.21
  -6  -8   5    0.18    0.11
  -6  -8   5    0.45    0.20
  -5  -8   5    1.38    0.23
  -5  -8   5    1.35    0.34
  -4  -8   5    0.50    0.16
  -4  -8   5    0.71    0.20
  -4  -8   5    0.71    0.46
  -3  -8   5    1.25    0.24
  -3  -8   5    1.84    0.32
  -3  -8   5    1.30    0.42
  -2  -8   5    0.22    0.48
  -2  -8   5    0.41    0.31
  -2  -8   5    0.36    0.17
  -1  -8   5    2.99    0.39
  -1  -8   5    3.63    0.51
  -1  -8   5    2.12    0.48
   0  -8   5    1.55    0.33
   1  -8   5    1.24    0.20
   1  -8   5    0.82    0.14
  -7  -7   5    0.07    0.12
  -7  -7   5    0.42    0.14
  -6  -7   5    0.64    0.31
  -6  -7   5    0.26    0.18
  -6  -7   5    0.37    0.16
  -5  -7   5    1.86    0.41
  -5  -7   5    1.99    0.28
  -5  -7   5    2.04    0.33
  -4  -7   5   -0.05    0.14
  -4  -7   5    0.10    0.18
  -4  -7   5    0.02    0.20
  -4  -7   5    0.10    0.31
  -3  -7   5    0.51    0.30
  -3  -7   5   -0.21    0.34
  -3  -7   5    0.55    0.23
  -3  -7   5    0.62    0.19
  -2  -7   5    0.83    0.22
  -2  -7   5    1.11    0.37
  -2  -7   5    0.78    0.57
  -2  -7   5    0.84    0.16
  -1  -7   5   -0.22    0.22
  -1  -7   5    0.53    0.36
  -1  -7   5   -0.10    0.51
  -1  -7   5    0.04    0.13
   0  -7   5    0.49    0.21
   0  -7   5    0.63    0.30
   0  -7   5    0.40    0.21
   1  -7   5    1.13    0.20
   1  -7   5    1.08    0.24
   1  -7   5    0.96    0.29
   1  -7   5    0.67    0.35
   2  -7   5    0.23    0.21
   2  -7   5    0.48    0.19
   2  -7   5    0.39    0.20
   3  -7   5    0.12    0.11
   3  -7   5   -0.07    0.10
  -7  -6   5    4.44    0.76
  -7  -6   5    5.75    0.57
  -6  -6   5    2.00    0.41
  -6  -6   5    1.90    0.32
  -6  -6   5    1.97    0.65
  -6  -6   5    1.37    0.21
  -5  -6   5    0.51    0.13
  -5  -6   5    0.33    0.28
  -5  -6   5    0.56    0.26
  -5  -6   5    0.52    0.26
  -4  -6   5    0.70    0.25
  -4  -6   5    1.15    0.45
  -4  -6   5    0.40    0.65
  -4  -6   5    0.55    0.23
  -3  -6   5   -0.03    0.32
  -3  -6   5   -0.05    0.25
  -3  -6   5   -0.08    0.40
  -3  -6   5   -0.13    0.17
  -3  -6   5    0.08    0.18
  -3  -6   5    0.16    0.24
  -3  -6   5    0.18    0.26
  -3  -6   5   -0.13    0.15
  -2  -6   5    1.49    0.31
  -2  -6   5    1.24    0.30
  -2  -6   5    0.39    0.73
  -2  -6   5    1.37    0.24
  -2  -6   5    1.29    0.54
  -2  -6   5    1.63    0.23
  -2  -6   5    0.44    0.35
  -1  -6   5    0.83    0.52
  -1  -6   5    0.39    0.15
  -1  -6   5    0.53    0.33
  -1  -6   5    0.18    0.36
  -1  -6   5    0.37    0.12
  -1  -6   5   -0.19    0.22
   0  -6   5   75.68    6.47
   0  -6   5   83.71    6.63
   0  -6   5   63.74    7.36
   0  -6   5   81.02    7.36
   0  -6   5   73.24    7.61
   1  -6   5    1.04    0.29
   1  -6   5    0.82    0.38
   1  -6   5    1.45    0.32
   1  -6   5    1.48    0.23
   1  -6   5    1.35    0.28
   2  -6   5    3.23    0.43
   2  -6   5    3.23    0.36
   2  -6   5    2.60    0.46
   2  -6   5    2.84    0.43
   3  -6   5    0.31    0.14
   3  -6   5   -0.10    0.21
   4  -6   5    0.10    0.10
   4  -6   5    0.10    0.12
  -7  -5   5    0.47    0.20
  -7  -5   5    0.36    0.18
  -6  -5   5    0.73    0.20
  -6  -5   5    0.83    0.25
  -6  -5   5    0.65    0.33
  -5  -5   5    3.81    1.09
  -5  -5   5    5.27    0.60
  -5  -5   5    4.85    0.62
  -5  -5   5    5.01    0.66
  -4  -5   5   19.50    2.45
  -4  -5   5   21.08    2.04
  -4  -5   5   17.99    2.53
  -4  -5   5   21.77    2.14
  -4  -5   5   21.18    1.92
  -4  -5   5   21.41    1.85
  -3  -5   5    6.59    1.01
  -3  -5   5    5.76    0.59
  -3  -5   5    5.82    0.58
  -3  -5   5    4.60    0.60
  -3  -5   5    5.89    0.69
  -3  -5   5    6.70    0.62
  -3  -5   5    6.62    0.75
  -3  -5   5    5.39    0.79
  -3  -5   5    4.99    0.83
  -2  -5   5    1.44    0.24
  -2  -5   5    1.43    0.23
  -2  -5   5    1.18    0.22
  -2  -5   5    1.38    0.22
  -2  -5   5    1.87    0.48
  -2  -5   5    1.31    0.39
  -2  -5   5    1.53    0.33
  -2  -5   5    1.56    0.71
  -2  -5   5    0.39    0.29
  -1  -5   5    5.45    0.72
  -1  -5   5    4.32    0.64
  -1  -5   5    4.50    0.45
  -1  -5   5    3.98    0.42
  -1  -5   5    3.10    0.89
  -1  -5   5    3.98    0.48
  -1  -5   5    4.76    0.61
  -1  -5   5    5.08    0.44
  -1  -5   5    3.62    0.36
   0  -5   5    0.32    0.22
   0  -5   5    0.08    0.41
   0  -5   5    0.45    0.18
   0  -5   5    0.47    0.34
   0  -5   5    0.19    0.15
   0  -5   5    0.30    0.10
   0  -5   5    0.21    0.20
   0  -5   5    0.46    0.17
   1  -5   5    4.26    0.44
   1  -5   5    4.22    0.50
   1  -5   5    4.60    0.56
   1  -5   5    4.25    0.38
   1  -5   5    4.68    0.65
   1  -5   5    3.51    0.55
   2  -5   5   19.25    1.76
   2  -5   5   20.05    1.90
   2  -5   5   18.73    1.95
   2  -5   5   19.76    1.72
   3  -5   5    4.90    0.62
   3  -5   5    6.28    0.69
   3  -5   5    6.17    0.62
   3  -5   5    6.32    0.68
   4  -5   5    1.57    0.33
   4  -5   5    2.35    0.29
   5  -5   5    0.71    0.15
   5  -5   5    0.85    0.15
   7   4  -5    2.74    0.37
  -7  -4   5    2.30    0.39
  -6  -4   5    0.81    0.28
  -5  -4   5    0.66    0.56
  -5  -4   5    1.36    0.30
  -4  -4   5   10.10    0.99
  -4  -4   5    9.86    0.94
  -4  -4   5    7.30    1.25
  -4  -4   5   11.27    1.41
  -4  -4   5    9.16    1.29
  -3  -4   5    7.14    0.78
  -3  -4   5    6.97    0.94
  -3  -4   5    8.18    1.03
  -3  -4   5    7.97    1.15
  -3  -4   5    7.79    1.02
  -3  -4   5    7.60    0.73
  -2  -4   5    0.66    0.40
  -2  -4   5    0.78    0.26
  -2  -4   5    0.64    0.29
  -2  -4   5    1.02    0.37
  -1  -4   5    1.11    0.32
  -1  -4   5    2.33    0.67
  -1  -4   5    1.53    0.37
  -1  -4   5    1.12    0.30
   0  -4   5   15.91    1.70
   0  -4   5   19.22    2.04
   0  -4   5   18.05    1.90
   0  -4   5   16.98    1.80
   0  -4   5   14.03    1.68
   0  -4   5   16.64    1.81
   1  -4   5   45.65    4.15
   1  -4   5   46.38    4.47
   1  -4   5   50.61    4.88
   1  -4   5   47.55    5.23
   1  -4   5   49.25    4.26
   1  -4   5   50.18    4.25
   1  -4   5   48.67    4.71
   1  -4   5   49.09    5.31
   2  -4   5    1.90    0.27
   2  -4   5    2.02    0.31
   2  -4   5    1.70    0.27
   2  -4   5    1.29    0.33
   2  -4   5    1.05    0.39
   2  -4   5    1.44    0.19
   2  -4   5    1.08    0.39
   3  -4   5    3.72    0.44
   3  -4   5    2.03    0.63
   3  -4   5    3.81    0.54
   3  -4   5    3.13    0.34
   3  -4   5    3.46    0.51
   3  -4   5    3.87    0.47
   4  -4   5    0.08    0.17
   4  -4   5    0.01    0.30
   4  -4   5    0.02    0.08
   4  -4   5    0.36    0.25
   5  -4   5    0.12    0.22
   5  -4   5    0.05    0.20
   7   3  -5    3.96    0.48
  -7  -3   5    2.89    0.50
   6   3  -5    1.36    0.33
   5   3  -5    0.52    0.43
  -5  -3   5    1.50    0.61
  -5  -3   5    2.09    0.35
  -4  -3   5    3.16    0.45
  -3  -3   5    0.31    0.34
  -3  -3   5    0.48    0.35
  -2  -3   5    1.29    0.40
  -2  -3   5    1.78    0.44
  -2  -3   5    1.46    0.34
  -1  -3   5   19.72    2.21
  -1  -3   5   22.49    2.32
  -1  -3   5   19.78    2.13
  -1  -3   5   17.16    1.84
  -1  -3   5   19.45    2.19
   0  -3   5   13.85    1.61
   0  -3   5   14.95    1.60
   0  -3   5   13.61    1.61
   0  -3   5   15.08    1.53
   0  -3   5   12.36    1.49
   0  -3   5   15.05    1.71
   1  -3   5    7.84    0.89
   1  -3   5    8.37    0.92
   1  -3   5    8.88    0.98
   1  -3   5    7.26    0.95
   1  -3   5    8.70    1.01
   1  -3   5    8.74    1.00
   2  -3   5   37.13    3.97
   2  -3   5   33.88    3.53
   2  -3   5   36.69    3.34
   2  -3   5   36.32    3.69
   2  -3   5   33.68    3.16
   2  -3   5   39.74    3.95
   2  -3   5   34.02    3.92
   2  -3   5   35.61    3.09
   2  -3   5   37.26    3.18
   3  -3   5   14.38    1.76
   3  -3   5   15.77    1.36
   3  -3   5   14.78    1.80
   3  -3   5   15.07    1.51
   3  -3   5   15.26    1.47
   3  -3   5   14.77    1.34
   3  -3   5   14.43    1.27
   3  -3   5   14.42    1.37
   4  -3   5    1.27    0.22
   4  -3   5    1.41    0.26
   4  -3   5    1.24    0.33
   4  -3   5    1.25    0.34
   4  -3   5    1.47    0.30
   4  -3   5    0.56    0.44
   5  -3   5    3.50    0.37
   5  -3   5    3.11    0.43
   5  -3   5    2.73    0.42
   6  -3   5    1.79    0.26
   6  -3   5    2.10    0.27
   7   2  -5    6.28    0.65
   7   2  -5    7.15    0.67
   7   2  -5    5.54    0.63
   6   2  -5    4.05    0.52
   6   2  -5    2.86    0.43
   6   2  -5    3.25    0.47
   5   2  -5   -0.31    0.39
   5   2  -5   -0.04    0.22
  -3  -2   5    4.91    0.79
  -3  -2   5    5.69    0.81
   2   2  -5    7.56    0.91
   2   2  -5    6.87    0.84
  -2  -2   5    8.58    1.01
  -2  -2   5    8.02    0.93
  -2  -2   5    7.42    0.86
  -2  -2   5    7.08    0.84
  -2  -2   5    8.97    1.04
   1   2  -5    0.17    0.18
   1   2  -5    0.18    0.23
  -1  -2   5    0.50    0.22
  -1  -2   5    0.23    0.19
  -1  -2   5    0.35    0.20
  -1  -2   5    0.35    0.28
  -1  -2   5    0.45    0.27
   0   2  -5    0.88    0.27
   0   2  -5    1.04    0.29
   0  -2   5    1.14    0.27
   0  -2   5    1.55    0.37
   0  -2   5    2.03    0.41
   0  -2   5    1.44    0.35
   0  -2   5    1.44    0.28
   0  -2   5    1.78    0.33
   0  -2   5    1.42    0.27
  -1   2  -5   34.45    3.71
  -1   2  -5   42.93    3.72
   1  -2   5   37.29    3.72
   1  -2   5   41.45    4.44
   1  -2   5   43.85    4.43
   1  -2   5   34.30    3.69
   1  -2   5   42.31    4.46
   1  -2   5   42.76    4.48
   1  -2   5   39.18    4.19
   1  -2   5   49.07    4.23
   2  -2   5    7.43    1.04
   2  -2   5    9.06    1.06
   2  -2   5    8.94    1.06
   2  -2   5    9.79    1.02
   3  -2   5    1.99    0.24
   3  -2   5    1.34    0.40
   3  -2   5    1.97    0.34
   3  -2   5    1.97    0.45
   3  -2   5    1.36    0.41
   3  -2   5    2.11    0.47
   3  -2   5    2.47    0.36
   3  -2   5    2.14    0.26
   3  -2   5    1.90    0.26
   4  -2   5   10.51    0.95
   4  -2   5   10.13    1.28
   4  -2   5   11.29    1.01
   4  -2   5   10.32    1.01
   4  -2   5   10.24    1.00
   4  -2   5   10.38    1.36
   4  -2   5   11.05    1.14
   4  -2   5   11.30    1.11
   5  -2   5    3.10    0.42
   5  -2   5    3.78    0.45
   5  -2   5    3.92    0.46
   5  -2   5    3.46    0.35
   6  -2   5    1.46    0.31
   6  -2   5    1.81    0.28
   6  -2   5    1.51    0.25
   7  -2   5    1.11    0.18
   7   1  -5    1.29    0.32
   7   1  -5    1.17    0.24
   7   1  -5    0.81    0.20
   6   1  -5    3.93    0.52
   6   1  -5    2.56    0.48
   6   1  -5    4.08    0.46
   5   1  -5    4.74    0.97
   5   1  -5    5.42    0.64
   5   1  -5    5.47    0.63
   5   1  -5    3.22    0.96
   4   1  -5    0.40    0.33
   4   1  -5    0.53    0.42
   4   1  -5    0.25    0.21
   4   1  -5    1.05    0.50
   3   1  -5   44.27    5.06
   3   1  -5   46.47    4.78
   2   1  -5   14.39    1.74
   2   1  -5   10.13    1.29
   2   1  -5    9.93    1.13
   2   1  -5   10.44    1.15
   2   1  -5   11.14    1.36
  -2  -1   5   11.50    1.15
  -2  -1   5   12.17    1.38
  -2  -1   5   10.54    1.23
  -2  -1   5   10.79    1.31
  -2  -1   5   11.31    1.14
   1   1  -5    0.36    0.27
   1   1  -5    0.36    0.21
   1   1  -5    0.23    0.40
   1   1  -5    0.08    0.22
   1   1  -5    0.59    0.22
  -1  -1   5    0.44    0.30
  -1  -1   5    0.39    0.23
  -1  -1   5    0.42    0.16
  -1  -1   5    0.58    0.24
  -1  -1   5    0.28    0.29
   0   1  -5    5.24    0.60
   0   1  -5    4.82    0.60
   0   1  -5    4.48    0.60
   0   1  -5    3.90    0.62
   0  -1   5    5.29    0.65
   0  -1   5    4.54    0.58
   0  -1   5    5.03    0.57
   0  -1   5    4.60    0.62
   0  -1   5    5.09    0.54
  -1   1  -5    6.06    0.89
  -1   1  -5    7.81    0.84
  -1   1  -5    7.86    0.83
   1  -1   5    8.49    0.98
   1  -1   5    7.85    0.92
   1  -1   5    7.90    0.82
   1  -1   5    9.42    0.94
   1  -1   5    7.92    0.93
  -2   1  -5   44.35    4.21
  -2   1  -5   39.92    4.19
   2  -1   5   48.17    5.06
   2  -1   5   50.72    4.77
   2  -1   5   50.26    4.92
   2  -1   5   44.08    4.20
   2  -1   5   44.46    4.98
   3  -1   5   18.97    2.16
   3  -1   5   21.88    2.11
   3  -1   5   16.82    2.21
   3  -1   5   18.88    2.15
   4  -1   5    0.16    0.10
   4  -1   5    0.48    0.22
   4  -1   5   -0.14    0.26
   4  -1   5    0.09    0.19
   4  -1   5    0.08    0.26
   4  -1   5    0.12    0.29
   4  -1   5    0.09    0.18
   4  -1   5    0.27    0.14
   4  -1   5    0.09    0.15
   4  -1   5    0.06    0.16
   5  -1   5    8.07    1.08
   5  -1   5    8.34    0.75
   5  -1   5    6.86    0.78
   5  -1   5    7.01    1.08
   5  -1   5    7.47    0.76
   5  -1   5    7.33    1.15
   5  -1   5    8.29    0.89
   5  -1   5    8.54    0.80
   6  -1   5    0.39    0.20
   6  -1   5    0.43    0.16
   6  -1   5    0.44    0.24
   7  -1   5    1.67    0.24
   7  -1   5    1.29    0.27
   7   0  -5    1.53    0.26
   6   0  -5    3.00    0.40
   6   0  -5    2.47    0.39
   6   0  -5    2.80    0.42
   5   0  -5    4.73    0.57
   5   0  -5    4.66    0.53
   5   0  -5    4.08    0.94
   5   0  -5    5.19    0.56
   5   0  -5    4.11    0.58
   4   0  -5   15.06    1.64
   4   0  -5   11.12    1.13
   4   0  -5   12.00    1.21
   4   0  -5   10.79    1.19
   4   0  -5   12.83    1.49
   4   0  -5   10.70    1.55
   3   0  -5    1.56    0.52
   3   0  -5    3.76    1.19
   3   0  -5    3.00    0.62
   3   0  -5    2.45    0.53
   2   0  -5   52.58    5.32
   2   0  -5   45.44    4.42
   2   0  -5   50.76    5.01
   2   0  -5   42.06    4.40
   2   0  -5   54.76    6.58
  -2   0   5   44.50    4.42
   1   0  -5    3.25    0.53
   1   0  -5    2.04    0.39
   1   0  -5    3.29    0.51
   1   0  -5    3.33    0.95
   1   0  -5    2.70    0.43
  -1   0   5    3.01    0.44
  -1   0   5    3.17    0.46
  -1   0   5    3.71    0.56
  -1   0   5    3.39    0.57
  -1   0   5    2.86    0.35
   0   0  -5   30.53    2.69
   0   0  -5   23.69    4.00
   0   0  -5   29.77    2.68
   0   0  -5   29.79    3.02
   0   0  -5   27.77    3.20
   0   0   5   29.15    3.21
   0   0   5   28.89    3.13
   0   0   5   26.99    2.67
   0   0   5   32.23    2.68
   0   0   5   29.96    3.03
  -1   0  -5   32.17    3.15
  -1   0  -5   31.88    3.56
  -1   0  -5   32.92    3.16
  -1   0  -5   34.01    3.79
   1   0   5   34.53    3.57
   1   0   5   36.20    3.80
   1   0   5   34.92    3.16
   1   0   5   38.70    3.17
  -2   0  -5   30.31    3.07
  -2   0  -5   31.71    3.47
  -2   0  -5   31.31    3.09
  -2   0  -5   28.71    3.68
   2   0   5   38.22    3.57
   2   0   5   33.62    3.09
   2   0   5   32.31    3.70
   2   0   5   34.45    3.09
   2   0   5   39.44    3.51
   3   0   5   10.71    1.28
   3   0   5   14.63    1.57
   3   0   5   12.46    1.43
   3   0   5   12.20    1.42
   4   0   5   34.32    3.58
   4   0   5   32.01    3.41
   4   0   5   27.56    2.99
   4   0   5   32.38    3.35
   5   0   5    4.40    0.49
   5   0   5    2.04    0.58
   5   0   5    2.54    0.69
   5   0   5    3.28    0.38
   5   0   5    2.79    0.64
   5   0   5    3.20    0.38
   5   0   5    3.81    0.84
   5   0   5    3.49    0.43
   6   0   5    0.18    0.11
   6   0   5    0.29    0.19
   6   0   5    0.28    0.25
   6   0   5    0.51    0.22
   7   0   5    9.59    0.94
   7   0   5    9.75    0.98
   8   0   5    0.05    0.11
   6  -1  -5    1.22    0.30
   6  -1  -5    0.88    0.15
   6  -1  -5    0.79    0.23
   5  -1  -5    0.67    0.31
   5  -1  -5    1.08    0.33
   5  -1  -5    1.25    0.28
   4  -1  -5    9.90    0.91
   4  -1  -5   11.89    1.34
   4  -1  -5    9.85    1.33
   4  -1  -5    8.27    0.96
   4  -1  -5   10.03    0.94
   4  -1  -5    7.98    1.16
   4  -1  -5    8.93    0.91
   4  -1  -5    8.22    0.93
   3  -1  -5    7.93    1.73
   3  -1  -5    4.17    0.50
   3  -1  -5    5.84    0.78
   3  -1  -5    4.38    0.56
   3  -1  -5    4.99    0.70
   3  -1  -5    4.23    0.82
   3  -1  -5    4.58    0.52
   2  -1  -5    0.96    0.34
   2  -1  -5    1.27    0.40
   2  -1  -5    2.35    0.98
   2  -1  -5    1.52    0.44
   1  -1  -5   13.60    1.48
   1  -1  -5   14.76    2.24
   1  -1  -5   13.73    1.59
   1  -1  -5   12.73    1.31
  -1   1   5   13.07    1.34
  -1   1   5   13.64    1.32
   0  -1  -5   44.26    3.91
   0  -1  -5   46.21    4.40
   0  -1  -5   38.17    3.89
   0  -1  -5   38.00    5.88
   0  -1  -5   40.50    4.67
   0   1   5   49.67    3.91
   0   1   5   40.33    4.41
   0   1   5   41.49    4.69
   0   1   5   44.84    3.90
  -1  -1  -5   19.85    2.04
  -1  -1  -5   19.66    2.05
  -1  -1  -5   20.90    2.30
  -1  -1  -5   24.83    2.47
   1   1   5   21.60    2.46
   1   1   5   20.43    2.31
   1   1   5   24.00    2.06
   1   1   5   24.06    2.06
  -2  -1  -5    0.14    0.24
  -2  -1  -5    0.15    0.23
  -2  -1  -5    0.14    0.30
  -2  -1  -5    0.11    0.20
  -2  -1  -5    0.15    0.25
   2   1   5    0.20    0.14
   2   1   5    0.21    0.23
   2   1   5    0.36    0.27
   2   1   5    0.13    0.29
   2   1   5   -0.02    0.23
  -3  -1  -5   27.21    3.14
  -3  -1  -5   29.63    2.79
  -3  -1  -5   27.42    3.32
  -3  -1  -5   24.92    2.76
   3   1   5   29.27    2.80
   3   1   5   35.30    3.39
   3   1   5   28.59    2.81
   3   1   5   31.13    3.19
   3   1   5   34.33    3.18
   4   1   5   30.42    3.21
   4   1   5   28.27    3.22
   4   1   5   30.28    3.42
   5   1   5    0.48    0.17
   5   1   5    0.41    0.21
   5   1   5    0.56    0.45
   5   1   5    0.15    0.27
   5   1   5    0.78    0.49
   6   1   5    1.08    0.29
   6   1   5    0.79    0.20
   7   1   5   -0.13    0.25
   7   1   5   -0.01    0.16
   7   1   5    0.09    0.18
   8   1   5    0.48    0.15
   6  -2  -5   -0.05    0.15
   6  -2  -5    0.27    0.15
   5  -2  -5   13.64    1.37
   5  -2  -5   14.72    1.37
   4  -2  -5   34.42    3.21
   4  -2  -5   30.83    3.73
   4  -2  -5   34.49    3.89
   4  -2  -5   34.22    3.09
   4  -2  -5   34.29    2.93
   4  -2  -5   35.33    3.04
   3  -2  -5    1.14    0.44
   3  -2  -5    1.80    0.33
   3  -2  -5    2.18    1.43
   3  -2  -5    0.70    0.31
   3  -2  -5    1.34    0.48
   3  -2  -5    1.53    0.30
   3  -2  -5    1.85    0.25
   3  -2  -5    1.95    0.53
   3  -2  -5    1.47    0.34
   2  -2  -5    0.42    0.26
   2  -2  -5    0.88    0.98
   2  -2  -5    0.62    0.30
   2  -2  -5    0.33    0.29
   1  -2  -5    6.31    0.73
   1  -2  -5    4.47    0.75
   1  -2  -5    8.89    1.72
   1  -2  -5    7.22    0.80
   0  -2  -5    5.77    0.56
   0  -2  -5    4.97    0.60
   0  -2  -5    4.90    0.57
   0  -2  -5    5.99    1.63
   0  -2  -5    4.36    0.51
   0  -2  -5    3.48    0.54
   0  -2  -5    3.10    0.58
   0  -2  -5    5.32    0.63
   0   2   5    4.27    0.52
   0   2   5    4.62    0.54
  -1  -2  -5    4.96    1.54
  -1  -2  -5    3.20    0.38
  -1  -2  -5    4.42    0.64
  -2  -2  -5    2.54    0.38
  -2  -2  -5    3.06    0.54
  -2  -2  -5    2.57    0.42
  -2  -2  -5    2.57    0.59
  -2  -2  -5    2.58    0.47
   2   2   5    2.87    0.44
   2   2   5    2.18    0.51
   2   2   5    3.11    0.52
   2   2   5    3.10    0.46
  -3  -2  -5   11.09    1.32
  -3  -2  -5    8.65    1.07
  -3  -2  -5   10.04    1.24
  -3  -2  -5   10.19    1.31
  -3  -2  -5   11.72    1.13
   3   2   5   11.34    1.16
   3   2   5   11.50    1.35
   3   2   5   12.31    1.29
   3   2   5   10.45    1.13
   5   2   5   27.93    2.73
   6   2   5    4.40    0.56
   7   2   5    0.07    0.17
   7   2   5    0.32    0.27
   8   2   5    1.45    0.27
   5  -3  -5    4.20    0.49
   5  -3  -5    4.04    0.43
   5  -3  -5    3.90    0.53
   4  -3  -5    1.78    0.63
   4  -3  -5    1.36    0.28
   4  -3  -5    1.52    0.34
   4  -3  -5    1.30    0.34
   3  -3  -5    3.48    0.44
   3  -3  -5    3.65    0.50
   3  -3  -5    2.34    0.40
   3  -3  -5    2.43    0.67
   3  -3  -5    4.06    1.64
   3  -3  -5    3.11    0.29
   3  -3  -5    3.54    0.72
   3  -3  -5    2.72    0.42
   3  -3  -5    4.21    0.47
   2  -3  -5    0.21    0.13
   2  -3  -5   -0.04    0.21
   2  -3  -5    0.06    0.19
   2  -3  -5   -0.40    0.69
   2  -3  -5   -0.10    1.12
   2  -3  -5    0.09    0.11
   2  -3  -5   -0.15    0.23
   2  -3  -5   -0.14    0.27
   2  -3  -5    0.14    0.17
   2  -3  -5    0.16    0.27
   1  -3  -5    9.36    1.98
   1  -3  -5    5.19    0.79
   1  -3  -5    7.19    0.81
   1  -3  -5    6.33    0.74
   0  -3  -5    0.57    0.21
   0  -3  -5    0.63    1.08
   0  -3  -5    0.51    0.17
   0  -3  -5    0.86    0.20
  -1  -3  -5    3.84    0.78
  -1  -3  -5    4.47    0.60
  -1  -3  -5    4.39    0.53
  -1  -3  -5    4.51    1.64
  -1  -3  -5    2.96    0.42
  -1  -3  -5    4.12    0.51
  -2  -3  -5   12.19    1.44
  -2  -3  -5   13.34    1.36
  -2  -3  -5   10.23    1.52
  -2  -3  -5   12.81    2.64
  -3  -3  -5    1.30    0.50
  -3  -3  -5    1.74    0.45
  -3  -3  -5    1.71    0.41
  -4  -3  -5    4.37    0.78
  -4  -3  -5    4.39    0.75
  -4  -3  -5    4.04    0.78
  -5  -3  -5    4.46    0.59
   6   3   5   58.21    5.64
   7   3   5    0.11    0.14
   8   3   5    0.24    0.16
   5  -4  -5    1.26    0.21
   5  -4  -5    1.27    0.20
   4  -4  -5    6.08    0.69
   4  -4  -5    5.78    0.68
   3  -4  -5    5.89    0.75
   3  -4  -5    6.43    0.72
   3  -4  -5    6.58    0.63
   3  -4  -5    6.91    1.01
   2  -4  -5    3.26    0.45
   2  -4  -5    3.77    0.79
   2  -4  -5    3.29    0.43
   2  -4  -5    4.47    0.94
   2  -4  -5    3.56    0.53
   2  -4  -5    4.33    1.71
   1  -4  -5   10.17    0.96
   1  -4  -5    8.33    0.89
   1  -4  -5   15.98    2.43
   1  -4  -5    9.87    1.27
   1  -4  -5    9.78    0.87
   1  -4  -5    9.46    1.34
   1  -4  -5    7.45    1.07
   0  -4  -5   19.83    2.18
   0  -4  -5   17.49    2.41
   0  -4  -5   21.23    2.07
   0  -4  -5   20.71    2.18
   0  -4  -5   22.27    2.07
   0  -4  -5   16.18    2.06
  -1  -4  -5   20.02    2.22
  -1  -4  -5   19.04    2.07
  -1  -4  -5   21.94    3.42
  -2  -4  -5    0.37    0.20
  -2  -4  -5   -0.27    0.75
  -2  -4  -5    0.99    0.38
  -2  -4  -5    0.51    0.47
  -3  -4  -5    0.26    0.23
  -3  -4  -5    0.12    0.29
  -3  -4  -5    0.44    0.36
  -3  -4  -5    0.04    0.88
  -4  -4  -5    3.42    0.47
  -4  -4  -5    3.51    0.67
  -4  -4  -5    3.34    0.77
  -4  -4  -5    2.19    0.41
  -4  -4  -5    3.95    0.69
  -5  -4  -5    5.83    0.71
  -5  -4  -5    5.54    0.71
  -5  -4  -5    7.18    0.97
  -5  -4  -5    7.05    1.01
  -6  -4  -5    6.98    0.85
  -7  -4  -5    2.25    0.45
   7   4   5    2.96    0.40
  -8  -4  -5    0.26    0.23
   4  -5  -5    0.05    0.16
   4  -5  -5    0.20    0.19
   3  -5  -5    1.47    0.31
   3  -5  -5    1.66    0.35
   3  -5  -5    1.92    0.56
   2  -5  -5    2.91    1.09
   2  -5  -5    0.72    0.28
   2  -5  -5    0.60    0.24
   2  -5  -5    1.11    0.66
   1  -5  -5    5.10    0.61
   1  -5  -5    5.39    2.00
   1  -5  -5    4.58    0.73
   1  -5  -5    4.24    0.49
   1  -5  -5    6.05    0.87
   1  -5  -5    4.06    0.42
   1  -5  -5    4.92    0.98
   0  -5  -5    6.08    0.96
   0  -5  -5    4.43    0.80
   0  -5  -5    4.43    0.60
   0  -5  -5    3.41    0.44
   0  -5  -5    5.66    1.70
   0  -5  -5    4.00    0.69
   0  -5  -5    4.35    0.55
  -1  -5  -5    2.88    0.41
  -1  -5  -5    3.13    0.55
  -1  -5  -5    3.28    0.42
  -1  -5  -5    3.69    1.56
  -1  -5  -5    3.01    0.67
  -1  -5  -5    3.40    0.51
  -1  -5  -5    2.34    0.82
  -1  -5  -5    4.61    0.81
  -2  -5  -5    1.15    0.39
  -2  -5  -5    1.84    0.60
  -2  -5  -5    1.30    0.50
  -2  -5  -5    0.84    0.60
  -2  -5  -5    1.58    0.30
  -2  -5  -5    1.81    0.31
  -2  -5  -5    0.84    0.24
  -2  -5  -5    0.55    0.90
  -2  -5  -5    1.12    0.25
  -2  -5  -5    1.54    0.35
  -3  -5  -5   17.03    1.71
  -3  -5  -5   14.78    1.51
  -3  -5  -5   18.79    2.06
  -3  -5  -5   18.41    1.94
  -3  -5  -5   16.36    3.02
  -3  -5  -5   12.97    1.47
  -3  -5  -5   17.76    1.74
  -3  -5  -5   18.19    2.13
  -4  -5  -5    0.27    0.18
  -4  -5  -5   -0.47    1.15
  -4  -5  -5    0.27    0.34
  -4  -5  -5    0.12    0.33
  -4  -5  -5    0.23    0.24
  -4  -5  -5    0.61    0.72
  -4  -5  -5    0.57    0.25
  -4  -5  -5    0.19    0.28
  -5  -5  -5    1.85    0.37
  -5  -5  -5    0.08    0.51
  -5  -5  -5    1.88    0.32
  -5  -5  -5    1.76    0.37
  -5  -5  -5    1.52    0.60
  -5  -5  -5    0.92    0.46
  -6  -5  -5   -0.06    0.23
  -6  -5  -5   -0.39    0.29
  -7  -5  -5    4.26    0.52
  -7  -5  -5    3.80    0.57
  -8  -5  -5    1.49    0.24
  -8  -5  -5    2.24    0.52
   3  -6  -5    0.06    0.34
   3  -6  -5   -0.06    0.16
   3  -6  -5    0.26    0.12
   2  -6  -5   -0.06    0.40
   2  -6  -5   -0.02    0.18
   2  -6  -5    0.04    0.20
   1  -6  -5   -0.19    0.64
   1  -6  -5    0.02    0.42
   1  -6  -5    0.65    0.30
   0  -6  -5    1.24    0.28
   0  -6  -5    1.20    0.49
   0  -6  -5    1.93    0.60
   0  -6  -5    1.55    0.89
   0  -6  -5    0.42    1.00
  -1  -6  -5    1.99    1.33
  -1  -6  -5    3.07    0.54
  -1  -6  -5    3.42    0.42
  -1  -6  -5    2.34    0.32
  -1  -6  -5    1.37    0.82
  -1  -6  -5    2.79    0.68
  -1  -6  -5    3.69    0.52
  -1  -6  -5    5.23    0.91
  -2  -6  -5    2.42    0.88
  -2  -6  -5    2.08    0.34
  -2  -6  -5    2.23    0.61
  -2  -6  -5    1.22    0.72
  -2  -6  -5    2.85    0.43
  -2  -6  -5    2.97    0.49
  -2  -6  -5    1.68    1.25
  -3  -6  -5    9.66    1.44
  -3  -6  -5   14.35    1.36
  -3  -6  -5   12.72    1.43
  -3  -6  -5   12.03    1.32
  -3  -6  -5   13.51    1.76
  -3  -6  -5   11.33    1.18
  -3  -6  -5   12.24    1.34
  -4  -6  -5    4.28    1.01
  -4  -6  -5    3.52    0.49
  -4  -6  -5    4.39    0.55
  -4  -6  -5    3.44    0.49
  -4  -6  -5    2.22    0.87
  -4  -6  -5    3.33    0.61
  -4  -6  -5    3.37    0.45
  -4  -6  -5    3.78    0.72
  -4  -6  -5    2.84    0.66
  -5  -6  -5    0.96    0.80
  -5  -6  -5    0.16    0.19
  -5  -6  -5    0.23    0.21
  -5  -6  -5    0.19    0.10
  -5  -6  -5    0.16    0.47
  -6  -6  -5    0.40    0.30
  -6  -6  -5   -0.33    0.68
  -6  -6  -5   -0.09    0.30
  -6  -6  -5    0.03    0.14
  -7  -6  -5   -0.26    0.59
  -7  -6  -5    0.00    0.12
  -7  -6  -5   -0.11    0.26
  -8  -6  -5   -0.16    0.32
  -8  -6  -5    0.24    0.17
   2  -7  -5    0.45    0.34
   2  -7  -5    0.10    0.14
   1  -7  -5    0.27    0.89
   1  -7  -5    0.36    0.25
   1  -7  -5    0.80    0.56
   0  -7  -5   18.60    1.96
   0  -7  -5   13.42    1.76
   0  -7  -5   17.85    2.17
   0  -7  -5   16.11    1.59
  -1  -7  -5    0.28    0.61
  -1  -7  -5    0.95    0.42
  -1  -7  -5    0.54    0.37
  -2  -7  -5    0.72    0.64
  -2  -7  -5   -0.26    0.47
  -2  -7  -5   -0.39    0.50
  -2  -7  -5    0.12    0.30
  -2  -7  -5    0.71    0.26
  -3  -7  -5    0.00    0.20
  -3  -7  -5    0.80    0.70
  -3  -7  -5   -0.11    0.57
  -3  -7  -5   -0.08    0.43
  -3  -7  -5    0.05    0.22
  -3  -7  -5    0.22    0.30
  -4  -7  -5    1.07    0.30
  -4  -7  -5    1.58    0.70
  -4  -7  -5    1.05    0.33
  -4  -7  -5    1.00    0.42
  -5  -7  -5    0.13    0.27
  -5  -7  -5    0.50    0.25
  -5  -7  -5    0.52    0.81
  -6  -7  -5   -0.20    0.26
  -6  -7  -5    0.60    0.50
  -6  -7  -5   -0.13    0.21
  -7  -7  -5    1.51    0.28
  -7  -7  -5    2.30    0.34
  -7  -7  -5    1.51    0.62
  -8  -7  -5    1.02    0.17
  -8  -7  -5    1.76    0.37
   1  -8  -5    0.42    0.27
   0  -8  -5   -0.14    0.53
   0  -8  -5    0.09    0.27
  -1  -8  -5   -0.17    0.30
  -1  -8  -5   -0.40    0.50
  -1  -8  -5    0.37    0.31
  -2  -8  -5   -0.16    0.55
  -2  -8  -5    0.35    0.46
  -2  -8  -5   -0.07    0.24
  -3  -8  -5    9.11    1.22
  -3  -8  -5   11.72    1.67
  -3  -8  -5    9.60    1.19
  -4  -8  -5    1.54    0.29
  -4  -8  -5    1.87    0.65
  -4  -8  -5    1.88    0.39
  -5  -8  -5   -0.12    0.20
  -5  -8  -5   -0.14    0.53
  -5  -8  -5   -0.01    0.28
  -6  -8  -5    0.11    0.15
  -6  -8  -5    0.78    0.48
  -7  -8  -5    0.26    0.19
  -7  -8  -5    0.32    0.34
  -1  -9  -5    0.76    0.44
  -2  -9  -5    0.17    0.43
  -2  -9  -5    0.06    0.24
  -3  -9  -5    0.32    0.46
  -3  -9  -5    0.49    0.28
  -4  -9  -5    0.05    0.41
  -4  -9  -5    0.03    0.30
  -5  -9  -5    0.04    0.24
  -5  -9  -5    0.25    0.36
  -6  -9  -5    0.09    0.26
  -5  -9   6    0.14    0.17
  -4  -9   6    0.35    0.13
  -4  -9   6    0.02    0.20
  -3  -9   6   -0.02    0.13
  -3  -9   6    0.10    0.23
  -2  -9   6    0.41    0.19
  -2  -9   6    0.29    0.16
  -1  -9   6    0.70    0.16
  -1  -9   6    1.21    0.22
  -5  -8   6    0.11    0.35
  -5  -8   6   -0.01    0.14
  -4  -8   6    0.16    0.31
  -4  -8   6    0.05    0.12
  -4  -8   6    0.37    0.21
  -3  -8   6    0.46    0.48
  -3  -8   6    0.15    0.18
  -3  -8   6    0.38    0.20
  -3  -8   6    0.37    0.08
  -2  -8   6    0.52    0.22
  -2  -8   6    1.04    0.36
  -2  -8   6    0.39    0.24
  -1  -8   6    0.02    0.20
  -1  -8   6    0.19    0.22
  -1  -8   6   -0.01    0.23
   0  -8   6    0.40    0.15
   0  -8   6    0.37    0.12
   0  -8   6    0.11    0.21
   1  -8   6    0.29    0.13
   1  -8   6    0.34    0.11
  -7  -7   6    0.77    0.13
  -6  -7   6    0.77    0.15
  -6  -7   6    0.46    0.22
  -6  -7   6    0.41    0.20
  -5  -7   6    0.27    0.20
  -5  -7   6   -0.20    0.24
  -5  -7   6    0.17    0.15
  -4  -7   6    0.21    0.13
  -4  -7   6    0.32    0.23
  -4  -7   6    0.27    0.21
  -4  -7   6   -0.19    0.28
  -3  -7   6    0.37    0.21
  -3  -7   6    0.71    0.39
  -3  -7   6    0.32    0.28
  -3  -7   6    0.76    0.19
  -2  -7   6    2.30    0.62
  -2  -7   6    1.58    0.40
  -2  -7   6    1.76    0.29
  -2  -7   6    1.41    0.21
  -1  -7   6    8.47    1.00
  -1  -7   6    7.79    1.11
  -1  -7   6   11.14    0.90
  -1  -7   6   10.36    1.14
   0  -7   6    3.57    0.53
   0  -7   6    4.36    0.45
   0  -7   6    3.19    0.55
   1  -7   6    0.01    0.13
   1  -7   6    0.17    0.21
   1  -7   6    0.17    0.25
   1  -7   6    0.29    0.31
   2  -7   6    0.10    0.13
   2  -7   6    0.07    0.13
   2  -7   6   -0.02    0.14
   3  -7   6    0.34    0.11
  -7  -6   6   -0.04    0.18
  -7  -6   6    0.26    0.16
  -6  -6   6    0.02    0.22
  -6  -6   6   -0.18    0.21
  -6  -6   6    0.11    0.07
  -5  -6   6    1.73    0.30
  -5  -6   6    1.11    0.15
  -5  -6   6    1.15    0.30
  -5  -6   6    1.04    0.41
  -4  -6   6    1.26    0.47
  -4  -6   6    0.95    0.26
  -4  -6   6    1.10    0.28
  -4  -6   6    0.52    0.70
  -3  -6   6    0.29    0.26
  -3  -6   6    1.16    0.25
  -3  -6   6    0.82    0.20
  -3  -6   6    1.28    0.28
  -3  -6   6    1.10    0.61
  -3  -6   6    1.13    0.49
  -3  -6   6    1.60    0.27
  -2  -6   6    6.75    1.60
  -2  -6   6   10.17    1.08
  -2  -6   6    9.95    1.31
  -2  -6   6   10.99    1.30
  -2  -6   6   10.12    1.18
  -2  -6   6   11.75    0.99
  -1  -6   6    0.87    0.24
  -1  -6   6    1.11    0.23
  -1  -6   6    1.23    0.19
  -1  -6   6    0.95    0.30
  -1  -6   6    0.90    0.55
  -1  -6   6    0.51    0.31
   0  -6   6    5.98    0.74
   0  -6   6    5.49    0.57
   0  -6   6    5.28    0.66
   0  -6   6    5.57    0.59
   1  -6   6    2.28    0.39
   1  -6   6    3.24    0.41
   1  -6   6    2.93    0.35
   1  -6   6    3.27    0.51
   2  -6   6    4.45    0.55
   2  -6   6    3.75    0.52
   2  -6   6    5.06    0.51
   3  -6   6    1.13    0.22
   3  -6   6    0.74    0.17
   3  -6   6    0.69    0.21
   4  -6   6    0.28    0.12
   4  -6   6    0.38    0.11
   7   5  -6    0.27    0.20
  -7  -5   6    0.32    0.24
  -7  -5   6    0.29    0.16
  -6  -5   6    2.07    0.39
  -6  -5   6    2.76    0.41
  -6  -5   6    2.06    0.34
  -5  -5   6    1.91    0.35
  -5  -5   6    1.73    0.44
  -5  -5   6    1.43    0.28
  -4  -5   6    0.11    0.22
  -4  -5   6    0.07    0.35
  -4  -5   6    0.35    0.20
  -4  -5   6    0.25    0.25
  -4  -5   6    0.18    0.36
  -4  -5   6    0.59    0.60
  -3  -5   6    3.28    0.56
  -3  -5   6    2.88    0.32
  -3  -5   6    2.10    0.71
  -3  -5   6    1.91    0.48
  -3  -5   6    1.42    0.48
  -3  -5   6    3.11    0.36
  -3  -5   6    2.34    0.38
  -3  -5   6    3.05    0.35
  -3  -5   6    1.29    0.48
  -2  -5   6    0.85    0.23
  -2  -5   6    0.36    0.29
  -2  -5   6    1.08    0.66
  -2  -5   6    0.45    0.30
  -2  -5   6    0.55    0.22
  -2  -5   6    1.11    0.20
  -2  -5   6    0.77    0.44
  -2  -5   6    0.29    0.24
  -2  -5   6    1.29    0.21
  -2  -5   6    0.89    0.18
  -1  -5   6    1.87    0.23
  -1  -5   6    0.91    0.27
  -1  -5   6    1.25    0.18
  -1  -5   6    1.73    0.23
  -1  -5   6    1.50    0.29
  -1  -5   6    1.25    0.66
  -1  -5   6    1.88    0.38
  -1  -5   6    1.92    0.50
  -1  -5   6    1.68    0.41
   0  -5   6   20.54    1.73
   0  -5   6   19.05    2.04
   0  -5   6   15.86    2.22
   0  -5   6   18.75    1.93
   0  -5   6   20.78    1.74
   0  -5   6   19.67    1.70
   1  -5   6   17.39    1.67
   1  -5   6   15.94    1.52
   1  -5   6   17.38    1.86
   1  -5   6   18.67    1.59
   1  -5   6   17.38    1.74
   2  -5   6   33.74    3.19
   2  -5   6   36.33    3.12
   2  -5   6   36.24    3.55
   2  -5   6   38.13    3.40
   3  -5   6    8.27    0.78
   3  -5   6    7.18    0.77
   3  -5   6    7.99    0.86
   4  -5   6    0.21    0.23
   4  -5   6    0.45    0.21
   5  -5   6    1.98    0.23
   7   4  -6    1.42    0.24
  -7  -4   6    1.19    0.27
  -6  -4   6    2.63    0.38
  -5  -4   6    6.42    1.16
  -5  -4   6    5.95    0.68
  -4  -4   6    7.97    0.83
  -4  -4   6    8.37    1.16
  -4  -4   6    7.59    0.79
  -4  -4   6    6.31    1.08
  -3  -4   6    1.68    0.50
  -3  -4   6    2.25    0.30
  -3  -4   6    2.10    0.36
  -3  -4   6    1.43    0.48
  -3  -4   6    2.56    0.34
  -3  -4   6    1.34    0.41
  -3  -4   6    2.38    0.31
  -3  -4   6    2.55    0.64
  -2  -4   6    4.74    0.88
  -2  -4   6    2.39    0.58
  -2  -4   6    3.50    0.39
  -2  -4   6    3.88    0.57
  -2  -4   6    3.27    0.53
  -1  -4   6    1.05    0.29
  -1  -4   6    1.40    0.58
  -1  -4   6    1.31    0.36
  -1  -4   6    0.94    0.31
   0  -4   6    1.05    0.27
   0  -4   6    0.85    0.26
   0  -4   6    1.38    0.18
   0  -4   6    1.63    0.40
   0  -4   6    1.74    0.25
   1  -4   6   33.44    3.39
   1  -4   6   31.85    3.09
   1  -4   6   34.38    3.26
   1  -4   6   33.56    3.71
   1  -4   6   33.72    2.87
   1  -4   6   32.89    2.94
   1  -4   6   32.82    2.94
   2  -4   6   21.96    1.92
   2  -4   6   21.77    2.03
   2  -4   6   18.76    2.45
   2  -4   6   18.91    2.43
   2  -4   6   22.12    1.87
   2  -4   6   21.91    1.89
   2  -4   6   21.48    2.13
   3  -4   6   -0.07    0.33
   3  -4   6    0.22    0.22
   3  -4   6    0.09    0.24
   3  -4   6    0.04    0.21
   3  -4   6    0.36    0.12
   3  -4   6    0.41    0.29
   4  -4   6    6.12    0.69
   4  -4   6    5.56    0.60
   4  -4   6    6.05    0.65
   4  -4   6    5.76    0.55
   5  -4   6    0.33    0.17
   5  -4   6    0.57    0.18
   7   3  -6    1.40    0.24
   7   3  -6    1.43    0.26
  -7  -3   6    1.76    0.32
   6   3  -6    1.41    0.29
  -6  -3   6    1.73    0.35
   5   3  -6    0.24    0.29
  -5  -3   6    0.96    0.46
  -5  -3   6    0.54    0.26
  -4  -3   6    3.53    0.47
  -3  -3   6    0.07    0.32
  -3  -3   6    0.32    0.35
  -2  -3   6    2.16    0.42
  -2  -3   6    1.73    0.46
  -2  -3   6    2.55    0.52
  -1  -3   6  127.08   12.80
  -1  -3   6  127.93   13.63
  -1  -3   6  120.55   13.56
  -1  -3   6  125.38   13.44
   0  -3   6    2.37    0.46
   0  -3   6    2.04    0.53
   0  -3   6    2.16    0.43
   0  -3   6    2.42    0.43
   1  -3   6    2.45    0.42
   1  -3   6    2.94    0.44
   1  -3   6    3.43    0.50
   1  -3   6    3.27    0.46
   2  -3   6    0.38    0.14
   2  -3   6    0.40    0.20
   2  -3   6    0.21    0.19
   2  -3   6    0.38    0.22
   2  -3   6    0.64    0.19
   2  -3   6    0.22    0.20
   2  -3   6    0.22    0.09
   2  -3   6    0.45    0.12
   2  -3   6    0.32    0.28
   2  -3   6    0.36    0.24
   3  -3   6   20.35    2.40
   3  -3   6   20.60    2.08
   3  -3   6   21.56    2.41
   3  -3   6   20.66    1.77
   3  -3   6   20.30    1.86
   3  -3   6   20.27    1.83
   3  -3   6   21.31    1.86
   3  -3   6   20.68    1.98
   4  -3   6    3.04    0.43
   4  -3   6    2.40    0.38
   4  -3   6    3.13    0.47
   4  -3   6    2.80    0.40
   4  -3   6    1.21    0.55
   4  -3   6    2.50    0.32
   5  -3   6    0.02    0.12
   5  -3   6   -0.08    0.23
   5  -3   6    0.13    0.23
   6  -3   6    3.91    0.42
   7   2  -6    3.37    0.43
   7   2  -6    4.26    0.42
   7   2  -6    4.73    0.47
   6   2  -6    3.05    0.42
   6   2  -6    2.93    0.42
   6   2  -6    2.98    0.47
   5   2  -6    0.19    0.32
   5   2  -6    0.53    0.20
  -3  -2   6    8.71    1.12
  -3  -2   6    7.93    1.12
   2   2  -6    0.97    0.34
  -2  -2   6    1.81    0.32
  -2  -2   6    0.90    0.39
  -2  -2   6    1.42    0.37
  -2  -2   6    1.84    0.49
   1   2  -6    1.17    0.29
  -1  -2   6    1.45    0.40
  -1  -2   6    1.84    0.34
  -1  -2   6    1.42    0.30
  -1  -2   6    1.36    0.31
  -1  -2   6    1.89    0.44
   0   2  -6    1.92    0.39
   0   2  -6    1.98    0.40
   0  -2   6    2.42    0.39
   0  -2   6    2.80    0.39
   0  -2   6    3.66    0.53
   0  -2   6    3.49    0.55
   0  -2   6    2.93    0.40
   1  -2   6    3.19    0.51
   1  -2   6    3.00    0.44
   1  -2   6    2.19    0.36
   1  -2   6    2.89    0.46
   1  -2   6    3.19    0.46
   1  -2   6    2.63    0.42
   2  -2   6   11.50    1.34
   2  -2   6   12.14    1.38
   2  -2   6   11.42    1.40
   2  -2   6   12.15    1.39
   3  -2   6    0.78    0.16
   3  -2   6    0.69    0.35
   3  -2   6    0.65    0.34
   3  -2   6    0.79    0.36
   3  -2   6    0.76    0.34
   3  -2   6    0.68    0.24
   3  -2   6    0.82    0.18
   3  -2   6    1.18    0.28
   3  -2   6    0.67    0.20
   3  -2   6    1.08    0.20
   4  -2   6   -0.03    0.20
   4  -2   6    0.12    0.18
   4  -2   6   -0.19    0.27
   4  -2   6    0.25    0.21
   4  -2   6    0.12    0.33
   4  -2   6   -0.19    0.24
   4  -2   6    0.13    0.14
   4  -2   6    0.09    0.24
   4  -2   6   -0.09    0.27
   4  -2   6    0.05    0.27
   5  -2   6    0.57    0.20
   5  -2   6    0.12    0.19
   5  -2   6    0.50    0.23
   5  -2   6    0.72    0.23
   5  -2   6    0.41    0.12
   6  -2   6    0.27    0.13
   6  -2   6    0.30    0.18
   7  -2   6    0.17    0.06
   7  -2   6    0.01    0.12
   7   1  -6    0.29    0.17
   7   1  -6    0.14    0.14
   7   1  -6    0.47    0.20
   6   1  -6    1.43    0.37
   6   1  -6    1.22    0.34
   6   1  -6    1.54    0.24
   5   1  -6   -0.39    0.41
   5   1  -6    0.66    0.31
   5   1  -6    0.83    0.25
   4   1  -6   35.04    4.34
   4   1  -6   43.49    4.21
   4   1  -6   35.27    3.76
   4   1  -6   42.78    4.46
   3   1  -6   18.01    2.05
   3   1  -6   18.03    2.16
   2   1  -6    3.32    0.61
   2   1  -6    5.44    1.03
   2   1  -6    2.28    0.47
   2   1  -6    3.23    0.64
   2   1  -6    2.50    0.48
  -2  -1   6    3.00    0.51
  -2  -1   6    4.17    0.54
  -2  -1   6    2.97    0.61
  -2  -1   6    4.87    0.75
   1   1  -6    0.74    0.50
   1   1  -6    0.31    0.26
   1   1  -6    0.36    0.22
   1   1  -6    0.17    0.26
   1   1  -6    0.32    0.22
  -1  -1   6    0.74    0.33
  -1  -1   6    0.54    0.25
  -1  -1   6    0.86    0.22
  -1  -1   6    0.59    0.26
  -1  -1   6    0.66    0.24
   0   1  -6    0.01    0.28
   0   1  -6    0.35    0.24
   0   1  -6    0.28    0.24
   0   1  -6    0.17    0.27
   0  -1   6   -0.12    0.23
   0  -1   6    0.16    0.29
   0  -1   6    0.41    0.29
   0  -1   6    0.22    0.19
   0  -1   6    0.47    0.20
  -1   1  -6   15.36    1.49
  -1   1  -6   13.13    1.47
   1  -1   6   15.84    1.66
   1  -1   6   13.57    1.45
   1  -1   6   15.24    1.69
   1  -1   6   15.58    1.47
   1  -1   6   16.88    1.76
   2  -1   6   23.91    2.76
   2  -1   6   25.98    2.73
   2  -1   6   23.47    2.82
   2  -1   6   26.90    2.68
   3  -1   6    1.06    0.38
   3  -1   6    1.03    0.36
   3  -1   6    1.20    0.36
   3  -1   6    1.09    0.36
   4  -1   6   16.80    1.91
   4  -1   6   17.82    1.91
   4  -1   6   15.72    1.42
   4  -1   6   13.51    1.92
   4  -1   6   15.55    1.56
   4  -1   6   15.14    1.43
   4  -1   6   17.41    1.49
   4  -1   6   16.97    1.87
   5  -1   6    5.37    0.56
   5  -1   6    3.39    0.78
   5  -1   6    4.65    0.49
   5  -1   6    4.46    0.56
   5  -1   6    4.09    0.49
   6  -1   6    0.13    0.19
   6  -1   6    0.28    0.13
   6  -1   6    0.17    0.24
   7  -1   6    2.44    0.33
   7  -1   6    2.23    0.30
   7   0  -6    0.86    0.18
   7   0  -6    1.57    0.22
   6   0  -6    1.24    0.28
   6   0  -6    0.96    0.31
   6   0  -6    1.38    0.33
   5   0  -6    1.14    0.31
   5   0  -6    0.69    0.30
   5   0  -6    0.48    0.17
   5   0  -6    0.29    0.32
   4   0  -6    0.51    0.41
   4   0  -6    0.71    0.21
   4   0  -6    0.36    0.33
   4   0  -6   -0.05    0.30
   4   0  -6    0.68    0.29
   4   0  -6    0.20    0.46
   3   0  -6    1.38    0.44
   3   0  -6    1.50    0.52
   3   0  -6    2.18    1.09
   3   0  -6    1.10    0.25
   2   0  -6   48.41    4.84
   2   0  -6   38.12    4.25
   2   0  -6   49.67    5.14
   2   0  -6   49.86    6.36
   1   0  -6  140.77   14.59
   1   0  -6  117.78   12.10
   1   0  -6  139.19   13.73
   1   0  -6  129.13   12.10
   1   0  -6  123.92   17.65
  -1   0   6  140.24   12.12
  -1   0   6  128.08   13.74
  -1   0   6  150.28   14.61
  -1   0   6  147.27   12.13
  -1   0   6  129.88   14.37
   0   0  -6   31.33    2.91
   0   0  -6   27.12    3.45
   0   0  -6   31.88    3.26
   0   0  -6   29.35    2.89
   0   0   6   32.89    3.38
   0   0   6   30.17    2.88
   0   0   6   34.39    2.90
   0   0   6   33.31    3.48
   0   0   6   30.50    3.28
  -1   0  -6   11.04    1.28
  -1   0  -6   13.43    1.32
  -1   0  -6   12.56    1.44
  -1   0  -6   11.27    1.53
   1   0   6   13.63    1.45
   1   0   6   13.25    1.54
   1   0   6   15.36    1.31
   1   0   6   14.30    1.30
  -2   0  -6   45.52    5.17
  -2   0  -6   51.84    4.59
  -2   0  -6   43.50    4.56
   2   0   6   47.33    4.58
   2   0   6   52.34    5.19
   2   0   6   53.95    4.60
   2   0   6   56.31    5.52
   3   0   6   11.35    1.31
   3   0   6    9.79    1.38
   3   0   6   11.76    1.29
   4   0   6    0.97    0.34
   4   0   6    0.77    0.43
   4   0   6    0.84    0.17
   4   0   6    0.87    0.22
   4   0   6    0.68    0.37
   5   0   6    1.28    0.22
   5   0   6    1.54    0.29
   5   0   6    0.59    0.50
   5   0   6    1.08    0.44
   5   0   6    1.65    0.26
   5   0   6    1.11    0.42
   5   0   6    1.59    0.54
   5   0   6    1.74    0.33
   6   0   6    0.15    0.17
   6   0   6    0.25    0.21
   6   0   6    0.27    0.09
   6   0   6    0.41    0.27
   7   0   6    2.46    0.37
   7   0   6    2.76    0.39
   7   0   6    2.11    0.29
   6  -1  -6    1.97    0.37
   6  -1  -6    2.65    0.36
   5  -1  -6    1.92    0.34
   5  -1  -6    2.20    0.41
   5  -1  -6    2.21    0.40
   4  -1  -6    4.25    0.44
   4  -1  -6    5.23    0.54
   4  -1  -6    4.61    0.56
   4  -1  -6    3.99    0.58
   4  -1  -6    4.86    0.92
   4  -1  -6    5.04    0.94
   4  -1  -6    2.14    0.67
   4  -1  -6    3.21    0.49
   3  -1  -6    6.39    0.94
   3  -1  -6    3.91    0.53
   3  -1  -6    4.31    0.50
   3  -1  -6    4.05    0.54
   3  -1  -6    3.99    0.79
   3  -1  -6    3.05    0.63
   3  -1  -6    3.86    0.46
   3  -1  -6    6.95    1.74
   2  -1  -6    0.22    0.56
   2  -1  -6    0.13    0.24
   2  -1  -6    0.23    0.29
   2  -1  -6    0.24    0.39
   1  -1  -6    1.35    0.30
   1  -1  -6    1.65    0.42
   1  -1  -6    1.10    0.94
   1  -1  -6    1.34    0.29
   1  -1  -6    1.65    0.40
  -1   1   6    1.18    0.29
   0  -1  -6    8.40    0.88
   0  -1  -6    7.80    1.01
   0  -1  -6    9.59    1.95
   0  -1  -6    8.17    0.95
   0  -1  -6    6.90    0.84
   0   1   6    9.46    0.87
   0   1   6    7.83    1.02
   0   1   6    7.62    0.96
   0   1   6    8.89    0.86
  -1  -1  -6    0.54    0.37
  -1  -1  -6    0.67    0.24
  -1  -1  -6    0.33    0.26
  -1  -1  -6    0.56    0.28
   1   1   6    0.53    0.26
   1   1   6    0.38    0.23
   1   1   6    0.49    0.28
   1   1   6    0.64    0.34
  -2  -1  -6    0.04    0.22
  -2  -1  -6    0.22    0.26
  -2  -1  -6    0.09    0.29
  -2  -1  -6    0.26    0.22
   2   1   6   -0.03    0.21
   2   1   6    0.32    0.27
   2   1   6    0.21    0.31
   2   1   6    0.57    0.26
  -3  -1  -6    0.09    0.21
  -3  -1  -6    0.26    0.35
   3   1   6    0.37    0.25
   3   1   6    0.18    0.22
   3   1   6    0.35    0.31
   3   1   6    0.24    0.37
   3   1   6    0.25    0.16
   4   1   6   38.44    4.26
   4   1   6   39.45    4.50
   4   1   6   41.17    4.24
   5   1   6   23.46    2.18
   5   1   6   24.57    2.43
   5   1   6   25.76    3.03
   5   1   6   27.30    2.85
   6   1   6    3.33    0.40
   6   1   6    2.69    0.40
   6   1   6    2.50    0.35
   7   1   6    0.65    0.19
   7   1   6    0.37    0.11
   7   1   6    0.48    0.19
   8   1   6    0.37    0.15
   8   1   6    0.44    0.15
   6  -2  -6    3.00    0.36
   6  -2  -6    2.93    0.31
   5  -2  -6   11.97    1.17
   5  -2  -6   12.50    1.20
   4  -2  -6   22.07    2.14
   4  -2  -6   22.10    1.94
   4  -2  -6   19.34    2.66
   4  -2  -6   24.02    2.09
   4  -2  -6   22.45    2.04
   3  -2  -6    0.71    0.26
   3  -2  -6    1.00    0.44
   3  -2  -6    0.67    0.38
   3  -2  -6    1.00    0.32
   3  -2  -6    1.29    0.32
   3  -2  -6    0.98    0.48
   3  -2  -6    2.01    1.45
   3  -2  -6    0.63    0.33
   3  -2  -6    1.08    0.23
   2  -2  -6    3.63    0.46
   2  -2  -6    4.27    0.59
   2  -2  -6    3.25    0.38
   2  -2  -6    3.79    1.26
   2  -2  -6    4.26    0.74
   2  -2  -6    3.68    0.46
   2  -2  -6    5.80    0.70
   2  -2  -6    5.23    0.84
   2  -2  -6    3.53    0.44
   2  -2  -6    3.49    0.43
   1  -2  -6    6.64    1.65
   1  -2  -6    5.19    0.65
   1  -2  -6    3.99    0.66
   1  -2  -6    6.02    0.73
   0  -2  -6   14.36    1.35
   0  -2  -6   13.16    1.47
   0  -2  -6   15.28    1.59
   0  -2  -6   12.99    2.33
   0  -2  -6   11.51    1.30
  -1  -2  -6   12.45    1.32
  -1  -2  -6   14.36    1.60
  -1  -2  -6   12.38    1.36
  -1  -2  -6   15.37    1.51
  -1  -2  -6   10.92    2.65
  -1  -2  -6   11.22    1.69
   1   2   6   14.88    1.38
   1   2   6   15.15    1.36
  -2  -2  -6    3.99    0.54
  -2  -2  -6    3.39    0.50
  -2  -2  -6    4.33    0.64
  -2  -2  -6    3.84    0.73
  -2  -2  -6    4.85    0.62
   2   2   6    5.32    0.58
   2   2   6    4.34    0.57
  -3  -2  -6    7.03    0.95
  -3  -2  -6    9.43    1.07
  -3  -2  -6    8.67    1.12
  -3  -2  -6    9.58    1.13
   3   2   6    9.12    1.01
   5   2   6    3.47    0.46
   6   2   6    4.85    0.59
   7   2   6    3.56    0.46
   7   2   6    3.86    0.48
   7   2   6    4.23    0.50
   8   2   6    1.80    0.26
   8   2   6    1.22    0.26
   5  -3  -6    1.35    0.18
   5  -3  -6    0.44    0.26
   5  -3  -6    1.46    0.26
   4  -3  -6    1.38    0.35
   4  -3  -6    0.89    0.38
   4  -3  -6    2.20    0.52
   4  -3  -6    1.78    0.30
   3  -3  -6   37.40    5.01
   3  -3  -6   27.44    3.26
   3  -3  -6   30.06    2.64
   3  -3  -6   29.44    2.47
   3  -3  -6   28.96    2.60
   3  -3  -6   25.45    3.30
   3  -3  -6   28.60    2.77
   2  -3  -6    1.05    0.79
   2  -3  -6    0.15    0.18
   2  -3  -6    0.02    0.90
   2  -3  -6   -0.16    0.22
   2  -3  -6    0.31    0.30
   2  -3  -6    0.34    0.27
   2  -3  -6   -0.04    0.41
   2  -3  -6    0.23    0.14
   2  -3  -6    0.01    0.20
   2  -3  -6    0.09    0.21
   1  -3  -6   15.18    1.87
   1  -3  -6   19.84    1.89
   1  -3  -6   14.14    1.52
   1  -3  -6   17.38    2.05
   1  -3  -6   15.72    1.59
   1  -3  -6   16.96    1.78
   1  -3  -6   16.93    1.45
   0  -3  -6    7.15    1.94
   0  -3  -6    6.24    0.74
  -1  -3  -6    0.92    1.31
  -1  -3  -6    1.23    0.31
  -1  -3  -6    1.26    0.35
  -1  -3  -6    2.17    0.66
  -2  -3  -6   13.78    1.91
  -2  -3  -6   17.83    1.84
  -2  -3  -6   15.56    1.71
  -2  -3  -6   13.48    2.83
  -3  -3  -6    4.29    0.80
  -3  -3  -6    4.02    0.60
  -3  -3  -6    3.96    0.64
  -4  -3  -6    0.26    0.30
  -4  -3  -6   -0.01    0.32
  -5  -3  -6    0.08    0.26
   6   3   6   49.80    4.83
   7   3   6    9.04    0.95
   8   3   6    0.17    0.15
   8   3   6    0.22    0.14
   8   3   6    0.21    0.21
   5  -4  -6    0.12    0.13
   4  -4  -6    1.57    0.32
   4  -4  -6    1.13    0.29
   3  -4  -6    0.54    0.58
   3  -4  -6    0.31    0.19
   3  -4  -6    0.35    0.15
   3  -4  -6    0.63    0.36
   2  -4  -6    0.99    0.44
   2  -4  -6    0.96    0.25
   2  -4  -6    0.42    0.32
   2  -4  -6    0.25    0.62
   2  -4  -6    1.05    0.22
   2  -4  -6    1.54    1.64
   1  -4  -6    0.75    0.23
   1  -4  -6    1.62    0.44
   1  -4  -6    0.96    0.21
   1  -4  -6    1.39    1.07
   1  -4  -6    0.58    0.53
   1  -4  -6    0.39    0.36
   1  -4  -6    0.52    0.24
   0  -4  -6   18.36    2.04
   0  -4  -6   17.93    1.94
   0  -4  -6   15.22    1.44
   0  -4  -6   17.39    1.61
   0  -4  -6   16.61    1.79
   0  -4  -6   16.51    1.56
  -1  -4  -6   28.01    4.05
  -1  -4  -6   38.08    3.90
  -1  -4  -6   35.26    3.65
  -1  -4  -6   41.45    5.48
  -2  -4  -6    6.91    1.20
  -2  -4  -6    8.26    1.07
  -2  -4  -6    8.96    0.98
  -2  -4  -6    9.01    2.36
  -3  -4  -6    0.50    1.27
  -3  -4  -6    0.66    0.38
  -3  -4  -6    0.08    0.40
  -3  -4  -6    0.34    0.26
  -4  -4  -6    1.34    0.47
  -4  -4  -6    1.24    0.24
  -4  -4  -6    0.86    0.29
  -4  -4  -6    1.21    0.39
  -4  -4  -6    0.59    0.48
  -4  -4  -6    0.79    0.30
  -5  -4  -6    0.42    0.22
  -5  -4  -6    0.29    0.38
  -5  -4  -6    0.25    0.26
  -5  -4  -6    0.54    0.48
  -6  -4  -6   -0.18    0.19
  -7  -4  -6    2.83    0.49
   7   4   6    3.44    0.44
  -8  -4  -6    1.08    0.27
   4  -5  -6    0.59    0.18
   4  -5  -6    0.51    0.15
   3  -5  -6    0.86    0.45
   3  -5  -6    0.29    0.31
   3  -5  -6    0.14    0.15
   2  -5  -6    0.29    0.22
   2  -5  -6    0.66    1.00
   2  -5  -6    0.03    0.43
   2  -5  -6    0.78    0.35
   1  -5  -6    0.15    0.12
   1  -5  -6   -0.07    0.26
   1  -5  -6    0.97    1.16
   1  -5  -6   -0.20    0.54
   1  -5  -6   -0.37    0.51
   0  -5  -6    3.36    0.47
   0  -5  -6    5.29    1.02
   0  -5  -6    3.46    0.76
   0  -5  -6    4.77    0.72
   0  -5  -6    3.13    1.56
   0  -5  -6    3.02    0.41
  -1  -5  -6   13.13    1.63
  -1  -5  -6    9.68    1.03
  -1  -5  -6   11.09    1.55
  -1  -5  -6    9.55    1.05
  -1  -5  -6   10.43    1.33
  -1  -5  -6   12.49    1.21
  -1  -5  -6   10.31    1.17
  -2  -5  -6    8.82    1.02
  -2  -5  -6   11.07    1.47
  -2  -5  -6    8.12    0.86
  -2  -5  -6    9.79    1.37
  -2  -5  -6   15.79    2.95
  -2  -5  -6    6.71    0.80
  -2  -5  -6    7.80    1.11
  -2  -5  -6    9.88    1.07
  -3  -5  -6    3.82    0.57
  -3  -5  -6    4.15    0.90
  -3  -5  -6    4.82    0.95
  -3  -5  -6    3.41    1.52
  -3  -5  -6    2.76    0.45
  -3  -5  -6    3.40    0.65
  -3  -5  -6    4.29    0.61
  -3  -5  -6    5.41    0.72
  -3  -5  -6    3.33    0.47
  -3  -5  -6    3.67    0.51
  -4  -5  -6    8.02    2.33
  -4  -5  -6    9.01    1.23
  -4  -5  -6    6.38    0.80
  -4  -5  -6    7.79    0.86
  -4  -5  -6    8.34    1.20
  -4  -5  -6    7.61    0.83
  -4  -5  -6    8.91    1.09
  -5  -5  -6    2.36    0.61
  -5  -5  -6    2.17    1.27
  -5  -5  -6    2.80    0.48
  -5  -5  -6    3.10    0.43
  -5  -5  -6    4.12    0.76
  -5  -5  -6    2.70    0.41
  -5  -5  -6    3.35    0.72
  -6  -5  -6    0.81    0.28
  -6  -5  -6    0.83    0.34
  -7  -5  -6    0.00    0.31
  -7  -5  -6   -0.17    0.64
  -7  -5  -6    0.12    0.17
  -8  -5  -6    0.25    0.33
  -8  -5  -6    0.35    0.15
   8   5   6    0.60    0.15
   3  -6  -6    0.76    0.22
   2  -6  -6    0.34    0.22
   2  -6  -6    0.87    0.46
   1  -6  -6    2.86    0.68
   1  -6  -6    3.28    0.47
   1  -6  -6    2.78    0.91
   0  -6  -6    3.52    0.78
   0  -6  -6    1.77    1.58
   0  -6  -6    5.67    1.16
   0  -6  -6    4.33    0.53
   0  -6  -6    5.08    0.84
  -1  -6  -6    2.75    0.38
  -1  -6  -6    2.84    0.42
  -1  -6  -6    3.38    0.75
  -1  -6  -6    3.57    0.86
  -1  -6  -6    3.71    0.58
  -1  -6  -6    1.14    1.27
  -2  -6  -6    0.95    0.44
  -2  -6  -6    0.86    0.27
  -2  -6  -6    1.03    0.43
  -2  -6  -6    1.68    0.65
  -2  -6  -6    0.75    0.54
  -2  -6  -6    0.27    1.20
  -2  -6  -6    1.88    0.40
  -3  -6  -6    1.04    0.29
  -3  -6  -6    0.45    0.61
  -3  -6  -6    0.77    1.50
  -3  -6  -6    1.25    0.88
  -3  -6  -6    1.00    0.41
  -3  -6  -6    0.73    0.25
  -3  -6  -6    0.52    0.50
  -3  -6  -6    0.66    0.27
  -3  -6  -6    1.13    0.30
  -3  -6  -6    0.86    0.24
  -4  -6  -6    1.67    0.36
  -4  -6  -6    1.17    0.44
  -4  -6  -6    1.71    0.34
  -4  -6  -6    2.22    0.45
  -4  -6  -6    1.90    0.69
  -4  -6  -6    1.28    0.73
  -4  -6  -6    2.76    0.62
  -5  -6  -6    5.51    0.94
  -5  -6  -6    9.31    1.16
  -5  -6  -6    6.41    0.78
  -5  -6  -6    7.34    0.73
  -5  -6  -6    3.34    1.12
  -6  -6  -6    0.09    0.49
  -6  -6  -6   -0.06    0.20
  -6  -6  -6    0.14    0.22
  -6  -6  -6    0.01    0.12
  -7  -6  -6    0.62    0.15
  -7  -6  -6    0.92    0.31
  -7  -6  -6    0.39    0.43
  -8  -6  -6    1.55    0.40
  -8  -6  -6    1.85    0.27
   2  -7  -6    0.21    0.14
   2  -7  -6    0.21    0.32
   1  -7  -6    0.23    0.18
   1  -7  -6    0.30    0.90
   1  -7  -6    0.06    0.50
   0  -7  -6    1.95    0.56
   0  -7  -6    3.70    0.87
   0  -7  -6    2.21    0.39
  -1  -7  -6    0.40    0.55
  -1  -7  -6   -0.02    0.33
  -1  -7  -6   -0.35    0.56
  -2  -7  -6    2.54    0.30
  -2  -7  -6    4.11    0.60
  -2  -7  -6    4.21    0.68
  -2  -7  -6    4.90    1.08
  -3  -7  -6    4.70    1.09
  -3  -7  -6    4.14    0.68
  -3  -7  -6    4.46    0.67
  -3  -7  -6    3.04    0.46
  -4  -7  -6    0.90    0.63
  -4  -7  -6   -0.06    0.39
  -4  -7  -6    0.13    0.26
  -4  -7  -6    0.31    0.26
  -5  -7  -6    0.42    0.30
  -5  -7  -6   -0.08    0.22
  -5  -7  -6    0.23    0.54
  -6  -7  -6    0.21    0.21
  -6  -7  -6    0.16    0.47
  -6  -7  -6    0.30    0.22
  -7  -7  -6    0.11    0.20
  -7  -7  -6    0.22    0.39
  -7  -7  -6    0.23    0.20
  -8  -7  -6    0.17    0.10
   0  -8  -6    0.57    0.31
   0  -8  -6    0.69    0.54
  -1  -8  -6    0.82    0.58
  -1  -8  -6    0.73    0.39
  -1  -8  -6    0.87    0.45
  -2  -8  -6    1.49    0.43
  -2  -8  -6    1.47    0.65
  -2  -8  -6    1.03    0.39
  -3  -8  -6    2.61    0.47
  -3  -8  -6    2.14    0.88
  -3  -8  -6    1.78    0.51
  -4  -8  -6    0.40    0.25
  -4  -8  -6    0.60    0.73
  -4  -8  -6    0.16    0.20
  -5  -8  -6    1.10    0.68
  -5  -8  -6    0.28    0.21
  -6  -8  -6    0.25    0.60
  -6  -8  -6    0.12    0.20
  -7  -8  -6    0.21    0.14
  -7  -8  -6    0.02    0.32
  -2  -9  -6    1.42    0.49
  -2  -9  -6    0.63    0.23
  -3  -9  -6    1.68    0.41
  -3  -9  -6    1.89    0.52
  -4  -9  -6    1.11    0.27
  -4  -9  -6    1.59    0.48
  -5  -9  -6    0.09    0.35
  -6  -9  -6   -0.09    0.23
  -4  -9   7    0.25    0.19
  -3  -9   7    0.78    0.19
  -3  -9   7    1.00    0.25
  -2  -9   7    1.30    0.24
  -1  -9   7    0.00    0.10
  -1  -9   7    0.02    0.14
  -6  -8   7    0.82    0.19
  -6  -8   7    0.79    0.13
  -5  -8   7    0.21    0.24
  -5  -8   7    0.28    0.13
  -4  -8   7    0.10    0.14
  -4  -8   7    0.24    0.11
  -4  -8   7    0.28    0.28
  -3  -8   7    0.93    0.19
  -3  -8   7    1.27    0.15
  -3  -8   7    1.75    0.41
  -3  -8   7    0.93    0.29
  -2  -8   7    2.66    0.38
  -2  -8   7    1.34    0.25
  -2  -8   7    1.70    0.40
  -1  -8   7    2.68    0.47
  -1  -8   7    3.59    0.44
   0  -8   7    2.12    0.29
   1  -8   7    0.14    0.11
   1  -8   7    0.32    0.10
  -6  -7   7    0.72    0.23
  -6  -7   7    0.72    0.14
  -6  -7   7    0.74    0.17
  -5  -7   7    0.54    0.36
  -5  -7   7    0.18    0.14
  -5  -7   7    0.47    0.17
  -4  -7   7    2.68    0.36
  -4  -7   7    2.52    0.28
  -4  -7   7    2.41    0.49
  -4  -7   7    2.31    0.40
  -3  -7   7    3.94    0.54
  -3  -7   7    5.82    0.53
  -3  -7   7    5.04    0.67
  -3  -7   7    5.53    0.74
  -2  -7   7    2.42    0.35
  -2  -7   7    1.56    0.43
  -2  -7   7    2.32    0.64
  -2  -7   7    2.98    0.32
  -1  -7   7    0.50    0.16
  -1  -7   7    0.42    0.46
  -1  -7   7    0.69    0.35
  -1  -7   7    0.64    0.20
   0  -7   7    1.21    0.44
   0  -7   7    1.95    0.27
   0  -7   7    2.28    0.33
   1  -7   7    7.34    0.77
   1  -7   7    8.06    0.67
   1  -7   7    5.24    0.81
   2  -7   7    2.16    0.26
   2  -7   7    1.89    0.30
  -7  -6   7    0.80    0.20
  -6  -6   7   -0.05    0.19
  -6  -6   7    0.01    0.20
  -5  -6   7   -0.19    0.21
  -5  -6   7   -0.24    0.20
  -5  -6   7    0.01    0.34
  -4  -6   7    1.18    0.37
  -4  -6   7    1.39    0.26
  -4  -6   7    1.00    0.27
  -3  -6   7    0.93    0.77
  -3  -6   7    1.74    0.30
  -3  -6   7    2.37    0.48
  -3  -6   7    2.47    0.33
  -3  -6   7    2.83    0.36
  -3  -6   7    2.21    0.41
  -2  -6   7    6.70    0.58
  -2  -6   7    6.63    1.34
  -2  -6   7    7.60    0.66
  -2  -6   7    5.21    0.69
  -2  -6   7    6.72    0.82
  -2  -6   7    5.54    0.90
  -2  -6   7    6.59    0.86
  -1  -6   7    5.00    0.46
  -1  -6   7    4.48    0.70
  -1  -6   7    4.91    0.62
  -1  -6   7    4.68    0.50
  -1  -6   7    3.54    0.52
   0  -6   7    4.22    0.56
   0  -6   7    2.91    0.45
   0  -6   7    1.68    0.58
   0  -6   7    3.25    0.31
   0  -6   7    3.52    0.42
   1  -6   7    4.50    0.48
   1  -6   7    2.73    0.57
   1  -6   7    3.53    0.52
   1  -6   7    3.74    0.41
   2  -6   7   -0.27    0.18
   2  -6   7    0.40    0.18
   2  -6   7    0.37    0.26
   3  -6   7    0.45    0.18
   3  -6   7    0.86    0.22
   3  -6   7    0.76    0.17
   4  -6   7   -0.04    0.10
   7   5  -7   16.86    1.46
  -7  -5   7   13.37    1.42
  -7  -5   7   13.35    1.32
  -6  -5   7    0.33    0.30
  -6  -5   7    0.27    0.19
  -6  -5   7    0.24    0.19
  -5  -5   7    6.55    0.72
  -5  -5   7    6.27    0.71
  -4  -5   7    4.82    0.54
  -4  -5   7    3.18    0.96
  -4  -5   7    4.69    0.50
  -4  -5   7    4.62    0.54
  -4  -5   7    3.85    0.88
  -3  -5   7    0.28    0.16
  -3  -5   7    0.63    0.32
  -3  -5   7    0.88    0.20
  -3  -5   7    0.62    0.16
  -3  -5   7    0.17    0.52
  -3  -5   7    0.17    0.28
  -3  -5   7    0.23    0.39
  -3  -5   7    0.50    0.30
  -3  -5   7    0.64    0.21
  -2  -5   7    0.39    0.21
  -2  -5   7    0.34    0.16
  -2  -5   7    0.40    0.42
  -2  -5   7    0.28    0.23
  -2  -5   7    0.20    0.25
  -2  -5   7    0.54    0.21
  -2  -5   7    0.55    0.19
  -2  -5   7    0.21    0.30
  -2  -5   7    0.96    0.55
  -1  -5   7    0.08    0.29
  -1  -5   7    0.14    0.15
  -1  -5   7    0.13    0.12
  -1  -5   7    0.05    0.20
  -1  -5   7   -0.05    0.41
  -1  -5   7    0.05    0.12
  -1  -5   7    0.21    0.20
  -1  -5   7   -0.12    0.16
  -1  -5   7    0.43    0.28
  -1  -5   7    0.16    0.54
   0  -5   7    3.80    0.49
   0  -5   7    4.58    0.48
   0  -5   7    4.06    0.63
   0  -5   7    4.19    0.57
   0  -5   7    4.02    0.43
   1  -5   7    2.71    0.48
   1  -5   7    1.91    0.29
   1  -5   7    2.13    0.37
   1  -5   7    2.25    0.29
   1  -5   7    0.76    0.45
   1  -5   7    1.80    0.22
   2  -5   7   41.49    3.74
   2  -5   7   46.07    3.84
   2  -5   7   42.75    4.27
   3  -5   7    0.97    0.21
   3  -5   7    0.44    0.30
   3  -5   7    1.18    0.24
   4  -5   7    0.64    0.18
   4  -5   7    0.65    0.23
   4  -5   7    1.02    0.25
   7   4  -7    0.71    0.21
  -7  -4   7    0.48    0.21
  -6  -4   7    0.52    0.19
  -5  -4   7    0.54    0.25
  -4  -4   7    8.26    0.82
  -4  -4   7    8.26    0.80
  -4  -4   7    9.84    1.29
  -4  -4   7    5.29    1.14
  -4  -4   7    6.20    1.11
  -3  -4   7    6.34    0.63
  -3  -4   7    6.67    0.92
  -3  -4   7    6.55    0.66
  -3  -4   7    4.70    0.78
  -3  -4   7    6.40    0.66
  -3  -4   7    7.91    1.25
  -3  -4   7    5.25    0.70
  -2  -4   7   17.00    1.93
  -2  -4   7   15.50    1.74
  -2  -4   7   15.21    1.97
  -2  -4   7   16.65    1.64
  -2  -4   7   17.37    1.54
  -2  -4   7   17.79    1.94
  -2  -4   7   19.02    2.14
  -2  -4   7   17.03    1.48
  -1  -4   7    1.10    0.23
  -1  -4   7    0.94    0.17
  -1  -4   7    1.02    0.34
  -1  -4   7    0.58    0.34
  -1  -4   7    1.10    0.47
  -1  -4   7    0.60    0.32
   0  -4   7    1.88    0.22
   0  -4   7    2.40    0.33
   0  -4   7    2.19    0.27
   0  -4   7    2.36    0.36
   0  -4   7    1.77    0.24
   0  -4   7    1.80    0.46
   0  -4   7    1.21    0.33
   0  -4   7    1.79    0.27
   0  -4   7    1.60    0.37
   1  -4   7    4.39    0.40
   1  -4   7    4.53    0.44
   1  -4   7    3.67    0.69
   1  -4   7    4.40    0.47
   1  -4   7    2.97    0.43
   1  -4   7    4.13    0.53
   1  -4   7    4.47    0.51
   1  -4   7    3.40    0.47
   1  -4   7    4.06    0.35
   2  -4   7    0.29    0.23
   2  -4   7    0.11    0.29
   2  -4   7    0.10    0.25
   2  -4   7    0.56    0.21
   2  -4   7    0.00    0.23
   2  -4   7    0.45    0.12
   3  -4   7    1.46    0.56
   3  -4   7    2.74    0.38
   3  -4   7    3.77    0.47
   3  -4   7    2.79    0.31
   3  -4   7    2.70    0.38
   4  -4   7    8.43    0.89
   4  -4   7    9.21    0.85
   4  -4   7    8.81    0.81
   4  -4   7    9.47    1.01
   5  -4   7   19.17    1.67
   5  -4   7   17.87    1.63
   7   3  -7    0.71    0.18
   7   3  -7    0.22    0.13
  -7  -3   7    0.45    0.23
   6   3  -7    4.16    0.53
  -6  -3   7    4.07    0.58
   5   3  -7    0.54    0.41
  -5  -3   7    0.80    0.60
  -5  -3   7    1.10    0.29
  -4  -3   7    1.21    0.28
  -3  -3   7    1.50    0.48
  -3  -3   7    0.50    0.38
  -3  -3   7    1.52    0.25
  -2  -3   7    4.14    0.80
  -2  -3   7    6.25    0.81
  -2  -3   7    5.18    0.69
  -1  -3   7   15.79    1.80
  -1  -3   7   14.68    1.84
  -1  -3   7   17.11    1.80
   0  -3   7    0.95    0.41
   0  -3   7    1.53    0.37
   0  -3   7    1.18    0.32
   0  -3   7    1.36    0.35
   1  -3   7   11.77    1.55
   1  -3   7   13.98    1.51
   1  -3   7   15.02    1.59
   2  -3   7   10.21    0.93
   2  -3   7    8.83    0.83
   2  -3   7    9.09    1.13
   2  -3   7    9.09    0.83
   2  -3   7    9.46    0.93
   2  -3   7    7.93    0.83
   2  -3   7    8.52    1.13
   2  -3   7    8.57    1.07
   2  -3   7    8.40    0.78
   3  -3   7    0.87    0.24
   3  -3   7    0.60    0.11
   3  -3   7    0.68    0.37
   3  -3   7    0.42    0.33
   3  -3   7    0.48    0.22
   3  -3   7    0.63    0.24
   3  -3   7    0.13    0.20
   3  -3   7    0.74    0.17
   3  -3   7    0.20    0.20
   4  -3   7    0.01    0.27
   4  -3   7    0.18    0.19
   4  -3   7    0.14    0.38
   4  -3   7    0.33    0.24
   4  -3   7    0.16    0.17
   5  -3   7    1.70    0.37
   5  -3   7    1.73    0.25
   5  -3   7    1.92    0.34
   5  -3   7    2.00    0.29
   6  -3   7    0.52    0.16
   7   2  -7    0.89    0.19
   7   2  -7    1.09    0.21
   6   2  -7    0.74    0.22
   6   2  -7    0.09    0.17
   6   2  -7    0.45    0.29
   5   2  -7    0.08    0.24
   5   2  -7    0.29    0.50
   4   2  -7    6.16    0.75
  -2  -2   7    5.16    0.75
  -2  -2   7    3.87    0.75
  -2  -2   7    4.58    0.59
  -2  -2   7    4.96    0.63
   1   2  -7    7.01    0.88
  -1  -2   7    8.01    1.00
  -1  -2   7    8.44    0.95
  -1  -2   7    6.18    0.84
  -1  -2   7    9.39    1.05
   0  -2   7    0.65    0.32
   0  -2   7    0.52    0.23
   0  -2   7    0.31    0.26
   0  -2   7    0.14    0.17
   1  -2   7   54.37    6.06
   1  -2   7   59.13    5.80
   1  -2   7   54.37    6.13
   2  -2   7   17.03    2.07
   2  -2   7   19.27    2.06
   2  -2   7   18.56    2.10
   2  -2   7   17.94    2.00
   3  -2   7    4.67    0.42
   3  -2   7    2.51    0.63
   3  -2   7    4.32    0.54
   3  -2   7    4.45    0.67
   3  -2   7    4.94    0.70
   3  -2   7    3.81    0.71
   3  -2   7    3.65    0.46
   3  -2   7    5.27    0.48
   3  -2   7    3.97    0.46
   4  -2   7   17.88    1.74
   4  -2   7   18.67    2.25
   4  -2   7   18.67    1.70
   4  -2   7   21.88    1.77
   4  -2   7   14.62    2.13
   4  -2   7   22.56    1.96
   4  -2   7   20.41    1.67
   4  -2   7   16.84    2.26
   5  -2   7    3.63    0.46
   5  -2   7    3.43    0.36
   5  -2   7    3.77    0.53
   5  -2   7    3.24    0.43
   5  -2   7    3.46    0.44
   6  -2   7    1.25    0.24
   6  -2   7    1.56    0.26
   7  -2   7    0.61    0.14
   7   1  -7    0.98    0.17
   7   1  -7    0.55    0.15
   6   1  -7    3.35    0.36
   6   1  -7    2.41    0.43
   6   1  -7    2.41    0.43
   5   1  -7    0.88    0.27
   5   1  -7    0.34    0.31
   4   1  -7    0.80    0.47
   4   1  -7    1.49    0.63
   4   1  -7    1.06    0.47
   4   1  -7    1.91    0.30
   3   1  -7    0.36    0.41
   3   1  -7    0.43    0.41
   2   1  -7    6.33    0.86
   2   1  -7    6.04    0.78
  -2  -1   7    4.73    0.70
  -2  -1   7    5.90    0.86
   1   1  -7   10.96    1.41
   1   1  -7   10.56    1.21
   1   1  -7   11.46    1.75
   1   1  -7   11.18    1.19
   1   1  -7   11.96    1.36
  -1  -1   7   13.15    1.45
  -1  -1   7   12.03    1.20
  -1  -1   7   11.51    1.21
  -1  -1   7   12.27    1.32
  -1  -1   7   11.53    1.37
   0   1  -7    3.24    0.52
   0   1  -7    3.48    0.96
   0   1  -7    3.68    0.56
   0   1  -7    3.59    0.65
   0   1  -7    3.56    0.56
   0  -1   7    5.01    0.69
   0  -1   7    4.23    0.63
   0  -1   7    3.47    0.49
   0  -1   7    3.78    0.49
   0  -1   7    3.45    0.51
  -1   1  -7   31.67    3.08
  -1   1  -7   29.12    3.06
   1  -1   7   29.38    3.05
   1  -1   7   32.89    3.60
   1  -1   7   35.32    3.47
   1  -1   7   38.69    3.70
   1  -1   7   33.58    3.07
   2  -1   7   25.39    2.82
   2  -1   7   27.11    2.79
   2  -1   7   27.31    2.74
   2  -1   7   22.04    2.87
   3  -1   7    5.40    0.77
   3  -1   7    5.39    0.74
   3  -1   7    5.48    0.75
   3  -1   7    5.02    0.79
   4  -1   7    0.05    0.19
   4  -1   7    0.17    0.31
   4  -1   7    0.07    0.13
   4  -1   7    0.06    0.11
   4  -1   7   -0.03    0.30
   4  -1   7    0.10    0.15
   4  -1   7    0.11    0.32
   4  -1   7    0.17    0.32
   5  -1   7    1.95    0.35
   5  -1   7    2.06    0.33
   5  -1   7    2.00    0.39
   5  -1   7    1.44    0.47
   5  -1   7    1.77    0.28
   6  -1   7    1.68    0.25
   6  -1   7    2.51    0.33
   6  -1   7    2.14    0.32
   7  -1   7    0.73    0.16
   7  -1   7    0.71    0.22
   6   0  -7    0.53    0.21
   6   0  -7    0.35    0.28
   6   0  -7    0.52    0.22
   5   0  -7    0.06    0.15
   5   0  -7    0.08    0.20
   5   0  -7    0.35    0.30
   5   0  -7    0.45    0.25
   4   0  -7    7.48    1.17
   4   0  -7    7.21    1.18
   4   0  -7    6.04    0.79
   4   0  -7    8.19    0.81
   4   0  -7    7.50    1.07
   4   0  -7    7.55    0.81
   3   0  -7   18.40    1.78
   3   0  -7   21.49    1.99
   2   0  -7    3.69    1.04
   2   0  -7    2.58    0.54
   2   0  -7    2.97    0.63
   1   0  -7   11.93    1.98
   1   0  -7   14.00    1.42
   1   0  -7   12.17    1.48
   1   0  -7   11.98    1.26
   1   0  -7   11.29    1.23
  -1   0   7   12.04    1.25
  -1   0   7   12.51    1.43
  -1   0   7   12.45    1.50
  -1   0   7   11.64    1.25
   0   0  -7    4.88    0.67
   0   0  -7    4.11    0.60
   0   0  -7    5.45    1.37
   0   0  -7    4.11    0.70
   0   0  -7    5.21    0.64
   0   0   7    5.40    0.69
   0   0   7    4.93    0.60
   0   0   7    4.74    0.59
   0   0   7    5.30    0.61
   0   0   7    5.09    0.72
  -1   0  -7   11.20    1.30
  -1   0  -7   10.89    1.18
  -1   0  -7   12.50    1.21
  -1   0  -7   10.47    1.39
   1   0   7   12.51    1.42
   1   0   7   11.13    1.17
   1   0   7   11.45    1.16
   1   0   7   11.96    1.31
  -2   0  -7   15.92    1.85
   2   0   7   20.43    2.25
   2   0   7   22.71    2.13
   2   0   7   19.82    2.12
   2   0   7   19.14    1.88
   2   0   7   16.96    1.86
   3   0   7    6.64    0.91
   3   0   7    6.41    0.97
   3   0   7    7.68    0.88
   4   0   7    4.44    0.78
   4   0   7    4.76    0.86
   4   0   7    3.51    0.45
   4   0   7    4.01    0.46
   4   0   7    3.78    0.44
   4   0   7    4.25    0.62
   4   0   7    4.64    0.47
   5   0   7    7.85    1.04
   5   0   7    4.64    1.13
   5   0   7    7.13    0.80
   5   0   7    7.93    0.76
   5   0   7    6.53    1.02
   5   0   7    8.37    0.79
   5   0   7    8.60    0.77
   6   0   7    2.14    0.38
   6   0   7    2.30    0.32
   6   0   7    0.84    0.33
   6   0   7    1.71    0.23
   6   0   7    1.99    0.33
   7   0   7    0.10    0.14
   7   0   7    0.00    0.22
   7   0   7    0.13    0.17
   6  -1  -7    0.70    0.20
   6  -1  -7    1.02    0.22
   5  -1  -7    0.55    0.23
   5  -1  -7    0.00    0.27
   5  -1  -7    0.23    0.31
   4  -1  -7    2.65    0.46
   4  -1  -7    3.15    0.41
   4  -1  -7    2.78    0.40
   4  -1  -7    1.94    0.39
   4  -1  -7    2.17    0.66
   4  -1  -7    2.17    0.27
   3  -1  -7    0.51    0.34
   3  -1  -7    0.55    0.97
   3  -1  -7    0.83    0.21
   3  -1  -7    0.71    0.18
   3  -1  -7    0.28    0.37
   3  -1  -7    0.62    0.24
   3  -1  -7    0.88    0.28
   3  -1  -7    0.63    0.51
   2  -1  -7    0.48    0.31
   2  -1  -7    1.29    0.96
   2  -1  -7    0.48    0.38
   1  -1  -7   80.87    8.53
   1  -1  -7   77.93    8.02
   1  -1  -7   74.25   10.51
   0  -1  -7  215.43   20.14
   0  -1  -7  176.20   17.76
   0  -1  -7  176.66   25.99
   0  -1  -7  206.57   17.79
   0  -1  -7  201.74   21.40
   0   1   7  208.16   17.77
   0   1   7  199.58   17.78
  -1  -1  -7   40.13    4.53
  -1  -1  -7   42.34    4.27
  -1  -1  -7   39.73    3.81
  -1  -1  -7   34.58    3.77
   1   1   7   41.38    4.28
   1   1   7   42.42    3.81
   1   1   7   44.25    4.57
   1   1   7   44.02    3.80
  -2  -1  -7   -0.04    0.18
  -2  -1  -7    0.25    0.24
  -2  -1  -7    0.29    0.30
  -2  -1  -7    0.48    0.27
   2   1   7    0.14    0.27
   2   1   7    0.39    0.26
   2   1   7   -0.01    0.23
   2   1   7    0.16    0.29
  -3  -1  -7    0.68    0.30
   3   1   7    1.63    0.29
   3   1   7    1.89    0.47
   3   1   7    1.49    0.50
   3   1   7    1.50    0.38
   4   1   7    7.32    1.02
   4   1   7    6.99    1.08
   5   1   7    0.00    0.46
   5   1   7    0.39    0.23
   5   1   7    0.39    0.17
   5   1   7    0.07    0.45
   6   1   7    1.11    0.24
   6   1   7    1.53    0.31
   6   1   7    1.31    0.24
   7   1   7    5.50    0.63
   7   1   7    5.80    0.59
   7   1   7    6.02    0.60
   8   1   7    1.34    0.20
   8   1   7    1.04    0.16
   8   1   7    0.98    0.23
   6  -2  -7    1.47    0.18
   5  -2  -7   16.06    1.53
   5  -2  -7   16.43    1.54
   4  -2  -7    2.10    0.31
   4  -2  -7    2.92    0.46
   4  -2  -7    2.91    0.45
   4  -2  -7    2.20    0.43
   3  -2  -7   14.08    2.19
   3  -2  -7    8.05    0.80
   3  -2  -7    8.93    0.92
   3  -2  -7    8.13    0.89
   3  -2  -7    9.29    1.19
   3  -2  -7    9.26    1.15
   3  -2  -7    7.03    1.10
   3  -2  -7    8.98    0.86
   3  -2  -7    5.67    0.99
   2  -2  -7    9.35    1.10
   2  -2  -7   12.99    1.44
   2  -2  -7   12.86    1.32
   2  -2  -7   10.59    1.35
   2  -2  -7   10.98    1.09
   2  -2  -7   11.43    1.66
   2  -2  -7   11.32    1.13
   2  -2  -7   10.89    1.04
   1  -2  -7    1.72    0.39
   1  -2  -7    1.92    0.50
   1  -2  -7    2.30    1.21
   1  -2  -7    1.11    0.36
   0  -2  -7    5.11    0.71
   0  -2  -7    6.24    1.85
   0  -2  -7    5.94    0.79
  -1  -2  -7    5.02    0.67
  -1  -2  -7    5.54    0.72
  -1  -2  -7    5.60    1.78
  -1  -2  -7    6.36    0.80
   1   2   7    4.85    0.67
  -2  -2  -7    1.57    0.39
  -2  -2  -7    2.32    0.51
  -2  -2  -7    1.38    0.34
  -2  -2  -7    1.60    0.53
   2   2   7    2.03    0.40
  -3  -2  -7    1.04    0.39
  -3  -2  -7    0.99    0.38
  -3  -2  -7    1.27    0.37
   3   2   7    0.49    0.29
   5   2   7   14.26    1.43
   6   2   7    0.64    0.21
   7   2   7    0.86    0.27
   7   2   7    0.71    0.20
   7   2   7    0.68    0.25
   8   2   7    0.78    0.17
   8   2   7    0.34    0.19
   5  -3  -7    1.08    0.15
   5  -3  -7    0.89    0.21
   4  -3  -7    2.15    0.37
   4  -3  -7    2.01    0.38
   4  -3  -7    1.76    0.32
   4  -3  -7    2.17    0.60
   3  -3  -7   14.38    1.31
   3  -3  -7   13.48    1.32
   3  -3  -7   13.18    1.70
   3  -3  -7   13.90    1.41
   3  -3  -7   13.19    1.18
   2  -3  -7   27.95    3.38
   2  -3  -7   28.90    2.79
   2  -3  -7   32.83    3.24
   2  -3  -7   28.39    3.63
   2  -3  -7   31.82    2.74
   2  -3  -7   29.62    2.90
   2  -3  -7   31.01    2.65
   2  -3  -7   34.01    3.45
   1  -3  -7    3.04    0.56
   1  -3  -7    3.43    0.70
   1  -3  -7    2.33    0.46
   1  -3  -7    2.80    1.43
   1  -3  -7    2.70    0.43
   1  -3  -7    3.24    0.57
   1  -3  -7    3.16    0.46
   1  -3  -7    3.05    0.58
   1  -3  -7    2.79    0.35
   0  -3  -7    8.03    2.19
   0  -3  -7    8.59    0.99
  -1  -3  -7    9.31    2.39
  -1  -3  -7    8.58    1.10
  -1  -3  -7    8.96    1.02
  -2  -3  -7    0.48    0.26
  -2  -3  -7    0.69    0.38
  -2  -3  -7    0.60    0.36
  -2  -3  -7   -0.57    1.19
  -3  -3  -7    2.19    0.52
  -3  -3  -7    2.09    0.47
  -3  -3  -7    1.88    0.55
  -4  -3  -7    1.34    0.32
  -4  -3  -7    1.41    0.49
  -4  -3  -7    1.77    0.48
  -5  -3  -7    3.25    0.47
   6   3   7   26.23    2.60
   7   3   7    7.21    0.78
   8   3   7    7.78    0.77
   8   3   7    9.08    0.80
   4  -4  -7    0.27    0.18
   4  -4  -7    0.49    0.29
   3  -4  -7    0.10    0.15
   3  -4  -7   -0.47    0.52
   3  -4  -7    0.14    0.25
   3  -4  -7    0.16    0.19
   2  -4  -7    2.70    1.84
   2  -4  -7    5.61    0.92
   2  -4  -7    4.29    0.52
   2  -4  -7    5.40    0.66
   2  -4  -7    3.87    0.52
   2  -4  -7    4.38    1.01
   1  -4  -7    2.95    0.58
   1  -4  -7    3.04    0.42
   1  -4  -7    1.68    0.24
   1  -4  -7    1.63    0.79
   1  -4  -7    3.21    1.55
   1  -4  -7    2.48    0.31
   1  -4  -7    2.82    0.40
   0  -4  -7    5.50    0.85
   0  -4  -7    5.71    0.63
   0  -4  -7    7.36    0.87
   0  -4  -7    4.66    0.63
   0  -4  -7    5.29    0.54
   0  -4  -7    8.01    1.09
   0  -4  -7   10.22    2.22
  -1  -4  -7   12.76    1.40
  -1  -4  -7   11.61    1.16
  -1  -4  -7   10.41    1.31
  -1  -4  -7    9.90    1.04
  -1  -4  -7    9.29    0.98
  -2  -4  -7    0.49    1.45
  -2  -4  -7    0.83    0.35
  -2  -4  -7    0.45    0.36
  -2  -4  -7    0.24    0.21
  -2  -4  -7    0.24    0.25
  -2  -4  -7    0.89    0.55
  -3  -4  -7    2.50    0.52
  -3  -4  -7    1.97    0.37
  -3  -4  -7    2.00    0.37
  -3  -4  -7    1.75    0.37
  -3  -4  -7    3.73    0.61
  -3  -4  -7    3.52    1.71
  -3  -4  -7    1.82    0.66
  -3  -4  -7    2.74    0.70
  -4  -4  -7    0.64    0.38
  -4  -4  -7    0.48    0.48
  -4  -4  -7    0.79    0.21
  -4  -4  -7   -0.08    0.26
  -4  -4  -7    0.91    0.38
  -4  -4  -7    0.94    0.46
  -4  -4  -7    0.40    0.28
  -5  -4  -7    2.11    0.42
  -5  -4  -7    2.24    0.39
  -5  -4  -7    1.69    0.58
  -5  -4  -7    2.07    0.64
  -6  -4  -7    4.68    0.67
  -7  -4  -7    0.04    0.27
   7   4   7    0.43    0.16
  -8  -4  -7   13.53    1.48
  -8  -4  -7   16.17    1.77
   4  -5  -7    3.24    0.39
   3  -5  -7    1.30    0.24
   3  -5  -7    1.10    0.43
   3  -5  -7    1.71    0.34
   2  -5  -7   -0.11    0.56
   2  -5  -7   -0.01    0.20
   2  -5  -7   -0.08    0.22
   1  -5  -7    0.85    0.19
   1  -5  -7    1.25    0.68
   1  -5  -7    1.75    0.64
   1  -5  -7    0.99    0.33
   1  -5  -7   -0.27    1.50
   0  -5  -7   12.83    1.30
   0  -5  -7   14.73    1.96
   0  -5  -7   15.46    1.37
   0  -5  -7   14.68    1.78
   0  -5  -7   12.03    1.50
  -1  -5  -7    6.58    0.82
  -1  -5  -7    6.93    0.82
  -1  -5  -7    8.61    0.84
  -1  -5  -7   10.05    1.25
  -1  -5  -7   11.13    2.56
  -1  -5  -7    7.62    1.08
  -1  -5  -7    7.02    1.01
  -2  -5  -7   -0.80    0.84
  -2  -5  -7    0.03    0.48
  -2  -5  -7    0.02    0.35
  -2  -5  -7   -0.12    0.24
  -2  -5  -7    0.01    0.33
  -2  -5  -7    0.08    0.20
  -2  -5  -7    0.27    0.20
  -2  -5  -7    0.11    0.24
  -2  -5  -7    0.18    0.64
  -3  -5  -7    7.04    0.87
  -3  -5  -7   10.93    1.18
  -3  -5  -7    8.18    1.16
  -3  -5  -7    9.55    1.08
  -3  -5  -7   11.72    1.46
  -3  -5  -7    7.59    0.91
  -3  -5  -7    9.20    1.32
  -3  -5  -7   10.95    2.64
  -3  -5  -7    8.67    0.98
  -4  -5  -7    1.83    0.28
  -4  -5  -7    0.96    0.47
  -4  -5  -7    1.30    0.34
  -4  -5  -7    1.35    0.43
  -4  -5  -7    2.37    0.62
  -4  -5  -7    2.15    1.60
  -4  -5  -7    1.78    0.64
  -4  -5  -7    1.55    0.36
  -5  -5  -7    3.58    0.49
  -5  -5  -7    4.09    0.76
  -5  -5  -7    1.88    0.64
  -5  -5  -7    3.04    0.49
  -5  -5  -7    3.86    0.50
  -5  -5  -7    3.87    0.74
  -5  -5  -7    1.26    1.56
  -6  -5  -7    0.78    0.37
  -6  -5  -7    1.72    0.73
  -6  -5  -7    1.75    0.33
  -7  -5  -7    1.55    0.31
  -7  -5  -7    0.59    0.61
  -7  -5  -7    1.30    0.37
  -8  -5  -7    0.94    0.36
  -8  -5  -7    1.87    0.25
   3  -6  -7    0.13    0.16
   2  -6  -7    0.31    0.55
   2  -6  -7    0.22    0.28
   1  -6  -7    1.05    0.50
   1  -6  -7    0.66    0.26
   1  -6  -7    1.15    0.73
   0  -6  -7    0.21    0.19
   0  -6  -7    0.36    0.83
   0  -6  -7    0.16    0.37
   0  -6  -7   -0.13    0.41
  -1  -6  -7    0.98    1.36
  -1  -6  -7    1.90    0.30
  -1  -6  -7    1.30    0.52
  -1  -6  -7    2.52    0.91
  -1  -6  -7    1.32    0.27
  -1  -6  -7    1.34    0.52
  -2  -6  -7    2.63    1.39
  -2  -6  -7    1.69    0.52
  -2  -6  -7    1.89    0.42
  -2  -6  -7    2.24    0.85
  -2  -6  -7    1.14    0.31
  -2  -6  -7    0.98    0.59
  -3  -6  -7    0.60    0.23
  -3  -6  -7    0.80    0.59
  -3  -6  -7    1.50    0.41
  -3  -6  -7    0.23    0.22
  -3  -6  -7    0.41    0.22
  -3  -6  -7    0.55    0.55
  -3  -6  -7    0.14    1.05
  -3  -6  -7    1.20    0.62
  -3  -6  -7    0.83    0.30
  -4  -6  -7    0.63    0.41
  -4  -6  -7    0.34    0.33
  -4  -6  -7    0.14    0.42
  -4  -6  -7    0.61    1.18
  -4  -6  -7    1.40    0.78
  -4  -6  -7    0.62    0.30
  -4  -6  -7    0.92    0.54
  -5  -6  -7    8.11    0.79
  -5  -6  -7    9.59    1.34
  -5  -6  -7    5.01    0.99
  -5  -6  -7    7.12    0.84
  -6  -6  -7    1.64    0.57
  -6  -6  -7    1.10    0.37
  -6  -6  -7    0.77    0.40
  -6  -6  -7    1.64    0.35
  -6  -6  -7    1.13    0.18
  -7  -6  -7    0.89    0.59
  -7  -6  -7    0.53    0.29
  -7  -6  -7    0.32    0.11
  -8  -6  -7    0.80    0.41
  -8  -6  -7    0.64    0.19
   1  -7  -7    0.09    0.15
   1  -7  -7    0.16    0.34
   0  -7  -7    2.98    0.58
   0  -7  -7    1.47    0.33
   0  -7  -7    1.95    0.75
  -1  -7  -7    2.06    0.68
  -1  -7  -7    2.00    0.73
  -1  -7  -7    2.15    0.50
  -2  -7  -7   -0.18    0.12
  -2  -7  -7   -0.11    0.44
  -2  -7  -7   -0.22    0.81
  -2  -7  -7    0.15    0.53
  -3  -7  -7    2.62    0.41
  -3  -7  -7    3.32    0.53
  -3  -7  -7    3.41    0.81
  -3  -7  -7    2.63    0.68
  -4  -7  -7    1.00    0.48
  -4  -7  -7    1.42    0.28
  -4  -7  -7    0.90    0.38
  -4  -7  -7    2.63    0.85
  -5  -7  -7   -0.09    0.18
  -5  -7  -7   -0.35    0.35
  -5  -7  -7   -0.25    0.26
  -5  -7  -7    0.62    0.75
  -6  -7  -7    0.22    0.21
  -6  -7  -7    0.50    0.66
  -6  -7  -7   -0.06    0.28
  -7  -7  -7   -0.01    0.38
  -7  -7  -7    0.29    0.15
  -7  -7  -7    0.43    0.26
   0  -8  -7    1.01    0.34
   0  -8  -7    0.23    0.51
  -1  -8  -7    4.09    0.76
  -1  -8  -7    1.70    0.55
  -2  -8  -7   13.10    1.38
  -2  -8  -7    9.26    1.23
  -2  -8  -7   11.00    1.68
  -3  -8  -7   -0.20    0.50
  -3  -8  -7    0.33    0.29
  -3  -8  -7   -0.09    0.41
  -4  -8  -7    0.28    0.36
  -4  -8  -7   -0.07    0.23
  -4  -8  -7    0.06    0.18
  -4  -8  -7   -0.17    0.45
  -5  -8  -7   -0.15    0.20
  -5  -8  -7   -0.24    0.37
  -6  -8  -7    0.19    0.14
  -6  -8  -7    0.13    0.38
  -7  -8  -7   -0.10    0.25
  -7  -8  -7    0.04    0.13
  -2  -9  -7   -0.19    0.51
  -3  -9  -7    0.50    0.24
  -3  -9  -7    0.41    0.37
  -4  -9  -7    0.15    0.19
  -4  -9  -7   -0.32    0.31
  -3  -9   8    0.41    0.14
  -2  -9   8    1.13    0.22
  -5  -8   8    0.27    0.31
  -5  -8   8    0.20    0.09
  -4  -8   8    1.14    0.31
  -4  -8   8    0.50    0.13
  -4  -8   8    0.72    0.17
  -3  -8   8    0.27    0.28
  -3  -8   8    0.00    0.16
  -3  -8   8   -0.01    0.06
  -2  -8   8    0.17    0.27
  -2  -8   8    0.16    0.26
  -2  -8   8    0.07    0.13
  -1  -8   8    0.07    0.28
  -1  -8   8   -0.14    0.16
   0  -8   8    0.87    0.17
   0  -8   8    0.98    0.23
   1  -8   8    0.55    0.14
  -6  -7   8    0.08    0.10
  -6  -7   8    0.05    0.11
  -6  -7   8    0.22    0.18
  -5  -7   8    0.64    0.21
  -5  -7   8    0.56    0.14
  -5  -7   8    0.79    0.37
  -4  -7   8    6.07    0.58
  -4  -7   8    4.95    0.67
  -4  -7   8    5.53    0.50
  -4  -7   8    5.41    0.74
  -3  -7   8    0.55    0.46
  -3  -7   8   -0.01    0.16
  -3  -7   8    0.04    0.18
  -3  -7   8   -0.05    0.15
  -2  -7   8    0.16    0.13
  -2  -7   8    0.25    0.33
  -2  -7   8    0.32    0.23
  -2  -7   8    0.21    0.20
  -1  -7   8    0.19    0.40
  -1  -7   8   -0.16    0.31
  -1  -7   8    0.06    0.16
  -1  -7   8   -0.06    0.17
   0  -7   8    0.53    0.26
   0  -7   8    0.43    0.16
   0  -7   8    0.34    0.19
   1  -7   8    0.14    0.17
   1  -7   8    0.06    0.20
   1  -7   8    0.17    0.14
   2  -7   8    0.97    0.16
   2  -7   8    0.46    0.17
  -7  -6   8    2.03    0.24
  -6  -6   8    4.21    0.54
  -6  -6   8    4.06    0.48
  -5  -6   8    0.48    0.19
  -5  -6   8    0.69    0.24
  -5  -6   8    0.43    0.27
  -4  -6   8    0.14    0.22
  -4  -6   8   -0.04    0.28
  -4  -6   8    0.23    0.24
  -3  -6   8    1.24    0.88
  -3  -6   8    1.40    0.51
  -3  -6   8    1.82    0.30
  -3  -6   8    1.38    0.34
  -3  -6   8    1.27    0.23
  -2  -6   8    1.79    0.35
  -2  -6   8    1.37    0.19
  -2  -6   8    1.15    0.28
  -2  -6   8    1.52    0.25
  -2  -6   8    0.22    0.38
  -2  -6   8    1.14    0.51
  -1  -6   8    3.71    0.48
  -1  -6   8    3.48    0.42
  -1  -6   8    4.11    0.58
  -1  -6   8    4.55    0.44
  -1  -6   8    3.50    0.69
   0  -6   8    0.87    0.29
   0  -6   8    1.73    0.37
   0  -6   8    1.66    0.27
   0  -6   8    1.03    0.16
   1  -6   8    5.58    0.68
   1  -6   8    5.86    0.56
   1  -6   8    4.95    0.78
   1  -6   8    5.59    0.62
   2  -6   8    1.73    0.31
   2  -6   8    2.16    0.31
   2  -6   8    3.27    0.38
   3  -6   8    0.01    0.14
   3  -6   8    0.02    0.12
   3  -6   8    0.05    0.13
   7   5  -8    6.49    0.59
  -7  -5   8    5.03    0.55
  -7  -5   8    4.88    0.54
  -6  -5   8    4.41    0.53
  -6  -5   8    5.40    0.55
  -6  -5   8    4.43    0.60
  -5  -5   8    0.53    0.20
  -5  -5   8    0.16    0.25
  -4  -5   8    2.15    0.31
  -4  -5   8    2.84    0.41
  -4  -5   8    1.19    0.72
  -4  -5   8    2.49    0.37
  -3  -5   8   11.82    1.18
  -3  -5   8    7.10    1.16
  -3  -5   8   10.54    0.95
  -3  -5   8   10.12    1.06
  -3  -5   8   10.06    0.95
  -3  -5   8    7.76    1.34
  -3  -5   8    7.90    1.23
  -3  -5   8    8.52    1.23
  -3  -5   8   10.08    0.90
  -2  -5   8    6.60    0.77
  -2  -5   8    5.51    0.86
  -2  -5   8    6.58    0.93
  -2  -5   8    7.21    0.69
  -2  -5   8    6.12    0.70
  -2  -5   8    5.45    1.26
  -2  -5   8    6.08    0.90
  -2  -5   8    7.43    0.64
  -2  -5   8    7.36    0.93
  -1  -5   8    2.21    0.41
  -1  -5   8    0.94    0.36
  -1  -5   8    1.94    0.24
  -1  -5   8    2.87    0.48
  -1  -5   8    1.35    0.44
  -1  -5   8    0.97    0.33
  -1  -5   8    2.22    0.34
  -1  -5   8    2.38    0.30
  -1  -5   8    3.13    0.31
   0  -5   8   -0.18    0.21
   0  -5   8    0.33    0.15
   0  -5   8   -0.35    0.23
   0  -5   8    0.10    0.16
   1  -5   8    0.06    0.34
   1  -5   8    0.06    0.14
   1  -5   8    0.14    0.19
   1  -5   8   -0.04    0.23
   1  -5   8    0.28    0.11
   1  -5   8   -0.01    0.24
   2  -5   8   28.74    2.60
   2  -5   8   24.30    2.29
   2  -5   8   25.77    2.26
   2  -5   8   25.55    2.32
   3  -5   8    1.28    0.24
   3  -5   8    0.83    0.25
   3  -5   8    1.04    0.27
   4  -5   8   10.48    0.90
   4  -5   8   10.64    0.92
   4  -5   8    8.07    0.99
   7   4  -8    0.61    0.15
  -7  -4   8    0.48    0.15
   6   4  -8    4.65    0.64
  -6  -4   8    5.05    0.57
  -5  -4   8    3.66    0.49
  -4  -4   8   -0.33    0.42
  -4  -4   8    0.74    0.22
  -4  -4   8    0.77    0.23
  -4  -4   8    0.81    0.57
  -3  -4   8    6.06    0.60
  -3  -4   8    4.16    0.70
  -3  -4   8    5.06    0.60
  -3  -4   8    3.82    0.85
  -3  -4   8    5.75    0.59
  -3  -4   8    6.46    0.92
  -3  -4   8    3.10    0.79
  -3  -4   8    5.89    0.57
  -2  -4   8    0.19    0.30
  -2  -4   8    0.22    0.16
  -2  -4   8    0.55    0.19
  -2  -4   8    0.31    0.33
  -2  -4   8    0.29    0.21
  -2  -4   8    0.52    0.20
  -2  -4   8    0.41    0.49
  -2  -4   8    0.52    0.15
  -1  -4   8    0.92    0.21
  -1  -4   8    0.25    0.45
  -1  -4   8    0.83    0.31
  -1  -4   8    0.01    0.33
  -1  -4   8    0.70    0.13
  -1  -4   8    0.60    0.17
  -1  -4   8    0.67    0.17
  -1  -4   8    0.48    0.29
  -1  -4   8    0.51    0.29
  -1  -4   8    0.68    0.22
   0  -4   8    5.37    0.79
   0  -4   8    6.25    0.54
   0  -4   8    5.68    0.56
   0  -4   8    5.35    0.56
   0  -4   8    5.21    0.75
   0  -4   8    5.88    0.65
   0  -4   8    5.30    0.73
   0  -4   8    5.75    0.68
   1  -4   8   20.57    1.83
   1  -4   8   21.73    1.82
   1  -4   8   19.17    1.78
   1  -4   8   20.58    1.74
   1  -4   8   18.91    2.35
   1  -4   8   18.33    2.01
   1  -4   8   22.33    2.14
   2  -4   8    7.91    1.25
   2  -4   8    9.71    0.89
   2  -4   8   10.96    0.91
   2  -4   8    9.47    0.92
   2  -4   8    9.30    1.12
   2  -4   8    9.45    1.06
   3  -4   8    5.24    0.66
   3  -4   8    5.15    0.49
   3  -4   8    5.07    0.54
   3  -4   8    2.57    0.84
   3  -4   8    5.28    0.56
   4  -4   8   28.04    2.50
   4  -4   8   28.06    2.48
   4  -4   8   27.18    2.45
   4  -4   8   28.92    2.81
   5  -4   8    1.78    0.26
   5  -4   8    2.02    0.27
   7   3  -8    0.54    0.13
   7   3  -8    0.48    0.17
   7   3  -8    0.47    0.14
  -7  -3   8    0.64    0.17
   6   3  -8    0.11    0.17
  -6  -3   8    0.15    0.23
   5   3  -8    1.64    0.36
  -5  -3   8    1.72    0.30
  -4  -3   8    7.95    0.88
  -3  -3   8    7.69    1.12
  -3  -3   8    8.88    0.84
  -3  -3   8    6.39    1.10
  -2  -3   8   10.08    1.21
  -2  -3   8    8.63    0.92
  -2  -3   8    8.12    1.16
  -2  -3   8    9.31    1.09
  -1  -3   8    5.84    0.83
  -1  -3   8    5.83    0.76
  -1  -3   8    5.31    0.80
   0  -3   8   14.33    1.65
   0  -3   8   12.85    1.56
   0  -3   8   12.89    1.50
   0  -3   8   12.65    1.53
   1  -3   8    3.26    0.44
   1  -3   8    4.65    0.62
   1  -3   8    3.40    0.55
   1  -3   8    3.35    0.40
   1  -3   8    3.04    0.52
   1  -3   8    3.38    0.38
   1  -3   8    3.54    0.35
   2  -3   8    5.59    0.50
   2  -3   8    4.96    0.59
   2  -3   8    5.03    0.78
   2  -3   8    5.44    0.67
   2  -3   8    4.58    0.53
   2  -3   8    5.39    0.54
   2  -3   8    4.98    0.72
   2  -3   8    5.70    0.54
   3  -3   8    5.35    0.86
   3  -3   8    4.39    0.75
   3  -3   8    6.21    0.61
   3  -3   8    5.08    0.82
   3  -3   8    5.20    0.72
   3  -3   8    6.38    0.62
   3  -3   8    6.64    0.72
   3  -3   8    6.09    0.59
   3  -3   8    5.93    0.53
   4  -3   8    7.92    0.75
   4  -3   8    8.30    0.87
   4  -3   8    7.51    0.74
   4  -3   8    6.80    0.77
   5  -3   8    6.31    0.74
   5  -3   8    6.51    0.60
   5  -3   8    5.47    0.63
   5  -3   8    5.83    0.64
   6  -3   8    6.12    0.58
   7   2  -8    0.19    0.19
   7   2  -8   -0.03    0.11
   6   2  -8    6.72    0.74
   6   2  -8    7.05    0.78
   6   2  -8    7.34    0.79
   5   2  -8    7.89    0.91
   4   2  -8    0.21    0.19
  -2  -2   8    3.26    0.74
  -2  -2   8    5.03    0.84
  -1  -2   8    9.68    1.12
  -1  -2   8    9.30    1.22
  -1  -2   8    9.35    1.18
   0  -2   8    0.59    0.33
   0  -2   8    1.38    0.33
   0  -2   8    1.65    0.43
   1  -2   8   38.12    4.32
   1  -2   8   41.91    4.40
   1  -2   8   38.37    4.14
   2  -2   8    5.22    0.74
   2  -2   8    5.83    0.75
   2  -2   8    4.57    0.78
   2  -2   8    5.83    0.77
   3  -2   8    0.10    0.33
   3  -2   8    0.33    0.13
   3  -2   8   -0.13    0.25
   3  -2   8    0.27    0.13
   3  -2   8    0.01    0.17
   3  -2   8    0.12    0.05
   3  -2   8    0.36    0.26
   3  -2   8    0.29    0.28
   3  -2   8    0.22    0.22
   3  -2   8    0.32    0.17
   4  -2   8    0.17    0.36
   4  -2   8    0.24    0.15
   4  -2   8    0.18    0.19
   4  -2   8    0.29    0.35
   4  -2   8    0.23    0.15
   4  -2   8    0.26    0.21
   4  -2   8    0.26    0.36
   4  -2   8    0.56    0.22
   4  -2   8    0.13    0.32
   5  -2   8    2.73    0.40
   5  -2   8    2.50    0.28
   5  -2   8    2.75    0.46
   5  -2   8    2.77    0.37
   6  -2   8    4.30    0.50
   6  -2   8    4.20    0.47
   6   1  -8    0.31    0.09
   6   1  -8    0.32    0.28
   6   1  -8    0.28    0.20
   5   1  -8   -0.01    0.21
   5   1  -8    0.12    0.23
   4   1  -8   15.04    1.93
   4   1  -8   14.81    1.54
   3   1  -8   20.47    2.05
   2   1  -8    1.52    0.47
   2   1  -8    1.37    0.45
   1   1  -8    1.75    0.47
   1   1  -8    1.43    0.45
   1   1  -8    1.64    0.42
  -1  -1   8    2.26    0.54
  -1  -1   8    2.67    0.46
  -1  -1   8    2.20    0.32
  -1  -1   8    2.43    0.54
   0   1  -8    0.03    0.59
   0   1  -8   -0.12    0.25
   0  -1   8    0.09    0.32
   0  -1   8    0.74    0.27
   0  -1   8    0.26    0.20
   0  -1   8    0.55    0.22
   0  -1   8    0.74    0.38
   1  -1   8   10.76    1.12
   1  -1   8    8.09    0.97
   1  -1   8    8.65    1.08
   1  -1   8    9.53    1.17
   2  -1   8    1.83    0.41
   2  -1   8    1.03    0.39
   2  -1   8    1.43    0.45
   3  -1   8   15.51    2.03
   3  -1   8   17.80    1.99
   3  -1   8   18.66    1.97
   3  -1   8   16.91    1.50
   3  -1   8   15.87    1.66
   3  -1   8   18.78    1.96
   4  -1   8   11.53    0.97
   4  -1   8   10.88    1.32
   4  -1   8    9.16    0.95
   4  -1   8   11.03    1.03
   4  -1   8    9.48    1.32
   4  -1   8   11.58    1.03
   4  -1   8    8.20    1.35
   4  -1   8   10.18    1.34
   5  -1   8    1.61    0.65
   5  -1   8    3.41    0.40
   5  -1   8    4.06    0.48
   5  -1   8    3.13    0.39
   5  -1   8    1.83    0.63
   5  -1   8    4.19    0.54
   6  -1   8    0.07    0.13
   6  -1   8    0.02    0.22
   6  -1   8    0.06    0.21
   6  -1   8    0.09    0.17
   7  -1   8    0.10    0.11
   7  -1   8    0.01    0.13
   6   0  -8   -0.11    0.25
   6   0  -8    0.15    0.17
   6   0  -8    0.11    0.16
   5   0  -8    0.07    0.30
   5   0  -8    0.34    0.29
   5   0  -8    0.18    0.23
   5   0  -8    0.28    0.13
   4   0  -8    1.14    0.65
   4   0  -8    1.98    0.31
   4   0  -8    1.78    0.33
   4   0  -8    0.96    0.46
   4   0  -8    0.90    0.55
   4   0  -8    1.59    0.35
   3   0  -8    3.63    0.76
   3   0  -8    5.13    0.57
   3   0  -8    4.53    0.86
   3   0  -8    3.77    0.55
   3   0  -8    4.23    0.56
   2   0  -8   49.01    6.61
   2   0  -8   44.73    5.02
   2   0  -8   49.73    5.35
   1   0  -8    7.70    1.51
   1   0  -8    6.51    0.87
   1   0  -8    5.22    0.71
   1   0  -8    6.78    0.84
  -1   0   8    4.94    0.70
   0   0  -8    0.43    0.88
   0   0  -8    0.42    0.36
   0   0  -8    0.27    0.28
   0   0  -8    0.31    0.29
   0   0  -8   -0.12    0.21
   0   0   8    0.24    0.17
   0   0   8    0.20    0.34
   0   0   8    0.04    0.28
   0   0   8    0.26    0.25
   0   0   8    0.11    0.21
  -1   0  -8    4.11    0.66
  -1   0  -8    2.75    0.53
  -1   0  -8    2.92    0.55
  -1   0  -8    4.29    0.62
   1   0   8    4.27    0.54
   1   0   8    4.77    0.62
   1   0   8    4.25    0.54
   1   0   8    3.71    0.56
   1   0   8    4.88    0.68
  -2   0  -8    2.92    0.55
   2   0   8    5.35    0.70
   2   0   8    4.76    0.72
   2   0   8    5.06    0.63
   3   0   8    0.03    0.26
   3   0   8    0.15    0.33
   3   0   8    0.03    0.18
   4   0   8    0.07    0.37
   4   0   8    0.36    0.14
   4   0   8    0.03    0.23
   4   0   8    0.23    0.21
   4   0   8    0.02    0.35
   4   0   8    0.34    0.17
   4   0   8    0.43    0.19
   5   0   8   -0.27    0.40
   5   0   8    0.43    0.40
   5   0   8    0.29    0.18
   5   0   8    0.11    0.20
   5   0   8   -0.09    0.18
   5   0   8    0.16    0.44
   5   0   8    0.29    0.14
   6   0   8    5.15    0.55
   6   0   8    4.84    0.68
   6   0   8    5.58    0.65
   6   0   8    5.42    0.58
   6   0   8    5.31    0.53
   7   0   8    4.94    0.57
   7   0   8    5.75    0.53
   7   0   8    5.13    0.54
   6  -1  -8    4.53    0.52
   6  -1  -8    5.40    0.53
   5  -1  -8    0.24    0.22
   5  -1  -8    0.06    0.20
   5  -1  -8    0.05    0.28
   4  -1  -8    0.32    0.38
   4  -1  -8    0.60    0.30
   4  -1  -8    0.84    0.36
   4  -1  -8    0.54    0.10
   4  -1  -8    0.45    0.21
   4  -1  -8    0.75    0.30
   3  -1  -8    8.53    0.94
   3  -1  -8    8.82    1.00
   3  -1  -8    8.90    1.21
   3  -1  -8   12.02    1.36
   3  -1  -8   14.87    2.16
   3  -1  -8    8.94    0.97
   3  -1  -8    9.21    0.97
   3  -1  -8    9.01    1.31
   2  -1  -8    2.45    0.97
   2  -1  -8    1.28    0.36
   2  -1  -8    2.73    0.61
   2  -1  -8    1.66    0.46
   2  -1  -8    1.96    0.31
   2  -1  -8    1.79    0.35
   1  -1  -8   38.43    4.15
   1  -1  -8   43.86    5.68
   1  -1  -8   37.93    4.42
   0  -1  -8    1.70    0.49
   0  -1  -8    1.75    0.42
   0  -1  -8    1.86    0.44
   0  -1  -8    0.62    1.13
   0   1   8    1.65    0.37
   0   1   8    1.70    0.27
  -1  -1  -8   34.75    3.61
  -1  -1  -8   35.91    5.59
  -1  -1  -8   41.15    4.07
  -1  -1  -8   33.72    3.59
  -1  -1  -8   43.26    4.34
   1   1   8   35.15    3.61
   1   1   8   43.84    4.37
   1   1   8   41.72    3.62
   1   1   8   38.67    4.07
  -2  -1  -8    3.37    0.60
  -2  -1  -8    3.24    0.58
  -2  -1  -8    5.53    0.70
  -2  -1  -8    5.56    0.74
   2   1   8    5.13    0.70
   2   1   8    5.32    0.74
   2   1   8    5.15    0.70
   2   1   8    4.12    0.63
   3   1   8    0.21    0.36
   3   1   8    0.69    0.37
   4   1   8    1.92    0.54
   4   1   8    1.63    0.59
   4   1   8    1.69    0.25
   5   1   8   16.38    1.41
   5   1   8   11.95    1.87
   5   1   8   16.13    2.06
   5   1   8   15.16    1.38
   5   1   8   16.04    1.54
   6   1   8   13.02    1.30
   6   1   8   12.14    1.17
   6   1   8   13.58    1.22
   7   1   8    1.85    0.21
   7   1   8    1.78    0.28
   7   1   8    1.68    0.26
   8   1   8    6.58    0.53
   8   1   8    4.72    0.53
   5  -2  -8    2.21    0.33
   5  -2  -8    1.39    0.31
   4  -2  -8    0.07    0.20
   4  -2  -8    0.28    0.31
   4  -2  -8    0.41    0.17
   4  -2  -8   -0.01    0.27
   3  -2  -8    4.02    0.56
   3  -2  -8    5.10    1.86
   3  -2  -8    4.13    0.47
   3  -2  -8    3.85    0.53
   3  -2  -8    4.10    0.53
   3  -2  -8    2.86    0.75
   3  -2  -8    3.84    0.84
   2  -2  -8    5.30    0.69
   2  -2  -8    7.70    1.86
   2  -2  -8    5.34    0.80
   2  -2  -8    5.68    0.86
   2  -2  -8    5.33    0.57
   2  -2  -8    8.07    0.96
   2  -2  -8    5.58    0.69
   2  -2  -8    4.47    0.61
   2  -2  -8    5.77    0.77
   1  -2  -8    5.03    0.80
   1  -2  -8    4.94    0.63
   1  -2  -8    3.15    0.43
   1  -2  -8    3.26    1.46
   1  -2  -8    3.37    0.64
   0  -2  -8    2.54    1.17
   0  -2  -8    1.71    0.47
   0  -2  -8    1.06    0.36
  -1  -2  -8    4.58    1.59
  -1  -2  -8    5.67    0.78
  -1  -2  -8    4.82    0.70
  -2  -2  -8    5.25    0.67
  -2  -2  -8    5.03    0.74
  -2  -2  -8    3.21    0.59
  -3  -2  -8   12.21    1.55
  -3  -2  -8   12.93    1.46
   5   2   8    5.11    0.60
   6   2   8    1.92    0.29
   7   2   8    5.67    0.64
   7   2   8    6.75    0.69
   7   2   8    5.84    0.67
   8   2   8    3.24    0.39
   8   2   8    4.75    0.44
   4  -3  -8   -0.10    0.20
   4  -3  -8    0.44    0.20
   4  -3  -8    0.14    0.22
   3  -3  -8   11.09    1.46
   3  -3  -8   11.42    0.98
   3  -3  -8   10.75    1.13
   3  -3  -8   10.70    1.20
   3  -3  -8   11.52    1.09
   2  -3  -8   39.78    3.81
   2  -3  -8   34.14    4.22
   2  -3  -8   42.83    4.62
   2  -3  -8   44.19    3.59
   2  -3  -8   37.89    3.64
   2  -3  -8   40.59    4.45
   2  -3  -8   40.93    3.49
   2  -3  -8   44.40    4.53
   1  -3  -8    0.39    0.12
   1  -3  -8   -0.95    0.91
   1  -3  -8    0.52    0.29
   1  -3  -8    0.70    0.24
   1  -3  -8    0.26    0.63
   1  -3  -8    0.50    0.38
   1  -3  -8    0.38    0.20
   1  -3  -8    0.37    0.43
   1  -3  -8    0.23    0.21
   0  -3  -8    9.45    0.95
   0  -3  -8    9.14    1.00
   0  -3  -8   11.67    1.19
   0  -3  -8   10.06    1.20
   0  -3  -8    9.11    1.00
  -1  -3  -8    2.45    0.46
  -1  -3  -8    2.86    1.39
  -1  -3  -8    1.79    0.47
  -2  -3  -8    3.88    0.92
  -2  -3  -8    4.99    0.67
  -2  -3  -8    5.01    0.73
  -2  -3  -8    3.52    1.76
  -3  -3  -8    6.42    0.85
  -3  -3  -8    6.44    0.91
  -3  -3  -8    5.71    0.96
  -4  -3  -8    0.43    0.27
  -4  -3  -8    0.75    0.42
  -4  -3  -8    0.77    0.38
  -5  -3  -8    1.14    0.34
  -6  -3  -8    5.22    0.85
   6   3   8    8.08    0.79
   7   3   8    1.44    0.27
   7   3   8    1.17    0.23
   8   3   8    2.77    0.32
   8   3   8    3.04    0.36
   8   3   8    3.18    0.34
   4  -4  -8    5.44    0.61
   3  -4  -8    0.17    0.24
   3  -4  -8   -0.19    0.49
   3  -4  -8    0.28    0.25
   3  -4  -8    0.45    0.18
   2  -4  -8    0.79    0.58
   2  -4  -8    1.43    0.24
   2  -4  -8    1.01    0.38
   2  -4  -8    2.05    1.01
   2  -4  -8    0.89    0.28
   1  -4  -8   41.70    4.22
   1  -4  -8   35.24    3.49
   1  -4  -8   38.67    3.65
   1  -4  -8   38.57    4.29
   1  -4  -8   38.50    4.40
   1  -4  -8   38.91    3.30
   0  -4  -8   -0.02    0.44
   0  -4  -8    0.46    0.28
   0  -4  -8    0.15    0.60
   0  -4  -8   -0.01    0.16
   0  -4  -8    0.34    0.19
   0  -4  -8   -0.05    0.21
   0  -4  -8    0.75    1.08
   0  -4  -8   -0.22    0.46
   0  -4  -8   -0.02    0.18
  -1  -4  -8    6.55    0.77
  -1  -4  -8    5.74    0.67
  -1  -4  -8    4.77    0.66
  -1  -4  -8    4.90    0.69
  -1  -4  -8    9.92    2.40
  -1  -4  -8    8.04    1.06
  -1  -4  -8    6.80    1.01
  -2  -4  -8    0.44    0.53
  -2  -4  -8    0.38    0.50
  -2  -4  -8    0.24    0.17
  -2  -4  -8    0.51    0.26
  -2  -4  -8    0.18    0.36
  -2  -4  -8    0.19    1.43
  -2  -4  -8   -0.23    0.50
  -2  -4  -8    0.16    0.18
  -2  -4  -8    0.49    0.27
  -2  -4  -8    0.47    0.26
  -3  -4  -8    2.90    0.54
  -3  -4  -8    2.48    0.38
  -3  -4  -8    3.16    0.79
  -3  -4  -8    1.99    0.40
  -3  -4  -8    3.93    0.71
  -3  -4  -8    2.35    1.69
  -3  -4  -8    4.04    0.68
  -3  -4  -8    1.91    0.40
  -4  -4  -8    2.58    0.72
  -4  -4  -8    4.31    0.71
  -4  -4  -8    2.23    0.42
  -4  -4  -8    2.97    0.66
  -4  -4  -8    2.72    0.43
  -4  -4  -8    2.65    0.46
  -5  -4  -8    1.51    0.34
  -5  -4  -8    0.99    0.37
  -5  -4  -8    2.75    0.68
  -6  -4  -8    0.69    0.25
  -7  -4  -8    0.35    0.28
  -7  -4  -8    0.00    0.39
   7   4   8    0.30    0.20
  -8  -4  -8   15.47    1.57
   3  -5  -8    0.24    0.22
   3  -5  -8    0.13    0.13
   3  -5  -8    0.13    0.32
   2  -5  -8    0.32    0.32
   2  -5  -8    0.11    0.40
   1  -5  -8    0.01    0.40
   1  -5  -8    1.47    0.94
   1  -5  -8    0.17    0.22
   1  -5  -8    0.34    0.19
   0  -5  -8   13.48    1.79
   0  -5  -8   14.03    1.24
   0  -5  -8   14.65    1.64
   0  -5  -8   10.16    1.15
   0  -5  -8    9.19    1.42
  -1  -5  -8    4.57    0.50
  -1  -5  -8    6.97    0.87
  -1  -5  -8    6.44    0.68
  -1  -5  -8    6.69    2.15
  -1  -5  -8    5.32    0.68
  -1  -5  -8    5.70    0.65
  -1  -5  -8    4.91    0.63
  -1  -5  -8    6.73    1.00
  -1  -5  -8    5.69    0.99
  -2  -5  -8    0.12    0.30
  -2  -5  -8   -0.38    0.50
  -2  -5  -8    0.00    0.20
  -2  -5  -8    0.29    0.27
  -2  -5  -8   -1.55    1.33
  -2  -5  -8   -0.71    0.58
  -2  -5  -8    0.02    0.23
  -2  -5  -8    0.07    0.35
  -3  -5  -8    2.06    0.34
  -3  -5  -8    3.22    0.68
  -3  -5  -8    2.42    0.45
  -3  -5  -8    1.67    0.50
  -3  -5  -8    2.27    1.36
  -3  -5  -8    2.33    0.79
  -3  -5  -8    2.57    0.52
  -3  -5  -8    2.03    0.38
  -3  -5  -8    2.06    0.69
  -4  -5  -8    3.82    0.72
  -4  -5  -8    4.22    0.85
  -4  -5  -8    2.53    0.46
  -4  -5  -8    2.64    0.44
  -4  -5  -8    2.31    0.81
  -4  -5  -8    2.75    0.59
  -4  -5  -8    2.26    1.82
  -4  -5  -8    2.37    0.36
  -5  -5  -8    0.16    0.30
  -5  -5  -8    0.49    1.40
  -5  -5  -8    0.09    0.22
  -5  -5  -8   -0.17    0.44
  -5  -5  -8   -0.17    0.40
  -5  -5  -8   -0.06    0.32
  -6  -5  -8    0.25    0.60
  -6  -5  -8    0.38    0.32
  -6  -5  -8    0.41    0.26
  -7  -5  -8    0.07    0.24
  -7  -5  -8    0.40    0.23
  -7  -5  -8    0.18    0.53
   8   5   8    2.31    0.31
   2  -6  -8   -0.48    0.30
   2  -6  -8    0.20    0.21
   1  -6  -8    0.48    0.44
   1  -6  -8   -0.45    0.16
   1  -6  -8   -0.40    0.60
   0  -6  -8    1.37    0.67
   0  -6  -8    0.95    0.31
   0  -6  -8    2.16    0.58
  -1  -6  -8    0.18    0.58
  -1  -6  -8    0.27    0.24
  -1  -6  -8    0.54    0.20
  -1  -6  -8    0.45    1.39
  -1  -6  -8   -0.05    0.32
  -1  -6  -8    0.63    0.58
  -2  -6  -8    7.12    1.22
  -2  -6  -8    8.13    1.00
  -2  -6  -8    5.46    2.18
  -2  -6  -8    4.59    0.84
  -2  -6  -8    5.96    0.72
  -3  -6  -8    6.14    1.08
  -3  -6  -8    5.06    2.28
  -3  -6  -8    3.24    1.16
  -3  -6  -8    8.07    0.90
  -3  -6  -8    6.68    0.77
  -3  -6  -8    5.70    0.68
  -3  -6  -8    7.06    0.90
  -3  -6  -8    9.80    1.19
  -4  -6  -8    4.19    0.72
  -4  -6  -8    3.30    1.97
  -4  -6  -8    4.86    0.98
  -4  -6  -8    1.21    0.84
  -4  -6  -8    3.46    0.50
  -4  -6  -8    3.37    0.46
  -5  -6  -8    0.38    0.24
  -5  -6  -8    0.28    0.65
  -5  -6  -8    0.89    0.31
  -5  -6  -8    0.09    0.46
  -6  -6  -8    1.27    0.39
  -6  -6  -8    0.95    0.15
  -6  -6  -8    2.08    0.69
  -6  -6  -8    1.27    0.35
  -6  -6  -8    0.58    0.41
  -7  -6  -8    0.29    0.49
  -7  -6  -8    0.14    0.09
  -7  -6  -8    0.24    0.20
  -8  -6  -8   -0.04    0.14
   1  -7  -8    0.14    0.20
   1  -7  -8    0.29    0.34
   0  -7  -8    0.30    0.18
   0  -7  -8    0.60    0.42
   0  -7  -8    1.31    0.85
  -1  -7  -8    4.11    0.88
  -1  -7  -8    3.61    0.64
  -1  -7  -8    4.36    0.83
  -2  -7  -8    2.59    0.57
  -2  -7  -8    1.66    0.44
  -2  -7  -8    2.37    0.88
  -2  -7  -8    2.04    0.27
  -3  -7  -8    0.79    0.27
  -3  -7  -8   -0.02    0.39
  -3  -7  -8    0.43    0.53
  -3  -7  -8   -0.10    0.71
  -4  -7  -8   -0.22    0.66
  -4  -7  -8   -0.42    0.24
  -4  -7  -8   -0.14    0.34
  -4  -7  -8   -0.38    0.44
  -5  -7  -8    0.38    0.18
  -5  -7  -8   -0.04    0.28
  -5  -7  -8   -0.15    0.47
  -5  -7  -8    0.07    0.21
  -6  -7  -8   -0.04    0.18
  -6  -7  -8   -0.08    0.58
  -6  -7  -8   -0.05    0.20
  -7  -7  -8    4.83    0.72
  -7  -7  -8    4.68    0.55
  -7  -7  -8    3.44    0.44
   0  -8  -8    0.13    0.27
  -1  -8  -8    0.19    0.70
  -1  -8  -8    0.26    0.28
  -2  -8  -8    0.14    0.48
  -2  -8  -8    0.49    0.33
  -2  -8  -8    0.03    0.28
  -3  -8  -8    0.61    0.34
  -3  -8  -8    0.79    0.30
  -3  -8  -8    1.00    0.51
  -4  -8  -8    1.15    0.65
  -4  -8  -8    1.25    0.21
  -4  -8  -8    0.95    0.41
  -4  -8  -8    1.45    0.39
  -5  -8  -8    0.59    0.21
  -5  -8  -8    0.99    0.55
  -6  -8  -8    0.54    0.21
  -6  -8  -8    0.27    0.30
  -7  -8  -8   -0.02    0.10
  -3  -9  -8   -0.29    0.32
  -4  -9  -8    1.41    0.41
  -5  -9  -8    0.49    0.39
  -5  -8   9    0.24    0.19
  -5  -8   9    0.19    0.07
  -4  -8   9    0.67    0.12
  -4  -8   9    0.88    0.28
  -3  -8   9    0.58    0.35
  -3  -8   9    0.56    0.19
  -2  -8   9    0.26    0.11
  -2  -8   9   -0.16    0.30
  -2  -8   9   -0.05    0.17
  -1  -8   9    0.39    0.21
  -1  -8   9    0.56    0.15
   0  -8   9    0.18    0.16
   0  -8   9    0.64    0.15
  -6  -7   9    0.17    0.10
  -6  -7   9    0.70    0.19
  -6  -7   9    0.49    0.07
  -5  -7   9    0.18    0.22
  -5  -7   9    0.05    0.08
  -5  -7   9   -0.04    0.16
  -4  -7   9    4.82    0.65
  -4  -7   9    4.59    0.50
  -3  -7   9    0.41    0.18
  -3  -7   9    0.28    0.43
  -3  -7   9    0.69    0.23
  -2  -7   9    3.28    0.53
  -2  -7   9    3.54    0.34
  -2  -7   9    2.48    0.46
  -2  -7   9    2.31    0.35
  -1  -7   9    0.26    0.23
  -1  -7   9    0.03    0.15
   0  -7   9    1.09    0.23
   0  -7   9    0.78    0.36
   0  -7   9    1.27    0.28
   1  -7   9    6.76    0.74
   2  -7   9    0.64    0.17
   2  -7   9    1.37    0.17
  -6  -6   9    0.64    0.20
  -6  -6   9    0.39    0.20
  -5  -6   9    0.89    0.36
  -5  -6   9    1.00    0.23
  -5  -6   9    0.92    0.25
  -4  -6   9    0.53    0.29
  -4  -6   9    0.09    0.20
  -4  -6   9    0.22    0.17
  -3  -6   9    2.32    0.55
  -3  -6   9    1.76    0.40
  -3  -6   9    2.14    0.29
  -3  -6   9    2.55    0.33
  -2  -6   9    1.07    0.36
  -2  -6   9    1.64    0.29
  -2  -6   9    1.34    0.20
  -2  -6   9    1.53    0.26
  -2  -6   9    0.86    0.48
  -1  -6   9    6.97    0.89
  -1  -6   9    4.44    0.86
  -1  -6   9    7.15    0.68
  -1  -6   9    6.67    0.77
  -1  -6   9    7.76    0.68
   0  -6   9    0.06    0.14
   0  -6   9    0.14    0.12
   0  -6   9   -0.29    0.21
   0  -6   9    0.31    0.24
   1  -6   9   -0.15    0.32
   1  -6   9    0.23    0.16
   1  -6   9   -0.04    0.22
   2  -6   9    1.13    0.21
   2  -6   9    1.08    0.25
   3  -6   9    3.32    0.35
  -6  -5   9   10.55    1.12
  -6  -5   9   11.62    1.08
  -6  -5   9    9.55    0.99
  -5  -5   9    0.49    0.19
  -5  -5   9    0.79    0.21
  -5  -5   9    0.20    0.34
  -4  -5   9    5.57    0.58
  -4  -5   9    6.51    0.67
  -4  -5   9    4.99    0.60
  -3  -5   9    2.01    0.38
  -3  -5   9    2.22    0.30
  -3  -5   9    1.53    0.77
  -3  -5   9    2.31    0.33
  -3  -5   9    1.79    0.50
  -3  -5   9    2.27    0.36
  -2  -5   9    3.80    0.58
  -2  -5   9    3.38    0.50
  -2  -5   9    2.57    0.61
  -2  -5   9    2.96    0.64
  -2  -5   9    3.65    0.44
  -2  -5   9    2.55    0.60
  -2  -5   9    3.15    0.39
  -2  -5   9    4.17    0.97
  -1  -5   9    7.70    0.82
  -1  -5   9    7.99    0.70
  -1  -5   9    7.20    0.97
  -1  -5   9    5.54    0.94
  -1  -5   9    8.18    0.71
  -1  -5   9    9.24    0.76
  -1  -5   9    5.40    0.98
  -1  -5   9    7.84    0.88
   0  -5   9    0.88    0.41
   0  -5   9    1.80    0.28
   0  -5   9    1.77    0.30
   0  -5   9    1.48    0.42
   1  -5   9   -0.24    0.30
   1  -5   9    0.69    0.28
   1  -5   9    0.45    0.15
   1  -5   9    0.58    0.23
   1  -5   9    0.21    0.15
   1  -5   9    0.66    0.30
   2  -5   9    0.65    0.23
   2  -5   9    0.77    0.24
   2  -5   9    0.38    0.34
   2  -5   9    0.89    0.25
   2  -5   9    0.64    0.12
   3  -5   9    0.16    0.15
   3  -5   9    0.25    0.16
   3  -5   9    0.30    0.27
   4  -5   9    0.79    0.16
   4  -5   9    0.65    0.23
   4  -5   9    0.58    0.15
   7   4  -9   -0.02    0.09
  -7  -4   9    0.05    0.09
   6   4  -9    0.60    0.21
  -6  -4   9    0.99    0.20
  -5  -4   9   28.21    2.76
  -4  -4   9    0.29    0.26
  -4  -4   9    0.22    0.21
  -4  -4   9    0.48    0.54
  -3  -4   9    9.76    1.16
  -3  -4   9   11.23    1.10
  -3  -4   9   10.12    1.51
  -3  -4   9   10.73    1.04
  -3  -4   9   12.60    1.03
  -3  -4   9    9.04    1.40
  -2  -4   9   -0.06    0.20
  -2  -4   9   -0.06    0.33
  -2  -4   9   -0.16    0.21
  -2  -4   9   -0.06    0.13
  -2  -4   9   -0.12    0.19
  -2  -4   9   -0.02    0.13
  -2  -4   9   -0.10    0.34
  -2  -4   9   -0.16    0.28
  -1  -4   9    3.27    0.88
  -1  -4   9    5.38    0.49
  -1  -4   9    5.27    0.71
  -1  -4   9    5.16    0.64
  -1  -4   9    4.64    0.47
  -1  -4   9    4.28    0.55
  -1  -4   9    5.41    0.52
  -1  -4   9    4.95    0.73
  -1  -4   9    4.20    0.70
   0  -4   9    2.53    0.57
   0  -4   9    2.47    0.59
   0  -4   9    3.77    0.48
   0  -4   9    4.16    0.41
   0  -4   9    4.25    0.38
   0  -4   9    3.90    0.56
   0  -4   9    2.76    0.60
   0  -4   9    3.86    0.41
   1  -4   9    6.35    0.53
   1  -4   9    4.16    0.72
   1  -4   9    6.03    0.76
   1  -4   9    5.85    0.56
   1  -4   9    5.52    0.67
   1  -4   9    4.89    0.82
   1  -4   9    6.12    0.56
   1  -4   9    6.05    0.60
   2  -4   9    0.51    0.32
   2  -4   9    0.70    0.30
   2  -4   9    0.59    0.15
   2  -4   9    0.80    0.25
   2  -4   9    0.83    0.23
   2  -4   9    0.59    0.42
   3  -4   9    0.22    0.22
   3  -4   9    0.10    0.13
   3  -4   9   -0.29    0.21
   3  -4   9    0.23    0.29
   4  -4   9   52.06    4.70
   4  -4   9   53.09    4.69
   4  -4   9   56.52    5.23
   4  -4   9   52.09    4.59
   5  -4   9    0.11    0.13
   5  -4   9    0.17    0.15
   5  -4   9    0.18    0.18
   6   3  -9    5.74    0.73
  -6  -3   9    6.92    0.74
   5   3  -9    0.94    0.32
  -5  -3   9    1.42    0.26
  -4  -3   9    6.09    0.68
  -3  -3   9    0.04    0.43
  -3  -3   9    1.13    0.24
  -2  -3   9    2.56    0.62
  -2  -3   9    3.15    0.69
  -2  -3   9    1.83    0.43
  -2  -3   9    2.54    0.31
  -2  -3   9    2.57    0.36
  -1  -3   9    2.48    0.48
  -1  -3   9    2.41    0.57
  -1  -3   9    2.71    0.34
  -1  -3   9    2.68    0.34
  -1  -3   9    3.25    0.66
   0  -3   9   15.73    1.84
   0  -3   9   16.14    1.39
   0  -3   9   15.69    1.80
   0  -3   9   17.31    1.89
   0  -3   9   15.64    1.44
   0  -3   9   15.05    1.54
   1  -3   9    0.39    0.26
   1  -3   9    1.05    0.19
   1  -3   9    0.77    0.15
   1  -3   9    0.92    0.35
   1  -3   9    0.69    0.11
   1  -3   9    0.75    0.16
   1  -3   9    0.79    0.20
   1  -3   9    0.31    0.27
   1  -3   9    0.80    0.19
   1  -3   9    0.97    0.25
   2  -3   9   -0.04    0.24
   2  -3   9    0.01    0.17
   2  -3   9    0.43    0.15
   2  -3   9    0.00    0.22
   2  -3   9    0.34    0.26
   2  -3   9    0.14    0.16
   2  -3   9    0.18    0.11
   2  -3   9   -0.42    0.17
   2  -3   9    0.00    0.14
   3  -3   9    0.07    0.15
   3  -3   9    0.45    0.37
   3  -3   9    0.24    0.27
   3  -3   9    0.20    0.12
   3  -3   9   -0.18    0.23
   3  -3   9   -0.05    0.25
   3  -3   9   -0.04    0.14
   3  -3   9    0.11    0.16
   4  -3   9    0.45    0.24
   4  -3   9    0.18    0.16
   4  -3   9    0.02    0.15
   4  -3   9    0.44    0.24
   5  -3   9    7.60    0.75
   5  -3   9    8.52    0.87
   5  -3   9    7.53    0.74
   6  -3   9    1.41    0.23
   6   2  -9    0.10    0.13
   6   2  -9    0.19    0.27
   6   2  -9   -0.30    0.24
   5   2  -9    0.69    0.28
   4   2  -9    5.25    0.64
  -2  -2   9    1.19    0.49
  -2  -2   9    0.64    0.41
  -1  -2   9    7.49    1.04
  -1  -2   9    7.58    0.92
  -1  -2   9    7.16    1.00
   0  -2   9    5.77    0.90
   0  -2   9    7.30    0.85
   0  -2   9    6.51    0.91
   1  -2   9   22.17    2.47
   1  -2   9   24.73    2.62
   1  -2   9   21.05    2.53
   2  -2   9    0.17    0.09
   2  -2   9    0.14    0.19
   2  -2   9    0.34    0.29
   2  -2   9    0.17    0.16
   2  -2   9    0.18    0.34
   2  -2   9    0.32    0.29
   2  -2   9    0.30    0.14
   3  -2   9    4.21    0.46
   3  -2   9    3.96    0.41
   3  -2   9    3.18    0.67
   3  -2   9    3.61    0.43
   3  -2   9    3.33    0.44
   3  -2   9    4.40    0.49
   3  -2   9    3.13    0.68
   3  -2   9    3.94    0.74
   3  -2   9    3.90    0.39
   4  -2   9    6.36    0.64
   4  -2   9    5.75    0.57
   4  -2   9    4.92    0.83
   4  -2   9    5.73    0.62
   4  -2   9    6.27    0.70
   5  -2   9    6.00    0.63
   5  -2   9    6.26    0.75
   5  -2   9    6.09    0.64
   5  -2   9    5.71    0.55
   6  -2   9    0.38    0.13
   6  -2   9    0.48    0.17
   6   1  -9    0.48    0.20
   6   1  -9    0.79    0.27
   5   1  -9    0.49    0.24
   5   1  -9    0.82    0.26
   4   1  -9    4.18    0.58
   4   1  -9    3.11    0.89
   3   1  -9   19.62    1.99
  -1  -1   9    4.14    0.72
  -1  -1   9    2.26    0.38
  -1  -1   9    3.45    0.65
   0  -1   9    7.33    0.94
   0  -1   9    8.89    1.15
   0  -1   9    8.87    1.11
   0  -1   9    9.11    1.03
   1  -1   9    5.88    0.87
   1  -1   9    5.96    0.81
   1  -1   9    5.91    0.77
   2  -1   9    4.71    0.67
   2  -1   9    3.93    0.76
   2  -1   9    5.32    0.78
   3  -1   9    4.14    0.75
   3  -1   9    4.56    0.47
   3  -1   9    4.66    0.48
   3  -1   9    4.33    0.67
   3  -1   9    3.92    0.79
   3  -1   9    4.31    0.50
   3  -1   9    4.44    0.65
   3  -1   9    3.67    0.44
   4  -1   9    3.53    0.40
   4  -1   9    3.26    0.68
   4  -1   9    2.84    0.35
   4  -1   9    2.11    0.57
   4  -1   9    3.83    0.44
   4  -1   9    2.70    0.66
   4  -1   9    2.87    0.76
   4  -1   9    3.36    0.40
   5  -1   9    7.90    1.39
   5  -1   9   11.37    1.05
   5  -1   9   10.27    1.00
   5  -1   9   12.44    1.19
   5  -1   9   11.17    0.98
   6  -1   9    7.59    0.78
   6  -1   9    7.35    0.78
   6  -1   9    8.26    0.90
   6  -1   9    8.26    0.73
   7  -1   9    0.70    0.17
   7  -1   9    0.86    0.20
   6   0  -9    1.75    0.26
   6   0  -9    1.50    0.22
   6   0  -9    0.75    0.22
   5   0  -9    0.58    0.26
   5   0  -9    0.24    0.21
   5   0  -9    0.49    0.09
   5   0  -9    0.52    0.25
   4   0  -9    2.69    0.37
   4   0  -9    1.24    0.57
   4   0  -9    2.73    0.41
   3   0  -9    5.21    0.60
   3   0  -9    3.04    0.74
   3   0  -9    4.02    0.90
   3   0  -9    4.12    0.59
   3   0  -9    5.79    0.63
   2   0  -9    0.69    0.31
   2   0  -9    1.54    0.50
   2   0  -9    1.07    0.44
   1   0  -9    9.78    1.24
   1   0  -9   10.46    1.34
   1   0  -9   10.42    1.82
   0   0  -9    8.77    1.95
   0   0  -9    8.68    1.13
   0   0  -9    8.44    1.18
   0   0   9   10.08    1.06
   0   0   9    7.13    0.97
   0   0   9   10.86    1.25
   0   0   9    8.86    1.14
  -1   0  -9   18.54    2.61
  -1   0  -9   18.49    2.16
   1   0   9   23.93    2.62
   1   0   9   26.79    2.51
   1   0   9   22.23    2.18
   1   0   9   23.18    2.45
   2   0   9   52.76    5.75
   2   0   9   50.29    5.40
   3   0   9    3.89    0.71
   3   0   9    2.85    0.70
   4   0   9    0.28    0.39
   4   0   9    0.08    0.24
   4   0   9   -0.18    0.34
   4   0   9    0.23    0.28
   4   0   9    0.01    0.23
   4   0   9    0.12    0.14
   4   0   9    0.05    0.15
   4   0   9    0.02    0.17
   5   0   9   10.71    0.99
   5   0   9    9.61    0.96
   5   0   9   10.98    1.06
   5   0   9   11.04    1.06
   5   0   9    9.47    1.38
   6   0   9    0.49    0.29
   6   0   9    0.38    0.10
   6   0   9    0.63    0.19
   6   0   9    0.61    0.20
   6   0   9    0.67    0.21
   7   0   9    1.75    0.25
   7   0   9    1.63    0.27
   7   0   9    1.84    0.24
   6  -1  -9    0.36    0.14
   6  -1  -9    0.24    0.14
   5  -1  -9    0.01    0.19
   5  -1  -9    0.02    0.30
   5  -1  -9   -0.08    0.18
   4  -1  -9   -0.07    0.27
   4  -1  -9    0.08    0.28
   4  -1  -9    0.10    0.18
   4  -1  -9    0.02    0.32
   3  -1  -9    2.20    0.37
   3  -1  -9    1.09    0.46
   3  -1  -9    2.53    0.33
   3  -1  -9    1.37    1.32
   3  -1  -9    2.31    0.41
   3  -1  -9    1.43    0.59
   3  -1  -9    1.30    0.60
   3  -1  -9    2.06    0.44
   2  -1  -9    8.60    0.97
   2  -1  -9    7.76    0.91
   2  -1  -9   11.04    1.19
   2  -1  -9    8.15    0.92
   2  -1  -9    9.49    0.96
   1  -1  -9    6.63    0.84
   1  -1  -9    6.08    1.66
   1  -1  -9    5.29    0.89
   0  -1  -9   27.74    4.57
   0  -1  -9   30.45    3.27
   0  -1  -9   32.30    3.49
  -1  -1  -9   16.54    1.88
  -1  -1  -9   13.20    1.59
  -1  -1  -9   17.03    1.78
  -1  -1  -9   14.85    2.77
   1   1   9   15.92    1.58
  -2  -1  -9    2.11    0.47
  -2  -1  -9    1.66    0.51
   2   1   9    2.86    0.56
   2   1   9    2.03    0.56
   3   1   9    9.94    1.36
   3   1   9   10.62    1.30
   4   1   9    9.21    0.98
   4   1   9    9.75    1.35
   4   1   9    9.94    1.28
   5   1   9    6.76    0.69
   5   1   9    5.71    0.60
   5   1   9    5.61    1.13
   5   1   9    6.16    0.67
   6   1   9    9.49    0.95
   6   1   9   10.50    1.03
   6   1   9   10.09    0.96
   7   1   9    4.49    0.44
   7   1   9    3.38    0.38
   7   1   9    2.36    0.44
   8   1   9   -0.08    0.07
   5  -2  -9    0.18    0.16
   5  -2  -9    0.00    0.16
   4  -2  -9    0.09    0.30
   4  -2  -9   -0.22    0.18
   4  -2  -9    0.43    0.16
   4  -2  -9    0.56    0.29
   3  -2  -9    4.59    0.56
   3  -2  -9    4.72    0.54
   3  -2  -9    3.61    1.97
   3  -2  -9    4.31    0.57
   3  -2  -9    4.52    0.59
   3  -2  -9    4.22    0.92
   2  -2  -9    1.45    0.50
   2  -2  -9    1.85    0.36
   2  -2  -9    1.47    0.43
   2  -2  -9    1.98    0.27
   2  -2  -9    2.93    0.46
   2  -2  -9    2.28    0.66
   2  -2  -9    2.02    0.43
   2  -2  -9    2.44    1.33
   1  -2  -9    5.77    0.72
   1  -2  -9    4.33    0.56
   1  -2  -9    4.25    0.53
   1  -2  -9    4.40    0.68
   1  -2  -9    5.35    0.74
   1  -2  -9    3.62    0.53
   1  -2  -9    6.43    1.79
   0  -2  -9   24.53    3.78
   0  -2  -9   22.81    2.52
   0  -2  -9   23.04    2.70
  -1  -2  -9    1.65    0.48
  -1  -2  -9    3.06    1.59
  -1  -2  -9    1.93    0.43
  -2  -2  -9   14.59    2.87
  -2  -2  -9   14.22    1.80
  -2  -2  -9   16.14    1.72
  -3  -2  -9    5.32    0.79
  -3  -2  -9    4.28    0.67
   5   2   9    2.05    0.32
   6   2   9    0.15    0.19
   6   2   9    0.20    0.18
   7   2   9    1.91    0.33
   7   2   9    1.97    0.28
   8   2   9    7.74    0.71
   4  -3  -9    2.20    0.36
   4  -3  -9    1.89    0.39
   4  -3  -9    2.07    0.31
   3  -3  -9   37.29    3.12
   3  -3  -9   35.62    3.27
   3  -3  -9   37.07    3.33
   3  -3  -9   36.44    3.46
   2  -3  -9    2.12    1.60
   2  -3  -9    0.18    0.40
   2  -3  -9    0.73    0.34
   2  -3  -9    0.79    0.21
   2  -3  -9    0.68    0.27
   2  -3  -9    0.78    0.40
   2  -3  -9    1.15    0.23
   1  -3  -9    1.57    0.39
   1  -3  -9    1.67    0.74
   1  -3  -9    1.02    0.31
   1  -3  -9    1.06    0.47
   1  -3  -9    1.44    0.43
   1  -3  -9    1.63    0.38
   1  -3  -9    1.09    1.01
   1  -3  -9    0.84    0.35
   0  -3  -9    2.12    0.40
   0  -3  -9    1.88    0.41
   0  -3  -9    2.05    0.55
   0  -3  -9    4.16    1.68
   0  -3  -9    1.89    0.26
   0  -3  -9    2.70    0.59
   0  -3  -9    1.77    0.61
   0  -3  -9    1.56    0.30
   0  -3  -9    2.20    0.36
  -1  -3  -9    0.45    0.31
  -1  -3  -9    0.62    1.06
  -1  -3  -9    0.46    0.20
  -1  -3  -9    0.55    0.29
  -1  -3  -9    0.50    0.35
  -1  -3  -9    0.35    0.48
  -2  -3  -9    0.45    0.30
  -2  -3  -9    0.90    0.41
  -2  -3  -9    0.71    0.26
  -2  -3  -9    1.05    1.06
  -3  -3  -9    1.67    0.50
  -3  -3  -9    1.21    0.31
  -3  -3  -9    0.91    0.35
  -4  -3  -9    1.89    0.57
  -4  -3  -9    1.34    0.29
  -4  -3  -9    1.20    0.46
  -5  -3  -9    3.25    0.51
  -6  -3  -9    0.28    0.24
   6   3   9    0.49    0.17
  -7  -3  -9    0.08    0.20
   7   3   9    0.68    0.22
  -8  -3  -9    0.69    0.22
   8   3   9    1.17    0.19
   4  -4  -9    0.11    0.12
   4  -4  -9    0.38    0.18
   3  -4  -9    1.49    0.25
   3  -4  -9    2.11    0.37
   3  -4  -9    1.95    0.29
   3  -4  -9    0.70    0.50
   2  -4  -9    0.41    0.21
   2  -4  -9    0.14    0.29
   2  -4  -9    0.28    0.52
   2  -4  -9    0.17    0.24
   1  -4  -9    7.86    2.40
   1  -4  -9    4.70    0.44
   1  -4  -9    4.13    0.59
   1  -4  -9    4.18    0.61
   1  -4  -9    5.19    0.63
   1  -4  -9    5.67    1.12
   1  -4  -9    5.18    0.86
   0  -4  -9   56.63    5.37
   0  -4  -9   67.76    6.93
   0  -4  -9   63.83    6.80
   0  -4  -9   61.10    5.61
   0  -4  -9   66.29    5.82
  -1  -4  -9    3.47    0.48
  -1  -4  -9    3.37    0.59
  -1  -4  -9    2.85    0.41
  -1  -4  -9    2.90    0.73
  -1  -4  -9    2.70    0.43
  -1  -4  -9    2.21    0.45
  -1  -4  -9    2.63    0.57
  -1  -4  -9    2.18    0.59
  -1  -4  -9    2.46    1.85
  -2  -4  -9    0.21    0.28
  -2  -4  -9    0.03    0.34
  -2  -4  -9    0.41    0.30
  -2  -4  -9    0.30    0.34
  -2  -4  -9   -0.04    0.19
  -2  -4  -9   -0.30    0.24
  -2  -4  -9   -0.30    1.40
  -2  -4  -9   -0.25    0.49
  -2  -4  -9    0.32    0.18
  -3  -4  -9    1.32    1.31
  -3  -4  -9    1.32    0.27
  -3  -4  -9    1.61    0.47
  -3  -4  -9    1.67    0.58
  -3  -4  -9    0.39    0.52
  -3  -4  -9    0.97    0.27
  -3  -4  -9    0.96    0.34
  -3  -4  -9    0.88    0.31
  -4  -4  -9    0.59    0.44
  -4  -4  -9   -0.14    0.29
  -4  -4  -9    0.08    0.31
  -4  -4  -9    0.64    0.27
  -4  -4  -9    0.17    1.32
  -4  -4  -9   -0.15    0.48
  -5  -4  -9   -0.18    0.18
  -5  -4  -9    0.21    0.23
  -5  -4  -9   -0.01    0.53
  -6  -4  -9    0.38    0.30
  -7  -4  -9    1.75    0.36
   7   4   9    3.22    0.42
   3  -5  -9    0.89    0.26
   3  -5  -9    1.26    0.36
   2  -5  -9    0.40    0.55
   2  -5  -9   -0.33    0.29
   1  -5  -9    0.33    0.20
   1  -5  -9   -0.05    0.29
   1  -5  -9    0.19    0.57
   1  -5  -9    1.05    0.87
   0  -5  -9    0.93    0.51
   0  -5  -9    0.88    0.28
   0  -5  -9    0.96    1.47
   0  -5  -9    1.12    0.58
   0  -5  -9    1.17    0.32
  -1  -5  -9   12.11    1.18
  -1  -5  -9   14.23    1.58
  -1  -5  -9   15.15    1.62
  -1  -5  -9   13.43    3.29
  -1  -5  -9   11.37    1.31
  -1  -5  -9   12.86    1.35
  -1  -5  -9   11.14    1.27
  -1  -5  -9    9.67    1.02
  -1  -5  -9   10.42    1.17
  -2  -5  -9   -0.14    0.21
  -2  -5  -9    0.52    1.30
  -2  -5  -9    0.71    0.31
  -2  -5  -9    0.15    0.60
  -2  -5  -9   -0.22    0.38
  -2  -5  -9    0.28    0.26
  -2  -5  -9   -0.14    0.41
  -2  -5  -9    0.20    0.33
  -3  -5  -9    2.68    0.60
  -3  -5  -9    1.93    0.39
  -3  -5  -9    1.39    0.31
  -3  -5  -9    1.44    1.78
  -3  -5  -9    2.27    0.55
  -3  -5  -9    2.21    0.49
  -3  -5  -9    2.19    0.73
  -4  -5  -9    2.17    0.43
  -4  -5  -9    4.13    0.75
  -4  -5  -9    2.79    0.45
  -4  -5  -9    2.21    1.84
  -4  -5  -9    1.28    0.71
  -4  -5  -9    2.09    0.52
  -4  -5  -9    2.48    0.36
  -4  -5  -9    2.82    0.75
  -5  -5  -9    5.22    0.92
  -5  -5  -9    4.73    0.60
  -5  -5  -9    1.87    1.93
  -5  -5  -9    5.93    0.66
  -5  -5  -9    4.18    0.63
  -6  -5  -9    2.30    0.70
  -6  -5  -9    2.26    0.36
  -6  -5  -9    1.36    0.42
  -7  -5  -9    0.01    0.33
  -7  -5  -9   -0.08    0.20
  -7  -5  -9    0.13    0.20
  -8  -5  -9    0.18    0.10
   8   5   9    0.10    0.11
   2  -6  -9    3.59    0.61
   1  -6  -9    0.25    0.40
   1  -6  -9    0.67    0.32
   1  -6  -9    0.67    0.64
   0  -6  -9    0.29    0.60
   0  -6  -9    1.07    0.83
   0  -6  -9    0.70    0.23
  -1  -6  -9    2.88    0.84
  -1  -6  -9    1.44    0.31
  -1  -6  -9    2.28    0.74
  -1  -6  -9    1.69    0.45
  -1  -6  -9    1.47    0.30
  -2  -6  -9    0.39    0.31
  -2  -6  -9    0.23    0.59
  -2  -6  -9    0.35    1.55
  -2  -6  -9    0.81    0.57
  -2  -6  -9    0.16    0.42
  -3  -6  -9    0.37    0.49
  -3  -6  -9    0.84    0.47
  -3  -6  -9    0.59    1.70
  -3  -6  -9    0.18    0.24
  -3  -6  -9    0.24    0.30
  -3  -6  -9    0.69    0.39
  -4  -6  -9    1.07    0.55
  -4  -6  -9    0.78    0.29
  -4  -6  -9    0.96    0.35
  -4  -6  -9    1.00    0.59
  -5  -6  -9    3.06    0.65
  -5  -6  -9    3.84    0.55
  -5  -6  -9    3.69    0.50
  -5  -6  -9    5.53    0.92
  -6  -6  -9    1.45    0.38
  -6  -6  -9    2.00    0.52
  -6  -6  -9    1.39    0.39
  -6  -6  -9    1.98    0.37
  -7  -6  -9    0.78    0.28
  -7  -6  -9    0.18    0.34
  -7  -6  -9    0.55    0.23
  -8  -6  -9    0.14    0.19
   1  -7  -9   -0.03    0.13
   1  -7  -9   -0.25    0.27
   0  -7  -9    0.45    0.18
   0  -7  -9   -0.43    0.51
   0  -7  -9   -0.07    0.48
  -1  -7  -9    0.91    0.45
  -1  -7  -9    1.57    0.80
  -2  -7  -9    0.36    0.16
  -2  -7  -9    0.66    0.52
  -2  -7  -9   -0.40    0.39
  -2  -7  -9    0.49    0.43
  -3  -7  -9    1.89    0.48
  -3  -7  -9    2.92    0.68
  -3  -7  -9    1.68    0.35
  -3  -7  -9    2.07    0.55
  -4  -7  -9    0.64    0.31
  -4  -7  -9   -0.09    0.47
  -4  -7  -9    1.34    0.51
  -5  -7  -9    0.31    0.21
  -5  -7  -9   -0.15    0.39
  -5  -7  -9    0.62    0.44
  -5  -7  -9    0.14    0.18
  -6  -7  -9    0.14    0.17
  -6  -7  -9   -0.24    0.52
  -6  -7  -9   -0.21    0.24
  -6  -7  -9    0.27    0.32
  -7  -7  -9    0.54    0.16
  -7  -7  -9    0.66    0.44
  -7  -7  -9    0.33    0.18
  -1  -8  -9    0.53    0.51
  -1  -8  -9    0.78    0.33
  -2  -8  -9    0.36    0.44
  -2  -8  -9    0.11    0.29
  -3  -8  -9   -0.49    0.38
  -3  -8  -9   -0.10    0.40
  -4  -8  -9   -0.02    0.38
  -4  -8  -9    0.05    0.12
  -4  -8  -9   -0.08    0.34
  -5  -8  -9   -0.03    0.34
  -5  -8  -9    0.02    0.16
  -5  -8  -9    0.20    0.22
  -6  -8  -9    0.30    0.15
  -6  -8  -9    0.48    0.28
  -3  -9  -9    0.13    0.29
  -4  -9  -9    4.35    0.67
  -4  -8  10    0.17    0.19
  -4  -8  10    0.01    0.06
  -3  -8  10    0.63    0.19
  -3  -8  10    1.03    0.26
  -2  -8  10    1.19    0.25
  -2  -8  10    1.43    0.20
  -1  -8  10    0.31    0.12
  -1  -8  10    0.63    0.20
   0  -8  10    0.20    0.15
   0  -8  10    0.06    0.10
  -5  -7  10    0.11    0.27
  -5  -7  10    0.59    0.14
  -4  -7  10    0.02    0.12
  -4  -7  10    0.34    0.26
  -3  -7  10    0.10    0.28
  -3  -7  10    0.10    0.16
  -3  -7  10    0.05    0.11
  -2  -7  10   -0.18    0.35
  -2  -7  10    0.07    0.16
  -2  -7  10    0.14    0.13
  -2  -7  10   -0.05    0.26
  -1  -7  10    0.05    0.20
  -1  -7  10    0.08    0.06
  -1  -7  10    0.23    0.15
   0  -7  10   -0.03    0.20
   0  -7  10   -0.07    0.14
   0  -7  10    0.06    0.12
   1  -7  10    0.56    0.22
   1  -7  10    0.98    0.16
   1  -7  10    0.41    0.17
   2  -7  10    2.32    0.25
   2  -7  10    2.16    0.30
  -6  -6  10    1.08    0.23
  -6  -6  10    1.00    0.19
  -5  -6  10    0.40    0.17
  -5  -6  10    0.45    0.20
  -5  -6  10    0.36    0.24
  -4  -6  10    0.61    0.21
  -4  -6  10   -0.01    0.37
  -4  -6  10    0.72    0.25
  -3  -6  10    0.62    0.43
  -3  -6  10    0.26    0.17
  -3  -6  10    0.37    0.18
  -3  -6  10    0.64    0.21
  -2  -6  10   18.99    1.99
  -2  -6  10   18.33    1.99
  -2  -6  10   20.26    1.73
  -2  -6  10   19.11    1.63
  -2  -6  10   17.20    1.87
  -1  -6  10    0.14    0.16
  -1  -6  10    0.18    0.23
  -1  -6  10    0.37    0.23
   0  -6  10    2.28    0.49
   0  -6  10    2.22    0.35
   0  -6  10    2.29    0.32
   0  -6  10    2.42    0.30
   1  -6  10   -0.17    0.21
   1  -6  10    0.10    0.24
   1  -6  10    0.16    0.15
   2  -6  10    1.08    0.24
   2  -6  10    0.93    0.23
   3  -6  10    0.21    0.16
   3  -6  10    0.26    0.20
  -6  -5  10    1.21    0.27
  -6  -5  10    1.63    0.28
  -6  -5  10    1.43    0.20
  -5  -5  10    1.18    0.21
  -5  -5  10    2.03    0.36
  -5  -5  10    1.30    0.25
  -4  -5  10    3.65    0.50
  -4  -5  10    3.82    0.43
  -4  -5  10    3.44    0.43
  -3  -5  10    1.99    0.33
  -3  -5  10    2.03    0.28
  -3  -5  10    1.61    0.68
  -3  -5  10    2.21    0.38
  -3  -5  10    1.56    0.51
  -3  -5  10    2.93    0.38
  -2  -5  10    0.47    0.40
  -2  -5  10    1.37    0.40
  -2  -5  10    1.52    0.28
  -2  -5  10    1.45    0.31
  -2  -5  10    1.42    0.24
  -1  -5  10    0.32    0.28
  -1  -5  10    0.76    0.16
  -1  -5  10    0.36    0.28
  -1  -5  10    1.14    0.44
  -1  -5  10    0.78    0.24
  -1  -5  10    1.08    0.21
  -1  -5  10    0.70    0.33
  -1  -5  10    0.67    0.15
   0  -5  10    0.27    0.22
   0  -5  10    0.03    0.19
   0  -5  10    0.46    0.19
   0  -5  10    0.15    0.32
   0  -5  10    0.17    0.09
   0  -5  10    0.28    0.24
   1  -5  10    3.51    0.42
   1  -5  10    3.06    0.47
   1  -5  10    3.15    0.57
   1  -5  10    3.30    0.36
   2  -5  10    2.00    0.27
   2  -5  10    1.91    0.24
   2  -5  10    1.26    0.40
   2  -5  10    2.72    0.41
   3  -5  10   12.36    1.08
   3  -5  10   11.21    1.23
   4  -5  10    0.82    0.19
   4  -5  10    0.75    0.15
   6   4 -10    0.34    0.22
  -6  -4  10    0.31    0.14
  -5  -4  10   11.38    1.18
  -4  -4  10   28.59    2.64
  -4  -4  10   31.26    2.94
  -3  -4  10    4.12    0.49
  -3  -4  10    4.24    0.93
  -3  -4  10    3.36    0.80
  -3  -4  10    4.00    0.45
  -3  -4  10    3.63    0.53
  -2  -4  10    0.76    0.21
  -2  -4  10    0.71    0.25
  -2  -4  10    0.79    0.18
  -2  -4  10    0.75    0.46
  -2  -4  10    0.67    0.22
  -2  -4  10    0.16    0.35
  -2  -4  10    0.32    0.42
  -2  -4  10    0.11    0.26
  -1  -4  10    5.87    0.67
  -1  -4  10    4.92    0.90
  -1  -4  10    5.94    0.57
  -1  -4  10    4.85    0.52
  -1  -4  10    6.18    0.56
  -1  -4  10    5.09    0.74
  -1  -4  10    5.26    0.85
  -1  -4  10    5.17    0.78
   0  -4  10    9.37    0.78
   0  -4  10    9.35    1.01
   0  -4  10    6.61    1.09
   0  -4  10    8.31    0.79
   0  -4  10    9.46    0.83
   0  -4  10    7.75    1.11
   0  -4  10    8.08    0.92
   1  -4  10    0.54    0.40
   1  -4  10    1.68    0.21
   1  -4  10    1.68    0.33
   1  -4  10    1.71    0.25
   1  -4  10    1.48    0.23
   1  -4  10    1.86    0.36
   2  -4  10    2.73    0.37
   2  -4  10    3.35    0.45
   2  -4  10    2.75    0.34
   2  -4  10    2.43    0.37
   2  -4  10    2.76    0.51
   2  -4  10    3.05    0.66
   3  -4  10    0.20    0.21
   3  -4  10    0.35    0.13
   3  -4  10    0.48    0.17
   3  -4  10    0.76    0.25
   4  -4  10    0.67    0.18
   4  -4  10    0.99    0.19
   4  -4  10    0.67    0.31
   4  -4  10    0.54    0.12
   5  -4  10    6.72    0.64
   5  -4  10    7.26    0.75
   6   3 -10    1.77    0.28
  -6  -3  10    2.05    0.30
   5   3 -10    1.56    0.33
  -5  -3  10    2.26    0.32
  -4  -3  10    0.18    0.17
  -3  -3  10    8.48    0.91
  -2  -3  10    4.02    0.48
  -2  -3  10    3.00    0.76
  -2  -3  10    4.33    0.84
  -2  -3  10    4.19    0.49
  -1  -3  10    8.22    0.81
  -1  -3  10    8.70    1.08
  -1  -3  10    9.98    1.20
  -1  -3  10    8.11    0.84
  -1  -3  10    8.99    0.88
  -1  -3  10    8.25    1.16
   0  -3  10   -0.10    0.28
   0  -3  10    0.45    0.14
   0  -3  10    0.22    0.18
   0  -3  10    0.39    0.13
   0  -3  10    0.51    0.17
   0  -3  10    0.60    0.30
   0  -3  10    0.57    0.34
   1  -3  10    6.84    0.76
   1  -3  10    6.05    0.57
   1  -3  10    5.79    0.67
   1  -3  10    6.33    0.59
   1  -3  10    5.86    0.83
   1  -3  10    5.90    0.60
   1  -3  10    6.62    0.89
   1  -3  10    4.95    0.56
   1  -3  10    5.06    0.82
   2  -3  10    5.51    1.00
   2  -3  10    6.70    1.00
   2  -3  10    8.40    0.87
   2  -3  10    8.98    0.77
   2  -3  10    7.78    0.74
   2  -3  10    6.31    1.03
   2  -3  10    8.34    0.71
   2  -3  10    7.60    0.74
   2  -3  10    8.60    0.94
   3  -3  10    1.36    0.29
   3  -3  10    1.08    0.17
   3  -3  10    1.05    0.44
   3  -3  10    1.27    0.23
   3  -3  10    1.08    0.22
   3  -3  10    1.03    0.25
   4  -3  10    2.89    0.39
   4  -3  10    3.99    0.51
   4  -3  10    2.77    0.38
   4  -3  10    3.17    0.41
   5  -3  10    3.90    0.50
   5  -3  10    3.66    0.41
   5  -3  10    3.92    0.41
   6  -3  10   17.62    1.53
   6   2 -10    0.59    0.21
   6   2 -10    0.39    0.15
   6   2 -10    0.60    0.24
   5   2 -10    0.21    0.18
   4   2 -10    1.96    0.35
  -3  -2  10   11.27    1.20
  -2  -2  10    5.28    0.61
  -1  -2  10   11.81    1.38
  -1  -2  10   13.16    1.53
  -1  -2  10   11.16    1.18
  -1  -2  10   11.47    1.47
   0  -2  10    7.19    1.02
   0  -2  10    6.96    0.74
   0  -2  10    6.22    0.97
   0  -2  10    8.40    0.93
   1  -2  10   12.71    1.12
   1  -2  10   11.64    1.49
   1  -2  10   12.60    1.25
   1  -2  10   15.51    1.64
   1  -2  10   12.94    1.50
   1  -2  10   11.81    1.28
   2  -2  10   11.81    1.14
   2  -2  10   11.44    1.49
   2  -2  10   11.13    1.18
   2  -2  10   12.38    1.43
   2  -2  10   11.63    1.43
   2  -2  10   11.63    1.09
   2  -2  10   10.87    1.05
   2  -2  10   11.93    1.04
   3  -2  10    0.06    0.08
   3  -2  10    0.11    0.17
   3  -2  10    0.02    0.22
   3  -2  10   -0.07    0.27
   3  -2  10   -0.02    0.17
   3  -2  10    0.05    0.13
   3  -2  10    0.10    0.29
   3  -2  10    0.08    0.14
   3  -2  10   -0.03    0.28
   4  -2  10    0.85    0.41
   4  -2  10    1.77    0.38
   4  -2  10    2.03    0.30
   4  -2  10    1.66    0.24
   4  -2  10    1.73    0.29
   5  -2  10    8.24    0.84
   5  -2  10    9.03    0.78
   5  -2  10    9.34    1.00
   5  -2  10    8.39    0.87
   6  -2  10    4.99    0.54
   6  -2  10    6.31    0.57
   6  -2  10    5.48    0.65
   6   1 -10    4.88    0.54
   6   1 -10    4.32    0.51
   5   1 -10    2.25    0.35
   5   1 -10    1.71    0.31
   4   1 -10    6.12    0.69
   4   1 -10    5.14    0.62
   4   1 -10    3.33    0.93
   3   1 -10    0.22    0.26
   0  -1  10    6.50    0.93
   0  -1  10    6.94    0.98
   0  -1  10    6.53    0.83
   1  -1  10    8.60    1.12
   1  -1  10    7.95    0.98
   1  -1  10    7.18    1.02
   2  -1  10    6.26    0.66
   2  -1  10    6.55    0.85
   2  -1  10    6.92    0.97
   2  -1  10    6.55    0.93
   3  -1  10   43.99    3.81
   3  -1  10   43.23    3.67
   3  -1  10   40.73    4.73
   3  -1  10   45.35    4.11
   3  -1  10   41.10    4.83
   3  -1  10   39.18    4.55
   4  -1  10    3.76    0.72
   4  -1  10    1.99    0.66
   4  -1  10    3.32    0.41
   4  -1  10    3.29    0.78
   4  -1  10    2.78    0.35
   4  -1  10    3.41    0.38
   4  -1  10    3.47    0.43
   5  -1  10    1.02    0.29
   5  -1  10    1.13    0.27
   5  -1  10    1.21    0.23
   5  -1  10    1.60    0.37
   6  -1  10    0.37    0.21
   6  -1  10    0.03    0.20
   6  -1  10   -0.08    0.25
   6  -1  10   -0.09    0.12
   7  -1  10    1.03    0.16
   6   0 -10    0.35    0.09
   6   0 -10    0.36    0.17
   6   0 -10    0.27    0.15
   5   0 -10    3.98    0.50
   5   0 -10    3.23    0.50
   5   0 -10    3.80    0.48
   4   0 -10    1.11    0.26
   4   0 -10    1.47    0.32
   3   0 -10    5.90    0.66
   3   0 -10    5.45    0.65
   3   0 -10    3.22    0.89
   3   0 -10    5.48    0.65
   3   0 -10    3.56    0.84
   2   0 -10    8.43    1.16
   2   0 -10    7.27    0.97
   2   0 -10   11.48    1.31
   1   0 -10    0.17    0.67
   1   0 -10   -0.18    0.34
   1   0 -10    0.19    0.32
   0   0 -10    2.65    0.57
   0   0 -10    0.58    0.89
   0   0 -10    2.02    0.51
   0   0  10    2.25    0.34
  -1   0 -10    5.13    1.66
   1   0  10    6.73    0.85
   1   0  10    7.04    0.92
   1   0  10    7.24    1.00
   2   0  10    8.75    1.19
   2   0  10    9.42    1.16
   2   0  10   10.33    1.30
   3   0  10    3.61    0.41
   3   0  10    3.14    0.43
   3   0  10    4.20    0.69
   3   0  10    2.79    0.73
   3   0  10    3.87    0.74
   4   0  10    0.29    0.12
   4   0  10    0.23    0.37
   4   0  10    0.33    0.20
   4   0  10    0.41    0.34
   4   0  10   -0.11    0.42
   5   0  10    0.96    0.23
   5   0  10    0.79    0.20
   5   0  10    0.79    0.18
   5   0  10    0.38    0.46
   5   0  10    0.68    0.27
   6   0  10   15.19    1.56
   6   0  10   15.21    1.34
   6   0  10   14.98    1.43
   6   0  10   14.34    1.35
   7   0  10    0.87    0.23
   7   0  10    0.55    0.23
   7   0  10    0.89    0.18
   7   0  10    1.10    0.17
   5  -1 -10    0.39    0.17
   5  -1 -10    0.48    0.29
   5  -1 -10    0.69    0.22
   4  -1 -10   -0.04    0.34
   4  -1 -10    0.12    0.20
   4  -1 -10    0.30    0.21
   3  -1 -10    1.03    0.22
   3  -1 -10    1.29    0.34
   3  -1 -10    0.89    0.31
   3  -1 -10    0.93    0.49
   3  -1 -10    1.21    0.30
   2  -1 -10    1.90    0.39
   2  -1 -10    1.81    0.33
   2  -1 -10    2.11    0.65
   2  -1 -10    1.67    0.41
   2  -1 -10    0.83    0.46
   2  -1 -10    1.75    0.95
   2  -1 -10    1.69    0.51
   2  -1 -10    1.65    0.44
   1  -1 -10    4.96    0.75
   1  -1 -10    7.32    1.01
   1  -1 -10    7.27    1.79
   1  -1 -10    7.22    0.91
   0  -1 -10   42.27    6.23
   0  -1 -10   45.06    4.90
   0  -1 -10   42.71    4.59
  -1  -1 -10    1.90    1.30
  -1  -1 -10    1.21    0.39
  -1  -1 -10    1.42    0.42
   4   1  10    2.10    0.32
   5   1  10   -0.04    0.21
   5   1  10    0.11    0.17
   6   1  10    0.28    0.22
   6   1  10    0.57    0.18
   6   1  10    0.38    0.21
   7   1  10    3.21    0.37
   7   1  10    2.38    0.30
   7   1  10    2.08    0.38
   5  -2 -10    0.70    0.17
   5  -2 -10    0.67    0.18
   4  -2 -10   10.62    1.04
   4  -2 -10   10.30    0.93
   4  -2 -10   10.96    1.02
   4  -2 -10    9.47    1.08
   3  -2 -10    4.06    0.59
   3  -2 -10    4.14    0.58
   3  -2 -10    4.40    0.54
   3  -2 -10    3.56    0.52
   2  -2 -10    0.72    1.02
   2  -2 -10    0.61    0.23
   2  -2 -10    0.64    0.35
   2  -2 -10    0.77    0.39
   2  -2 -10    0.73    0.15
   2  -2 -10    0.69    0.36
   2  -2 -10    1.01    0.48
   2  -2 -10    0.93    0.41
   2  -2 -10    0.75    0.31
   1  -2 -10   -0.82    0.33
   1  -2 -10   -0.18    0.45
   1  -2 -10   -0.28    0.24
   1  -2 -10    0.25    0.25
   1  -2 -10    0.13    0.19
   1  -2 -10   -0.02    0.74
   0  -2 -10    4.79    0.62
   0  -2 -10    8.84    2.07
   0  -2 -10    4.35    0.61
   0  -2 -10    5.34    0.66
  -1  -2 -10    0.21    0.30
  -1  -2 -10    0.79    1.00
  -1  -2 -10    0.02    0.33
  -2  -2 -10   24.38    2.85
  -2  -2 -10   22.91    4.05
  -2  -2 -10   25.52    2.70
   5   2  10    2.63    0.37
   6   2  10    1.92    0.30
   7   2  10    0.48    0.17
   7   2  10    0.41    0.18
   8   2  10    0.40    0.13
   4  -3 -10    0.07    0.22
   4  -3 -10    0.16    0.14
   4  -3 -10    0.20    0.19
   3  -3 -10    0.40    0.31
   3  -3 -10    0.08    0.32
   3  -3 -10    0.44    0.19
   2  -3 -10    3.83    0.58
   2  -3 -10    4.91    0.53
   2  -3 -10    3.86    0.49
   2  -3 -10    5.00    0.60
   2  -3 -10    3.91    0.72
   2  -3 -10    6.58    1.99
   1  -3 -10    2.34    0.46
   1  -3 -10    1.99    0.46
   1  -3 -10    1.64    0.47
   1  -3 -10    2.21    0.35
   1  -3 -10    2.31    1.60
   1  -3 -10    2.61    0.61
   1  -3 -10    1.46    0.53
   1  -3 -10    2.44    0.78
   0  -3 -10    1.26    0.37
   0  -3 -10    1.63    0.40
   0  -3 -10    2.10    0.56
   0  -3 -10    1.01    0.28
   0  -3 -10    1.17    0.22
   0  -3 -10    1.93    0.57
   0  -3 -10    1.49    0.38
   0  -3 -10    0.42    1.39
  -1  -3 -10    6.19    0.88
  -1  -3 -10    4.31    0.62
  -1  -3 -10    4.74    0.67
  -1  -3 -10    7.24    0.80
  -1  -3 -10    5.49    0.67
  -1  -3 -10    7.08    2.25
  -2  -3 -10    1.85    0.50
  -2  -3 -10    0.96    0.28
  -2  -3 -10    1.39    0.38
  -2  -3 -10    2.10    0.34
  -2  -3 -10    2.28    0.48
  -2  -3 -10    0.53    1.49
  -3  -3 -10    0.73    0.29
  -3  -3 -10    0.73    0.36
  -3  -3 -10    0.50    0.32
  -3  -3 -10    0.48    0.40
  -3  -3 -10    1.39    1.17
  -4  -3 -10    1.00    0.27
  -5  -3 -10    0.34    0.30
  -6  -3 -10    2.30    0.45
  -7  -3 -10    0.06    0.30
   7   3  10    0.21    0.20
   8   3  10    4.33    0.40
   8   3  10    3.47    0.43
   8   3  10    2.94    0.43
   3  -4 -10    2.72    0.33
   3  -4 -10    2.51    0.42
   3  -4 -10    2.61    0.33
   2  -4 -10    1.13    0.32
   2  -4 -10    1.02    0.54
   2  -4 -10    1.02    0.30
   1  -4 -10   15.46    1.58
   1  -4 -10   16.06    1.65
   1  -4 -10   16.83    1.44
   1  -4 -10   18.88    2.05
   1  -4 -10   14.44    2.18
   1  -4 -10   21.76    3.42
   0  -4 -10    8.95    1.03
   0  -4 -10    7.96    1.02
   0  -4 -10    9.31    1.41
   0  -4 -10   11.73    1.23
   0  -4 -10    8.88    1.11
   0  -4 -10    8.67    0.88
   0  -4 -10   10.36    1.37
   0  -4 -10   11.12    2.75
  -1  -4 -10    0.44    0.54
  -1  -4 -10    1.03    1.65
  -1  -4 -10   -0.12    0.25
  -1  -4 -10    0.41    0.45
  -1  -4 -10    0.14    0.22
  -1  -4 -10    0.07    0.31
  -1  -4 -10   -0.16    0.50
  -1  -4 -10    0.63    0.34
  -2  -4 -10    3.01    0.75
  -2  -4 -10    3.12    0.48
  -2  -4 -10    2.45    0.51
  -2  -4 -10    2.58    0.37
  -2  -4 -10    2.28    0.59
  -2  -4 -10    3.43    0.49
  -2  -4 -10    4.20    0.61
  -2  -4 -10    3.19    1.96
  -3  -4 -10    5.36    0.72
  -3  -4 -10    3.10    0.53
  -3  -4 -10    3.50    0.55
  -3  -4 -10    5.75    0.80
  -3  -4 -10    6.51    2.35
  -3  -4 -10    3.75    0.55
  -4  -4 -10    3.11    0.72
  -4  -4 -10    4.48    0.60
  -4  -4 -10    4.18    0.58
  -4  -4 -10    4.46    1.84
  -4  -4 -10    5.35    0.94
  -5  -4 -10    3.04    0.46
  -5  -4 -10    2.55    0.49
  -6  -4 -10    0.63    0.32
  -7  -4 -10   -0.04    0.27
   7   4  10    0.00    0.13
  -8  -4 -10    1.79    0.27
   3  -5 -10    0.80    0.22
   2  -5 -10    1.44    0.37
   2  -5 -10    1.27    0.42
   1  -5 -10    1.52    0.65
   1  -5 -10    2.48    0.68
   1  -5 -10    1.12    0.38
   1  -5 -10    1.55    0.30
   0  -5 -10    2.20    0.44
   0  -5 -10    2.98    0.71
   0  -5 -10    2.91    0.45
   0  -5 -10    1.59    0.69
  -1  -5 -10   13.79    1.79
  -1  -5 -10   16.03    1.89
  -1  -5 -10   13.60    1.42
  -1  -5 -10   15.61    1.44
  -1  -5 -10   13.19    1.26
  -1  -5 -10   20.98    3.62
  -2  -5 -10    2.39    0.55
  -2  -5 -10    4.10    2.27
  -2  -5 -10    2.44    0.46
  -2  -5 -10    1.97    0.70
  -2  -5 -10    1.54    0.46
  -2  -5 -10    2.67    0.41
  -2  -5 -10    2.60    0.39
  -2  -5 -10    2.78    0.79
  -2  -5 -10    3.32    0.58
  -3  -5 -10    0.91    1.77
  -3  -5 -10    1.65    0.50
  -3  -5 -10    1.75    0.56
  -3  -5 -10    1.87    0.50
  -3  -5 -10    1.52    0.32
  -3  -5 -10    1.25    0.37
  -3  -5 -10    1.01    0.42
  -4  -5 -10    0.25    0.25
  -4  -5 -10    2.23    1.93
  -4  -5 -10    0.58    0.22
  -4  -5 -10    0.95    0.60
  -4  -5 -10    0.83    0.34
  -5  -5 -10    2.44    0.45
  -5  -5 -10    3.23    0.64
  -5  -5 -10    3.12    0.50
  -5  -5 -10    3.17    0.42
  -6  -5 -10    3.96    0.51
  -6  -5 -10    3.21    0.48
  -7  -5 -10    0.29    0.15
  -7  -5 -10    0.39    0.31
  -8  -5 -10    0.04    0.10
   8   5  10   -0.11    0.09
   2  -6 -10    0.54    0.19
   2  -6 -10    0.05    0.24
   1  -6 -10    0.20    0.21
   1  -6 -10    0.41    0.51
   0  -6 -10    0.70    0.45
   0  -6 -10    0.67    0.79
   0  -6 -10    0.47    0.11
   0  -6 -10    0.70    0.22
  -1  -6 -10    0.71    0.50
  -1  -6 -10    0.52    0.28
  -1  -6 -10    0.70    0.48
  -1  -6 -10    0.76    0.26
  -2  -6 -10    0.23    0.65
  -2  -6 -10    0.21    0.31
  -2  -6 -10    0.13    0.32
  -2  -6 -10    0.07    0.43
  -3  -6 -10    0.11    0.60
  -3  -6 -10    0.51    0.38
  -3  -6 -10   -0.10    0.58
  -3  -6 -10    0.35    0.23
  -3  -6 -10    0.45    0.32
  -4  -6 -10    4.70    0.78
  -4  -6 -10    4.61    0.79
  -4  -6 -10    3.83    0.51
  -4  -6 -10    3.28    0.55
  -5  -6 -10    1.47    0.39
  -5  -6 -10    1.93    0.60
  -5  -6 -10    1.90    0.37
  -5  -6 -10    1.75    0.54
  -6  -6 -10    0.14    0.50
  -6  -6 -10    0.23    0.42
  -6  -6 -10    0.27    0.32
  -6  -6 -10    0.14    0.20
  -7  -6 -10    0.51    0.30
  -7  -6 -10    0.68    0.28
   0  -7 -10    0.37    0.35
   0  -7 -10    0.15    0.15
   0  -7 -10    0.29    0.52
  -1  -7 -10    0.61    0.55
  -1  -7 -10    0.76    0.69
  -2  -7 -10    0.28    0.14
  -2  -7 -10    0.14    0.46
  -2  -7 -10    0.41    0.57
  -3  -7 -10    0.06    0.25
  -3  -7 -10    0.50    0.29
  -3  -7 -10    0.24    0.60
  -3  -7 -10   -0.24    0.51
  -4  -7 -10    1.37    0.64
  -4  -7 -10    1.46    0.34
  -4  -7 -10    1.00    0.42
  -5  -7 -10    0.54    0.28
  -5  -7 -10    0.42    0.14
  -5  -7 -10    0.41    0.51
  -5  -7 -10    0.79    0.33
  -6  -7 -10    1.25    0.26
  -6  -7 -10    0.85    0.19
  -6  -7 -10    0.99    0.38
  -6  -7 -10    1.19    0.30
  -7  -7 -10    0.27    0.23
  -7  -7 -10    0.39    0.14
  -1  -8 -10    0.17    0.41
  -1  -8 -10    1.76    0.35
  -2  -8 -10    0.28    0.28
  -2  -8 -10    0.36    0.38
  -3  -8 -10    0.79    0.41
  -3  -8 -10    0.67    0.33
  -4  -8 -10    0.28    0.36
  -4  -8 -10    0.20    0.25
  -4  -8 -10    0.70    0.14
  -5  -8 -10    0.28    0.16
  -5  -8 -10    0.12    0.43
  -5  -8 -10    0.39    0.23
  -6  -8 -10    0.22    0.12
  -6  -8 -10    0.11    0.25
  -3  -8  11   -0.01    0.10
  -2  -8  11   -0.07    0.12
  -1  -8  11   -0.11    0.14
  -1  -8  11    0.04    0.09
  -5  -7  11    0.20    0.10
  -5  -7  11    0.16    0.18
  -4  -7  11    0.80    0.26
  -4  -7  11    0.81    0.18
  -3  -7  11    1.52    0.27
  -3  -7  11    0.65    0.37
  -3  -7  11    1.45    0.22
  -2  -7  11    0.39    0.25
  -2  -7  11    0.66    0.15
  -2  -7  11    0.08    0.32
  -1  -7  11    0.01    0.18
  -1  -7  11   -0.04    0.12
  -1  -7  11    0.12    0.07
   0  -7  11    0.33    0.21
   0  -7  11    0.26    0.20
   1  -7  11    0.39    0.11
   1  -7  11    0.27    0.14
   1  -7  11    0.29    0.18
   2  -7  11    0.15    0.12
  -5  -6  11    0.43    0.21
  -5  -6  11    0.76    0.23
  -5  -6  11    0.61    0.19
  -4  -6  11   -0.13    0.20
  -4  -6  11    0.08    0.24
  -4  -6  11    0.06    0.19
  -3  -6  11    0.60    0.17
  -3  -6  11    0.98    0.26
  -3  -6  11    1.05    0.32
  -3  -6  11    0.61    0.21
  -2  -6  11    6.66    0.62
  -2  -6  11    6.47    0.80
  -2  -6  11    7.65    0.71
  -2  -6  11    6.35    0.82
  -1  -6  11    0.95    0.27
  -1  -6  11    1.56    0.33
  -1  -6  11    1.58    0.24
   0  -6  11    1.29    0.23
   0  -6  11    1.53    0.22
   0  -6  11    0.89    0.27
   0  -6  11    1.43    0.40
   1  -6  11    1.79    0.29
   1  -6  11    1.66    0.27
   1  -6  11    1.68    0.41
   2  -6  11    3.80    0.52
   2  -6  11    4.19    0.42
   3  -6  11    0.85    0.18
   3  -6  11    1.10    0.20
  -6  -5  11    0.09    0.13
  -6  -5  11    0.05    0.16
  -5  -5  11    0.20    0.22
  -5  -5  11    0.18    0.23
  -5  -5  11    0.17    0.13
  -4  -5  11    2.15    0.47
  -4  -5  11    2.05    0.28
  -4  -5  11    2.59    0.33
  -3  -5  11    4.13    0.49
  -3  -5  11    4.62    0.64
  -3  -5  11    4.34    0.53
  -3  -5  11    4.58    0.57
  -3  -5  11    3.72    0.43
  -2  -5  11    5.61    0.63
  -2  -5  11    6.04    0.73
  -2  -5  11    5.98    0.86
  -2  -5  11    6.61    0.62
  -1  -5  11    3.08    0.55
  -1  -5  11    4.60    0.49
  -1  -5  11    3.33    0.48
  -1  -5  11    4.45    0.44
   0  -5  11    4.22    0.39
   0  -5  11    3.34    0.61
   0  -5  11    4.47    0.48
   0  -5  11    3.81    0.44
   0  -5  11    3.80    0.48
   1  -5  11    4.37    0.58
   1  -5  11    3.18    0.45
   1  -5  11    3.12    0.41
   2  -5  11    2.45    0.28
   2  -5  11    1.64    0.37
   2  -5  11    1.59    0.36
   3  -5  11    0.31    0.18
   3  -5  11    0.03    0.13
   4  -5  11    0.94    0.15
   4  -5  11    1.08    0.22
   6   4 -11    1.89    0.34
  -6  -4  11    3.02    0.38
  -6  -4  11    2.85    0.32
  -5  -4  11    3.97    0.47
  -4  -4  11    3.64    0.48
  -4  -4  11    4.48    0.52
  -3  -4  11   -0.02    0.22
  -3  -4  11    0.01    0.22
  -3  -4  11    0.50    0.60
  -3  -4  11    0.16    0.18
  -2  -4  11    5.57    0.61
  -2  -4  11    5.67    0.55
  -2  -4  11    5.68    0.59
  -2  -4  11    4.49    1.02
  -2  -4  11    4.01    0.90
  -2  -4  11    5.80    0.68
  -2  -4  11    3.82    0.89
  -1  -4  11    3.19    0.40
  -1  -4  11    2.76    0.54
  -1  -4  11    2.80    0.34
  -1  -4  11    2.83    0.43
  -1  -4  11    3.01    0.35
  -1  -4  11    1.42    0.52
   0  -4  11    8.93    0.84
   0  -4  11    6.64    1.09
   0  -4  11    8.47    0.90
   0  -4  11    6.01    1.05
   0  -4  11    7.88    0.79
   0  -4  11   10.43    1.02
   0  -4  11   10.26    0.80
   1  -4  11    9.15    0.95
   1  -4  11   10.66    1.17
   1  -4  11   10.83    0.93
   1  -4  11    9.56    1.31
   1  -4  11   11.04    0.99
   1  -4  11   10.73    1.11
   2  -4  11    3.75    0.57
   2  -4  11    4.13    0.56
   2  -4  11    3.73    0.42
   2  -4  11    4.13    0.36
   2  -4  11    3.89    0.44
   3  -4  11    0.72    0.18
   3  -4  11    0.99    0.20
   3  -4  11    1.50    0.30
   4  -4  11    1.60    0.22
   4  -4  11    1.52    0.33
   4  -4  11    1.21    0.18
   5  -4  11    1.04    0.15
   5  -4  11    0.77    0.17
   6   3 -11    1.96    0.30
  -6  -3  11    2.20    0.30
   5   3 -11    0.35    0.28
  -5  -3  11    0.74    0.25
  -4  -3  11    0.57    0.24
  -3  -3  11   39.69    3.85
  -2  -3  11    2.32    0.33
  -2  -3  11    0.94    0.51
  -2  -3  11    1.18    0.55
  -2  -3  11    2.07    0.29
  -1  -3  11    6.76    0.96
  -1  -3  11    7.98    0.79
  -1  -3  11    8.06    0.74
  -1  -3  11    6.29    1.06
  -1  -3  11    7.11    1.07
  -1  -3  11    7.68    0.76
   0  -3  11    1.09    0.24
   0  -3  11    0.73    0.36
   0  -3  11    0.46    0.35
   0  -3  11    0.64    0.20
   0  -3  11   -0.12    0.30
   0  -3  11    0.89    0.20
   0  -3  11    0.67    0.16
   1  -3  11   13.65    1.22
   1  -3  11   10.60    1.49
   1  -3  11   12.90    1.12
   1  -3  11   13.77    1.17
   1  -3  11   14.43    1.39
   1  -3  11    9.40    1.50
   1  -3  11    9.37    1.52
   1  -3  11   13.10    1.29
   2  -3  11   14.16    1.15
   2  -3  11   12.94    1.33
   2  -3  11   12.55    1.39
   2  -3  11   11.05    1.15
   2  -3  11   11.60    1.60
   2  -3  11   14.32    1.20
   3  -3  11   -0.02    0.19
   3  -3  11    0.57    0.13
   3  -3  11    0.31    0.19
   3  -3  11    0.35    0.41
   3  -3  11    0.76    0.31
   3  -3  11    0.52    0.16
   4  -3  11    1.02    0.33
   4  -3  11    0.91    0.20
   4  -3  11    1.41    0.24
   5  -3  11    3.61    0.40
   5  -3  11    4.22    0.41
   5  -3  11    3.69    0.49
   6   2 -11    1.70    0.25
   6   2 -11    1.17    0.23
   5   2 -11    4.06    0.56
   4   2 -11    0.22    0.28
  -3  -2  11    0.24    0.22
  -2  -2  11    0.73    0.22
  -1  -2  11    0.58    0.44
  -1  -2  11    0.47    0.15
  -1  -2  11    0.37    0.40
   0  -2  11    7.92    1.10
   0  -2  11    7.36    0.79
   0  -2  11    7.79    0.74
   0  -2  11    6.57    1.05
   0  -2  11    8.40    0.99
   1  -2  11    0.67    0.37
   1  -2  11    0.23    0.35
   1  -2  11    0.62    0.19
   1  -2  11    0.69    0.33
   1  -2  11    0.68    0.16
   1  -2  11    0.61    0.20
   1  -2  11    0.58    0.20
   2  -2  11    9.72    0.97
   2  -2  11   10.20    0.89
   2  -2  11    9.69    1.01
   2  -2  11    7.48    1.20
   2  -2  11   10.36    0.94
   2  -2  11    9.35    1.23
   2  -2  11    9.14    1.29
   3  -2  11    0.47    0.21
   3  -2  11    0.41    0.09
   3  -2  11    0.39    0.28
   3  -2  11    0.46    0.17
   3  -2  11    0.07    0.36
   3  -2  11    0.75    0.22
   3  -2  11    0.27    0.34
   4  -2  11    0.31    0.15
   4  -2  11    0.47    0.17
   4  -2  11    0.17    0.20
   4  -2  11    0.80    0.24
   5  -2  11    0.10    0.14
   5  -2  11   -0.10    0.18
   5  -2  11   -0.01    0.19
   5  -2  11    0.01    0.11
   6  -2  11    1.11    0.18
   6  -2  11    1.32    0.19
   6  -2  11    1.07    0.27
   6   1 -11    0.24    0.14
   6   1 -11   -0.09    0.18
   5   1 -11   10.17    1.04
   5   1 -11   10.11    1.02
   4   1 -11   -0.03    0.31
   4   1 -11    0.47    0.27
   3   1 -11    1.37    0.30
   2   1 -11    3.14    0.52
   0  -1  11    1.08    0.29
   0  -1  11    0.54    0.42
   0  -1  11    0.71    0.44
   1  -1  11    2.62    0.66
   1  -1  11    3.05    0.35
   1  -1  11    3.14    0.46
   1  -1  11    1.86    0.56
   2  -1  11    3.44    0.75
   2  -1  11    4.50    0.50
   2  -1  11    5.31    0.48
   2  -1  11    3.80    0.86
   2  -1  11    5.06    0.71
   3  -1  11    7.05    1.11
   3  -1  11    7.19    1.02
   3  -1  11    4.71    1.02
   3  -1  11    7.97    0.78
   3  -1  11    8.09    0.71
   3  -1  11    7.60    0.76
   4  -1  11    2.86    0.39
   4  -1  11    2.47    0.31
   4  -1  11    1.68    0.68
   4  -1  11    2.15    0.57
   5  -1  11    4.27    0.60
   5  -1  11    3.54    0.46
   5  -1  11    4.09    0.46
   5  -1  11    4.54    0.49
   6  -1  11    2.65    0.33
   6  -1  11    2.67    0.38
   6  -1  11    2.63    0.29
   6  -1  11    1.92    0.31
   7  -1  11   -0.06    0.08
   5   0 -11    0.41    0.20
   5   0 -11    0.18    0.22
   5   0 -11    0.16    0.18
   4   0 -11    8.15    0.89
   4   0 -11    8.75    0.92
   3   0 -11    8.16    1.36
   3   0 -11    9.90    1.05
   3   0 -11    9.17    0.98
   3   0 -11   10.99    1.08
   2   0 -11    2.66    0.39
   2   0 -11    1.77    0.66
   2   0 -11    1.47    0.54
   1   0 -11    0.27    0.29
   0   0 -11    8.49    1.99
   1   0  11   29.29    3.25
   2   0  11   13.65    1.44
   2   0  11   12.46    1.56
   2   0  11   10.56    1.18
   2   0  11   11.14    1.43
   3   0  11    0.76    0.22
   3   0  11    0.75    0.33
   3   0  11    0.91    0.17
   3   0  11    0.66    0.40
   3   0  11    0.66    0.51
   4   0  11    0.56    0.21
   4   0  11    0.11    0.35
   4   0  11    0.41    0.17
   4   0  11    0.26    0.30
   4   0  11   -0.16    0.44
   5   0  11   24.51    2.37
   5   0  11   26.71    2.15
   5   0  11   21.77    2.22
   6   0  11    1.07    0.26
   6   0  11    1.04    0.23
   6   0  11    1.03    0.24
   7   0  11    0.39    0.15
   7   0  11    0.37    0.15
   7   0  11    0.51    0.10
   5  -1 -11    5.60    0.69
   5  -1 -11    6.60    0.65
   5  -1 -11    6.31    0.57
   4  -1 -11    3.39    0.45
   4  -1 -11    2.92    0.46
   4  -1 -11    2.32    0.42
   3  -1 -11    0.08    0.34
   3  -1 -11    0.30    0.29
   3  -1 -11    0.33    0.31
   3  -1 -11    0.33    0.58
   3  -1 -11    0.12    0.19
   2  -1 -11    2.69    0.53
   2  -1 -11    2.78    0.40
   2  -1 -11    3.21    0.81
   2  -1 -11    1.38    0.59
   2  -1 -11    1.54    0.53
   2  -1 -11    2.78    0.45
   2  -1 -11    2.85    0.46
   1  -1 -11    0.52    0.49
   1  -1 -11    0.14    0.27
   1  -1 -11   -0.02    0.35
   1  -1 -11    0.90    1.00
   1  -1 -11    0.80    0.29
   0  -1 -11    0.00    1.13
   0  -1 -11    0.56    0.37
   0  -1 -11    0.19    0.29
   0  -1 -11    0.51    0.47
  -1  -1 -11    1.81    0.53
  -1  -1 -11    1.54    0.45
  -1  -1 -11    0.81    0.96
   1   1  11    1.29    0.32
  -2  -1 -11   17.22    3.10
   3   1  11   27.97    2.74
   4   1  11    3.31    0.46
   5   1  11    2.83    0.36
   5   1  11    1.33    0.52
   5   1  11    2.95    0.36
   6   1  11    3.74    0.46
   6   1  11    4.30    0.49
   7   1  11    1.13    0.24
   7   1  11    0.86    0.18
   5  -2 -11    0.14    0.13
   5  -2 -11    0.38    0.16
   4  -2 -11    0.20    0.18
   4  -2 -11    0.41    0.25
   4  -2 -11    0.26    0.12
   4  -2 -11    0.40    0.30
   3  -2 -11    1.46    0.30
   3  -2 -11    2.07    0.30
   3  -2 -11    1.77    0.37
   3  -2 -11    1.81    0.42
   2  -2 -11    1.45    0.35
   2  -2 -11    1.20    0.17
   2  -2 -11    0.57    1.05
   2  -2 -11    1.14    0.42
   2  -2 -11    1.39    0.36
   2  -2 -11    1.14    0.28
   1  -2 -11    0.49    0.38
   1  -2 -11    0.39    0.37
   1  -2 -11    0.59    0.35
   1  -2 -11    0.67    0.85
   1  -2 -11    0.32    0.28
   1  -2 -11    0.35    0.21
   1  -2 -11    0.96    0.51
   0  -2 -11    1.09    0.43
   0  -2 -11    0.91    0.48
   0  -2 -11    2.15    0.36
   0  -2 -11    1.62    0.47
   0  -2 -11    1.53    1.43
  -1  -2 -11    8.10    1.14
  -1  -2 -11   10.51    2.52
  -1  -2 -11    7.42    0.90
  -1  -2 -11    8.19    0.92
  -2  -2 -11    1.26    0.49
  -2  -2 -11    0.98    1.42
  -2  -2 -11    1.16    0.43
  -2  -2 -11    0.86    0.25
  -3  -2 -11    1.27    0.27
   5   2  11   16.71    1.69
   6   2  11    2.99    0.41
   7   2  11    0.44    0.21
   7   2  11    0.17    0.14
   8   2  11    0.69    0.13
   4  -3 -11    1.81    0.26
   4  -3 -11    1.45    0.28
   4  -3 -11    1.81    0.25
   3  -3 -11    1.77    0.29
   3  -3 -11    2.01    0.37
   3  -3 -11    1.91    0.40
   2  -3 -11    0.32    0.20
   2  -3 -11    1.05    0.24
   2  -3 -11    0.93    0.40
   2  -3 -11    1.05    0.38
   1  -3 -11    1.81    0.56
   1  -3 -11    1.56    0.36
   1  -3 -11    0.89    0.44
   1  -3 -11    1.19    0.33
   1  -3 -11    1.32    1.49
   1  -3 -11    1.85    0.66
   0  -3 -11    0.77    0.47
   0  -3 -11    1.24    0.31
   0  -3 -11    1.43    0.24
   0  -3 -11    1.70    0.43
   0  -3 -11    1.42    0.54
   0  -3 -11    2.23    1.62
   0  -3 -11    1.98    0.46
   0  -3 -11    1.08    0.39
  -1  -3 -11    1.31    0.40
  -1  -3 -11    1.35    0.29
  -1  -3 -11    1.71    0.43
  -1  -3 -11    0.85    1.67
  -1  -3 -11    1.43    0.41
  -1  -3 -11    1.35    0.60
  -1  -3 -11    1.15    0.49
  -2  -3 -11    3.90    1.69
  -2  -3 -11    4.32    0.76
  -2  -3 -11    5.38    0.69
  -2  -3 -11    3.27    0.48
  -2  -3 -11    2.30    0.49
  -2  -3 -11    2.55    0.45
  -3  -3 -11    5.78    0.78
  -3  -3 -11    5.18    0.73
  -3  -3 -11    7.43    2.38
  -3  -3 -11    8.49    0.99
  -3  -3 -11    7.71    1.03
  -4  -3 -11    7.68    0.91
  -5  -3 -11    6.11    0.74
  -6  -3 -11    0.57    0.27
   6   3  11    1.03    0.22
  -7  -3 -11    0.06    0.21
   7   3  11    0.17    0.14
  -8  -3 -11    0.13    0.16
   8   3  11    0.41    0.08
   3  -4 -11    3.16    0.32
   3  -4 -11    2.04    0.38
   2  -4 -11    7.45    0.88
   2  -4 -11    7.45    0.79
   2  -4 -11    6.86    1.07
   1  -4 -11   26.50    2.52
   1  -4 -11   28.18    2.25
   1  -4 -11   26.61    2.99
   1  -4 -11   25.32    2.43
   1  -4 -11   22.29    3.04
   0  -4 -11    2.48    0.67
   0  -4 -11    1.87    1.37
   0  -4 -11    1.93    0.31
   0  -4 -11    1.07    0.43
   0  -4 -11    0.99    0.55
   0  -4 -11    2.58    0.46
  -1  -4 -11    2.82    1.97
  -1  -4 -11    2.68    0.74
  -1  -4 -11    2.79    0.55
  -1  -4 -11    3.46    0.52
  -2  -4 -11    4.09    0.80
  -2  -4 -11    2.79    0.51
  -2  -4 -11    3.84    0.46
  -2  -4 -11    2.49    0.58
  -2  -4 -11    3.40    0.47
  -2  -4 -11    3.71    0.83
  -2  -4 -11    2.76    2.08
  -3  -4 -11    0.77    0.46
  -3  -4 -11    1.29    0.42
  -3  -4 -11    1.54    0.30
  -3  -4 -11    1.11    0.37
  -3  -4 -11    1.65    1.79
  -3  -4 -11    1.37    0.37
  -4  -4 -11    1.91    0.58
  -4  -4 -11    1.15    0.40
  -4  -4 -11    1.76    0.34
  -4  -4 -11    0.85    0.45
  -4  -4 -11    1.11    1.71
  -5  -4 -11    0.65    0.29
  -5  -4 -11   -0.12    1.12
  -5  -4 -11    0.61    0.37
  -6  -4 -11    0.68    0.31
  -7  -4 -11    0.12    0.19
   7   4  11    0.08    0.19
  -8  -4 -11   -0.06    0.11
   8   4  11    0.09    0.08
   2  -5 -11   -0.11    0.21
   2  -5 -11   -0.14    0.27
   1  -5 -11    5.60    0.62
   1  -5 -11    4.40    0.90
   1  -5 -11    6.43    0.69
   0  -5 -11    6.28    0.79
   0  -5 -11    5.78    1.08
   0  -5 -11    7.84    0.84
   0  -5 -11    6.99    1.17
  -1  -5 -11    5.11    0.62
  -1  -5 -11    4.06    0.63
  -1  -5 -11    4.60    0.89
  -1  -5 -11    5.54    0.99
  -1  -5 -11    4.29    0.47
  -2  -5 -11   19.99    2.12
  -2  -5 -11   15.73    1.61
  -2  -5 -11   17.00    1.53
  -2  -5 -11   16.16    1.97
  -2  -5 -11   14.44    3.82
  -2  -5 -11   15.44    1.59
  -3  -5 -11    1.30    0.56
  -3  -5 -11    1.41    0.39
  -3  -5 -11    2.40    2.05
  -3  -5 -11    1.52    0.40
  -4  -5 -11    0.87    0.35
  -4  -5 -11    0.02    1.32
  -4  -5 -11    0.98    0.19
  -4  -5 -11    1.21    0.50
  -4  -5 -11    0.78    0.35
  -5  -5 -11    0.90    0.29
  -5  -5 -11    0.48    0.22
  -5  -5 -11    0.06    0.23
  -6  -5 -11   -0.05    0.33
  -6  -5 -11   -0.10    0.13
  -7  -5 -11    0.27    0.22
  -7  -5 -11    0.35    0.13
   8   5  11    0.72    0.15
   1  -6 -11    0.33    0.20
   1  -6 -11   -0.03    0.28
   0  -6 -11    0.72    0.50
   0  -6 -11    0.80    0.40
   0  -6 -11    0.27    0.09
   0  -6 -11    0.23    0.18
  -1  -6 -11    0.41    0.44
  -1  -6 -11    0.59    0.25
  -1  -6 -11    0.37    0.45
  -1  -6 -11    0.37    0.20
  -2  -6 -11    0.54    0.57
  -2  -6 -11    0.25    0.32
  -2  -6 -11    0.18    0.43
  -3  -6 -11    1.75    0.53
  -3  -6 -11    1.13    0.68
  -3  -6 -11    1.93    0.35
  -4  -6 -11    0.89    0.41
  -4  -6 -11    0.03    0.42
  -4  -6 -11    0.19    0.24
  -4  -6 -11    0.64    0.30
  -5  -6 -11    4.28    0.84
  -5  -6 -11    4.47    0.62
  -5  -6 -11    5.22    0.80
  -5  -6 -11    5.02    0.55
  -6  -6 -11    0.63    0.28
  -6  -6 -11    0.63    0.33
  -6  -6 -11    0.72    0.41
  -7  -6 -11    0.18    0.22
  -7  -6 -11    0.19    0.20
   0  -7 -11    1.23    0.21
   0  -7 -11    1.48    0.46
  -1  -7 -11    0.08    0.47
  -1  -7 -11    0.23    0.43
  -2  -7 -11   -0.36    0.54
  -2  -7 -11    0.14    0.50
  -2  -7 -11    0.03    0.13
  -3  -7 -11    0.27    0.37
  -3  -7 -11   -0.04    0.36
  -3  -7 -11    0.28    0.24
  -4  -7 -11    0.80    0.37
  -4  -7 -11    1.08    0.31
  -4  -7 -11    1.21    0.43
  -5  -7 -11    0.36    0.39
  -5  -7 -11    0.39    0.34
  -5  -7 -11    0.27    0.26
  -6  -7 -11    0.08    0.20
  -6  -7 -11   -0.05    0.13
  -6  -7 -11    0.12    0.17
  -7  -7 -11    1.63    0.18
  -2  -8 -11    0.31    0.38
  -2  -8 -11    0.06    0.24
  -3  -8 -11    0.13    0.30
  -3  -8 -11    0.07    0.24
  -4  -8 -11    0.32    0.33
  -4  -8 -11    0.38    0.29
  -5  -8 -11    0.51    0.12
  -5  -8 -11    0.63    0.21
  -5  -8 -11    0.72    0.29
  -6  -8 -11    0.35    0.14
  -2  -8  12    0.57    0.15
  -4  -7  12    0.16    0.19
  -4  -7  12    0.22    0.11
  -3  -7  12    0.13    0.19
  -3  -7  12    0.04    0.09
  -3  -7  12    0.10    0.13
  -2  -7  12    0.25    0.11
  -2  -7  12    0.37    0.18
  -1  -7  12    0.62    0.22
  -1  -7  12    0.60    0.15
   0  -7  12    1.46    0.26
   0  -7  12    0.62    0.20
   1  -7  12    1.02    0.16
   1  -7  12    0.14    0.15
  -5  -6  12   -0.02    0.16
  -5  -6  12   -0.13    0.17
  -5  -6  12    0.01    0.13
  -4  -6  12    0.58    0.17
  -4  -6  12    0.63    0.18
  -4  -6  12    0.62    0.24
  -3  -6  12    4.62    0.45
  -3  -6  12    4.00    0.60
  -3  -6  12    5.44    0.54
  -3  -6  12    4.04    0.59
  -2  -6  12    0.35    0.12
  -2  -6  12    0.37    0.25
  -2  -6  12    0.59    0.17
  -2  -6  12    0.35    0.26
  -1  -6  12    0.25    0.22
  -1  -6  12    0.10    0.14
  -1  -6  12    0.18    0.16
   0  -6  12   -0.09    0.27
   0  -6  12    0.07    0.20
   0  -6  12    0.12    0.12
   1  -6  12    0.42    0.17
   1  -6  12    0.31    0.29
   1  -6  12    0.29    0.12
   2  -6  12    0.41    0.16
   2  -6  12    0.11    0.14
  -5  -5  12    0.69    0.22
  -5  -5  12    0.57    0.09
  -5  -5  12    0.42    0.22
  -4  -5  12    0.23    0.09
  -4  -5  12    0.46    0.24
  -4  -5  12   -0.10    0.33
  -3  -5  12    0.89    0.22
  -3  -5  12    1.03    0.25
  -3  -5  12    1.03    0.33
  -3  -5  12    0.61    0.21
  -2  -5  12    1.67    0.28
  -2  -5  12    2.21    0.33
  -2  -5  12    2.12    0.42
  -2  -5  12    1.56    0.37
  -1  -5  12    6.05    0.80
  -1  -5  12    6.61    0.66
  -1  -5  12    5.69    0.58
   0  -5  12   11.64    1.21
   0  -5  12   13.70    1.12
   0  -5  12   10.17    1.04
   0  -5  12   11.76    1.34
   0  -5  12   11.88    1.03
   1  -5  12    1.96    0.40
   1  -5  12    1.62    0.24
   1  -5  12    2.34    0.33
   2  -5  12    0.65    0.20
   2  -5  12    0.69    0.26
   2  -5  12    0.23    0.28
   3  -5  12    0.63    0.26
   3  -5  12    0.79    0.20
   4  -5  12    0.19    0.12
   6   4 -12    1.01    0.17
  -6  -4  12    0.98    0.14
  -6  -4  12    0.64    0.20
  -5  -4  12    5.04    0.55
  -4  -4  12    0.26    0.26
  -4  -4  12    0.32    0.19
  -3  -4  12    2.77    0.42
  -3  -4  12    2.75    0.40
  -3  -4  12    3.00    0.40
  -2  -4  12    6.41    1.18
  -2  -4  12    6.52    0.68
  -2  -4  12    5.93    0.77
  -2  -4  12    6.54    0.72
  -2  -4  12    6.50    0.67
  -1  -4  12    0.32    0.34
  -1  -4  12    1.35    0.24
  -1  -4  12    0.91    0.32
  -1  -4  12    0.81    0.26
  -1  -4  12    0.73    0.16
   0  -4  12    0.55    0.37
   0  -4  12    1.32    0.25
   0  -4  12    1.83    0.27
   0  -4  12    1.24    0.23
   0  -4  12    1.69    0.38
   1  -4  12    1.65    0.23
   1  -4  12    2.19    0.33
   1  -4  12    1.62    0.24
   1  -4  12    1.75    0.43
   1  -4  12    1.08    0.43
   1  -4  12    2.08    0.27
   2  -4  12    0.05    0.16
   2  -4  12    0.07    0.08
   2  -4  12    0.04    0.16
   2  -4  12    0.27    0.31
   2  -4  12    0.40    0.20
   3  -4  12    6.45    0.63
   3  -4  12    6.24    0.73
   3  -4  12    6.46    0.63
   4  -4  12    4.51    0.45
   4  -4  12    4.01    0.41
   4  -4  12    4.54    0.52
   6   3 -12    0.50    0.14
   6   3 -12    0.38    0.14
  -6  -3  12    0.50    0.17
   5   3 -12    0.96    0.28
  -5  -3  12    1.23    0.27
  -4  -3  12    0.89    0.22
  -3  -3  12   18.93    1.89
  -2  -3  12   20.10    2.13
  -2  -3  12   19.83    1.84
  -2  -3  12   22.22    2.05
  -1  -3  12    0.13    0.44
  -1  -3  12    0.98    0.25
  -1  -3  12    1.17    0.21
  -1  -3  12    0.39    0.44
   0  -3  12    0.86    0.48
   0  -3  12    1.98    0.26
   0  -3  12    2.16    0.29
   0  -3  12    1.63    0.48
   0  -3  12    2.43    0.33
   1  -3  12    9.91    0.83
   1  -3  12    6.26    1.12
   1  -3  12    9.11    0.85
   1  -3  12   10.11    1.04
   1  -3  12    7.33    1.17
   1  -3  12    8.20    0.94
   1  -3  12    9.16    0.87
   2  -3  12    1.71    0.26
   2  -3  12    1.44    0.46
   2  -3  12    2.08    0.33
   2  -3  12    1.45    0.27
   2  -3  12    2.25    0.38
   3  -3  12    0.19    0.14
   3  -3  12    0.21    0.17
   3  -3  12    0.04    0.27
   3  -3  12   -0.07    0.15
   4  -3  12    0.03    0.18
   4  -3  12    0.13    0.18
   4  -3  12    0.06    0.20
   5  -3  12    1.74    0.33
   5  -3  12    2.67    0.28
   5  -3  12    2.67    0.31
   6   2 -12    4.15    0.44
   5   2 -12    1.39    0.24
   4   2 -12    1.57    0.38
  -4  -2  12    2.56    0.41
  -3  -2  12   -0.02    0.22
  -2  -2  12   13.27    1.36
  -1  -2  12    2.92    0.82
  -1  -2  12    5.46    0.55
   0  -2  12    0.72    0.19
   0  -2  12    0.48    0.43
   0  -2  12    0.79    0.23
   0  -2  12    0.27    0.41
   0  -2  12    0.59    0.31
   1  -2  12   10.51    1.56
   1  -2  12   12.12    1.31
   1  -2  12   10.01    1.63
   1  -2  12   11.57    1.56
   1  -2  12   15.21    1.30
   1  -2  12   13.92    1.23
   1  -2  12   14.74    1.19
   2  -2  12    2.57    0.32
   2  -2  12    1.07    0.50
   2  -2  12    1.83    0.60
   2  -2  12    3.11    0.34
   2  -2  12    1.88    0.52
   2  -2  12    2.48    0.36
   2  -2  12    2.95    0.34
   3  -2  12    1.30    0.18
   3  -2  12    1.64    0.30
   3  -2  12    1.31    0.24
   3  -2  12    1.40    0.45
   3  -2  12    1.32    0.21
   4  -2  12    0.09    0.15
   4  -2  12    0.35    0.28
   4  -2  12    0.23    0.21
   5  -2  12    1.50    0.35
   5  -2  12    1.31    0.26
   5  -2  12    1.36    0.22
   5  -2  12    1.62    0.19
   6  -2  12    0.57    0.13
   6  -2  12    0.72    0.18
   5   1 -12    0.90    0.15
   5   1 -12    0.49    0.29
   5   1 -12    0.91    0.31
   4   1 -12    5.31    0.66
   4   1 -12    4.46    0.60
   3   1 -12    6.28    0.74
   2   1 -12    0.45    0.35
   0  -1  12   18.50    1.83
   1  -1  12   14.35    1.88
   1  -1  12   14.30    1.46
   1  -1  12   15.40    1.74
   2  -1  12    0.81    0.34
   2  -1  12    0.38    0.39
   2  -1  12    1.14    0.51
   2  -1  12    1.14    0.24
   3  -1  12    1.63    0.61
   3  -1  12    4.18    0.44
   3  -1  12    4.16    0.76
   3  -1  12    3.52    0.42
   4  -1  12    9.30    0.91
   4  -1  12    9.16    0.86
   4  -1  12    9.94    1.01
   4  -1  12    6.27    1.14
   4  -1  12    9.22    0.89
   5  -1  12    2.75    0.40
   5  -1  12    2.05    0.34
   5  -1  12    1.63    0.28
   6  -1  12    0.18    0.24
   6  -1  12    0.32    0.12
   6  -1  12    0.35    0.19
   5   0 -12    2.81    0.34
   5   0 -12    2.04    0.29
   5   0 -12    1.89    0.33
   4   0 -12    4.67    0.60
   4   0 -12    5.54    0.59
   3   0 -12    0.15    0.28
   3   0 -12   -0.02    0.34
   3   0 -12    0.24    0.25
   2   0 -12    4.11    0.57
   1   0 -12    5.11    0.69
   1   0  12   39.65    4.36
   2   0  12   23.58    2.35
   2   0  12   24.62    2.74
   3   0  12    3.51    0.89
   3   0  12    2.80    0.75
   3   0  12    4.38    0.51
   3   0  12    4.51    0.49
   3   0  12    4.26    0.77
   4   0  12   -0.09    0.35
   4   0  12    0.12    0.17
   4   0  12    0.04    0.36
   4   0  12    0.03    0.15
   4   0  12    0.29    0.38
   5   0  12   10.50    1.03
   5   0  12    9.80    0.95
   6   0  12    0.35    0.14
   6   0  12    0.30    0.21
   6   0  12    0.44    0.22
   7   0  12    0.12    0.14
   7   0  12    0.54    0.10
   7   0  12    0.53    0.18
   5  -1 -12    0.15    0.13
   5  -1 -12   -0.07    0.14
   4  -1 -12    3.06    0.46
   4  -1 -12    3.39    0.42
   4  -1 -12    2.71    0.40
   3  -1 -12    2.14    0.54
   3  -1 -12    3.32    0.51
   3  -1 -12    3.69    0.42
   3  -1 -12    3.91    0.52
   2  -1 -12    0.07    0.23
   2  -1 -12    0.18    0.41
   2  -1 -12    0.12    0.34
   2  -1 -12   -0.21    0.56
   2  -1 -12   -0.29    0.38
   2  -1 -12    0.01    0.32
   1  -1 -12    0.43    0.30
   1  -1 -12    0.14    0.40
   1  -1 -12   -0.49    0.27
   1  -1 -12    0.00    0.50
   0  -1 -12    2.14    1.34
   0  -1 -12    3.58    0.68
   0  -1 -12    3.11    0.46
  -1  -1 -12    4.04    0.56
  -1  -1 -12    6.32    1.87
  -2  -1 -12    1.28    1.04
   2   1  12    2.05    0.46
   3   1  12    8.95    0.93
   4   1  12    2.90    0.63
   4   1  12    3.10    0.44
   5   1  12    2.61    0.38
   5   1  12    3.14    0.40
   6   1  12    5.51    0.61
   6   1  12    5.56    0.61
   7   1  12    0.32    0.18
   7   1  12    0.32    0.17
   4  -2 -12    5.01    0.59
   4  -2 -12    4.32    0.50
   3  -2 -12    0.11    0.24
   3  -2 -12    0.64    0.26
   3  -2 -12    0.39    0.22
   3  -2 -12    0.46    0.36
   2  -2 -12    1.96    0.39
   2  -2 -12    1.44    0.37
   2  -2 -12    1.74    0.38
   2  -2 -12    1.14    0.28
   1  -2 -12    0.28    0.35
   1  -2 -12    0.14    0.30
   1  -2 -12    0.62    0.31
   1  -2 -12    0.59    0.42
   1  -2 -12    0.58    0.22
   1  -2 -12    0.33    1.16
   1  -2 -12   -0.13    0.45
   0  -2 -12    0.69    1.35
   0  -2 -12    1.92    0.51
   0  -2 -12    1.36    0.35
   0  -2 -12    1.86    0.60
   0  -2 -12    2.24    0.50
   0  -2 -12    2.13    0.38
  -1  -2 -12    3.00    0.74
  -1  -2 -12    3.44    0.68
  -1  -2 -12    2.93    0.67
  -1  -2 -12    4.51    0.62
  -1  -2 -12    4.34    0.55
  -1  -2 -12    4.32    1.86
  -2  -2 -12   12.33    1.53
  -2  -2 -12   12.28    3.07
  -2  -2 -12    9.89    1.25
  -2  -2 -12   14.04    1.50
  -3  -2 -12    0.21    0.28
  -3  -2 -12    0.08    1.38
   5   2  12    0.70    0.24
   6   2  12    0.06    0.13
   7   2  12    0.03    0.14
   7   2  12    0.14    0.12
   4  -3 -12   11.99    1.09
   3  -3 -12    6.44    0.77
   3  -3 -12    5.66    0.65
   3  -3 -12    7.36    0.74
   2  -3 -12   11.41    1.21
   2  -3 -12   13.18    1.07
   2  -3 -12    9.71    1.15
   1  -3 -12    0.45    1.46
   1  -3 -12   -0.10    0.39
   1  -3 -12    0.29    0.28
   1  -3 -12    0.12    0.26
   0  -3 -12    0.95    0.19
   0  -3 -12    1.85    1.63
   0  -3 -12    0.67    0.50
   0  -3 -12    0.68    0.37
   0  -3 -12    0.88    0.31
   0  -3 -12    0.84    0.33
   0  -3 -12    0.75    0.36
   0  -3 -12    0.68    0.39
  -1  -3 -12    3.94    0.61
  -1  -3 -12    4.01    0.59
  -1  -3 -12    5.66    2.04
  -1  -3 -12    4.40    0.65
  -1  -3 -12    6.61    0.92
  -1  -3 -12    5.34    0.77
  -1  -3 -12    4.67    0.87
  -2  -3 -12    0.50    0.28
  -2  -3 -12    0.66    0.37
  -2  -3 -12    0.39    0.38
  -2  -3 -12    0.27    0.40
  -2  -3 -12    0.62    0.36
  -2  -3 -12    0.08    1.59
  -2  -3 -12    0.69    0.38
  -3  -3 -12    2.88    0.67
  -3  -3 -12    2.02    0.41
  -3  -3 -12    0.84    1.55
  -3  -3 -12    2.26    0.39
  -3  -3 -12    2.16    0.58
  -4  -3 -12    0.50    1.49
  -4  -3 -12   -0.16    0.28
  -5  -3 -12    8.36    0.98
  -6  -3 -12    0.18    0.32
   6   3  12    0.53    0.23
  -7  -3 -12    0.17    0.27
   7   3  12   -0.03    0.12
   3  -4 -12   -0.20    0.15
   3  -4 -12    0.10    0.08
   2  -4 -12    0.62    0.27
   2  -4 -12    0.71    0.21
   1  -4 -12   -0.02    0.11
   1  -4 -12   -0.03    0.31
   1  -4 -12    0.17    0.24
   1  -4 -12   -0.40    0.35
   0  -4 -12    1.78    0.40
   0  -4 -12    0.88    0.57
   0  -4 -12    2.43    0.49
   0  -4 -12    1.06    0.28
  -1  -4 -12    6.57    0.73
  -1  -4 -12    6.99    2.59
  -1  -4 -12    7.43    0.99
  -1  -4 -12    6.45    0.83
  -1  -4 -12    5.13    0.69
  -2  -4 -12    5.26    0.79
  -2  -4 -12    8.34    1.11
  -2  -4 -12    7.03    0.77
  -2  -4 -12   10.32    1.17
  -2  -4 -12   12.56    2.89
  -2  -4 -12    7.31    0.87
  -3  -4 -12    2.34    0.42
  -3  -4 -12    2.14    0.40
  -3  -4 -12    2.49    0.37
  -3  -4 -12    2.77    0.64
  -3  -4 -12    1.62    0.57
  -3  -4 -12    1.05    1.31
  -4  -4 -12    0.45    0.35
  -4  -4 -12    0.00    0.25
  -4  -4 -12    0.35    1.63
  -5  -4 -12   -0.32    0.23
  -5  -4 -12    0.30    0.28
  -6  -4 -12    1.05    0.32
  -7  -4 -12    0.52    0.20
   7   4  12    1.43    0.22
   2  -5 -12    0.96    0.25
   1  -5 -12    0.85    0.36
   1  -5 -12    0.43    0.19
   1  -5 -12    0.76    0.27
   0  -5 -12    0.71    0.56
   0  -5 -12    0.86    0.26
   0  -5 -12    0.33    0.45
   0  -5 -12    0.95    0.29
  -1  -5 -12   17.35    2.00
  -1  -5 -12   16.66    1.56
  -1  -5 -12   15.06    1.36
  -1  -5 -12   13.98    1.53
  -2  -5 -12   17.33    1.87
  -2  -5 -12   14.01    1.46
  -2  -5 -12   14.67    1.50
  -3  -5 -12    1.95    0.41
  -3  -5 -12    1.68    0.56
  -3  -5 -12    0.75    0.37
  -4  -5 -12   10.84    1.46
  -4  -5 -12   10.16    1.09
  -4  -5 -12    9.97    1.01
  -4  -5 -12    9.68    1.05
  -5  -5 -12    2.85    0.48
  -5  -5 -12    2.76    0.39
  -6  -5 -12    1.60    0.37
  -6  -5 -12    1.02    0.22
  -7  -5 -12    0.12    0.13
  -7  -5 -12    0.07    0.27
   1  -6 -12    0.21    0.25
   1  -6 -12    1.41    0.23
   0  -6 -12    1.85    0.48
  -1  -6 -12    0.06    0.40
  -1  -6 -12    0.31    0.40
  -1  -6 -12    0.46    0.24
  -1  -6 -12    0.47    0.24
  -2  -6 -12    0.39    0.45
  -2  -6 -12    0.33    0.53
  -2  -6 -12   -0.02    0.30
  -3  -6 -12    8.11    0.92
  -3  -6 -12    7.82    0.75
  -3  -6 -12   10.71    1.30
  -4  -6 -12    2.46    0.47
  -4  -6 -12    2.95    0.66
  -4  -6 -12    2.92    0.41
  -5  -6 -12    0.61    0.29
  -5  -6 -12    0.45    0.51
  -5  -6 -12    0.15    0.22
  -6  -6 -12    0.54    0.23
  -6  -6 -12    0.92    0.42
  -6  -6 -12    0.86    0.27
  -7  -6 -12    0.46    0.17
  -7  -6 -12    0.20    0.20
   0  -7 -12    0.63    0.27
  -1  -7 -12   -0.20    0.27
  -1  -7 -12    0.48    0.54
  -2  -7 -12    0.24    0.34
  -2  -7 -12   -0.34    0.32
  -2  -7 -12    0.16    0.08
  -3  -7 -12    0.02    0.19
  -3  -7 -12    0.23    0.34
  -3  -7 -12   -0.29    0.44
  -4  -7 -12    0.64    0.35
  -4  -7 -12    1.26    0.30
  -5  -7 -12    0.43    0.25
  -5  -7 -12   -0.21    0.35
  -6  -7 -12   -0.18    0.21
  -6  -7 -12   -0.14    0.17
  -3  -8 -12   -0.12    0.21
  -4  -8 -12   -0.12    0.28
  -5  -8 -12   -0.10    0.07
  -4  -7  13    0.44    0.12
  -3  -7  13    0.24    0.12
  -3  -7  13    0.40    0.10
  -3  -7  13    0.65    0.25
  -2  -7  13   -0.20    0.18
  -2  -7  13    0.02    0.08
  -1  -7  13   -0.16    0.19
   0  -7  13    0.06    0.10
   0  -7  13   -0.05    0.14
   1  -7  13    0.45    0.12
  -5  -6  13    0.32    0.16
  -5  -6  13    0.40    0.10
  -4  -6  13    0.62    0.23
  -4  -6  13    0.50    0.16
  -4  -6  13    0.39    0.11
  -3  -6  13    0.24    0.20
  -3  -6  13    0.47    0.25
  -3  -6  13    0.40    0.21
  -3  -6  13    0.20    0.13
  -2  -6  13    3.33    0.39
  -2  -6  13    3.39    0.47
  -1  -6  13    0.85    0.32
  -1  -6  13    1.35    0.22
   0  -6  13    0.39    0.20
   0  -6  13    0.32    0.28
   0  -6  13    0.12    0.12
   1  -6  13   -0.08    0.17
   1  -6  13    0.50    0.16
   2  -6  13   -0.10    0.12
   2  -6  13    0.10    0.09
  -5  -5  13   -0.01    0.18
  -5  -5  13    0.05    0.17
  -4  -5  13    0.19    0.30
  -4  -5  13    0.46    0.21
  -3  -5  13    7.15    0.63
  -3  -5  13    6.51    0.65
  -3  -5  13    4.77    0.68
  -3  -5  13    6.36    0.74
  -2  -5  13    4.46    0.47
  -2  -5  13    4.91    0.54
  -2  -5  13    4.04    0.59
  -2  -5  13    3.59    0.54
  -1  -5  13    0.40    0.16
  -1  -5  13    0.37    0.23
  -1  -5  13    0.52    0.23
   0  -5  13    1.71    0.45
   0  -5  13    2.74    0.34
   0  -5  13    2.64    0.28
   1  -5  13    1.76    0.30
   1  -5  13    2.05    0.39
   1  -5  13    1.77    0.28
   2  -5  13    4.59    0.53
   2  -5  13    4.33    0.44
   3  -5  13    0.70    0.14
   3  -5  13    0.74    0.23
   5   4 -13    0.17    0.15
  -5  -4  13   -0.19    0.20
  -5  -4  13    0.03    0.09
  -4  -4  13    0.21    0.17
  -4  -4  13    0.64    0.20
  -3  -4  13    4.57    0.53
  -3  -4  13    4.08    0.50
  -2  -4  13    6.88    0.81
  -2  -4  13    6.93    0.74
  -2  -4  13    7.43    0.70
  -2  -4  13    7.44    0.78
  -1  -4  13    4.94    0.54
  -1  -4  13    5.49    0.56
  -1  -4  13    5.73    0.62
  -1  -4  13    5.03    0.70
   0  -4  13    2.89    0.35
   0  -4  13    3.37    0.43
   0  -4  13    3.12    0.43
   0  -4  13    3.76    0.50
   1  -4  13    1.42    0.23
   1  -4  13    1.50    0.27
   1  -4  13    1.39    0.34
   1  -4  13    1.50    0.31
   2  -4  13    2.32    0.34
   2  -4  13    1.62    0.27
   2  -4  13    1.47    0.39
   2  -4  13    1.73    0.19
   3  -4  13    4.51    0.63
   3  -4  13    5.20    0.51
   4  -4  13    1.12    0.22
   4  -4  13    0.72    0.12
   5   3 -13    0.83    0.25
  -5  -3  13    1.22    0.24
   4   3 -13   -0.02    0.20
  -4  -3  13    0.03    0.14
  -3  -3  13    6.33    0.72
  -2  -3  13   17.08    1.67
  -2  -3  13   17.37    1.75
  -2  -3  13   15.49    1.50
  -1  -3  13   -0.09    0.45
  -1  -3  13    0.26    0.16
  -1  -3  13   -0.07    0.21
   0  -3  13   25.80    2.13
   0  -3  13   25.05    2.36
   0  -3  13   23.04    2.21
   0  -3  13   22.45    2.78
   1  -3  13    9.30    1.13
   1  -3  13   11.44    1.02
   1  -3  13   11.26    1.07
   1  -3  13   11.12    1.08
   1  -3  13   12.66    1.23
   2  -3  13    4.04    0.55
   2  -3  13    4.43    0.61
   2  -3  13    4.96    0.49
   2  -3  13    5.08    0.54
   3  -3  13    1.63    0.23
   3  -3  13    1.57    0.27
   3  -3  13    1.76    0.32
   4  -3  13    0.48    0.22
   4  -3  13    0.12    0.15
   5  -3  13    0.14    0.22
   5  -3  13    0.19    0.10
   5   2 -13    1.49    0.26
  -5  -2  13    1.85    0.27
   4   2 -13    1.18    0.33
  -4  -2  13    1.76    0.32
   3   2 -13    0.18    0.22
  -3  -2  13    0.56    0.19
  -2  -2  13    6.29    0.72
  -1  -2  13   64.18    6.18
   0  -2  13    6.74    0.64
   0  -2  13    5.93    0.98
   0  -2  13    4.76    0.85
   0  -2  13    7.32    0.70
   1  -2  13    0.82    0.33
   1  -2  13    1.44    0.27
   1  -2  13    1.20    0.26
   1  -2  13    0.40    0.47
   1  -2  13    1.13    0.26
   1  -2  13    0.48    0.43
   1  -2  13    1.35    0.22
   2  -2  13    3.19    0.36
   2  -2  13    1.35    0.58
   2  -2  13    2.55    0.40
   2  -2  13    2.46    0.38
   2  -2  13    2.23    0.59
   2  -2  13    2.71    0.33
   3  -2  13    5.61    0.57
   3  -2  13    5.46    0.73
   3  -2  13    6.22    0.67
   3  -2  13    6.42    0.60
   3  -2  13    5.45    0.64
   4  -2  13    0.30    0.22
   4  -2  13    0.48    0.17
   4  -2  13    0.28    0.28
   5  -2  13    1.58    0.34
   5  -2  13    1.43    0.23
   5  -2  13    1.43    0.17
   6  -2  13    1.81    0.19
   6  -2  13    1.21    0.23
   5   1 -13    0.55    0.25
   5   1 -13    0.64    0.20
   4   1 -13    0.99    0.27
   4   1 -13    0.90    0.36
   3   1 -13    0.79    0.25
   2   1 -13    2.49    0.50
  -1  -1  13    1.06    0.28
   0  -1  13   12.12    1.24
   1  -1  13    0.74    0.47
   1  -1  13    2.78    0.32
   1  -1  13    1.75    0.45
   1  -1  13    1.11    0.59
   2  -1  13    3.68    0.41
   2  -1  13    3.10    0.37
   2  -1  13    2.35    0.57
   2  -1  13    1.90    0.64
   2  -1  13    3.04    0.43
   3  -1  13    2.37    0.37
   3  -1  13    2.43    0.31
   3  -1  13    1.43    0.53
   3  -1  13    2.65    0.35
   3  -1  13    2.71    0.42
   3  -1  13    0.89    0.60
   4  -1  13    4.62    0.60
   4  -1  13    5.18    0.53
   4  -1  13    5.17    0.67
   4  -1  13    5.08    0.56
   5  -1  13    0.19    0.21
   5  -1  13    0.14    0.18
   5  -1  13    0.22    0.20
   6  -1  13    0.03    0.13
   6  -1  13    0.05    0.08
   6  -1  13   -0.05    0.16
   5   0 -13    3.51    0.39
   5   0 -13    3.32    0.36
   4   0 -13    3.82    0.40
   4   0 -13    3.44    0.47
   4   0 -13    3.80    0.48
   3   0 -13    8.03    0.91
   3   0 -13    8.91    0.89
   3   0 -13    7.32    0.91
   2   0 -13    0.20    0.36
   2   0 -13    0.35    0.24
   1   0 -13    0.22    0.25
   0   0 -13    4.01    0.59
   1   0  13    0.73    0.23
   2   0  13    6.09    0.89
   2   0  13    6.52    0.71
   3   0  13    2.09    0.60
   3   0  13    3.27    0.43
   3   0  13    3.04    0.40
   4   0  13    1.29    0.24
   4   0  13    0.90    0.42
   4   0  13    1.40    0.27
   5   0  13    1.19    0.26
   6   0  13    3.49    0.45
   6   0  13    3.12    0.41
   6   0  13    3.38    0.40
   7   0  13    2.00    0.31
   7   0  13    2.71    0.24
   4  -1 -13    0.37    0.23
   4  -1 -13    0.11    0.16
   4  -1 -13    0.39    0.16
   3  -1 -13    0.24    0.09
   3  -1 -13    0.10    0.33
   3  -1 -13    0.42    0.31
   3  -1 -13    0.19    0.26
   3  -1 -13    0.34    0.22
   2  -1 -13    5.84    0.77
   2  -1 -13    5.53    0.70
   2  -1 -13    5.50    0.68
   1  -1 -13    0.66    0.50
   1  -1 -13    0.82    0.63
   1  -1 -13    1.38    0.36
   1  -1 -13    0.89    0.29
   0  -1 -13    2.97    0.50
  -1  -1 -13   12.48    1.43
  -1  -1 -13   18.49    2.87
  -2  -1 -13    5.57    2.25
   2   1  13   11.34    1.28
   3   1  13    1.63    0.29
   3   1  13    1.60    0.51
   4   1  13    0.35    0.32
   4   1  13    0.19    0.19
   5   1  13    0.35    0.19
   5   1  13    0.23    0.17
   6   1  13    0.68    0.19
   6   1  13    0.63    0.16
   7   1  13    8.16    0.92
   7   1  13    9.63    0.82
   4  -2 -13    1.06    0.19
   4  -2 -13    2.03    0.27
   3  -2 -13    5.66    0.61
   3  -2 -13    5.63    0.68
   3  -2 -13    5.81    0.69
   3  -2 -13    6.81    0.63
   2  -2 -13    1.33    0.28
   2  -2 -13    1.66    0.39
   2  -2 -13    1.70    0.37
   2  -2 -13    1.80    0.38
   1  -2 -13    0.32    0.20
   1  -2 -13    0.52    0.25
   1  -2 -13    0.42    0.44
   1  -2 -13    0.18    0.30
   0  -2 -13    0.63    0.54
   0  -2 -13    0.12    0.40
   0  -2 -13    0.50    0.30
   0  -2 -13    0.19    0.28
   0  -2 -13    0.15    0.30
   0  -2 -13    0.42    1.36
  -1  -2 -13    1.07    0.50
  -1  -2 -13    1.60    1.61
  -1  -2 -13    0.70    0.56
  -1  -2 -13    0.72    0.32
  -1  -2 -13    0.74    0.42
  -1  -2 -13    0.59    0.41
  -2  -2 -13   -0.27    1.30
  -2  -2 -13   -0.31    0.27
  -3  -2 -13    6.46    2.17
  -3  -2 -13    5.05    0.72
  -4  -2 -13    5.16    0.74
   5   2  13    4.23    0.52
   6   2  13    6.71    0.74
   7   2  13    0.27    0.19
   7   2  13    0.45    0.11
   3  -3 -13    0.29    0.25
   3  -3 -13    0.18    0.25
   2  -3 -13    0.40    0.35
   2  -3 -13    0.38    0.33
   2  -3 -13    0.41    0.16
   1  -3 -13    0.52    0.31
   1  -3 -13    0.00    0.26
   1  -3 -13    1.19    0.43
   0  -3 -13    0.53    0.22
   0  -3 -13    0.78    1.09
   0  -3 -13    0.48    0.13
   0  -3 -13   -0.12    0.44
   0  -3 -13    0.68    0.29
   0  -3 -13    0.34    0.40
  -1  -3 -13    4.30    0.66
  -1  -3 -13    3.97    1.92
  -1  -3 -13    4.55    0.61
  -1  -3 -13    3.83    0.78
  -1  -3 -13    4.45    0.57
  -1  -3 -13    3.38    0.86
  -2  -3 -13    8.37    1.05
  -2  -3 -13    3.68    2.13
  -2  -3 -13    7.52    0.83
  -2  -3 -13    6.75    1.01
  -2  -3 -13    6.34    0.83
  -2  -3 -13    6.58    1.09
  -3  -3 -13    0.71    1.62
  -3  -3 -13    0.71    0.31
  -3  -3 -13    0.46    0.38
  -4  -3 -13    7.99    2.23
  -4  -3 -13    6.19    0.80
  -5  -3 -13   -0.03    0.31
  -6  -3 -13    0.27    0.30
   6   3  13   -0.11    0.20
  -7  -3 -13    0.37    0.22
   7   3  13    1.37    0.21
   2  -4 -13    0.36    0.21
   2  -4 -13    0.73    0.25
   1  -4 -13   -0.26    0.30
   1  -4 -13    0.10    0.30
   1  -4 -13    0.00    0.24
   0  -4 -13    1.09    0.55
   0  -4 -13    1.38    0.36
   0  -4 -13    0.88    0.40
   0  -4 -13    1.11    0.26
  -1  -4 -13    0.17    0.25
  -1  -4 -13    0.50    0.55
  -1  -4 -13    0.45    0.33
  -1  -4 -13    0.21    0.40
  -2  -4 -13    0.38    0.18
  -2  -4 -13    1.53    0.64
  -2  -4 -13    0.16    0.27
  -2  -4 -13   -0.53    1.82
  -2  -4 -13    0.49    0.40
  -2  -4 -13   -0.04    0.36
  -3  -4 -13    4.20    0.54
  -3  -4 -13    6.20    2.46
  -3  -4 -13    4.39    0.61
  -3  -4 -13    4.14    0.87
  -3  -4 -13    3.18    0.59
  -4  -4 -13    3.20    0.47
  -4  -4 -13    2.93    0.43
  -5  -4 -13    0.74    0.38
  -5  -4 -13    0.34    0.27
  -6  -4 -13    1.51    0.33
  -7  -4 -13    0.41    0.17
   7   4  13    0.98    0.21
   2  -5 -13    0.18    0.15
   1  -5 -13    4.77    0.54
   1  -5 -13    6.58    0.65
   0  -5 -13    6.35    0.93
   0  -5 -13    5.84    0.72
   0  -5 -13    6.96    0.79
  -1  -5 -13   13.40    1.31
  -1  -5 -13   12.37    1.12
  -1  -5 -13   12.62    1.29
  -1  -5 -13   13.97    1.68
  -2  -5 -13    0.77    0.27
  -2  -5 -13    0.28    0.20
  -2  -5 -13    0.91    0.40
  -2  -5 -13    0.38    0.43
  -3  -5 -13   -0.10    0.22
  -3  -5 -13    0.43    0.63
  -3  -5 -13    0.43    0.33
  -4  -5 -13    0.27    0.35
  -4  -5 -13    0.89    0.37
  -4  -5 -13    0.74    0.47
  -5  -5 -13    0.81    0.54
  -5  -5 -13    0.57    0.34
  -5  -5 -13    0.68    0.18
  -6  -5 -13    0.13    0.14
  -6  -5 -13    0.01    0.21
  -7  -5 -13    0.08    0.17
  -7  -5 -13    0.42    0.25
  -7  -5 -13    0.26    0.09
   0  -6 -13    0.62    0.19
   0  -6 -13    0.67    0.32
  -1  -6 -13    2.00    0.62
  -1  -6 -13    3.08    0.39
  -1  -6 -13    2.86    0.37
  -2  -6 -13    0.51    0.42
  -2  -6 -13    0.06    0.28
  -3  -6 -13    3.49    0.56
  -3  -6 -13    3.77    0.36
  -3  -6 -13    3.76    0.77
  -4  -6 -13   17.68    1.60
  -4  -6 -13   15.98    1.70
  -4  -6 -13   20.71    2.11
  -5  -6 -13    0.40    0.31
  -5  -6 -13    0.14    0.24
  -5  -6 -13   -0.09    0.30
  -6  -6 -13    0.32    0.22
  -6  -6 -13    0.23    0.24
  -6  -6 -13    0.08    0.19
  -7  -6 -13   -0.24    0.15
  -7  -6 -13    0.10    0.13
  -1  -7 -13    0.62    0.28
  -2  -7 -13   -0.24    0.26
  -3  -7 -13   -0.04    0.16
  -3  -7 -13   -0.11    0.27
  -4  -7 -13   -0.13    0.21
  -4  -7 -13    0.16    0.27
  -5  -7 -13    1.33    0.34
  -5  -7 -13    2.38    0.34
  -6  -7 -13    0.10    0.17
  -6  -7 -13    0.12    0.13
  -3  -7  14    1.17    0.15
  -2  -7  14    0.08    0.13
  -2  -7  14    0.37    0.08
  -1  -7  14    0.33    0.15
   0  -7  14    0.32    0.14
  -4  -6  14    0.76    0.20
  -4  -6  14    0.83    0.18
  -3  -6  14    1.71    0.24
  -3  -6  14    0.78    0.21
  -3  -6  14    0.49    0.21
  -2  -6  14    0.23    0.13
  -2  -6  14   -0.12    0.20
  -1  -6  14    0.10    0.16
  -1  -6  14    0.32    0.15
   0  -6  14   -0.03    0.16
   0  -6  14   -0.05    0.16
   0  -6  14    0.07    0.11
   1  -6  14    1.52    0.28
   2  -6  14    0.43    0.12
  -5  -5  14    0.05    0.10
  -5  -5  14    0.38    0.16
  -4  -5  14    0.26    0.20
  -4  -5  14   -0.10    0.17
  -3  -5  14    3.31    0.48
  -3  -5  14    4.07    0.47
  -3  -5  14    4.35    0.55
  -3  -5  14    4.89    0.47
  -2  -5  14   15.36    1.39
  -2  -5  14   14.09    1.31
  -1  -5  14    3.33    0.36
  -1  -5  14    2.91    0.39
  -1  -5  14    2.10    0.45
   0  -5  14    3.35    0.39
   0  -5  14    3.36    0.47
   0  -5  14    2.25    0.33
   0  -5  14    2.53    0.26
   1  -5  14    0.24    0.17
   1  -5  14    0.10    0.27
   1  -5  14    0.26    0.15
   2  -5  14    0.56    0.12
   2  -5  14    0.48    0.21
   2  -5  14    0.38    0.18
   3  -5  14    0.26    0.13
  -5  -4  14    1.64    0.25
  -5  -4  14    1.57    0.19
  -5  -4  14    1.45    0.27
  -4  -4  14   -0.07    0.13
  -4  -4  14    0.00    0.16
  -3  -4  14    0.22    0.15
  -3  -4  14    0.44    0.24
  -2  -4  14    0.19    0.16
  -2  -4  14    0.29    0.15
  -2  -4  14    0.02    0.17
  -2  -4  14    0.09    0.25
  -1  -4  14    5.36    0.67
  -1  -4  14    4.71    0.53
  -1  -4  14    4.58    0.48
  -1  -4  14    5.56    0.56
   0  -4  14    7.11    0.87
   0  -4  14    6.92    0.68
   1  -4  14    0.96    0.28
   1  -4  14    1.28    0.31
   1  -4  14    1.03    0.18
   1  -4  14    1.60    0.27
   2  -4  14   13.81    1.44
   2  -4  14   12.68    1.48
   2  -4  14   14.99    1.29
   3  -4  14    0.41    0.12
   3  -4  14    0.34    0.24
   4  -4  14    0.03    0.13
   5   3 -14    0.77    0.20
  -5  -3  14    0.84    0.19
   4   3 -14   -0.10    0.17
  -4  -3  14   -0.01    0.19
  -3  -3  14    8.31    0.89
  -2  -3  14    2.66    0.45
  -2  -3  14    3.71    0.42
  -2  -3  14    3.11    0.44
  -1  -3  14    0.42    0.24
  -1  -3  14    0.56    0.20
   0  -3  14    0.39    0.22
   0  -3  14    0.46    0.19
   0  -3  14    0.71    0.20
   1  -3  14    1.00    0.15
   1  -3  14    1.03    0.26
   1  -3  14    0.73    0.25
   1  -3  14    1.16    0.35
   1  -3  14    1.09    0.23
   2  -3  14    1.32    0.35
   2  -3  14    1.07    0.29
   2  -3  14    0.97    0.21
   2  -3  14    1.31    0.26
   3  -3  14    0.38    0.20
   3  -3  14    0.39    0.26
   3  -3  14    0.32    0.12
   4  -3  14    0.65    0.22
   4  -3  14    0.64    0.18
   5  -3  14    7.83    0.84
   5  -3  14    7.87    0.72
   5   2 -14    0.46    0.13
   5   2 -14    0.50    0.19
   5   2 -14    0.49    0.16
  -5  -2  14    0.41    0.19
   4   2 -14    0.27    0.26
  -4  -2  14    0.64    0.20
   3   2 -14   -0.07    0.20
  -3  -2  14    0.09    0.22
  -2  -2  14    0.38    0.22
  -1  -2  14   16.82    1.69
   0  -2  14   37.24    3.18
   0  -2  14   35.88    3.54
   1  -2  14    0.43    0.38
   1  -2  14    1.17    0.27
   1  -2  14    0.72    0.54
   1  -2  14    1.43    0.23
   2  -2  14    1.13    0.28
   2  -2  14    1.66    0.29
   2  -2  14    1.10    0.48
   2  -2  14    1.67    0.29
   2  -2  14    1.40    0.22
   3  -2  14    2.18    0.38
   3  -2  14    2.18    0.32
   3  -2  14    2.69    0.34
   3  -2  14    2.04    0.39
   4  -2  14    2.25    0.29
   4  -2  14    2.23    0.41
   4  -2  14    2.59    0.33
   5  -2  14    0.33    0.14
   5  -2  14    0.32    0.25
   5   1 -14    2.90    0.34
   4   1 -14    5.79    0.66
   4   1 -14    6.37    0.68
   3   1 -14    0.19    0.21
   2   1 -14    0.93    0.39
  -1  -1  14    9.00    0.98
   0  -1  14    0.44    0.16
   1  -1  14   18.98    1.89
   2  -1  14    6.39    0.66
   2  -1  14    6.11    0.68
   2  -1  14    6.08    0.71
   3  -1  14    3.50    0.88
   3  -1  14    5.20    0.64
   3  -1  14    5.97    0.58
   3  -1  14    6.32    0.62
   4  -1  14    1.07    0.25
   4  -1  14    0.86    0.32
   4  -1  14    0.45    0.25
   4  -1  14    0.80    0.15
   5  -1  14    0.91    0.20
   5  -1  14    0.92    0.21
   5  -1  14    0.71    0.22
   6  -1  14    0.80    0.24
   6  -1  14    0.82    0.17
   6  -1  14    0.97    0.11
   4   0 -14    0.80    0.20
   4   0 -14    0.39    0.26
   3   0 -14   -0.08    0.21
   3   0 -14   -0.04    0.32
   3   0 -14    0.26    0.26
   2   0 -14    6.03    0.79
   2   0 -14    5.46    0.74
   2   0 -14    7.08    0.82
   1   0 -14    3.04    0.53
   0   0 -14    3.00    0.52
   1   0  14   25.48    2.51
   2   0  14    5.93    0.83
   3   0  14    3.07    0.43
   3   0  14    3.62    0.43
   3   0  14    1.65    0.56
   4   0  14    0.24    0.17
   4   0  14    0.32    0.17
   5   0  14    6.94    0.74
   5   0  14    7.46    0.85
   5   0  14    7.65    0.71
   6   0  14    4.35    0.52
   6   0  14    5.26    0.57
   6   0  14    4.83    0.50
   4  -1 -14    1.18    0.31
   4  -1 -14    1.58    0.20
   4  -1 -14    0.82    0.18
   3  -1 -14    1.42    0.35
   3  -1 -14    1.29    0.25
   3  -1 -14    0.89    0.39
   3  -1 -14    1.41    0.29
   2  -1 -14    2.91    0.59
   2  -1 -14    5.08    0.58
   2  -1 -14    3.59    0.57
   1  -1 -14    0.13    0.32
   1  -1 -14    0.15    0.30
   0  -1 -14    0.87    0.35
  -1  -1 -14    2.90    0.49
  -2  -1 -14    5.75    0.77
  -2  -1 -14    5.65    2.00
  -3  -1 -14    0.92    1.58
   3   1  14    5.83    0.60
   3   1  14    5.16    0.79
   4   1  14    1.61    0.27
   5   1  14    4.73    0.58
   5   1  14    5.32    0.57
   6   1  14    3.57    0.45
   7   1  14    5.30    0.56
   7   1  14    7.22    0.67
   3  -2 -14    0.14    0.14
   3  -2 -14    0.17    0.21
   3  -2 -14    0.26    0.20
   2  -2 -14    1.76    0.44
   2  -2 -14    1.57    0.36
   2  -2 -14    1.72    0.37
   1  -2 -14    4.75    0.53
   1  -2 -14    5.21    0.64
   1  -2 -14    3.53    0.67
   1  -2 -14    3.17    0.57
   0  -2 -14    0.00    0.21
   0  -2 -14    0.19    0.26
  -1  -2 -14    0.16    0.21
  -1  -2 -14    0.28    0.44
  -1  -2 -14    0.07    1.48
  -2  -2 -14    1.65    1.29
  -2  -2 -14    1.03    0.35
  -2  -2 -14    1.88    0.46
  -3  -2 -14    1.02    0.30
  -3  -2 -14    1.35    1.28
   3   2  14    1.70    0.48
  -4  -2 -14    1.23    0.30
  -5  -2 -14    0.38    0.25
   5   2  14    0.39    0.22
   6   2  14    3.52    0.46
   7   2  14    4.32    0.44
   3  -3 -14    8.57    0.87
   2  -3 -14    1.63    0.20
   2  -3 -14    0.98    0.35
   2  -3 -14    1.60    0.39
   1  -3 -14    0.98    0.40
   1  -3 -14    0.69    0.40
   1  -3 -14    1.08    0.31
   0  -3 -14    0.60    0.33
   0  -3 -14    1.31    0.36
   0  -3 -14    1.51    0.45
  -1  -3 -14    1.24    1.26
  -1  -3 -14    1.62    0.48
  -1  -3 -14    1.07    0.53
  -1  -3 -14    1.81    0.31
  -2  -3 -14    0.61    0.29
  -2  -3 -14    0.82    0.24
  -2  -3 -14    0.59    0.41
  -2  -3 -14    0.46    1.80
  -3  -3 -14    0.26    1.71
  -3  -3 -14   -0.01    0.26
  -3  -3 -14    0.47    0.29
  -4  -3 -14    2.86    0.42
  -5  -3 -14   -0.16    0.19
  -6  -3 -14    0.12    0.19
   6   3  14    0.28    0.15
  -7  -3 -14    0.15    0.16
   7   3  14    0.22    0.10
   2  -4 -14   13.53    1.33
   1  -4 -14    1.89    0.40
   1  -4 -14    3.84    0.49
   0  -4 -14    7.60    0.88
   0  -4 -14    6.47    0.81
   0  -4 -14    8.10    0.71
   0  -4 -14    6.15    0.95
  -1  -4 -14    0.52    0.34
  -1  -4 -14    0.78    0.29
  -1  -4 -14    1.23    0.42
  -1  -4 -14    1.05    0.43
  -2  -4 -14   -0.11    0.39
  -2  -4 -14    0.19    0.11
  -2  -4 -14   -0.25    0.25
  -2  -4 -14    0.17    0.38
  -2  -4 -14    0.06    0.41
  -3  -4 -14    0.08    0.27
  -3  -4 -14    0.47    0.37
  -3  -4 -14   -0.11    0.19
  -3  -4 -14    0.03    0.56
  -4  -4 -14    0.79    0.57
  -4  -4 -14    0.44    0.18
  -4  -4 -14    0.05    0.37
  -5  -4 -14    0.51    0.27
  -5  -4 -14    0.29    0.24
  -6  -4 -14    0.59    0.24
   1  -5 -14    0.66    0.13
   1  -5 -14    0.88    0.21
   0  -5 -14    1.75    0.42
   0  -5 -14    1.37    0.31
   0  -5 -14    2.12    0.34
  -1  -5 -14    0.42    0.48
  -1  -5 -14    0.02    0.22
  -1  -5 -14   -0.05    0.17
  -2  -5 -14    1.19    0.26
  -2  -5 -14    1.50    0.31
  -2  -5 -14    2.39    0.63
  -2  -5 -14    1.30    0.33
  -3  -5 -14    2.57    0.52
  -3  -5 -14    3.30    0.44
  -3  -5 -14    2.74    0.63
  -4  -5 -14    0.69    0.35
  -4  -5 -14    0.79    0.28
  -4  -5 -14    1.52    0.63
  -5  -5 -14    0.78    0.13
  -5  -5 -14    1.51    0.36
  -5  -5 -14    1.16    0.42
  -6  -5 -14    0.61    0.31
  -6  -5 -14    0.35    0.30
  -6  -5 -14    0.29    0.09
  -7  -5 -14    0.24    0.17
  -7  -5 -14    0.14    0.20
   0  -6 -14    0.75    0.25
   0  -6 -14    0.00    0.12
  -1  -6 -14    0.11    0.30
  -1  -6 -14   -0.09    0.12
  -1  -6 -14    0.18    0.15
  -2  -6 -14    0.13    0.19
  -2  -6 -14   -0.58    0.41
  -3  -6 -14    6.31    0.87
  -3  -6 -14    5.45    0.64
  -4  -6 -14    1.68    0.53
  -4  -6 -14    1.47    0.38
  -5  -6 -14    1.21    0.38
  -5  -6 -14    1.20    0.33
  -5  -6 -14    1.68    0.24
  -6  -6 -14    0.80    0.28
  -6  -6 -14    1.16    0.23
  -6  -6 -14    0.78    0.22
  -2  -7 -14    0.44    0.27
  -3  -7 -14   -0.02    0.23
  -3  -7 -14    0.02    0.11
  -4  -7 -14    0.14    0.26
  -4  -7 -14   -0.08    0.18
  -5  -7 -14    1.74    0.34
  -5  -7 -14    1.56    0.27
  -3  -6  15    0.77    0.15
  -2  -6  15    0.42    0.16
  -2  -6  15    1.07    0.18
  -1  -6  15    0.12    0.10
  -1  -6  15    0.35    0.17
   0  -6  15    0.14    0.16
   0  -6  15    0.10    0.09
   1  -6  15   -0.01    0.13
   1  -6  15    0.05    0.13
  -4  -5  15    0.17    0.16
  -4  -5  15   -0.10    0.13
  -3  -5  15    0.07    0.18
  -3  -5  15    0.00    0.20
  -3  -5  15    0.31    0.13
  -2  -5  15    0.60    0.22
  -2  -5  15    0.59    0.14
  -2  -5  15    0.24    0.21
  -1  -5  15    0.81    0.25
  -1  -5  15    1.17    0.21
  -1  -5  15    0.96    0.17
   0  -5  15    0.55    0.16
   0  -5  15    0.66    0.24
   1  -5  15    1.04    0.20
   1  -5  15    0.99    0.20
   1  -5  15    1.03    0.26
   2  -5  15    2.39    0.32
   2  -5  15    2.59    0.27
   3  -5  15    0.35    0.12
  -4  -4  15    0.75    0.23
  -4  -4  15    0.88    0.13
  -4  -4  15    0.88    0.23
  -3  -4  15    2.53    0.31
  -3  -4  15    2.49    0.36
  -2  -4  15    3.22    0.43
  -2  -4  15    3.03    0.39
  -2  -4  15    3.10    0.34
  -2  -4  15    2.42    0.48
  -1  -4  15    1.87    0.34
  -1  -4  15    1.85    0.26
  -1  -4  15    1.63    0.33
   0  -4  15    0.71    0.26
   0  -4  15    0.95    0.26
   0  -4  15    0.57    0.19
   1  -4  15   -0.17    0.11
   1  -4  15   -0.15    0.19
   1  -4  15   -0.16    0.18
   1  -4  15    0.20    0.21
   2  -4  15    3.06    0.42
   2  -4  15    3.64    0.41
   3  -4  15    8.07    0.87
   3  -4  15    8.36    0.77
   4  -4  15    2.56    0.32
   4   3 -15    0.03    0.22
  -4  -3  15   -0.02    0.12
  -3  -3  15    0.61    0.17
  -2  -3  15    0.13    0.22
  -2  -3  15    0.10    0.13
  -2  -3  15    0.15    0.17
  -1  -3  15    2.90    0.40
  -1  -3  15    3.01    0.48
  -1  -3  15    3.48    0.42
   0  -3  15    5.74    0.62
   0  -3  15    5.92    0.63
   0  -3  15    5.75    0.72
   1  -3  15    3.60    0.44
   1  -3  15    3.90    0.53
   1  -3  15    3.31    0.45
   2  -3  15    0.86    0.25
   2  -3  15    0.80    0.20
   2  -3  15    1.29    0.30
   2  -3  15    1.27    0.25
   3  -3  15    1.21    0.26
   3  -3  15    1.11    0.17
   3  -3  15    1.08    0.20
   4  -3  15    4.34    0.54
   4  -3  15    4.80    0.48
   4   2 -15    0.78    0.24
  -4  -2  15    1.67    0.27
   3   2 -15    1.62    0.38
  -3  -2  15    2.66    0.36
  -2  -2  15    4.62    0.55
  -1  -2  15    7.19    0.80
   0  -2  15    2.99    0.44
   0  -2  15    3.18    0.40
   1  -2  15    2.80    0.39
   1  -2  15    2.60    0.36
   2  -2  15    8.28    0.86
   2  -2  15    9.63    0.89
   2  -2  15    7.33    0.91
   2  -2  15    9.59    0.85
   3  -2  15    1.13    0.25
   3  -2  15    0.54    0.27
   3  -2  15    0.93    0.23
   3  -2  15    0.65    0.24
   4  -2  15    1.73    0.25
   4  -2  15    1.81    0.29
   4  -2  15    2.54    0.35
   5  -2  15    1.18    0.22
   5  -2  15    1.78    0.27
   4   1 -15    0.28    0.19
   4   1 -15    0.42    0.13
   3   1 -15    2.29    0.39
   2   1 -15    7.77    0.90
   1   1 -15    3.38    0.64
  -1  -1  15    5.50    0.61
   0  -1  15    0.59    0.24
   1  -1  15   33.39    3.26
   2  -1  15    5.89    0.64
   2  -1  15    5.94    0.63
   2  -1  15    5.34    0.66
   3  -1  15    4.04    0.53
   3  -1  15    4.25    0.59
   3  -1  15    4.80    0.51
   4  -1  15   -0.06    0.07
   4  -1  15    0.27    0.18
   4  -1  15    0.15    0.24
   4  -1  15    0.19    0.21
   5  -1  15    4.70    0.46
   5  -1  15    4.48    0.58
   5  -1  15    4.15    0.48
   6  -1  15    2.91    0.34
   6  -1  15    3.68    0.40
   4   0 -15    5.52    0.55
   3   0 -15   -0.15    0.29
   3   0 -15    0.14    0.15
   2   0 -15   -0.08    0.22
   2   0 -15    0.06    0.19
   2   0 -15   -0.05    0.35
   1   0 -15    1.78    0.42
   0   0 -15    0.23    0.34
   1   0  15    8.74    0.95
   2   0  15    3.32    0.45
   3   0  15    1.11    0.25
   3   0  15    0.86    0.24
   4   0  15   12.64    1.28
   4   0  15   12.56    1.20
   4   0  15   13.37    1.34
   5   0  15    2.22    0.27
   5   0  15    2.01    0.35
   5   0  15    1.67    0.31
   6   0  15    2.23    0.23
   6   0  15    1.25    0.26
   6   0  15    1.50    0.24
   3  -1 -15    4.24    0.46
   3  -1 -15    2.05    0.38
   3  -1 -15    3.08    0.43
   3  -1 -15    2.53    0.33
   2  -1 -15    1.61    0.35
   2  -1 -15    2.00    0.35
   2  -1 -15    1.35    0.24
   1  -1 -15    5.62    0.71
   1  -1 -15    4.86    0.64
   0  -1 -15    1.84    0.42
  -1  -1 -15    0.19    0.31
  -2  -1 -15   -0.04    0.31
   3   1  15   -0.08    0.19
   4   1  15    0.56    0.21
   5   1  15    2.92    0.42
   5   1  15    3.35    0.40
   6   1  15    8.30    0.86
   6   1  15    9.00    0.82
   6   1  15    9.47    0.94
   3  -2 -15    1.05    0.24
   3  -2 -15    1.89    0.18
   3  -2 -15    1.85    0.30
   2  -2 -15    0.57    0.28
   2  -2 -15    1.17    0.30
   2  -2 -15    0.81    0.27
   1  -2 -15    0.69    0.15
   1  -2 -15    0.42    0.25
   1  -2 -15    0.38    0.31
   1  -2 -15    0.73    0.32
   0  -2 -15    6.11    0.82
   0  -2 -15    7.85    0.84
  -1  -2 -15    1.67    0.38
  -2  -2 -15    0.66    0.46
  -2  -2 -15    0.51    0.31
  -2  -2 -15    0.98    1.67
  -3  -2 -15    0.44    0.31
  -4  -2 -15    0.46    0.24
   4   2  15    1.04    0.26
   5   2  15    3.66    0.50
  -6  -2 -15    0.21    0.29
   6   2  15    0.48    0.17
   7   2  15    2.50    0.27
   7   2  15    2.06    0.31
   2  -3 -15    1.04    0.32
   2  -3 -15    1.66    0.30
   1  -3 -15    2.95    0.58
   1  -3 -15    4.50    0.58
   1  -3 -15    5.07    0.53
   0  -3 -15    1.80    0.40
   0  -3 -15    1.57    0.38
   0  -3 -15    1.39    0.46
  -1  -3 -15   -0.12    0.26
  -1  -3 -15    0.05    0.39
  -1  -3 -15    0.15    0.19
  -2  -3 -15    1.48    0.34
  -2  -3 -15    1.77    0.47
  -2  -3 -15    2.33    0.49
  -3  -3 -15    0.40    0.29
  -3  -3 -15    0.00    0.38
  -3  -3 -15    0.91    0.41
  -4  -3 -15    0.52    0.29
  -5  -3 -15    1.87    0.33
  -7  -3 -15    1.01    0.22
   2  -4 -15    4.61    0.45
   1  -4 -15    1.19    0.26
   1  -4 -15    2.11    0.33
   0  -4 -15    0.73    0.20
   0  -4 -15    0.40    0.32
   0  -4 -15    0.71    0.28
  -1  -4 -15    2.13    0.35
  -1  -4 -15    1.48    0.46
  -1  -4 -15    3.00    0.43
  -1  -4 -15    2.14    0.43
  -2  -4 -15    2.73    0.47
  -2  -4 -15    3.20    0.54
  -2  -4 -15    4.25    0.67
  -3  -4 -15    0.85    0.21
  -3  -4 -15    0.60    0.30
  -3  -4 -15    0.74    0.42
  -3  -4 -15    0.94    0.38
  -3  -4 -15    0.69    0.24
  -4  -4 -15    0.11    0.53
  -4  -4 -15    0.63    0.38
  -4  -4 -15    0.66    0.22
  -5  -4 -15    1.13    0.25
  -5  -4 -15    0.68    0.28
  -6  -4 -15    0.62    0.25
  -6  -4 -15    0.40    0.15
   6   4  15    0.92    0.19
  -7  -4 -15    0.11    0.19
  -7  -4 -15    0.19    0.11
   1  -5 -15    0.33    0.14
   0  -5 -15    0.25    0.25
   0  -5 -15   -0.04    0.17
  -1  -5 -15    0.20    0.18
  -1  -5 -15    0.15    0.40
  -1  -5 -15    0.60    0.31
  -2  -5 -15    1.93    0.32
  -2  -5 -15    2.97    0.33
  -2  -5 -15    1.21    0.54
  -2  -5 -15    1.91    0.43
  -3  -5 -15    0.31    0.35
  -3  -5 -15    0.02    0.34
  -4  -5 -15    0.03    0.29
  -4  -5 -15    0.32    0.26
  -4  -5 -15    0.13    0.34
  -5  -5 -15    1.50    0.40
  -5  -5 -15    1.08    0.26
  -6  -5 -15    1.20    0.32
  -6  -5 -15    1.24    0.30
  -1  -6 -15    0.66    0.31
  -1  -6 -15    0.25    0.11
  -2  -6 -15    0.40    0.16
  -2  -6 -15    0.21    0.37
  -3  -6 -15    4.19    0.50
  -3  -6 -15    4.51    0.67
  -4  -6 -15    1.83    0.46
  -4  -6 -15    2.68    0.26
  -4  -6 -15    2.54    0.41
  -5  -6 -15    0.37    0.25
  -5  -6 -15    0.13    0.28
  -6  -6 -15   -0.25    0.17
  -6  -6 -15    0.20    0.13
  -3  -7 -15    0.45    0.21
  -4  -7 -15    0.35    0.14
  -4  -7 -15    0.30    0.21
  -2  -6  16    0.42    0.14
  -2  -6  16    0.12    0.12
  -1  -6  16   -0.03    0.12
  -1  -6  16    0.07    0.10
   0  -6  16    1.00    0.19
   0  -6  16    0.54    0.08
  -3  -5  16    0.46    0.12
  -3  -5  16    0.75    0.18
  -2  -5  16    2.61    0.29
  -2  -5  16    3.88    0.40
  -2  -5  16    2.58    0.38
  -1  -5  16    0.54    0.25
  -1  -5  16    0.74    0.12
  -1  -5  16    0.70    0.21
   0  -5  16   -0.06    0.16
   0  -5  16    0.07    0.16
   1  -5  16    0.30    0.17
   1  -5  16    0.28    0.14
   2  -5  16    0.90    0.18
   2  -5  16    1.45    0.15
  -4  -4  16    0.84    0.20
  -3  -4  16    1.69    0.25
  -3  -4  16    1.32    0.29
  -2  -4  16    1.97    0.36
  -2  -4  16    2.64    0.33
  -1  -4  16    2.79    0.35
  -1  -4  16    1.93    0.30
  -1  -4  16    2.04    0.39
   0  -4  16    2.06    0.30
   0  -4  16    1.97    0.35
   0  -4  16    1.49    0.25
   1  -4  16    2.52    0.27
   1  -4  16    2.34    0.39
   2  -4  16    0.27    0.18
   2  -4  16    0.31    0.14
   3  -4  16    0.25    0.13
   4   3 -16    0.12    0.13
  -4  -3  16    0.17    0.09
   3   3 -16    0.30    0.29
  -3  -3  16    1.38    0.20
  -2  -3  16    2.15    0.34
  -2  -3  16    1.93    0.27
  -2  -3  16    1.79    0.31
  -1  -3  16    0.46    0.25
  -1  -3  16    0.39    0.16
  -1  -3  16    0.29    0.25
   0  -3  16   -0.03    0.10
   0  -3  16    0.32    0.20
   0  -3  16    0.05    0.15
   1  -3  16    5.14    0.60
   1  -3  16    5.64    0.57
   1  -3  16    5.37    0.67
   2  -3  16    2.82    0.36
   2  -3  16    2.59    0.38
   2  -3  16    3.42    0.35
   2  -3  16    2.65    0.43
   3  -3  16    3.15    0.31
   3  -3  16    3.37    0.46
   3  -3  16    3.51    0.41
   4  -3  16   10.22    0.89
   4  -3  16    8.79    0.98
   4   2 -16    0.15    0.13
  -4  -2  16    0.29    0.17
   3   2 -16    0.57    0.21
  -3  -2  16    1.17    0.24
   2   2 -16    2.83    0.56
  -2  -2  16    4.38    0.52
  -2  -2  16    4.02    0.52
  -1  -2  16    8.78    0.94
   0  -2  16    0.56    0.21
   0  -2  16    1.19    0.29
   1  -2  16    0.31    0.23
   1  -2  16    0.18    0.18
   2  -2  16    2.21    0.30
   2  -2  16    2.67    0.37
   2  -2  16    2.52    0.32
   2  -2  16    2.15    0.35
   3  -2  16    0.37    0.18
   3  -2  16    0.38    0.16
   3  -2  16    0.24    0.24
   3  -2  16    0.41    0.15
   4  -2  16    0.65    0.19
   4  -2  16    0.81    0.15
   4  -2  16    0.39    0.20
   5  -2  16    3.71    0.42
   5  -2  16    2.87    0.33
   4   1 -16    0.57    0.14
   4   1 -16    0.70    0.18
   3   1 -16    0.98    0.21
  -3  -1  16    1.07    0.26
   2   1 -16    0.03    0.19
   2   1 -16    0.24    0.30
  -2  -1  16    0.61    0.19
   1   1 -16    1.02    0.34
  -1  -1  16    2.16    0.33
   0  -1  16    0.27    0.24
   1  -1  16   20.44    2.03
   2  -1  16   25.92    2.31
   2  -1  16   26.39    2.56
   3  -1  16    3.66    0.42
   3  -1  16    2.54    0.42
   3  -1  16    3.00    0.37
   4  -1  16    0.46    0.21
   4  -1  16    0.57    0.21
   4  -1  16    0.61    0.20
   5  -1  16    0.64    0.20
   5  -1  16    1.30    0.18
   5  -1  16    0.90    0.22
   3   0 -16    6.25    0.69
   3   0 -16    6.29    0.60
   3   0 -16    5.58    0.59
   2   0 -16    5.27    0.62
   2   0 -16    4.21    0.61
   2   0 -16    4.92    0.59
   1   0 -16    0.47    0.26
   0   0 -16    0.19    0.34
   0   0  16    0.62    0.26
  -1   0 -16   -0.38    0.32
   1   0  16    0.19    0.21
   2   0  16    7.69    0.85
   3   0  16    4.23    0.57
   3   0  16    5.62    0.58
   3   0  16    4.20    0.55
   4   0  16    0.37    0.19
   4   0  16    0.06    0.11
   4   0  16    0.19    0.17
   5   0  16   13.91    1.20
   5   0  16   12.47    1.34
   6   0  16    0.42    0.16
   6   0  16    0.82    0.15
   3  -1 -16    0.43    0.21
   3  -1 -16    0.18    0.18
   2  -1 -16    0.09    0.27
   2  -1 -16    0.55    0.10
   2  -1 -16    0.48    0.30
   1  -1 -16   -0.27    0.31
   1  -1 -16   -0.08    0.22
   1  -1 -16   -0.03    0.23
   0  -1 -16    4.14    0.53
   0  -1 -16    2.47    0.49
  -1  -1 -16    6.70    0.86
  -2  -1 -16    2.46    0.46
  -3  -1 -16    1.16    0.30
   5   1  16    2.58    0.35
   5   1  16    2.67    0.37
   5   1  16    2.93    0.41
   6   1  16    3.09    0.40
   6   1  16    3.09    0.34
   2  -2 -16    0.93    0.24
   2  -2 -16    1.18    0.24
   2  -2 -16    1.23    0.26
   1  -2 -16    1.11    0.32
   1  -2 -16    0.87    0.37
   1  -2 -16    0.61    0.32
   0  -2 -16    1.41    0.27
   0  -2 -16    0.81    0.35
  -1  -2 -16    1.54    0.34
  -1  -2 -16    0.61    0.31
  -2  -2 -16   -0.12    0.29
  -3  -2 -16    0.06    0.20
  -3  -2 -16    0.04    0.29
   4   2  16    3.85    0.48
  -6  -2 -16    1.75    0.34
   2  -3 -16    0.24    0.17
   2  -3 -16    0.07    0.15
   1  -3 -16    0.49    0.18
   1  -3 -16    0.55    0.30
   1  -3 -16    0.68    0.24
   0  -3 -16    3.58    0.48
   0  -3 -16    2.60    0.41
   0  -3 -16    1.90    0.49
  -1  -3 -16    2.26    0.39
  -1  -3 -16    1.12    0.35
  -1  -3 -16    1.99    0.28
  -1  -3 -16    2.00    0.41
  -2  -3 -16    0.63    0.24
  -2  -3 -16    0.08    0.39
  -3  -3 -16    0.06    0.25
  -3  -3 -16   -0.20    0.42
  -3  -3 -16    0.16    0.26
  -4  -3 -16    0.60    0.27
  -4  -3 -16   -0.29    0.30
  -5  -3 -16    0.11    0.18
   5   3  16   -0.07    0.19
  -6  -3 -16   -0.03    0.20
   6   3  16    0.33    0.13
   1  -4 -16    0.62    0.17
   1  -4 -16    0.28    0.18
   0  -4 -16    0.26    0.21
   0  -4 -16    0.29    0.08
   0  -4 -16    0.50    0.30
  -1  -4 -16    0.97    0.25
  -1  -4 -16    0.41    0.37
  -1  -4 -16    1.14    0.27
  -2  -4 -16    2.09    0.34
  -2  -4 -16    2.05    0.51
  -2  -4 -16    1.85    0.34
  -2  -4 -16    1.87    0.38
  -3  -4 -16    0.19    0.16
  -3  -4 -16    0.27    0.10
  -3  -4 -16    0.64    0.47
  -3  -4 -16    0.21    0.27
  -4  -4 -16   -0.07    0.31
  -4  -4 -16    0.20    0.15
  -4  -4 -16    0.18    0.24
  -5  -4 -16    0.71    0.43
  -5  -4 -16    1.04    0.20
  -5  -4 -16    0.95    0.35
  -6  -4 -16    1.20    0.32
  -6  -4 -16    1.16    0.26
  -6  -4 -16    1.45    0.20
   0  -5 -16   10.26    1.01
  -1  -5 -16    0.46    0.25
  -1  -5 -16    0.63    0.21
  -1  -5 -16    0.58    0.18
  -2  -5 -16    1.88    0.42
  -2  -5 -16    2.96    0.38
  -2  -5 -16    2.32    0.46
  -2  -5 -16    2.95    0.29
  -3  -5 -16    0.26    0.29
  -3  -5 -16    0.03    0.21
  -3  -5 -16   -0.11    0.11
  -4  -5 -16   -0.28    0.27
  -4  -5 -16    0.23    0.27
  -4  -5 -16   -0.17    0.31
  -5  -5 -16    0.26    0.27
  -5  -5 -16   -0.07    0.17
  -6  -5 -16    0.13    0.15
  -6  -5 -16   -0.13    0.20
  -2  -6 -16   -0.05    0.20
  -2  -6 -16    0.13    0.14
  -3  -6 -16    0.09    0.21
  -3  -6 -16    0.14    0.16
  -4  -6 -16    0.59    0.26
  -4  -6 -16    0.84    0.26
  -5  -6 -16    0.99    0.21
  -5  -6 -16    0.87    0.26
  -2  -5  17    0.69    0.18
  -2  -5  17    0.34    0.09
  -2  -5  17    0.31    0.13
  -1  -5  17    0.37    0.15
  -1  -5  17    0.26    0.16
   0  -5  17    0.93    0.16
   0  -5  17    0.92    0.21
   1  -5  17    1.71    0.22
  -3  -4  17    0.59    0.15
  -2  -4  17    0.90    0.22
  -2  -4  17    1.63    0.25
  -1  -4  17    0.19    0.15
  -1  -4  17    0.24    0.17
  -1  -4  17    0.41    0.17
   0  -4  17    0.07    0.15
   0  -4  17    0.10    0.13
   0  -4  17    0.11    0.25
   1  -4  17    1.33    0.29
   1  -4  17    1.50    0.18
   1  -4  17    1.34    0.26
   2  -4  17    5.20    0.56
   3  -4  17    2.46    0.25
   3   3 -17   -0.15    0.20
  -3  -3  17    0.26    0.09
  -3  -3  17    0.42    0.16
  -2  -3  17    0.97    0.20
  -2  -3  17    0.82    0.17
  -2  -3  17    0.73    0.19
  -1  -3  17    0.50    0.13
  -1  -3  17    0.50    0.18
  -1  -3  17    0.60    0.20
   0  -3  17    0.22    0.07
   0  -3  17    0.25    0.20
   0  -3  17    0.35    0.26
   1  -3  17    1.13    0.32
   1  -3  17    1.29    0.24
   2  -3  17   -0.06    0.17
   2  -3  17   -0.18    0.18
   2  -3  17   -0.05    0.16
   2  -3  17    0.23    0.13
   3  -3  17    1.79    0.28
   3  -3  17    2.12    0.28
   4  -3  17    0.59    0.14
   4  -3  17    0.58    0.11
   3   2 -17    0.28    0.20
  -3  -2  17    0.06    0.17
   2   2 -17    0.06    0.20
  -2  -2  17    0.03    0.12
  -2  -2  17    0.25    0.19
  -1  -2  17    0.45    0.21
   0  -2  17    0.68    0.27
   0  -2  17    1.15    0.23
   1  -2  17    5.42    0.58
   1  -2  17    5.37    0.60
   2  -2  17    6.67    0.71
   2  -2  17    8.09    0.73
   2  -2  17    8.28    0.88
   2  -2  17    7.42    0.78
   3  -2  17    0.89    0.20
   3  -2  17    1.06    0.21
   3  -2  17    0.65    0.26
   3  -2  17    0.99    0.23
   4  -2  17    0.13    0.14
   4  -2  17   -0.08    0.11
   4  -2  17    0.07    0.09
   3   1 -17    1.58    0.37
   3   1 -17    2.35    0.30
  -3  -1  17    3.29    0.34
   2   1 -17    4.62    0.51
   2   1 -17    3.44    0.48
   1   1 -17    2.88    0.44
   0  -1  17    0.16    0.22
   1  -1  17   11.50    1.19
   2  -1  17   11.31    1.14
   2  -1  17   13.47    1.26
   3  -1  17    0.88    0.27
   3  -1  17    0.88    0.16
   3  -1  17    0.71    0.20
   4  -1  17   13.18    1.07
   4  -1  17   10.50    1.21
   5  -1  17    0.70    0.20
   5  -1  17    1.31    0.22
   5  -1  17    1.31    0.16
   3   0 -17    0.05    0.14
   2   0 -17    0.23    0.22
   2   0 -17    0.15    0.13
   2   0 -17    0.27    0.18
   1   0 -17    5.28    0.70
   0   0 -17    5.53    0.87
   0   0  17    8.37    0.82
  -1   0 -17    0.87    0.30
   1   0  17    1.64    0.29
   2   0  17    5.56    0.62
   3   0  17   43.20    4.10
   3   0  17   41.52    3.67
   4   0  17    9.19    0.98
   4   0  17    9.48    0.89
   4   0  17    8.93    0.93
   5   0  17    0.02    0.13
   5   0  17    0.30    0.14
   2  -1 -17    1.79    0.26
   2  -1 -17    0.87    0.28
   1  -1 -17    0.25    0.29
   1  -1 -17    0.29    0.17
   1  -1 -17    0.06    0.22
   0  -1 -17   -0.01    0.28
   0  -1 -17    0.00    0.31
  -1  -1 -17    1.16    0.29
  -2  -1 -17    0.28    0.25
   2   1  17    1.93    0.26
  -3  -1 -17   -0.12    0.30
   3   1  17    0.53    0.22
   4   1  17    6.47    0.67
   4   1  17    5.50    0.66
   5   1  17    2.37    0.37
   5   1  17    2.51    0.38
   5   1  17    3.41    0.35
   6   1  17    2.43    0.32
   2  -2 -17   -0.01    0.14
   2  -2 -17   -0.08    0.16
   2  -2 -17    0.07    0.10
   1  -2 -17    2.45    0.38
   1  -2 -17    1.93    0.36
   1  -2 -17    2.33    0.33
   0  -2 -17    0.19    0.13
   0  -2 -17    0.41    0.30
   0  -2 -17    0.21    0.25
  -1  -2 -17    1.13    0.33
  -1  -2 -17    1.68    0.32
  -2  -2 -17    0.72    0.23
  -3  -2 -17    0.28    0.21
  -4  -2 -17   -0.13    0.26
  -5  -2 -17    0.18    0.18
   6   2  17    5.47    0.59
   6   2  17    6.49    0.62
   6   2  17    6.48    0.67
   1  -3 -17   -0.07    0.17
   1  -3 -17   -0.03    0.08
   1  -3 -17   -0.04    0.16
   0  -3 -17   -0.02    0.20
   0  -3 -17    0.29    0.23
   0  -3 -17    0.10    0.22
  -1  -3 -17    0.01    0.29
  -1  -3 -17    0.23    0.26
  -1  -3 -17    0.08    0.19
  -2  -3 -17    2.85    0.38
  -3  -3 -17    0.48    0.40
  -3  -3 -17    0.10    0.27
  -3  -3 -17    0.04    0.20
  -4  -3 -17   -0.05    0.36
  -4  -3 -17    0.44    0.18
  -4  -3 -17    0.04    0.37
  -5  -3 -17    1.61    0.28
  -5  -3 -17    0.93    0.33
  -6  -3 -17    0.50    0.14
  -6  -3 -17    0.64    0.24
   0  -4 -17    0.58    0.20
   0  -4 -17    0.99    0.20
  -1  -4 -17    6.85    0.59
  -1  -4 -17    5.32    0.65
  -1  -4 -17    5.25    0.64
  -2  -4 -17    1.06    0.28
  -2  -4 -17    1.13    0.34
  -2  -4 -17    1.45    0.38
  -2  -4 -17    1.51    0.27
  -3  -4 -17   -0.02    0.13
  -3  -4 -17    0.06    0.25
  -4  -4 -17    0.18    0.28
  -4  -4 -17    0.18    0.08
  -4  -4 -17    0.31    0.22
  -5  -4 -17    0.24    0.09
  -5  -4 -17    0.05    0.24
  -5  -4 -17    0.43    0.29
  -6  -4 -17    0.38    0.22
  -1  -5 -17    1.23    0.19
  -1  -5 -17    0.48    0.16
  -2  -5 -17    0.81    0.24
  -2  -5 -17    0.78    0.19
  -3  -5 -17    0.90    0.24
  -3  -5 -17    0.96    0.14
  -3  -5 -17    0.95    0.35
  -4  -5 -17    0.16    0.10
  -4  -5 -17    0.41    0.23
  -4  -5 -17   -0.25    0.18
  -5  -5 -17    0.74    0.17
  -5  -5 -17    0.25    0.23
  -2  -4  18    1.29    0.18
  -1  -4  18    0.44    0.15
  -1  -4  18    0.02    0.20
  -1  -4  18    0.34    0.11
   0  -4  18    1.50    0.26
   0  -4  18    1.25    0.15
   0  -4  18    0.98    0.23
   1  -4  18    0.07    0.19
   1  -4  18    0.57    0.15
   2  -4  18    0.64    0.13
  -2  -3  18    4.01    0.41
  -1  -3  18    0.44    0.16
  -1  -3  18    0.32    0.17
   0  -3  18    0.30    0.14
   0  -3  18    0.19    0.17
   1  -3  18    3.89    0.39
   1  -3  18    3.85    0.50
   1  -3  18    3.73    0.45
   2  -3  18    7.41    0.67
   3   2 -18    1.92    0.24
   2   2 -18    0.04    0.20
  -2  -2  18    0.07    0.11
  -1  -2  18    1.42    0.26
  -1  -2  18    1.41    0.22
   0  -2  18    0.74    0.19
   0  -2  18    0.75    0.24
   1  -2  18    0.37    0.20
   1  -2  18    0.19    0.10
   1  -2  18    0.17    0.22
   2  -2  18    0.48    0.21
   2  -2  18    0.20    0.18
   3  -2  18    1.92    0.26
   3  -2  18    2.48    0.27
   3  -2  18    1.13    0.27
   3  -2  18    1.96    0.29
   4  -2  18    0.90    0.19
   2   1 -18    0.61    0.22
  -2  -1  18    1.57    0.24
   1   1 -18    2.75    0.43
   0   1 -18    0.75    0.32
   0  -1  18    0.50    0.17
   1  -1  18    2.87    0.40
   2  -1  18    1.67    0.31
   2  -1  18    1.77    0.26
   3  -1  18    0.60    0.17
   3  -1  18    0.51    0.11
   3  -1  18    0.40    0.23
   4  -1  18    0.26    0.13
   4  -1  18    0.01    0.12
   2   0 -18    0.36    0.24
   2   0 -18    0.37    0.19
   2   0 -18    0.40    0.10
   1   0 -18    0.18    0.16
   1   0 -18   -0.03    0.25
  -1   0  18    0.72    0.17
   0   0 -18    0.26    0.21
   0   0  18    0.76    0.24
  -1   0 -18    0.77    0.33
  -2   0 -18    0.53    0.25
   2   0  18    1.00    0.23
   3   0  18    4.89    0.53
   3   0  18    4.31    0.50
   4   0  18   35.27    2.84
   4   0  18   30.34    3.20
   4   0  18   32.80    3.15
   5   0  18    0.55    0.17
   5   0  18    0.23    0.12
   2  -1 -18    0.17    0.13
   2  -1 -18    0.22    0.18
   1  -1 -18    1.79    0.22
   1  -1 -18    1.55    0.29
   1  -1 -18    0.94    0.26
   0  -1 -18    3.46    0.52
   0  -1 -18    4.55    0.54
  -1  -1 -18    0.09    0.19
  -2  -1 -18    0.12    0.28
   2   1  18    0.12    0.20
  -3  -1 -18    0.53    0.32
   3   1  18    1.53    0.26
  -4  -1 -18   -0.15    0.19
   4   1  18   -0.04    0.12
   4   1  18    0.01    0.15
   5   1  18   20.43    1.96
   5   1  18   19.25    1.91
   1  -2 -18    0.50    0.15
   1  -2 -18    0.66    0.20
   1  -2 -18    0.12    0.26
   0  -2 -18    0.46    0.20
   0  -2 -18    0.36    0.22
  -1  -2 -18    0.09    0.19
  -1  -2 -18   -0.16    0.12
  -2  -2 -18    5.57    0.63
  -3  -2 -18    1.59    0.29
  -4  -2 -18    0.42    0.26
   4   2  18    0.45    0.15
  -5  -2 -18    0.61    0.25
  -5  -2 -18    1.22    0.22
   1  -3 -18    0.36    0.15
   0  -3 -18    1.25    0.30
   0  -3 -18    0.91    0.22
  -1  -3 -18    1.48    0.28
  -1  -3 -18    0.83    0.29
  -2  -3 -18    1.14    0.30
  -2  -3 -18    0.85    0.23
  -2  -3 -18    1.66    0.18
  -3  -3 -18    0.32    0.16
  -4  -3 -18    0.10    0.18
  -4  -3 -18    0.55    0.32
  -4  -3 -18    0.48    0.33
  -5  -3 -18    0.00    0.29
  -5  -3 -18    0.55    0.18
   5   3  18    0.96    0.15
  -1  -4 -18    0.88    0.20
  -1  -4 -18    1.05    0.13
  -1  -4 -18    1.01    0.22
  -2  -4 -18    2.24    0.41
  -2  -4 -18    2.78    0.34
  -3  -4 -18    0.93    0.27
  -3  -4 -18    1.40    0.21
  -4  -4 -18   -0.08    0.19
  -5  -4 -18   -0.07    0.19
  -5  -4 -18    0.08    0.18
  -2  -5 -18   -0.23    0.11
  -3  -5 -18    1.30    0.28
  -4  -5 -18    0.68    0.12
   0  -4  19    0.69    0.17
  -1  -3  19    0.23    0.14
  -1  -3  19    0.24    0.12
   0  -3  19    0.27    0.14
   0  -3  19   -0.14    0.15
   1  -3  19    0.32    0.16
   1  -3  19   -0.01    0.14
   1  -3  19    0.19    0.12
   2  -3  19    0.43    0.15
   2  -3  19    1.62    0.19
  -2  -2  19    7.17    0.71
   1   2 -19    0.33    0.17
  -1  -2  19    0.13    0.17
  -1  -2  19    0.29    0.15
  -1  -2  19    0.38    0.13
   0  -2  19    0.89    0.14
   0  -2  19    0.92    0.19
   0  -2  19    0.48    0.18
   1  -2  19    0.72    0.17
   1  -2  19    0.25    0.16
   2  -2  19   -0.02    0.16
   2  -2  19    0.08    0.15
   3  -2  19    0.06    0.10
   3  -2  19    0.31    0.17
   1   1 -19    0.05    0.14
   1   1 -19    0.26    0.16
  -1  -1  19    0.37    0.17
  -1  -1  19    0.13    0.16
   0   1 -19    0.05    0.18
   0  -1  19    0.06    0.16
   1  -1  19    0.41    0.24
   1  -1  19    0.66    0.17
   2  -1  19    1.48    0.23
   2  -1  19    0.99    0.17
   3  -1  19    1.72    0.30
   4  -1  19    0.76    0.12
   1   0 -19    3.24    0.39
   0   0 -19    2.27    0.32
  -1   0 -19    0.07    0.19
   1   0  19    0.27    0.15
  -2   0 -19    0.02    0.19
   2   0  19    0.35    0.20
   3   0  19    6.39    0.63
   3   0  19    5.41    0.59
   4   0  19    0.48    0.20
   1  -1 -19   -0.09    0.13
   1  -1 -19   -0.22    0.18
   0  -1 -19    0.52    0.20
   0  -1 -19    0.49    0.15
   0  -1 -19    0.83    0.21
  -1  -1 -19    5.99    0.66
   2   1  19   10.19    1.04
  -3  -1 -19    0.23    0.27
   3   1  19    1.18    0.21
  -4  -1 -19    0.06    0.18
   4   1  19   -0.01    0.09
   0  -2 -19    1.74    0.28
   0  -2 -19    1.66    0.24
  -1  -2 -19    0.32    0.11
  -1  -2 -19    0.41    0.19
  -1  -2 -19    0.35    0.18
  -2  -2 -19    1.32    0.23
  -2  -2 -19    0.79    0.22
  -3  -2 -19    0.24    0.20
   3   2  19    0.49    0.15
  -4  -2 -19   -0.05    0.19
   4   2  19    0.00    0.11
   0  -3 -19    0.67    0.17
  -1  -3 -19    0.94    0.20
  -2  -3 -19    0.06    0.13
  -2  -3 -19    0.30    0.15
  -3  -3 -19    0.74    0.23
  -3  -3 -19    1.71    0.23
   4   3  19    2.86    0.35
  -2  -4 -19    0.09    0.09
  -3  -4 -19    0.37    0.12
  -4  -4 -19    1.93    0.24
   0  -2  20    3.18    0.39
   0  -2  20    2.92    0.33
   1  -2  20    1.08    0.18
   1  -2  20    1.27    0.23
   2  -2  20    0.67    0.17
   2  -2  20    0.68    0.12
   1   1 -20    2.53    0.29
   0   1 -20    0.10    0.14
   0  -1  20    0.43    0.14
   0  -1  20    0.16    0.18
  -1   1 -20    0.17    0.17
   1  -1  20    0.27    0.15
   1  -1  20    0.17    0.19
   1  -1  20    0.11    0.11
   2  -1  20    2.50    0.29
   2  -1  20    2.19    0.33
   3  -1  20    0.27    0.11
   0   0 -20    1.53    0.25
   1   0  20    1.94    0.26
   3   0  20    5.78    0.54
   3   0  20    5.64    0.60
   3   0  20    4.37    0.52
   0  -1 -20    0.01    0.13
   0  -1 -20   -0.14    0.13
  -1  -1 -20    0.31    0.11
   1   1  20    0.29    0.14
  -2  -1 -20    1.17    0.20
   3   1  20    1.99    0.28
  -4  -1 -20    0.27    0.15
   4   1  20    0.65    0.10
  -1  -2 -20    1.75    0.21
  -1  -2 -20    0.88    0.21
  -2  -2 -20    0.54    0.18
  -2  -2 -20    0.40    0.17
  -2  -2 -20    0.69    0.11
   2   2  20    1.61    0.22
  -3  -2 -20    0.04    0.08
   3   2  20    0.33    0.16
  -4  -2 -20    0.17    0.09
   4   2  20    0.55    0.11
  -2  -3 -20    0.30    0.11
  -3  -3 -20   -0.02    0.11
   2   0  21    0.34    0.13
   0   0   0    0.00    0.00
;
_shelx_hkl_checksum   76565

