data_x15193 
 
_audit_creation_method            'SHELXL-2014/7 and CIFFIX' 
# CIF edited on-the-fly by script CIFFIX (S. Parkin, 2000-2014). 
# CIFFIX: http://xray.uky.edu/people/parkin/programs/ciffix 
_audit_update_record              ? 
 
_shelx_SHELXL_version_number      '2014/7' 
 
_publ_section_exptl_refinement 
; 
H atoms were found in difference Fourier maps, but subsequently included 
in the refinement using riding models, with constrained distances set to 
0.95 %A (C~sp2~H), 0.98 %A (RCH~3~), 0.99 %A (R~2~CH~2~) and 1.00 %A 
(R~3~CH).  U~iso~(H) parameters were set to values of either 1.2U~eq~ or 
1.5U~eq~ (RCH~3~ only) of the attached atom. 
 
To ensure satisfactory refinement for disordered groups in the structure, 
a combination of constraints and restraints were employed. The constraints 
(SHELXL command EADP) were used to fix overlapping fragments.  Restraints 
were used to ensure the integrity of ill-defined or disordered groups 
(SHELXL commands SAME, SADI, SIMU, and RIGU). 
; 
 
_publ_section_references 
; 
Bruker-AXS (2006). 
  <i>APEX2</i> Bruker-AXS Inc., Madison, WI, USA. 
 
Hope, H. (1994). 
  <i>Prog. Inorg. Chem.</i> <b>41</b>, 1--19. 
 
Krause, L., Herbst-Irmer, R., Sheldrick, G.M. & Stalke, D. (2015). 
  <i>J. Appl. Cryst.</i> <b>48</b>, 3--10. 
 
Parkin, S. & Hope, H. (1998). 
  <i>J. Appl. Cryst.</i> <b>31</b>, 945--953. 
 
Parkin, S. (2000). 
  <i>Acta Cryst.</i> A<b>56</b>, 157--162. 
 
Parkin, S. (2013). 
  <i>CIFFIX</i>, http://xray.uky.edu/people/parkin/programs/ciffix 
 
Sheldrick, G.M. (2008). 
  <i>Acta Cryst.</i> A<b>64</b>, 112--122. 
 
Sheldrick, G.M. (2015a). 
  <i>Acta Cryst.</i> A<b>71</b>, 3--8. 
 
Sheldrick, G.M. (2015b). 
  <i>Acta Cryst.</i> C<b>71</b>, 3--8. 
 
Spek, A.L. (2009). 
  <i>Acta Cryst.</i> D<b>65</b>, 148--155. 
; 
 
_publ_section_acknowledgements 
; 
The X8 Proteum diffractometer was funded by the NSF (MRI CHE0319176, 70%), 
and by the University of Kentucky (cost share, 30%). 
; 
 
_chemical_name_systematic         ? 
_chemical_name_common             ? 
_chemical_melting_point           ? 
_chemical_formula_moiety          'C62 H72 S6 Si2' 
_chemical_formula_sum             'C62 H72 S6 Si2' 
_chemical_formula_weight          1065.73 
 
loop_ 
 _atom_type_symbol 
 _atom_type_description 
 _atom_type_scat_dispersion_real 
 _atom_type_scat_dispersion_imag 
 _atom_type_scat_source 
 'C'  'C'   0.0181   0.0091 
 'International Tables Vol C Tables 4.2.6.8 and 6.1.1.4' 
 'H'  'H'   0.0000   0.0000 
 'International Tables Vol C Tables 4.2.6.8 and 6.1.1.4' 
 'Si'  'Si'   0.2541   0.3302 
 'International Tables Vol C Tables 4.2.6.8 and 6.1.1.4' 
 'S'  'S'   0.3331   0.5567 
 'International Tables Vol C Tables 4.2.6.8 and 6.1.1.4' 
 
_space_group_crystal_system       triclinic 
_space_group_IT_number            2 
_space_group_name_H-M_alt         'P -1' 
_space_group_name_Hall            '-P 1' 
 
_shelx_space_group_comment 
; 
The symmetry employed for this shelxl refinement is uniquely defined 
by the following loop, which should always be used as a source of 
symmetry information in preference to the above space-group names. 
They are only intended as comments. 
; 
 
loop_ 
 _space_group_symop_operation_xyz 
 'x, y, z' 
 '-x, -y, -z' 
 
_cell_length_a                    8.1244(3) 
_cell_length_b                    11.8274(5) 
_cell_length_c                    16.6285(8) 
_cell_angle_alpha                 70.294(3) 
_cell_angle_beta                  75.906(2) 
_cell_angle_gamma                 82.317(2) 
_cell_volume                      1456.65(11) 
_cell_formula_units_Z             1 
_cell_measurement_temperature     90.0(2) 
_cell_measurement_reflns_used     9139 
_cell_measurement_theta_min       2.89 
_cell_measurement_theta_max       68.45 
 
_exptl_crystal_description        tablet 
_exptl_crystal_colour             orange-brown 
_exptl_crystal_density_meas       ? 
_exptl_crystal_density_method     ? 
_exptl_crystal_density_diffrn     1.215 
_exptl_crystal_F_000              568 
_exptl_transmission_factor_min    ? 
_exptl_transmission_factor_max    ? 
_exptl_crystal_size_max           0.180 
_exptl_crystal_size_mid           0.120 
_exptl_crystal_size_min           0.030 
_exptl_absorpt_coefficient_mu     2.841 
_shelx_estimated_absorpt_T_min    0.629 
_shelx_estimated_absorpt_T_max    0.920 
_exptl_absorpt_correction_type    multi-scan 
_exptl_absorpt_correction_T_min   0.640 
_exptl_absorpt_correction_T_max   0.864 
_exptl_absorpt_process_details    '<i>SADABS</i> (Krause et al., 2015)' 
_exptl_absorpt_special_details 
; 
In addition to absorption, multi-scan techniques also correct other slowly 
varying changes in scale factor over reciprocal space, such as those caused 
by x-ray beam inhomogeneity, goniometer imperfection, crystal decomposition, 
crystal longer than the x-ray beam cross section, absorption by the crystal 
mount etc.  These account, by and large, for much of the difference between 
estimated values of Tmin and Tmax and the _exptl_absorpt_correction_ values. 
; 
 
_exptl_special_details 
; 
The crystal was mounted using polyisobutene oil on the tip of a fine glass 
fibre, which was fastened in a copper mounting pin with electrical solder. 
It was placed directly into the cold gas stream of a liquid-nitrogen based 
cryostat (Hope, 1994; Parkin & Hope, 1998). 
 
Diffraction data were collected with the crystal at 90K, which is standard 
practice in this laboratory for the majority of flash-cooled crystals. 
; 
 
_diffrn_ambient_temperature       90.0(2) 
_diffrn_radiation_wavelength      1.54178 
_diffrn_radiation_type            CuK\a 
_diffrn_source                    'fine-focus rotating anode' 
_diffrn_measurement_device_type   'Bruker X8 Proteum diffractometer' 
_diffrn_measurement_method        '\f and \w scans' 
_diffrn_detector_area_resol_mean  5.6 
_diffrn_reflns_number             19017 
_diffrn_reflns_av_unetI/netI      0.0425 
_diffrn_reflns_av_R_equivalents   0.0506 
_diffrn_reflns_limit_h_min        -9 
_diffrn_reflns_limit_h_max        5 
_diffrn_reflns_limit_k_min        -14 
_diffrn_reflns_limit_k_max        12 
_diffrn_reflns_limit_l_min        -19 
_diffrn_reflns_limit_l_max        19 
_diffrn_reflns_theta_min          2.889 
_diffrn_reflns_theta_max          68.313 
_diffrn_reflns_theta_full         67.679 
_diffrn_measured_fraction_theta_max                0.966 
_diffrn_measured_fraction_theta_full               0.974 
_diffrn_reflns_Laue_measured_fraction_max          0.966 
_diffrn_reflns_Laue_measured_fraction_full         0.974 
_diffrn_reflns_point_group_measured_fraction_max   0.966 
_diffrn_reflns_point_group_measured_fraction_full  0.974 
 
_reflns_number_total              5158 
_reflns_number_gt                 4254 
_reflns_threshold_expression      'I > 2\s(I)' 
_reflns_Friedel_coverage          0.000 
_reflns_Friedel_fraction_max      . 
_reflns_Friedel_fraction_full     . 
_reflns_special_details 
; 
Reflections were merged by SHELXL according to the crystal 
class for the calculation of statistics and refinement. 
 
_reflns_Friedel_fraction is defined as the number of unique 
Friedel pairs measured divided by the number that would be 
possible theoretically, ignoring centric projections and 
systematic absences. 
; 
 
_computing_data_collection        '<i>APEX2</i> (Bruker-AXS, 2006)' 
_computing_cell_refinement        '<i>APEX2</i> (Bruker-AXS, 2006)' 
_computing_data_reduction         '<i>APEX2</i> (Bruker-AXS, 2006)' 
_computing_structure_solution     '<i>SHELXT</i> (Sheldrick, 2015a)' 
_computing_structure_refinement   '<i>SHELXL-2014/7</i> (Sheldrick, 2015b)' 
_computing_molecular_graphics     '<i>XP in SHELXTL</i> (Sheldrick, 2008)' 
_computing_publication_material 
'<i>SHELX</i> (Sheldrick, 2008) and <i>CIFFIX</i> (Parkin, 2013)' 
 
_refine_special_details 
; 
Refinement progress was checked using <i>Platon</i> (Spek, 2009) and by 
an <i>R</i>-tensor (Parkin, 2000). The final model was further checked 
with the IUCr utility <i>checkCIF</i>. 
; 
_refine_ls_structure_factor_coef  Fsqd 
_refine_ls_matrix_type            full 
_refine_ls_weighting_scheme       calc 
_refine_ls_weighting_details 
'w=1/[\s^2^(Fo^2^)+(0.0659P)^2^+1.1793P] where P=(Fo^2^+2Fc^2^)/3' 
_atom_sites_solution_primary      direct 
_atom_sites_solution_secondary    difmap 
_atom_sites_solution_hydrogens    difmap 
_refine_ls_hydrogen_treatment     constr 
_refine_ls_extinction_method      none 
_refine_ls_extinction_coef        . 
_refine_ls_number_reflns          5158 
_refine_ls_number_parameters      455 
_refine_ls_number_restraints      421 
_refine_ls_R_factor_all           0.0620 
_refine_ls_R_factor_gt            0.0507 
_refine_ls_wR_factor_ref          0.1423 
_refine_ls_wR_factor_gt           0.1327 
_refine_ls_goodness_of_fit_ref    1.038 
_refine_ls_restrained_S_all       1.006 
_refine_ls_shift/su_max           0.008 
_refine_ls_shift/su_mean          0.000 
 
loop_ 
 _atom_site_label 
 _atom_site_type_symbol 
 _atom_site_fract_x 
 _atom_site_fract_y 
 _atom_site_fract_z 
 _atom_site_U_iso_or_equiv 
 _atom_site_adp_type 
 _atom_site_occupancy 
 _atom_site_site_symmetry_order 
 _atom_site_calc_flag 
 _atom_site_refinement_flags_posn 
 _atom_site_refinement_flags_adp 
 _atom_site_refinement_flags_occupancy 
 _atom_site_disorder_assembly 
 _atom_site_disorder_group 
Si1 Si 0.44641(10) 0.67290(6) 0.79972(5) 0.0379(2) Uani 1 1 d D . . . . 
C1 C 0.4799(3) 0.5420(2) 0.57339(16) 0.0273(5) Uani 1 1 d . . . . . 
C2 C 0.3602(17) 0.5657(19) 0.5267(10) 0.0229(9) Uani 0.663(2) 1 d D U P A 1 
C3 C 0.3683(7) 0.5290(8) 0.4533(5) 0.0262(5) Uani 0.663(2) 1 d D U P A 1 
C4 C 0.2210(6) 0.5692(5) 0.4180(4) 0.0248(11) Uani 0.663(2) 1 d D U P A 1 
C5 C 0.1067(14) 0.6372(17) 0.4607(11) 0.0226(11) Uani 0.663(2) 1 d D U P A 1 
S1 S 0.16887(12) 0.64928(11) 0.54967(7) 0.0235(3) Uani 0.663(2) 1 d D U P A 1 
C3' C 0.3868(14) 0.5224(14) 0.448(1) 0.0235(3) Uani 0.337(2) 1 d D U P A 2 
C2' C 0.344(4) 0.571(4) 0.518(2) 0.0229(9) Uani 0.337(2) 1 d D U P A 2 
C4' C 0.1787(11) 0.6330(9) 0.5231(7) 0.0226(11) Uani 0.337(2) 1 d D U P A 2 
C5' C 0.105(3) 0.631(4) 0.456(2) 0.0248(11) Uani 0.337(2) 1 d D U P A 2 
S1' S 0.2319(3) 0.5631(2) 0.38452(17) 0.0262(5) Uani 0.337(2) 1 d D U P A 2 
C6 C -0.0571(19) 0.692(2) 0.4402(11) 0.0248(5) Uani 0.8527(18) 1 d D U P A 1 
C7 C -0.1768(4) 0.7515(3) 0.4850(2) 0.0274(7) Uani 0.8527(18) 1 d D U P A 1 
H7 H -0.1635 0.7643 0.5364 0.033 Uiso 0.8527(18) 1 calc R U P A 1 
C8 C -0.3239(5) 0.7940(4) 0.4494(3) 0.0244(8) Uani 0.8527(18) 1 d D U P A 1 
C9 C -0.3090(5) 0.7659(6) 0.3714(4) 0.0266(6) Uani 0.8527(18) 1 d D U P A 1 
S2 S -0.11649(8) 0.68608(7) 0.34731(5) 0.0281(2) Uani 0.8527(18) 1 d D U P A 1 
C10 C -0.4368(5) 0.7960(7) 0.3243(4) 0.0298(7) Uani 0.8527(18) 1 d D U P A 1 
H10 H -0.4257 0.7736 0.2734 0.036 Uiso 0.8527(18) 1 calc R U P A 1 
C11 C -0.5816(9) 0.8600(13) 0.3541(6) 0.0292(6) Uani 0.8527(18) 1 d D U P A 1 
C12 C -0.7310(14) 0.9002(13) 0.3196(6) 0.0389(12) Uani 0.8527(18) 1 d D U P A 1 
H12 H -0.7452 0.8871 0.2685 0.047 Uiso 0.8527(18) 1 calc R U P A 1 
C13 C -0.8494(5) 0.9579(5) 0.3652(4) 0.0376(9) Uani 0.8527(18) 1 d D U P A 1 
H13 H -0.9556 0.9893 0.3501 0.045 Uiso 0.8527(18) 1 calc R U P A 1 
S3 S -0.78786(10) 0.96924(12) 0.45536(7) 0.0374(3) Uani 0.8527(18) 1 d D U P A 
1 
C14 C -0.5937(9) 0.8921(13) 0.4301(6) 0.0294(6) Uani 0.8527(18) 1 d D U P A 1 
C15 C -0.4692(8) 0.8582(7) 0.4795(5) 0.0281(11) Uani 0.8527(18) 1 d D U P A 1 
H15 H -0.4824 0.8779 0.5316 0.034 Uiso 0.8527(18) 1 calc R U P A 1 
C6' C -0.050(11) 0.690(14) 0.443(6) 0.0248(5) Uani 0.1473(18) 1 d D U P A 2 
C7' C -0.1273(18) 0.7048(17) 0.3768(10) 0.0281(2) Uani 0.1473(18) 1 d D U P A 2 
H7' H -0.0768 0.6765 0.3288 0.034 Uiso 0.1473(18) 1 calc R U P A 2 
C8' C -0.291(3) 0.767(4) 0.384(2) 0.0266(6) Uani 0.1473(18) 1 d D U P A 2 
C9' C -0.323(3) 0.815(3) 0.4547(19) 0.0244(8) Uani 0.1473(18) 1 d D U P A 2 
S2' S -0.1723(7) 0.7563(5) 0.5194(4) 0.0274(7) Uani 0.1473(18) 1 d D U P A 2 
C10' C -0.474(4) 0.876(5) 0.480(3) 0.0281(11) Uani 0.1473(18) 1 d D U P A 2 
H10' H -0.4907 0.9072 0.5271 0.034 Uiso 0.1473(18) 1 calc R U P A 2 
C11' C -0.601(5) 0.891(7) 0.433(3) 0.0294(6) Uani 0.1473(18) 1 d D U P A 2 
C12' C -0.754(3) 0.965(3) 0.4390(18) 0.0374(3) Uani 0.1473(18) 1 d D U P A 2 
H12' H -0.7916 1.0042 0.4822 0.045 Uiso 0.1473(18) 1 calc R U P A 2 
C13' C -0.840(3) 0.974(4) 0.378(2) 0.0376(9) Uani 0.1473(18) 1 d D U P A 2 
H13' H -0.9493 1.0136 0.3767 0.045 Uiso 0.1473(18) 1 calc R U P A 2 
S3' S -0.729(2) 0.9059(19) 0.3009(10) 0.0389(12) Uani 0.1473(18) 1 d D U P A 2 
C14' C -0.563(6) 0.857(8) 0.356(4) 0.0292(6) Uani 0.1473(18) 1 d D U P A 2 
C15' C -0.410(3) 0.796(5) 0.332(2) 0.0298(7) Uani 0.1473(18) 1 d D U P A 2 
H15' H -0.3882 0.7733 0.2799 0.036 Uiso 0.1473(18) 1 calc R U P A 2 
C16 C 0.4653(3) 0.5858(2) 0.64538(17) 0.0343(6) Uani 1 1 d . . . . . 
C17 C 0.4586(4) 0.6231(2) 0.70486(18) 0.0399(6) Uani 1 1 d . . . . . 
C18 C 0.659(2) 0.6369(10) 0.8345(9) 0.053(2) Uani 0.663(2) 1 d D . P A 1 
H18 H 0.6487 0.6634 0.8867 0.063 Uiso 0.663(2) 1 calc R U P A 1 
C19 C 0.7999(18) 0.7031(9) 0.7625(16) 0.103(4) Uani 0.663(2) 1 d D . P A 1 
H19A H 0.9076 0.6821 0.7822 0.154 Uiso 0.663(2) 1 calc R U P A 1 
H19B H 0.7740 0.7900 0.7488 0.154 Uiso 0.663(2) 1 calc R U P A 1 
H19C H 0.8093 0.6800 0.7102 0.154 Uiso 0.663(2) 1 calc R U P A 1 
C20 C 0.7057(10) 0.5024(7) 0.8598(4) 0.077(2) Uani 0.663(2) 1 d D . P A 1 
H20A H 0.7176 0.4750 0.8091 0.116 Uiso 0.663(2) 1 calc R U P A 1 
H20B H 0.6163 0.4593 0.9074 0.116 Uiso 0.663(2) 1 calc R U P A 1 
H20C H 0.8135 0.4864 0.8793 0.116 Uiso 0.663(2) 1 calc R U P A 1 
C18' C 0.669(5) 0.641(2) 0.817(2) 0.053(2) Uani 0.337(2) 1 d D . P A 2 
H18' H 0.6600 0.6436 0.8773 0.063 Uiso 0.337(2) 1 calc R U P A 2 
C19' C 0.782(4) 0.743(2) 0.758(4) 0.103(4) Uani 0.337(2) 1 d D . P A 2 
H19D H 0.7206 0.8201 0.7581 0.154 Uiso 0.337(2) 1 calc R U P A 2 
H19E H 0.8855 0.7355 0.7801 0.154 Uiso 0.337(2) 1 calc R U P A 2 
H19F H 0.8117 0.7383 0.6985 0.154 Uiso 0.337(2) 1 calc R U P A 2 
C20' C 0.766(2) 0.5213(14) 0.8163(9) 0.077(2) Uani 0.337(2) 1 d D . P A 2 
H20D H 0.6944 0.4549 0.8540 0.116 Uiso 0.337(2) 1 calc R U P A 2 
H20E H 0.7960 0.5175 0.7564 0.116 Uiso 0.337(2) 1 calc R U P A 2 
H20F H 0.8698 0.5147 0.8380 0.116 Uiso 0.337(2) 1 calc R U P A 2 
C21 C 0.3957(3) 0.8395(2) 0.76676(17) 0.0364(6) Uani 1 1 d . . . . . 
H21 H 0.4944 0.8780 0.7207 0.044 Uiso 1 1 calc R U . . . 
C22 C 0.2386(4) 0.8780(3) 0.7267(2) 0.0477(7) Uani 1 1 d . . . . . 
H22A H 0.1374 0.8473 0.7714 0.071 Uiso 1 1 calc R U . . . 
H22B H 0.2509 0.8455 0.6785 0.071 Uiso 1 1 calc R U . . . 
H22C H 0.2267 0.9661 0.7046 0.071 Uiso 1 1 calc R U . . . 
C23 C 0.3789(5) 0.8878(3) 0.8436(2) 0.0545(8) Uani 1 1 d . . . . . 
H23A H 0.3612 0.9756 0.8234 0.082 Uiso 1 1 calc R U . . . 
H23B H 0.4830 0.8655 0.8666 0.082 Uiso 1 1 calc R U . . . 
H23C H 0.2818 0.8530 0.8899 0.082 Uiso 1 1 calc R U . . . 
C24 C 0.2830(13) 0.5796(7) 0.8869(7) 0.053(2) Uani 0.663(2) 1 d D U P A 1 
H24A H 0.2739 0.5973 0.9419 0.064 Uiso 0.663(2) 1 calc R U P A 1 
H24B H 0.1712 0.6012 0.8701 0.064 Uiso 0.663(2) 1 calc R U P A 1 
C25 C 0.3261(9) 0.4449(5) 0.9023(4) 0.0746(17) Uani 0.663(2) 1 d D U P A 1 
H25A H 0.3488 0.4301 0.8454 0.089 Uiso 0.663(2) 1 calc R U P A 1 
H25B H 0.4324 0.4231 0.9245 0.089 Uiso 0.663(2) 1 calc R U P A 1 
C26 C 0.1929(7) 0.3635(4) 0.9646(3) 0.0565(13) Uani 0.663(2) 1 d D U P A 1 
H26A H 0.0884 0.3791 0.9410 0.068 Uiso 0.663(2) 1 calc R U P A 1 
H26B H 0.1647 0.3792 1.0213 0.068 Uiso 0.663(2) 1 calc R U P A 1 
C27 C 0.2597(12) 0.2295(6) 0.9781(5) 0.065(2) Uani 0.663(2) 1 d D U P A 1 
H27A H 0.2799 0.2134 0.9217 0.078 Uiso 0.663(2) 1 calc R U P A 1 
H27B H 0.3699 0.2172 0.9962 0.078 Uiso 0.663(2) 1 calc R U P A 1 
C28 C 0.1375(7) 0.1397(5) 1.0464(3) 0.0542(12) Uani 0.663(2) 1 d D U P A 1 
H28A H 0.0284 0.1506 1.0275 0.065 Uiso 0.663(2) 1 calc R U P A 1 
H28B H 0.1147 0.1574 1.1023 0.065 Uiso 0.663(2) 1 calc R U P A 1 
C29 C 0.2037(9) 0.0088(6) 1.0620(4) 0.0562(14) Uani 0.663(2) 1 d D U P A 1 
H29A H 0.2445 -0.0042 1.0045 0.067 Uiso 0.663(2) 1 calc R U P A 1 
H29B H 0.3031 -0.0041 1.0893 0.067 Uiso 0.663(2) 1 calc R U P A 1 
C30 C 0.0815(7) -0.0843(4) 1.1175(3) 0.0552(12) Uani 0.663(2) 1 d D U P A 1 
H30A H -0.0198 -0.0708 1.0916 0.066 Uiso 0.663(2) 1 calc R U P A 1 
H30B H 0.0439 -0.0744 1.1761 0.066 Uiso 0.663(2) 1 calc R U P A 1 
C31 C 0.1523(8) -0.2105(5) 1.1277(4) 0.0675(15) Uani 0.663(2) 1 d D U P A 1 
H31A H 0.1940 -0.2205 1.0699 0.101 Uiso 0.663(2) 1 calc R U P A 1 
H31B H 0.0630 -0.2665 1.1617 0.101 Uiso 0.663(2) 1 calc R U P A 1 
H31C H 0.2463 -0.2272 1.1582 0.101 Uiso 0.663(2) 1 calc R U P A 1 
C24' C 0.261(3) 0.6050(13) 0.8919(13) 0.059(5) Uani 0.337(2) 1 d D U P A 2 
H24C H 0.2697 0.6312 0.9413 0.071 Uiso 0.337(2) 1 calc R U P A 2 
H24D H 0.1577 0.6481 0.8721 0.071 Uiso 0.337(2) 1 calc R U P A 2 
C25' C 0.2180(15) 0.4732(8) 0.9329(7) 0.062(3) Uani 0.337(2) 1 d D U P A 2 
H25C H 0.3004 0.4312 0.9699 0.075 Uiso 0.337(2) 1 calc R U P A 2 
H25D H 0.1042 0.4697 0.9720 0.075 Uiso 0.337(2) 1 calc R U P A 2 
C26' C 0.2174(16) 0.4051(10) 0.8737(8) 0.075(3) Uani 0.337(2) 1 d D U P A 2 
H26C H 0.3349 0.3974 0.8403 0.090 Uiso 0.337(2) 1 calc R U P A 2 
H26D H 0.1468 0.4515 0.8312 0.090 Uiso 0.337(2) 1 calc R U P A 2 
C27' C 0.1489(17) 0.2769(10) 0.9204(10) 0.093(4) Uani 0.337(2) 1 d D U P A 2 
H27C H 0.0301 0.2854 0.9519 0.111 Uiso 0.337(2) 1 calc R U P A 2 
H27D H 0.1469 0.2404 0.8752 0.111 Uiso 0.337(2) 1 calc R U P A 2 
C28' C 0.249(2) 0.1898(11) 0.9853(14) 0.075(5) Uani 0.337(2) 1 d D U P A 2 
H28C H 0.2382 0.2214 1.0345 0.090 Uiso 0.337(2) 1 calc R U P A 2 
H28D H 0.3702 0.1894 0.9559 0.090 Uiso 0.337(2) 1 calc R U P A 2 
C29' C 0.1956(16) 0.0598(10) 1.0230(9) 0.058(3) Uani 0.337(2) 1 d D U P A 2 
H29C H 0.0851 0.0573 1.0648 0.070 Uiso 0.337(2) 1 calc R U P A 2 
H29D H 0.1780 0.0347 0.9748 0.070 Uiso 0.337(2) 1 calc R U P A 2 
C30' C 0.3193(15) -0.0301(9) 1.0688(7) 0.065(3) Uani 0.337(2) 1 d D U P A 2 
H30C H 0.4282 -0.0317 1.0265 0.079 Uiso 0.337(2) 1 calc R U P A 2 
H30D H 0.3414 -0.0039 1.1156 0.079 Uiso 0.337(2) 1 calc R U P A 2 
C31' C 0.2568(16) -0.1535(9) 1.1078(7) 0.066(3) Uani 0.337(2) 1 d D U P A 2 
H31D H 0.3419 -0.2082 1.1367 0.099 Uiso 0.337(2) 1 calc R U P A 2 
H31E H 0.1502 -0.1529 1.1507 0.099 Uiso 0.337(2) 1 calc R U P A 2 
H31F H 0.2370 -0.1808 1.0616 0.099 Uiso 0.337(2) 1 calc R U P A 2 
 
loop_ 
 _atom_site_aniso_label 
 _atom_site_aniso_U_11 
 _atom_site_aniso_U_22 
 _atom_site_aniso_U_33 
 _atom_site_aniso_U_23 
 _atom_site_aniso_U_13 
 _atom_site_aniso_U_12 
Si1 0.0550(5) 0.0306(4) 0.0332(4) -0.0134(3) -0.0155(3) 0.0009(3) 
C1 0.0257(12) 0.0244(12) 0.0344(12) -0.0128(10) -0.0048(9) -0.0040(9) 
C2 0.012(3) 0.022(2) 0.037(3) -0.011(3) -0.0070(13) 0.0009(18) 
C3 0.0154(8) 0.0279(9) 0.0371(13) -0.0125(9) -0.0078(9) 0.0020(6) 
C4 0.0175(17) 0.024(2) 0.039(3) -0.0138(19) -0.0110(18) 0.0004(13) 
C5 0.0124(15) 0.021(3) 0.036(3) -0.0123(15) -0.0043(13) -0.0006(15) 
S1 0.0130(4) 0.0251(5) 0.0374(6) -0.0155(4) -0.0091(4) 0.0040(3) 
C3' 0.0130(4) 0.0251(5) 0.0374(6) -0.0155(4) -0.0091(4) 0.0040(3) 
C2' 0.012(3) 0.022(2) 0.037(3) -0.011(3) -0.0070(13) 0.0009(18) 
C4' 0.0124(15) 0.021(3) 0.036(3) -0.0123(15) -0.0043(13) -0.0006(15) 
C5' 0.0175(17) 0.024(2) 0.039(3) -0.0138(19) -0.0110(18) 0.0004(13) 
S1' 0.0154(8) 0.0279(9) 0.0371(13) -0.0125(9) -0.0078(9) 0.0020(6) 
C6 0.0139(16) 0.0236(15) 0.0379(18) -0.0102(16) -0.0070(9) 0.0000(12) 
C7 0.0152(9) 0.0303(11) 0.039(2) -0.0138(16) -0.0098(14) 0.0045(7) 
C8 0.0151(10) 0.019(2) 0.0403(14) -0.0080(12) -0.0094(9) -0.0001(12) 
C9 0.0153(13) 0.0246(12) 0.041(2) -0.0097(14) -0.0087(10) -0.0011(12) 
S2 0.0170(3) 0.0316(4) 0.0413(4) -0.0179(3) -0.0099(3) 0.0035(3) 
C10 0.0217(18) 0.0296(13) 0.0422(17) -0.0129(12) -0.0117(12) -0.0018(17) 
C11 0.016(2) 0.0254(13) 0.0441(14) -0.0055(11) -0.0117(13) -0.0009(18) 
C12 0.0254(9) 0.0364(16) 0.055(4) -0.006(3) -0.022(2) -0.0003(9) 
C13 0.0198(12) 0.033(2) 0.059(2) -0.0087(13) -0.0191(12) 0.0041(13) 
S3 0.0158(5) 0.0398(4) 0.0561(6) -0.0156(4) -0.0120(4) 0.0096(4) 
C14 0.0167(12) 0.0263(12) 0.0424(15) -0.0066(12) -0.0076(11) 0.0000(11) 
C15 0.0191(11) 0.025(3) 0.0409(13) -0.0107(17) -0.0092(9) 0.0023(12) 
C6' 0.0139(16) 0.0236(15) 0.0379(18) -0.0102(16) -0.0070(9) 0.0000(12) 
C7' 0.0170(3) 0.0316(4) 0.0413(4) -0.0179(3) -0.0099(3) 0.0035(3) 
C8' 0.0153(13) 0.0246(12) 0.041(2) -0.0097(14) -0.0087(10) -0.0011(12) 
C9' 0.0151(10) 0.019(2) 0.0403(14) -0.0080(12) -0.0094(9) -0.0001(12) 
S2' 0.0152(9) 0.0303(11) 0.039(2) -0.0138(16) -0.0098(14) 0.0045(7) 
C10' 0.0191(11) 0.025(3) 0.0409(13) -0.0107(17) -0.0092(9) 0.0023(12) 
C11' 0.0167(12) 0.0263(12) 0.0424(15) -0.0066(12) -0.0076(11) 0.0000(11) 
C12' 0.0158(5) 0.0398(4) 0.0561(6) -0.0156(4) -0.0120(4) 0.0096(4) 
C13' 0.0198(12) 0.033(2) 0.059(2) -0.0087(13) -0.0191(12) 0.0041(13) 
S3' 0.0254(9) 0.0364(16) 0.055(4) -0.006(3) -0.022(2) -0.0003(9) 
C14' 0.016(2) 0.0254(13) 0.0441(14) -0.0055(11) -0.0117(13) -0.0009(18) 
C15' 0.0217(18) 0.0296(13) 0.0422(17) -0.0129(12) -0.0117(12) -0.0018(17) 
C16 0.0415(14) 0.0255(12) 0.0381(14) -0.0121(10) -0.0094(11) -0.0015(10) 
C17 0.0514(16) 0.0315(14) 0.0406(15) -0.0144(12) -0.0147(12) 0.0020(12) 
C18 0.083(3) 0.051(2) 0.040(7) -0.025(3) -0.036(4) 0.016(2) 
C19 0.052(4) 0.080(8) 0.144(6) 0.022(9) -0.049(4) 0.004(6) 
C20 0.098(6) 0.072(4) 0.069(5) -0.030(4) -0.040(4) 0.035(4) 
C18' 0.083(3) 0.051(2) 0.040(7) -0.025(3) -0.036(4) 0.016(2) 
C19' 0.052(4) 0.080(8) 0.144(6) 0.022(9) -0.049(4) 0.004(6) 
C20' 0.098(6) 0.072(4) 0.069(5) -0.030(4) -0.040(4) 0.035(4) 
C21 0.0442(15) 0.0328(14) 0.0352(14) -0.0144(11) -0.0088(11) -0.0016(11) 
C22 0.0500(17) 0.0407(16) 0.0563(18) -0.0190(14) -0.0179(14) 0.0059(13) 
C23 0.083(2) 0.0418(17) 0.0479(18) -0.0255(14) -0.0173(16) 0.0028(16) 
C24 0.075(4) 0.050(4) 0.042(4) -0.016(3) -0.016(3) -0.017(3) 
C25 0.101(5) 0.049(3) 0.061(3) -0.013(3) 0.011(3) -0.024(3) 
C26 0.076(3) 0.056(3) 0.041(2) -0.008(2) -0.018(2) -0.026(2) 
C27 0.081(5) 0.056(4) 0.059(3) -0.017(3) -0.009(3) -0.020(3) 
C28 0.062(3) 0.057(3) 0.050(3) -0.021(2) -0.015(2) -0.007(2) 
C29 0.062(3) 0.054(3) 0.057(3) -0.019(2) -0.021(3) -0.001(3) 
C30 0.074(3) 0.051(3) 0.045(3) -0.017(2) -0.020(2) -0.002(2) 
C31 0.097(4) 0.052(3) 0.054(3) -0.019(2) -0.015(3) 0.001(3) 
C24' 0.106(12) 0.028(6) 0.031(7) 0.005(5) 0.004(6) -0.031(6) 
C25' 0.064(6) 0.036(5) 0.070(6) -0.003(4) 0.002(5) -0.010(5) 
C26' 0.072(7) 0.068(6) 0.084(7) -0.025(5) -0.014(6) -0.006(5) 
C27' 0.085(8) 0.065(6) 0.138(10) -0.023(6) -0.054(8) -0.007(5) 
C28' 0.064(8) 0.061(6) 0.117(10) -0.027(6) -0.046(8) -0.012(5) 
C29' 0.064(6) 0.054(5) 0.078(7) -0.042(5) -0.017(5) -0.013(5) 
C30' 0.061(6) 0.067(6) 0.070(6) -0.022(5) -0.010(5) -0.016(5) 
C31' 0.081(7) 0.063(6) 0.060(6) -0.021(5) -0.014(5) -0.030(5) 
 
_geom_special_details 
; 
 All esds (except the esd in the dihedral angle between two l.s. planes) 
 are estimated using the full covariance matrix.  The cell esds are taken 
 into account individually in the estimation of esds in distances, angles 
 and torsion angles; correlations between esds in cell parameters are only 
 used when they are defined by crystal symmetry.  An approximate (isotropic) 
 treatment of cell esds is used for estimating esds involving l.s. planes. 
; 
 
loop_ 
 _geom_bond_atom_site_label_1 
 _geom_bond_atom_site_label_2 
 _geom_bond_distance 
 _geom_bond_site_symmetry_2 
 _geom_bond_publ_flag 
Si1 C17 1.838(3) . ? 
Si1 C24 1.860(7) . ? 
Si1 C18' 1.87(4) . ? 
Si1 C21 1.876(3) . ? 
Si1 C18 1.900(19) . ? 
Si1 C24' 1.906(13) . ? 
C1 C3' 1.286(11) 2_666 ? 
C1 C2 1.332(8) . ? 
C1 C16 1.431(3) . ? 
C1 C3 1.459(6) 2_666 ? 
C1 C2' 1.537(17) . ? 
C2 C3 1.412(7) . ? 
C2 S1 1.759(9) . ? 
C3 C4 1.416(9) . ? 
C3 C1 1.459(6) 2_666 ? 
C4 C5 1.370(11) . ? 
C5 C6 1.465(8) . ? 
C5 S1 1.730(12) . ? 
C3' C1 1.286(11) 2_666 ? 
C3' C2' 1.420(13) . ? 
C3' S1' 1.752(13) . ? 
C2' C4' 1.438(18) . ? 
C4' C5' 1.39(2) . ? 
C5' C6' 1.39(2) . ? 
C5' S1' 1.72(2) . ? 
C6 C7 1.349(5) . ? 
C6 S2 1.750(4) . ? 
C7 C8 1.419(4) . ? 
C7 H7 0.9500 . ? 
C8 C15 1.396(4) . ? 
C8 C9 1.419(4) . ? 
C9 C10 1.387(4) . ? 
C9 S2 1.747(3) . ? 
C10 C11 1.391(4) . ? 
C10 H10 0.9500 . ? 
C11 C14 1.416(4) . ? 
C11 C12 1.424(8) . ? 
C12 C13 1.335(9) . ? 
C12 H12 0.9500 . ? 
C13 S3 1.743(4) . ? 
C13 H13 0.9500 . ? 
S3 C14 1.746(4) . ? 
C14 C15 1.390(4) . ? 
C15 H15 0.9500 . ? 
C6' C7' 1.348(11) . ? 
C6' S2' 1.749(12) . ? 
C7' C8' 1.432(10) . ? 
C7' H7' 0.9500 . ? 
C8' C15' 1.396(10) . ? 
C8' C9' 1.420(9) . ? 
C9' C10' 1.386(10) . ? 
C9' S2' 1.747(10) . ? 
C10' C11' 1.390(11) . ? 
C10' H10' 0.9500 . ? 
C11' C14' 1.419(9) . ? 
C11' C12' 1.428(13) . ? 
C12' C13' 1.332(13) . ? 
C12' H12' 0.9500 . ? 
C13' S3' 1.745(11) . ? 
C13' H13' 0.9500 . ? 
S3' C14' 1.747(10) . ? 
C14' C15' 1.395(10) . ? 
C15' H15' 0.9500 . ? 
C16 C17 1.199(4) . ? 
C18 C19 1.517(10) . ? 
C18 C20 1.522(9) . ? 
C18 H18 1.0000 . ? 
C19 H19A 0.9800 . ? 
C19 H19B 0.9800 . ? 
C19 H19C 0.9800 . ? 
C20 H20A 0.9800 . ? 
C20 H20B 0.9800 . ? 
C20 H20C 0.9800 . ? 
C18' C19' 1.519(16) . ? 
C18' C20' 1.527(16) . ? 
C18' H18' 1.0000 . ? 
C19' H19D 0.9800 . ? 
C19' H19E 0.9800 . ? 
C19' H19F 0.9800 . ? 
C20' H20D 0.9800 . ? 
C20' H20E 0.9800 . ? 
C20' H20F 0.9800 . ? 
C21 C22 1.528(4) . ? 
C21 C23 1.538(3) . ? 
C21 H21 1.0000 . ? 
C22 H22A 0.9800 . ? 
C22 H22B 0.9800 . ? 
C22 H22C 0.9800 . ? 
C23 H23A 0.9800 . ? 
C23 H23B 0.9800 . ? 
C23 H23C 0.9800 . ? 
C24 C25 1.531(9) . ? 
C24 H24A 0.9900 . ? 
C24 H24B 0.9900 . ? 
C25 C26 1.494(7) . ? 
C25 H25A 0.9900 . ? 
C25 H25B 0.9900 . ? 
C26 C27 1.563(9) . ? 
C26 H26A 0.9900 . ? 
C26 H26B 0.9900 . ? 
C27 C28 1.524(8) . ? 
C27 H27A 0.9900 . ? 
C27 H27B 0.9900 . ? 
C28 C29 1.525(8) . ? 
C28 H28A 0.9900 . ? 
C28 H28B 0.9900 . ? 
C29 C30 1.487(8) . ? 
C29 H29A 0.9900 . ? 
C29 H29B 0.9900 . ? 
C30 C31 1.495(7) . ? 
C30 H30A 0.9900 . ? 
C30 H30B 0.9900 . ? 
C31 H31A 0.9800 . ? 
C31 H31B 0.9800 . ? 
C31 H31C 0.9800 . ? 
C24' C25' 1.526(12) . ? 
C24' H24C 0.9900 . ? 
C24' H24D 0.9900 . ? 
C25' C26' 1.468(13) . ? 
C25' H25C 0.9900 . ? 
C25' H25D 0.9900 . ? 
C26' C27' 1.560(13) . ? 
C26' H26C 0.9900 . ? 
C26' H26D 0.9900 . ? 
C27' C28' 1.528(15) . ? 
C27' H27C 0.9900 . ? 
C27' H27D 0.9900 . ? 
C28' C29' 1.529(14) . ? 
C28' H28C 0.9900 . ? 
C28' H28D 0.9900 . ? 
C29' C30' 1.504(14) . ? 
C29' H29C 0.9900 . ? 
C29' H29D 0.9900 . ? 
C30' C31' 1.486(12) . ? 
C30' H30C 0.9900 . ? 
C30' H30D 0.9900 . ? 
C31' H31D 0.9800 . ? 
C31' H31E 0.9800 . ? 
C31' H31F 0.9800 . ? 
 
loop_ 
 _geom_angle_atom_site_label_1 
 _geom_angle_atom_site_label_2 
 _geom_angle_atom_site_label_3 
 _geom_angle 
 _geom_angle_site_symmetry_1 
 _geom_angle_site_symmetry_3 
 _geom_angle_publ_flag 
C17 Si1 C24 104.1(3) . . ? 
C17 Si1 C18' 102.4(10) . . ? 
C17 Si1 C21 108.11(12) . . ? 
C24 Si1 C21 115.7(3) . . ? 
C18' Si1 C21 109.3(8) . . ? 
C17 Si1 C18 109.6(4) . . ? 
C24 Si1 C18 109.2(6) . . ? 
C21 Si1 C18 109.9(4) . . ? 
C17 Si1 C24' 110.9(7) . . ? 
C18' Si1 C24' 120.4(13) . . ? 
C21 Si1 C24' 105.2(6) . . ? 
C3' C1 C16 119.4(7) 2_666 . ? 
C2 C1 C16 122.5(5) . . ? 
C2 C1 C3 117.1(4) . 2_666 ? 
C16 C1 C3 120.4(4) . 2_666 ? 
C3' C1 C2' 117.8(6) 2_666 . ? 
C16 C1 C2' 122.7(7) . . ? 
C1 C2 C3 125.6(8) . . ? 
C1 C2 S1 123.3(6) . . ? 
C3 C2 S1 111.1(6) . . ? 
C2 C3 C4 111.8(5) . . ? 
C2 C3 C1 117.3(7) . 2_666 ? 
C4 C3 C1 130.9(6) . 2_666 ? 
C5 C4 C3 113.4(6) . . ? 
C4 C5 C6 126.6(9) . . ? 
C4 C5 S1 112.9(5) . . ? 
C6 C5 S1 120.4(7) . . ? 
C5 S1 C2 90.8(4) . . ? 
C1 C3' C2' 128.7(15) 2_666 . ? 
C1 C3' S1' 119.6(10) 2_666 . ? 
C2' C3' S1' 111.7(10) . . ? 
C3' C2' C4' 111.9(13) . . ? 
C3' C2' C1 113.5(15) . . ? 
C4' C2' C1 134.6(13) . . ? 
C5' C4' C2' 111.0(11) . . ? 
C6' C5' C4' 123(2) . . ? 
C6' C5' S1' 122.5(17) . . ? 
C4' C5' S1' 114.5(10) . . ? 
C5' S1' C3' 90.6(7) . . ? 
C7 C6 C5 127.6(6) . . ? 
C7 C6 S2 111.7(2) . . ? 
C5 C6 S2 120.7(5) . . ? 
C6 C7 C8 114.9(4) . . ? 
C6 C7 H7 122.5 . . ? 
C8 C7 H7 122.5 . . ? 
C15 C8 C9 119.7(3) . . ? 
C15 C8 C7 129.3(3) . . ? 
C9 C8 C7 111.1(3) . . ? 
C10 C9 C8 122.6(3) . . ? 
C10 C9 S2 126.4(3) . . ? 
C8 C9 S2 111.0(2) . . ? 
C9 S2 C6 91.29(15) . . ? 
C9 C10 C11 117.9(3) . . ? 
C9 C10 H10 121.1 . . ? 
C11 C10 H10 121.1 . . ? 
C10 C11 C14 119.5(3) . . ? 
C10 C11 C12 129.4(4) . . ? 
C14 C11 C12 111.0(4) . . ? 
C13 C12 C11 114.4(5) . . ? 
C13 C12 H12 122.8 . . ? 
C11 C12 H12 122.8 . . ? 
C12 C13 S3 112.6(4) . . ? 
C12 C13 H13 123.7 . . ? 
S3 C13 H13 123.7 . . ? 
C13 S3 C14 90.94(18) . . ? 
C15 C14 C11 122.9(4) . . ? 
C15 C14 S3 126.0(3) . . ? 
C11 C14 S3 111.0(3) . . ? 
C14 C15 C8 117.4(3) . . ? 
C14 C15 H15 121.3 . . ? 
C8 C15 H15 121.3 . . ? 
C7' C6' C5' 128.5(15) . . ? 
C7' C6' S2' 111.7(8) . . ? 
C5' C6' S2' 119.8(15) . . ? 
C6' C7' C8' 114.6(10) . . ? 
C6' C7' H7' 122.7 . . ? 
C8' C7' H7' 122.7 . . ? 
C15' C8' C9' 117.8(11) . . ? 
C15' C8' C7' 131.4(12) . . ? 
C9' C8' C7' 110.5(10) . . ? 
C10' C9' C8' 123.5(11) . . ? 
C10' C9' S2' 124.1(12) . . ? 
C8' C9' S2' 110.6(9) . . ? 
C9' S2' C6' 91.4(7) . . ? 
C9' C10' C11' 117.9(12) . . ? 
C9' C10' H10' 121.1 . . ? 
C11' C10' H10' 121.1 . . ? 
C10' C11' C14' 118.9(15) . . ? 
C10' C11' C12' 127(2) . . ? 
C14' C11' C12' 111.7(13) . . ? 
C13' C12' C11' 113.5(11) . . ? 
C13' C12' H12' 123.2 . . ? 
C11' C12' H12' 123.2 . . ? 
C12' C13' S3' 112.9(9) . . ? 
C12' C13' H13' 123.6 . . ? 
S3' C13' H13' 123.6 . . ? 
C13' S3' C14' 91.1(7) . . ? 
C15' C14' C11' 122.3(11) . . ? 
C15' C14' S3' 127.5(12) . . ? 
C11' C14' S3' 110.2(9) . . ? 
C14' C15' C8' 118.5(11) . . ? 
C14' C15' H15' 120.8 . . ? 
C8' C15' H15' 120.8 . . ? 
C17 C16 C1 177.9(3) . . ? 
C16 C17 Si1 177.2(2) . . ? 
C19 C18 C20 109.1(8) . . ? 
C19 C18 Si1 111.4(10) . . ? 
C20 C18 Si1 111.3(11) . . ? 
C19 C18 H18 108.3 . . ? 
C20 C18 H18 108.3 . . ? 
Si1 C18 H18 108.3 . . ? 
C18 C19 H19A 109.5 . . ? 
C18 C19 H19B 109.5 . . ? 
H19A C19 H19B 109.5 . . ? 
C18 C19 H19C 109.5 . . ? 
H19A C19 H19C 109.5 . . ? 
H19B C19 H19C 109.5 . . ? 
C18 C20 H20A 109.5 . . ? 
C18 C20 H20B 109.5 . . ? 
H20A C20 H20B 109.5 . . ? 
C18 C20 H20C 109.5 . . ? 
H20A C20 H20C 109.5 . . ? 
H20B C20 H20C 109.5 . . ? 
C19' C18' C20' 108.8(17) . . ? 
C19' C18' Si1 112(2) . . ? 
C20' C18' Si1 121(2) . . ? 
C19' C18' H18' 104.5 . . ? 
C20' C18' H18' 104.5 . . ? 
Si1 C18' H18' 104.5 . . ? 
C18' C19' H19D 109.5 . . ? 
C18' C19' H19E 109.5 . . ? 
H19D C19' H19E 109.5 . . ? 
C18' C19' H19F 109.5 . . ? 
H19D C19' H19F 109.5 . . ? 
H19E C19' H19F 109.5 . . ? 
C18' C20' H20D 109.5 . . ? 
C18' C20' H20E 109.5 . . ? 
H20D C20' H20E 109.5 . . ? 
C18' C20' H20F 109.5 . . ? 
H20D C20' H20F 109.5 . . ? 
H20E C20' H20F 109.5 . . ? 
C22 C21 C23 110.7(2) . . ? 
C22 C21 Si1 113.41(18) . . ? 
C23 C21 Si1 111.28(19) . . ? 
C22 C21 H21 107.0 . . ? 
C23 C21 H21 107.0 . . ? 
Si1 C21 H21 107.0 . . ? 
C21 C22 H22A 109.5 . . ? 
C21 C22 H22B 109.5 . . ? 
H22A C22 H22B 109.5 . . ? 
C21 C22 H22C 109.5 . . ? 
H22A C22 H22C 109.5 . . ? 
H22B C22 H22C 109.5 . . ? 
C21 C23 H23A 109.5 . . ? 
C21 C23 H23B 109.5 . . ? 
H23A C23 H23B 109.5 . . ? 
C21 C23 H23C 109.5 . . ? 
H23A C23 H23C 109.5 . . ? 
H23B C23 H23C 109.5 . . ? 
C25 C24 Si1 111.9(6) . . ? 
C25 C24 H24A 109.2 . . ? 
Si1 C24 H24A 109.2 . . ? 
C25 C24 H24B 109.2 . . ? 
Si1 C24 H24B 109.2 . . ? 
H24A C24 H24B 107.9 . . ? 
C26 C25 C24 115.6(6) . . ? 
C26 C25 H25A 108.4 . . ? 
C24 C25 H25A 108.4 . . ? 
C26 C25 H25B 108.4 . . ? 
C24 C25 H25B 108.4 . . ? 
H25A C25 H25B 107.4 . . ? 
C25 C26 C27 109.6(5) . . ? 
C25 C26 H26A 109.7 . . ? 
C27 C26 H26A 109.7 . . ? 
C25 C26 H26B 109.7 . . ? 
C27 C26 H26B 109.7 . . ? 
H26A C26 H26B 108.2 . . ? 
C28 C27 C26 113.3(6) . . ? 
C28 C27 H27A 108.9 . . ? 
C26 C27 H27A 108.9 . . ? 
C28 C27 H27B 108.9 . . ? 
C26 C27 H27B 108.9 . . ? 
H27A C27 H27B 107.7 . . ? 
C27 C28 C29 113.7(5) . . ? 
C27 C28 H28A 108.8 . . ? 
C29 C28 H28A 108.8 . . ? 
C27 C28 H28B 108.8 . . ? 
C29 C28 H28B 108.8 . . ? 
H28A C28 H28B 107.7 . . ? 
C30 C29 C28 116.7(5) . . ? 
C30 C29 H29A 108.1 . . ? 
C28 C29 H29A 108.1 . . ? 
C30 C29 H29B 108.1 . . ? 
C28 C29 H29B 108.1 . . ? 
H29A C29 H29B 107.3 . . ? 
C29 C30 C31 114.0(5) . . ? 
C29 C30 H30A 108.8 . . ? 
C31 C30 H30A 108.8 . . ? 
C29 C30 H30B 108.8 . . ? 
C31 C30 H30B 108.8 . . ? 
H30A C30 H30B 107.6 . . ? 
C30 C31 H31A 109.5 . . ? 
C30 C31 H31B 109.5 . . ? 
H31A C31 H31B 109.5 . . ? 
C30 C31 H31C 109.5 . . ? 
H31A C31 H31C 109.5 . . ? 
H31B C31 H31C 109.5 . . ? 
C25' C24' Si1 128.3(12) . . ? 
C25' C24' H24C 105.2 . . ? 
Si1 C24' H24C 105.2 . . ? 
C25' C24' H24D 105.2 . . ? 
Si1 C24' H24D 105.2 . . ? 
H24C C24' H24D 105.9 . . ? 
C26' C25' C24' 117.7(12) . . ? 
C26' C25' H25C 107.9 . . ? 
C24' C25' H25C 107.9 . . ? 
C26' C25' H25D 107.9 . . ? 
C24' C25' H25D 107.9 . . ? 
H25C C25' H25D 107.2 . . ? 
C25' C26' C27' 114.3(10) . . ? 
C25' C26' H26C 108.7 . . ? 
C27' C26' H26C 108.7 . . ? 
C25' C26' H26D 108.7 . . ? 
C27' C26' H26D 108.7 . . ? 
H26C C26' H26D 107.6 . . ? 
C28' C27' C26' 116.1(10) . . ? 
C28' C27' H27C 108.3 . . ? 
C26' C27' H27C 108.3 . . ? 
C28' C27' H27D 108.3 . . ? 
C26' C27' H27D 108.3 . . ? 
H27C C27' H27D 107.4 . . ? 
C27' C28' C29' 116.3(11) . . ? 
C27' C28' H28C 108.2 . . ? 
C29' C28' H28C 108.2 . . ? 
C27' C28' H28D 108.2 . . ? 
C29' C28' H28D 108.2 . . ? 
H28C C28' H28D 107.4 . . ? 
C30' C29' C28' 115.4(10) . . ? 
C30' C29' H29C 108.4 . . ? 
C28' C29' H29C 108.4 . . ? 
C30' C29' H29D 108.4 . . ? 
C28' C29' H29D 108.4 . . ? 
H29C C29' H29D 107.5 . . ? 
C31' C30' C29' 112.9(9) . . ? 
C31' C30' H30C 109.0 . . ? 
C29' C30' H30C 109.0 . . ? 
C31' C30' H30D 109.0 . . ? 
C29' C30' H30D 109.0 . . ? 
H30C C30' H30D 107.8 . . ? 
C30' C31' H31D 109.5 . . ? 
C30' C31' H31E 109.5 . . ? 
H31D C31' H31E 109.5 . . ? 
C30' C31' H31F 109.5 . . ? 
H31D C31' H31F 109.5 . . ? 
H31E C31' H31F 109.5 . . ? 
 
loop_ 
 _geom_torsion_atom_site_label_1 
 _geom_torsion_atom_site_label_2 
 _geom_torsion_atom_site_label_3 
 _geom_torsion_atom_site_label_4 
 _geom_torsion 
 _geom_torsion_site_symmetry_1 
 _geom_torsion_site_symmetry_2 
 _geom_torsion_site_symmetry_3 
 _geom_torsion_site_symmetry_4 
 _geom_torsion_publ_flag 
C16 C1 C2 C3 177.9(14) . . . . ? 
C3 C1 C2 C3 -1(3) 2_666 . . . ? 
C16 C1 C2 S1 -2(2) . . . . ? 
C3 C1 C2 S1 179.7(12) 2_666 . . . ? 
C1 C2 C3 C4 -179.7(16) . . . . ? 
S1 C2 C3 C4 0.1(18) . . . . ? 
C1 C2 C3 C1 1(3) . . . 2_666 ? 
S1 C2 C3 C1 -179.7(9) . . . 2_666 ? 
C2 C3 C4 C5 1.8(16) . . . . ? 
C1 C3 C4 C5 -178.4(11) 2_666 . . . ? 
C3 C4 C5 C6 -180(2) . . . . ? 
C3 C4 C5 S1 -2.9(16) . . . . ? 
C4 C5 S1 C2 2.5(15) . . . . ? 
C6 C5 S1 C2 180(2) . . . . ? 
C1 C2 S1 C5 178.3(19) . . . . ? 
C3 C2 S1 C5 -1.4(16) . . . . ? 
C1 C3' C2' C4' -176.9(19) 2_666 . . . ? 
S1' C3' C2' C4' 4(4) . . . . ? 
C1 C3' C2' C1 1(5) 2_666 . . . ? 
S1' C3' C2' C1 -178(2) . . . . ? 
C3' C1 C2' C3' -1(4) 2_666 . . . ? 
C16 C1 C2' C3' 178(2) . . . . ? 
C3' C1 C2' C4' 176(4) 2_666 . . . ? 
C16 C1 C2' C4' -5(6) . . . . ? 
C3' C2' C4' C5' -1(4) . . . . ? 
C1 C2' C4' C5' -178(4) . . . . ? 
C2' C4' C5' C6' -176(10) . . . . ? 
C2' C4' C5' S1' -3(4) . . . . ? 
C6' C5' S1' C3' 178(10) . . . . ? 
C4' C5' S1' C3' 5(3) . . . . ? 
C1 C3' S1' C5' 176.0(19) 2_666 . . . ? 
C2' C3' S1' C5' -5(3) . . . . ? 
C4 C5 C6 C7 175(2) . . . . ? 
S1 C5 C6 C7 -2(4) . . . . ? 
C4 C5 C6 S2 -6(4) . . . . ? 
S1 C5 C6 S2 176.9(15) . . . . ? 
C5 C6 C7 C8 -180(2) . . . . ? 
S2 C6 C7 C8 1(2) . . . . ? 
C6 C7 C8 C15 179.9(16) . . . . ? 
C6 C7 C8 C9 -1.7(16) . . . . ? 
C15 C8 C9 C10 -2.3(10) . . . . ? 
C7 C8 C9 C10 179.1(6) . . . . ? 
C15 C8 C9 S2 179.8(6) . . . . ? 
C7 C8 C9 S2 1.2(6) . . . . ? 
C10 C9 S2 C6 -178.2(12) . . . . ? 
C8 C9 S2 C6 -0.3(12) . . . . ? 
C7 C6 S2 C9 -0.6(19) . . . . ? 
C5 C6 S2 C9 -179(2) . . . . ? 
C8 C9 C10 C11 2.3(13) . . . . ? 
S2 C9 C10 C11 179.9(9) . . . . ? 
C9 C10 C11 C14 0.1(17) . . . . ? 
C9 C10 C11 C12 -178.8(14) . . . . ? 
C10 C11 C12 C13 178.7(13) . . . . ? 
C14 C11 C12 C13 -0.3(19) . . . . ? 
C11 C12 C13 S3 0.3(16) . . . . ? 
C12 C13 S3 C14 -0.2(10) . . . . ? 
C10 C11 C14 C15 -3(2) . . . . ? 
C12 C11 C14 C15 176.4(14) . . . . ? 
C10 C11 C14 S3 -178.9(11) . . . . ? 
C12 C11 C14 S3 0.2(16) . . . . ? 
C13 S3 C14 C15 -176.1(12) . . . . ? 
C13 S3 C14 C11 0.(1) . . . . ? 
C11 C14 C15 C8 2.7(17) . . . . ? 
S3 C14 C15 C8 178.3(9) . . . . ? 
C9 C8 C15 C14 -0.2(12) . . . . ? 
C7 C8 C15 C14 178.1(8) . . . . ? 
C4' C5' C6' C7' 173(12) . . . . ? 
S1' C5' C6' C7' 0(22) . . . . ? 
C4' C5' C6' S2' -7(17) . . . . ? 
S1' C5' C6' S2' -180(7) . . . . ? 
C5' C6' C7' C8' 178(13) . . . . ? 
S2' C6' C7' C8' -2(14) . . . . ? 
C6' C7' C8' C15' -177(10) . . . . ? 
C6' C7' C8' C9' 9(10) . . . . ? 
C15' C8' C9' C10' 8(7) . . . . ? 
C7' C8' C9' C10' -178(4) . . . . ? 
C15' C8' C9' S2' 174(4) . . . . ? 
C7' C8' C9' S2' -12(5) . . . . ? 
C10' C9' S2' C6' 175(7) . . . . ? 
C8' C9' S2' C6' 9(7) . . . . ? 
C7' C6' S2' C9' -4(11) . . . . ? 
C5' C6' S2' C9' 176(13) . . . . ? 
C8' C9' C10' C11' 0(8) . . . . ? 
S2' C9' C10' C11' -164(5) . . . . ? 
C9' C10' C11' C14' -8(10) . . . . ? 
C9' C10' C11' C12' -170(7) . . . . ? 
C10' C11' C12' C13' 171(7) . . . . ? 
C14' C11' C12' C13' 8(8) . . . . ? 
C11' C12' C13' S3' -6(6) . . . . ? 
C12' C13' S3' C14' 2(5) . . . . ? 
C10' C11' C14' C15' 9(12) . . . . ? 
C12' C11' C14' C15' 173(8) . . . . ? 
C10' C11' C14' S3' -171(6) . . . . ? 
C12' C11' C14' S3' -6(8) . . . . ? 
C13' S3' C14' C15' -177(8) . . . . ? 
C13' S3' C14' C11' 2(6) . . . . ? 
C11' C14' C15' C8' -1(11) . . . . ? 
S3' C14' C15' C8' 178(6) . . . . ? 
C9' C8' C15' C14' -7(8) . . . . ? 
C7' C8' C15' C14' 179(6) . . . . ? 
C17 Si1 C18 C19 61.9(12) . . . . ? 
C24 Si1 C18 C19 175.4(11) . . . . ? 
C21 Si1 C18 C19 -56.7(11) . . . . ? 
C17 Si1 C18 C20 -60.1(8) . . . . ? 
C24 Si1 C18 C20 53.4(8) . . . . ? 
C21 Si1 C18 C20 -178.8(6) . . . . ? 
C17 Si1 C18' C19' 84(3) . . . . ? 
C21 Si1 C18' C19' -30(3) . . . . ? 
C24' Si1 C18' C19' -152(3) . . . . ? 
C17 Si1 C18' C20' -46(2) . . . . ? 
C21 Si1 C18' C20' -160.8(18) . . . . ? 
C24' Si1 C18' C20' 77(3) . . . . ? 
C17 Si1 C21 C22 53.0(2) . . . . ? 
C24 Si1 C21 C22 -63.2(5) . . . . ? 
C18' Si1 C21 C22 163.8(11) . . . . ? 
C18 Si1 C21 C22 172.6(4) . . . . ? 
C24' Si1 C21 C22 -65.5(9) . . . . ? 
C17 Si1 C21 C23 178.6(2) . . . . ? 
C24 Si1 C21 C23 62.4(5) . . . . ? 
C18' Si1 C21 C23 -70.6(11) . . . . ? 
C18 Si1 C21 C23 -61.9(5) . . . . ? 
C24' Si1 C21 C23 60.1(9) . . . . ? 
C17 Si1 C24 C25 55.3(8) . . . . ? 
C21 Si1 C24 C25 173.7(6) . . . . ? 
C18 Si1 C24 C25 -61.7(8) . . . . ? 
Si1 C24 C25 C26 -173.8(5) . . . . ? 
C24 C25 C26 C27 -176.4(7) . . . . ? 
C25 C26 C27 C28 175.4(6) . . . . ? 
C26 C27 C28 C29 -178.4(5) . . . . ? 
C27 C28 C29 C30 -171.0(5) . . . . ? 
C28 C29 C30 C31 178.0(5) . . . . ? 
Si1 C24' C25' C26' -49(3) . . . . ? 
C24' C25' C26' C27' -172.2(14) . . . . ? 
C25' C26' C27' C28' -61.5(18) . . . . ? 
C26' C27' C28' C29' -172.8(15) . . . . ? 
C27' C28' C29' C30' 165.8(15) . . . . ? 
C28' C29' C30' C31' 177.1(14) . . . . ? 
 
_refine_diff_density_max    0.630 
_refine_diff_density_min   -0.431 
_refine_diff_density_rms    0.056 
 
_shelx_res_file 
; 
 
    x15193.res created by SHELXL-2014/7 
 
 
TITL x15193 : space group P-1 
CELL  1.54178   8.1244  11.8274  16.6285   70.294   75.906   82.317 
ZERR    1.000   0.0003   0.0005   0.0008    0.003    0.002    0.002 
LATT  1 
SFAC C H SI S 
UNIT 62 72 2 6 
TEMP -183 
SIZE 0.18 0.12 0.03 
REM COLR orange-brown 
REM FORM tablet 
L.S. 10 
BOND $H 
LIST 4 
CONF 
HTAB 
ACTA 
FMAP 2 
PLAN 5 
REM EXTI    0.000232, SU = 0.0002: not needed. 
WGHT    0.065900    1.179300 
FVAR       0.51599   0.66300   0.85270 
SI1   3    0.446411    0.672897    0.799722    11.00000    0.05504    0.03055 = 
         0.03324   -0.01344   -0.01553    0.00088 
C1    1    0.479907    0.541981    0.573386    11.00000    0.02565    0.02435 = 
         0.03442   -0.01278   -0.00476   -0.00395 
REM EXYZ C2 C2' 
REM EXYZ C3 C3' 
EADP C2 C2' 
EADP C3 S1' 
EADP C4 C5' 
EADP C5 C4' 
EADP S1 C3' 
SAME 0.020 C3' C2' C4' C5' S1' 
RIGU C2 > S1 
RIGU C3' > S1' 
PART 1 
C2    1    0.360183    0.565741    0.526727    21.00000    0.01214    0.02172 = 
         0.03682   -0.01112   -0.00699    0.00092 
C3    1    0.368279    0.528952    0.453321    21.00000    0.01542    0.02795 = 
         0.03712   -0.01245   -0.00779    0.00199 
C4    1    0.220992    0.569215    0.417975    21.00000    0.01750    0.02386 = 
         0.03854   -0.01381   -0.01101    0.00037 
C5    1    0.106697    0.637169    0.460671    21.00000    0.01235    0.02126 = 
         0.03617   -0.01230   -0.00430   -0.00065 
S1    4    0.168866    0.649285    0.549669    21.00000    0.01299    0.02509 = 
         0.03735   -0.01548   -0.00913    0.00401 
PART 2 
C3'   1    0.386755    0.522448    0.447983   -21.00000    0.01299    0.02509 = 
         0.03735   -0.01548   -0.00913    0.00401 
C2'   1    0.343790    0.570958    0.518249   -21.00000    0.01214    0.02172 = 
         0.03682   -0.01112   -0.00699    0.00092 
C4'   1    0.178671    0.632951    0.523075   -21.00000    0.01235    0.02126 = 
         0.03617   -0.01230   -0.00430   -0.00065 
C5'   1    0.104888    0.630734    0.456273   -21.00000    0.01750    0.02386 = 
         0.03854   -0.01381   -0.01101    0.00037 
S1'   4    0.231888    0.563075    0.384520   -21.00000    0.01542    0.02795 = 
         0.03712   -0.01245   -0.00779    0.00199 
PART 0 
REM EXYZ C6 C6' 
REM EXYZ C13 C13' 
EADP C6 C6' 
EADP C7 S2' 
EADP C8 C9' 
EADP C9 C8' 
EADP S2 C7' 
EADP C10 C15' 
EADP C11 C14' 
EADP C12 S3' 
EADP C13 C13' 
EADP S3 C12' 
EADP C14 C11' 
EADP C15 C10' 
SAME 0.010 C6' > C15' 
RIGU C6 > C15 
RIGU C6' > C15' 
PART 1 
C6    1   -0.057140    0.691559    0.440194    31.00000    0.01388    0.02358 = 
         0.03791   -0.01018   -0.00704   -0.00002 
C7    1   -0.176767    0.751490    0.484963    31.00000    0.01524    0.03030 = 
         0.03944   -0.01383   -0.00982    0.00446 
AFIX  43 
H7    2   -0.163513    0.764276    0.536401    31.00000   -1.20000 
AFIX   0 
C8    1   -0.323912    0.793990    0.449398    31.00000    0.01513    0.01856 = 
         0.04028   -0.00799   -0.00938   -0.00013 
C9    1   -0.309031    0.765851    0.371379    31.00000    0.01535    0.02458 = 
         0.04086   -0.00966   -0.00873   -0.00108 
S2    4   -0.116487    0.686077    0.347310    31.00000    0.01695    0.03163 = 
         0.04129   -0.01787   -0.00986    0.00353 
C10   1   -0.436795    0.796011    0.324329    31.00000    0.02174    0.02959 = 
         0.04219   -0.01290   -0.01170   -0.00180 
AFIX  43 
H10   2   -0.425696    0.773633    0.273416    31.00000   -1.20000 
AFIX   0 
C11   1   -0.581613    0.860046    0.354090    31.00000    0.01648    0.02544 = 
         0.04405   -0.00548   -0.01167   -0.00093 
C12   1   -0.731032    0.900227    0.319613    31.00000    0.02539    0.03642 = 
         0.05477   -0.00586   -0.02150   -0.00033 
AFIX  43 
H12   2   -0.745238    0.887086    0.268469    31.00000   -1.20000 
AFIX   0 
C13   1   -0.849444    0.957890    0.365162    31.00000    0.01979    0.03326 = 
         0.05925   -0.00874   -0.01906    0.00405 
AFIX  43 
H13   2   -0.955649    0.989298    0.350058    31.00000   -1.20000 
AFIX   0 
S3    4   -0.787859    0.969239    0.455359    31.00000    0.01579    0.03981 = 
         0.05614   -0.01563   -0.01204    0.00959 
C14   1   -0.593672    0.892100    0.430140    31.00000    0.01669    0.02626 = 
         0.04236   -0.00660   -0.00761    0.00003 
C15   1   -0.469183    0.858190    0.479481    31.00000    0.01912    0.02513 = 
         0.04087   -0.01074   -0.00920    0.00227 
AFIX  43 
H15   2   -0.482411    0.877918    0.531636    31.00000   -1.20000 
AFIX   0 
PART 2 
C6'   1   -0.050404    0.689562    0.443307   -31.00000    0.01388    0.02358 = 
         0.03791   -0.01018   -0.00704   -0.00002 
C7'   1   -0.127252    0.704827    0.376797   -31.00000    0.01695    0.03163 = 
         0.04129   -0.01787   -0.00986    0.00353 
AFIX  43 
H7'   2   -0.076759    0.676507    0.328766   -31.00000   -1.20000 
AFIX   0 
C8'   1   -0.291130    0.767172    0.384371   -31.00000    0.01535    0.02458 = 
         0.04086   -0.00966   -0.00873   -0.00108 
C9'   1   -0.323078    0.815153    0.454680   -31.00000    0.01513    0.01856 = 
         0.04028   -0.00799   -0.00938   -0.00013 
S2'   4   -0.172324    0.756338    0.519381   -31.00000    0.01524    0.03030 = 
         0.03944   -0.01383   -0.00982    0.00446 
C10'  1   -0.474172    0.876275    0.479730   -31.00000    0.01912    0.02513 = 
         0.04087   -0.01074   -0.00920    0.00227 
AFIX  43 
H10'  2   -0.490721    0.907223    0.527110   -31.00000   -1.20000 
AFIX   0 
C11'  1   -0.600737    0.890865    0.433343   -31.00000    0.01669    0.02626 = 
         0.04236   -0.00660   -0.00761    0.00003 
C12'  1   -0.754130    0.965082    0.439050   -31.00000    0.01579    0.03981 = 
         0.05614   -0.01563   -0.01204    0.00959 
AFIX  43 
H12'  2   -0.791558    1.004246    0.482216   -31.00000   -1.20000 
AFIX   0 
C13'  1   -0.839739    0.974144    0.378034   -31.00000    0.01979    0.03326 = 
         0.05925   -0.00874   -0.01906    0.00405 
AFIX  43 
H13'  2   -0.949341    1.013561    0.376658   -31.00000   -1.20000 
AFIX   0 
S3'   4   -0.729194    0.905931    0.300912   -31.00000    0.02539    0.03642 = 
         0.05477   -0.00586   -0.02150   -0.00033 
C14'  1   -0.562578    0.857265    0.356291   -31.00000    0.01648    0.02544 = 
         0.04405   -0.00548   -0.01167   -0.00093 
C15'  1   -0.410306    0.795535    0.331551   -31.00000    0.02174    0.02959 = 
         0.04219   -0.01290   -0.01170   -0.00180 
AFIX  43 
H15'  2   -0.388183    0.773296    0.279940   -31.00000   -1.20000 
AFIX   0 
PART 0 
C16   1    0.465312    0.585763    0.645380    11.00000    0.04150    0.02549 = 
         0.03807   -0.01214   -0.00945   -0.00153 
C17   1    0.458557    0.623124    0.704859    11.00000    0.05140    0.03149 = 
         0.04063   -0.01442   -0.01474    0.00202 
SAME C18' C19' C20' 
EADP C18 C18' 
EADP C19 C19' 
EADP C20 C20' 
PART 1 
C18   1    0.658544    0.636903    0.834496    21.00000    0.08297    0.05059 = 
         0.04035   -0.02544   -0.03637    0.01624 
AFIX  13 
H18   2    0.648690    0.663365    0.886681    21.00000   -1.20000 
AFIX   0 
C19   1    0.799861    0.703128    0.762540    21.00000    0.05195    0.08021 = 
         0.14433    0.02151   -0.04866    0.00415 
AFIX 137 
H19A  2    0.907579    0.682093    0.782166    21.00000   -1.50000 
H19B  2    0.774007    0.790049    0.748778    21.00000   -1.50000 
H19C  2    0.809262    0.680009    0.710207    21.00000   -1.50000 
AFIX   0 
C20   1    0.705703    0.502428    0.859825    21.00000    0.09775    0.07192 = 
         0.06870   -0.03033   -0.03976    0.03517 
AFIX 137 
H20A  2    0.717626    0.475048    0.809144    21.00000   -1.50000 
H20B  2    0.616290    0.459288    0.907367    21.00000   -1.50000 
H20C  2    0.813549    0.486386    0.879270    21.00000   -1.50000 
AFIX   0 
PART 2 
C18'  1    0.669000    0.640965    0.816890   -21.00000    0.08297    0.05059 = 
         0.04035   -0.02544   -0.03637    0.01624 
AFIX  13 
H18'  2    0.659995    0.643570    0.877304   -21.00000   -1.20000 
AFIX   0 
C19'  1    0.781705    0.742757    0.758206   -21.00000    0.05195    0.08021 = 
         0.14433    0.02151   -0.04866    0.00415 
AFIX  33 
H19D  2    0.720644    0.820069    0.758121   -21.00000   -1.50000 
H19E  2    0.885512    0.735544    0.780097   -21.00000   -1.50000 
H19F  2    0.811671    0.738331    0.698539   -21.00000   -1.50000 
AFIX   0 
C20'  1    0.765997    0.521302    0.816266   -21.00000    0.09775    0.07192 = 
         0.06870   -0.03033   -0.03976    0.03517 
AFIX  33 
H20D  2    0.694382    0.454926    0.853963   -21.00000   -1.50000 
H20E  2    0.796007    0.517486    0.756439   -21.00000   -1.50000 
H20F  2    0.869848    0.514699    0.837997   -21.00000   -1.50000 
AFIX   0 
PART 0 
C21   1    0.395654    0.839513    0.766764    11.00000    0.04421    0.03281 = 
         0.03519   -0.01442   -0.00880   -0.00160 
AFIX  13 
H21   2    0.494381    0.878016    0.720748    11.00000   -1.20000 
AFIX   0 
C22   1    0.238582    0.878050    0.726715    11.00000    0.04995    0.04067 = 
         0.05626   -0.01896   -0.01789    0.00594 
AFIX 137 
H22A  2    0.137388    0.847272    0.771383    11.00000   -1.50000 
H22B  2    0.250924    0.845539    0.678458    11.00000   -1.50000 
H22C  2    0.226663    0.966061    0.704610    11.00000   -1.50000 
AFIX   0 
C23   1    0.378897    0.887767    0.843633    11.00000    0.08265    0.04177 = 
         0.04791   -0.02546   -0.01732    0.00285 
AFIX 137 
H23A  2    0.361235    0.975577    0.823424    11.00000   -1.50000 
H23B  2    0.482983    0.865458    0.866609    11.00000   -1.50000 
H23C  2    0.281792    0.853019    0.889855    11.00000   -1.50000 
AFIX   0 
REM EXYZ C24 C24' 
SIMU C24 C24' 
SIMU C27 C28' 
SIMU C29 C29' 
SADI 0.020 Si1 C24 Si1 C24' 
SAME 0.02 C24' > C31' 
RIGU C24 > C31 
RIGU C24' > C31' 
PART 1 
C24   1    0.282955    0.579597    0.886893    21.00000    0.07522    0.05011 = 
         0.04164   -0.01625   -0.01583   -0.01724 
AFIX  23 
H24A  2    0.273927    0.597329    0.941947    21.00000   -1.20000 
H24B  2    0.171235    0.601164    0.870121    21.00000   -1.20000 
AFIX   0 
C25   1    0.326083    0.444944    0.902324    21.00000    0.10065    0.04917 = 
         0.06092   -0.01315    0.01104   -0.02388 
AFIX  23 
H25A  2    0.348777    0.430095    0.845374    21.00000   -1.20000 
H25B  2    0.432351    0.423079    0.924549    21.00000   -1.20000 
AFIX   0 
C26   1    0.192932    0.363470    0.964559    21.00000    0.07575    0.05594 = 
         0.04125   -0.00766   -0.01796   -0.02570 
AFIX  23 
H26A  2    0.088378    0.379050    0.941022    21.00000   -1.20000 
H26B  2    0.164703    0.379247    1.021317    21.00000   -1.20000 
AFIX   0 
C27   1    0.259690    0.229500    0.978131    21.00000    0.08076    0.05562 = 
         0.05921   -0.01724   -0.00870   -0.01998 
AFIX  23 
H27A  2    0.279894    0.213434    0.921711    21.00000   -1.20000 
H27B  2    0.369932    0.217166    0.996186    21.00000   -1.20000 
AFIX   0 
C28   1    0.137542    0.139673    1.046422    21.00000    0.06179    0.05681 = 
         0.05010   -0.02093   -0.01525   -0.00690 
AFIX  23 
H28A  2    0.028422    0.150604    1.027458    21.00000   -1.20000 
H28B  2    0.114686    0.157440    1.102328    21.00000   -1.20000 
AFIX   0 
C29   1    0.203683    0.008806    1.062035    21.00000    0.06192    0.05374 = 
         0.05738   -0.01856   -0.02052   -0.00149 
AFIX  23 
H29A  2    0.244542   -0.004192    1.004498    21.00000   -1.20000 
H29B  2    0.303087   -0.004078    1.089314    21.00000   -1.20000 
AFIX   0 
C30   1    0.081525   -0.084307    1.117513    21.00000    0.07422    0.05089 = 
         0.04515   -0.01667   -0.01979   -0.00249 
AFIX  23 
H30A  2   -0.019809   -0.070848    1.091608    21.00000   -1.20000 
H30B  2    0.043901   -0.074385    1.176142    21.00000   -1.20000 
AFIX   0 
C31   1    0.152289   -0.210526    1.127708    21.00000    0.09653    0.05152 = 
         0.05391   -0.01897   -0.01461    0.00138 
AFIX 137 
H31A  2    0.193957   -0.220543    1.069895    21.00000   -1.50000 
H31B  2    0.063023   -0.266529    1.161682    21.00000   -1.50000 
H31C  2    0.246273   -0.227242    1.158229    21.00000   -1.50000 
AFIX   0 
PART 2 
C24'  1    0.260950    0.604989    0.891946   -21.00000    0.10637    0.02802 = 
         0.03060    0.00484    0.00411   -0.03073 
AFIX  23 
H24C  2    0.269698    0.631186    0.941291   -21.00000   -1.20000 
H24D  2    0.157706    0.648136    0.872067   -21.00000   -1.20000 
AFIX   0 
C25'  1    0.218021    0.473205    0.932859   -21.00000    0.06353    0.03628 = 
         0.06951   -0.00297    0.00243   -0.01037 
AFIX  23 
H25C  2    0.300394    0.431245    0.969937   -21.00000   -1.20000 
H25D  2    0.104180    0.469744    0.972030   -21.00000   -1.20000 
AFIX   0 
C26'  1    0.217397    0.405143    0.873668   -21.00000    0.07205    0.06821 = 
         0.08437   -0.02471   -0.01415   -0.00566 
AFIX  23 
H26C  2    0.334867    0.397412    0.840294   -21.00000   -1.20000 
H26D  2    0.146778    0.451520    0.831227   -21.00000   -1.20000 
AFIX   0 
C27'  1    0.148946    0.276872    0.920440   -21.00000    0.08537    0.06520 = 
         0.13750   -0.02263   -0.05410   -0.00710 
AFIX  23 
H27C  2    0.030060    0.285422    0.951883   -21.00000   -1.20000 
H27D  2    0.146945    0.240406    0.875158   -21.00000   -1.20000 
AFIX   0 
C28'  1    0.248646    0.189795    0.985314   -21.00000    0.06443    0.06085 = 
         0.11728   -0.02703   -0.04635   -0.01239 
AFIX  23 
H28C  2    0.238184    0.221354    1.034535   -21.00000   -1.20000 
H28D  2    0.370248    0.189389    0.955919   -21.00000   -1.20000 
AFIX   0 
C29'  1    0.195623    0.059818    1.022982   -21.00000    0.06423    0.05383 = 
         0.07774   -0.04237   -0.01698   -0.01269 
AFIX  23 
H29C  2    0.085063    0.057282    1.064794   -21.00000   -1.20000 
H29D  2    0.177999    0.034678    0.974756   -21.00000   -1.20000 
AFIX   0 
C30'  1    0.319258   -0.030068    1.068827   -21.00000    0.06063    0.06715 = 
         0.07010   -0.02193   -0.00956   -0.01602 
AFIX  23 
H30C  2    0.428226   -0.031731    1.026539   -21.00000   -1.20000 
H30D  2    0.341414   -0.003850    1.115629   -21.00000   -1.20000 
AFIX   0 
C31'  1    0.256760   -0.153477    1.107776   -21.00000    0.08114    0.06336 = 
         0.06049   -0.02072   -0.01389   -0.02964 
AFIX  33 
H31D  2    0.341859   -0.208184    1.136696   -21.00000   -1.50000 
H31E  2    0.150181   -0.152872    1.150720   -21.00000   -1.50000 
H31F  2    0.237024   -0.180762    1.061598   -21.00000   -1.50000 
PART 0 
 
AFIX   0 
HKLF 4 1 -1  0  0  0  1  0 -1  0 -1 
 
REM  x15193 : space group P-1 
REM R1 =  0.0507 for    4254 Fo > 4sig(Fo)  and  0.0620 for all    5158 data 
REM    455 parameters refined using    421 restraints 
 
END 
 
WGHT      0.0665      1.1692 
 
REM Instructions for potential hydrogen bonds 
EQIV $1 -x-1, -y+2, -z+1 
HTAB C12' S2'_$1 
 
REM Highest difference peak  0.630,  deepest hole -0.431,  1-sigma level  0.056 
Q1    1   0.0777  0.2716  0.9856  11.00000  0.05    0.63 
Q2    1   0.0902  0.4145  0.9725  11.00000  0.05    0.42 
Q3    1   0.3577  0.6249  0.8380  11.00000  0.05    0.41 
Q4    1   0.1931  0.5516  0.3474  11.00000  0.05    0.37 
Q5    1  -0.0768  0.6843  0.4014  11.00000  0.05    0.34 
; 
_shelx_res_checksum   76172 
 
_shelx_hkl_file
;
  -1   0   0 54.3383 3.86848   1
  -1   0   0 57.5604 3.90689   1
   1   0   0 54.4108 3.61875   2
   1   0   0 49.7357 3.74200   3
   1   0   0 47.5506 3.75809   3
   1   0   0 48.2425 3.61682   2
   1   0   0 58.0937 3.86136   1
   1   0   0 54.1923 3.86083   1
   1   0   0 44.2392 3.73650   4
   1   0   0 50.1854 3.58726   7
  -2   0   0 1661.62 102.781   1
  -2   0   0 1555.55 102.819   1
   2   0   0 1389.66 97.0457   2
   2   0   0 1533.19 97.5493   2
   2   0   0 1454.35 95.9033   5
   2   0   0 1494.68 95.0079   7
   2   0   0 1301.78 98.3081   4
   2   0   0 1525.60 102.695   1
   2   0   0 1630.38 102.713   1
   2   0   0 1530.60 100.799   3
   2   0   0 1486.10 100.275   3
  -3   0   0 191.331 14.4578   1
  -3   0   0 217.456 14.3761   1
   3   0   0 193.177 13.9377   4
   3   0   0 212.823 14.0309   3
   3   0   0 204.190 14.3128   1
   3   0   0 202.837 14.3413   1
   3   0   0 195.333 13.9798   3
   3   0   0 221.873 13.5257   2
   3   0   0 222.815 13.3923   7
   3   0   0 186.773 13.4570   2
   4   0   0 27.3524 3.24190   4
   4   0   0 28.5499 2.95164   3
   4   0   0 25.7938 2.79763   7
   4   0   0 28.3340 2.68773   2
   5   0   0 12.8703 1.43933   9
   5   0   0 14.2118 1.62530  11
   5   0   0 15.2175 1.74527  16
   5   0   0 13.0284 1.47955  17
   5   0   0 15.0897 1.86674  18
   5   0   0 12.7401 2.64384   4
   5   0   0 12.6796 2.23315   7
   5   0   0 14.5956 2.13540   3
   5   0   0 13.4822 1.86926   2
   5   0   0 15.4282 1.26424  10
   6   0   0 16.2545 1.85643   3
   6   0   0 27.5160 3.65554   7
   6   0   0 19.4767 1.85788  17
   6   0   0 16.4023 1.91859  18
   6   0   0 17.7577 2.03359  11
   6   0   0 17.6347 1.56833  10
   6   0   0 13.1411 3.28252   4
   7   0   0 -1.2444 1.59314  11
   7   0   0 2.17077 0.76292  10
   7   0   0 2.44847 1.57634  18
   7   0   0 2.31251 0.84855  17
   8   0   0 13.7842 1.05635  10
   8   0   0 13.3044 1.69148  11
   8   0   0 10.9322 1.49074  17
   8   0   0 8.36504 1.81513  18
   9   0   0 3.47331 0.97161  18
   9   0   0 5.93934 0.98724  11
   9  -1   0 122.545 8.78795  18
   9  -1   0 136.404 9.12509  11
   8  -1   0 110.966 7.83150  18
   8  -1   0 119.673 8.12130  11
   8  -1   0 106.846 6.97551  17
   7  -1   0 71.0961 4.51781  10
   7  -1   0 78.9516 5.87755  11
   7  -1   0 76.2796 5.57815  18
   7  -1   0 67.6755 4.82325  17
   6  -1   0 403.716 25.0296  10
   6  -1   0 434.015 25.1404  17
   6  -1   0 446.986 26.1228  16
   6  -1   0 437.083 27.8746  18
   6  -1   0 409.861 28.7132  11
   6  -1   0 404.610 28.6475   4
   6  -1   0 396.315 27.5268   7
   5  -1   0 5.08972 1.14339  11
   5  -1   0 3.56693 2.00442   4
   5  -1   0 3.53985 0.53464  10
   5  -1   0 4.67161 1.01411  16
   5  -1   0 6.22474 2.08610   7
   5  -1   0 3.75759 1.08165  18
   5  -1   0 3.22672 0.88118  17
   4  -1   0 10.4779 1.96875   4
   4  -1   0 9.45059 1.19114   1
   4  -1   0 10.7850 1.23955   2
   4  -1   0 13.1160 1.36898   3
   4  -1   0 12.7892 1.55678   3
   4  -1   0 14.3736 1.50522   2
   4  -1   0 17.7127 2.13850   7
  -4   1   0 5.68994 1.47479   1
   3  -1   0 6.59801 0.93085   1
   3  -1   0 5.91177 0.94474   2
   3  -1   0 6.75036 1.03704   1
   3  -1   0 6.40524 1.45389   4
   3  -1   0 6.96237 0.95804   5
   3  -1   0 7.78222 0.85719   2
   3  -1   0 7.14341 1.01230   3
   3  -1   0 8.57717 1.54561   7
   3  -1   0 8.31750 1.00273   3
  -3   1   0 7.84361 1.03827   1
  -3   1   0 6.15291 1.28241   1
   2  -1   0 116.564 8.19851   4
   2  -1   0 131.389 8.34421   1
   2  -1   0 121.548 8.30813   1
   2  -1   0 115.916 8.10926   3
   2  -1   0 120.703 8.12785   3
   2  -1   0 113.855 8.39984   6
   2  -1   0 119.160 7.83566   2
   2  -1   0 120.067 7.85459   2
   2  -1   0 121.233 7.93003   7
   2  -1   0 116.350 7.90678   5
  -2   1   0 120.709 8.40007   1
  -2   1   0 124.932 8.31941   1
   1  -1   0 135.616 8.82882   4
   1  -1   0 141.865 8.52810   7
   1  -1   0 128.774 8.63098   5
   1  -1   0 125.895 9.02539   6
   0  -1   0 149.955 10.1739   5
   0  -1   0 160.023 10.9190   1
   0  -1   0 157.910 10.3013   2
   0  -1   0 162.496 10.6576   3
   0  -1   0 150.210 10.8927   1
   0  -1   0 150.435 10.6410   3
   0   1   0 164.916 10.9192   1
   0   1   0 156.613 10.6527   3
   0   1   0 159.342 10.2950   2
   0   1   0 172.602 10.9130   1
  -1  -1   0 310.084 21.7985   3
  -1  -1   0 341.565 22.3241   1
  -1  -1   0 302.474 21.0750   2
  -1  -1   0 330.552 22.3580   1
   1   1   0 313.397 21.0542   2
   1   1   0 321.347 22.3320   1
   1   1   0 320.246 20.5641   7
   1   1   0 330.644 21.8057   3
   1   1   0 340.186 22.3171   1
  -2  -1   0 110.070 7.44180   1
  -2  -1   0 84.4363 7.23538   3
  -2  -1   0 102.287 7.53219   1
   2   1   0 96.7467 7.27342   3
   2   1   0 100.877 6.94560   2
   2   1   0 107.189 7.41935   1
   2   1   0 106.270 6.82563   7
  -3  -1   0 655.278 45.1278   1
  -3  -1   0 636.620 45.2601   1
   3   1   0 609.141 45.1023   1
   3   1   0 655.022 45.1171   1
   3   1   0 696.416 42.6144   2
   3   1   0 649.059 43.2892   4
   3   1   0 664.508 44.0877   3
   3   1   0 673.011 41.7185   7
   4   1   0 1.21428 1.78090   3
   4   1   0 2.34527 1.40739   2
   4   1   0 -1.4387 1.62650   4
   4   1   0 1.11370 1.30449   7
   5   1   0 3.33712 0.74741   9
   5   1   0 4.17493 2.19068   3
   5   1   0 2.74019 0.74323  10
   5   1   0 2.02287 2.30241   4
   5   1   0 4.72518 1.77495   2
   5   1   0 3.48640 1.09809  18
   5   1   0 3.44325 0.87472  17
   5   1   0 2.75086 1.18333  11
   5   1   0 1.77444 1.73553   7
   6   1   0 1.96352 0.84364  10
   6   1   0 3.11924 2.89081   4
   6   1   0 3.13718 1.07063  11
   6   1   0 1.97972 0.94249  18
   6   1   0 6.24457 2.01702   3
   6   1   0 2.12880 0.79743   9
   6   1   0 0.92604 2.13231   7
   6   1   0 1.37898 1.91306   2
   6   1   0 2.19228 0.98545  17
   7   1   0 4.24669 1.73926  11
   7   1   0 4.10155 1.54924  18
   7   1   0 6.17941 0.92934  17
   7   1   0 3.62108 0.97559  10
   8   1   0 -0.7959 0.59445  10
   8   1   0 -1.9159 1.56554  11
   8   1   0 -1.2617 1.38355  18
   9   1   0 2.90592 0.81768  11
   9  -2   0 16.4667 1.74799  18
   9  -2   0 10.6439 1.67001  11
   8  -2   0 10.8117 1.91524  11
   8  -2   0 9.56391 1.45523  17
   8  -2   0 12.3852 1.64163  18
   7  -2   0 5.06622 0.95559  17
   7  -2   0 0.73616 1.58149  11
   7  -2   0 1.45550 1.56114  18
   6  -2   0 10.5382 2.60500   7
   6  -2   0 10.7013 1.60803  18
   6  -2   0 9.10541 2.58235   4
   6  -2   0 9.98481 1.03429  10
   6  -2   0 10.2959 1.33566  17
   6  -2   0 10.6689 1.62198  11
   6  -2   0 10.8998 1.46749  16
   5  -2   0 32.8768 2.34206  17
   5  -2   0 34.6180 3.34826   7
   5  -2   0 30.8154 3.56342   4
   5  -2   0 30.5501 2.44660  16
   5  -2   0 33.2247 2.70217  18
   5  -2   0 29.9110 1.98808  10
   5  -2   0 27.3129 2.78295  11
   4  -2   0 51.2558 3.94421   7
   4  -2   0 45.7970 3.66826   5
   4  -2   0 51.0880 4.43751   4
   3  -2   0 55.0699 4.13448   5
   3  -2   0 55.8664 4.35132   4
   3  -2   0 58.5353 4.13781   7
   3  -2   0 56.1978 4.62716   6
   2  -2   0 -1.1445 1.35335   6
   2  -2   0 -0.3709 0.82180   4
   2  -2   0 0.39883 1.00239   5
   2  -2   0 -0.6485 0.85305   7
   1  -2   0 471.478 30.3962   7
   1  -2   0 421.148 32.1455   6
   1  -2   0 453.927 32.1000   3
   1  -2   0 516.418 32.9123   1
   1  -2   0 481.868 31.0842   2
   1  -2   0 505.996 31.5458   4
   1  -2   0 494.821 32.8818   1
   1  -2   0 450.955 31.0639   2
   1  -2   0 465.081 30.8518   5
   1  -2   0 459.007 32.1056   3
  -1   2   0 506.228 32.8843   1
  -1   2   0 546.269 32.8986   1
   0  -2   0 6.73387 1.23253   1
   0  -2   0 7.27236 1.09331   2
   0  -2   0 7.70326 1.15025   1
   0  -2   0 6.01487 0.90221   5
   0  -2   0 7.03112 1.07891   3
   0   2   0 6.28397 1.03988   3
   0   2   0 8.80419 1.25191   1
   0   2   0 6.74333 1.16445   1
   0   2   0 6.62992 1.01901   2
  -1  -2   0 1.57857 1.10340   3
  -1  -2   0 0.50775 0.94087   2
  -1  -2   0 1.31724 1.14791   1
  -1  -2   0 1.37924 1.26237   1
  -1  -2   0 0.61126 0.61687   5
   1   2   0 0.09193 1.02484   1
   1   2   0 1.49103 1.06561   2
   1   2   0 0.32732 0.75171   7
   1   2   0 2.03632 1.20932   1
   1   2   0 1.38851 1.10476   3
  -2  -2   0 537.195 39.3178   3
  -2  -2   0 504.471 37.9982   2
  -2  -2   0 601.722 40.3588   1
  -2  -2   0 603.425 40.2672   1
   2   2   0 600.107 40.2532   1
   2   2   0 583.222 37.9792   2
   2   2   0 614.914 39.3700   3
   2   2   0 612.168 37.0852   7
   2   2   0 598.968 40.2781   1
   3   2   0 18.2064 2.14436   2
   3   2   0 21.7586 2.64926   3
   3   2   0 14.5161 2.20547   1
   3   2   0 19.0447 2.13303   7
   4   2   0 385.910 25.8254   3
   4   2   0 383.437 24.8035   2
   4   2   0 358.642 25.3238   4
   4   2   0 366.426 24.2197   7
   5   2   0 41.8050 2.88936  10
   5   2   0 45.3466 4.18403   7
   5   2   0 39.1564 4.91355   3
   5   2   0 45.2008 3.42607  18
   5   2   0 46.3457 5.04783   4
   5   2   0 45.1640 4.28700   2
   5   2   0 42.1966 3.42908   9
   5   2   0 41.3134 2.86518   8
   5   2   0 40.2372 2.91686  17
   5   2   0 47.3976 3.71184  11
   6   2   0 398.713 27.7548   4
   6   2   0 450.372 27.4372  11
   6   2   0 348.640 26.5690   2
   6   2   0 402.162 23.9303  17
   6   2   0 412.198 26.5659  18
   6   2   0 382.360 27.6105   9
   7   2   0 7.57579 1.80368  11
   7   2   0 4.72173 1.52486  18
   7   2   0 3.50853 0.90691  10
   8   2   0 131.307 10.0918  18
   8   2   0 159.818 9.07605  10
   8   2   0 158.371 10.5422  11
   9  -3   0 1.39676 1.10651  18
   9  -3   0 -0.1215 0.87255  11
   8  -3   0 3.53915 1.78724  18
   8  -3   0 3.69673 0.96177  17
   8  -3   0 5.94985 1.28150  11
   7  -3   0 3.83530 1.24113  18
   7  -3   0 1.22923 1.56854  11
   7  -3   0 0.60546 1.33108  16
   7  -3   0 2.24528 1.22781  17
   6  -3   0 51.5868 4.00123  18
   6  -3   0 40.9972 4.71316   4
   6  -3   0 51.4528 4.29876  15
   6  -3   0 43.8665 3.53962  12
   6  -3   0 51.5854 3.44440  17
   6  -3   0 52.0319 4.76402   7
   6  -3   0 50.6169 4.10046  11
   6  -3   0 49.8135 3.64094  16
   5  -3   0 28.6079 2.29751  16
   5  -3   0 28.5947 3.43999   7
   5  -3   0 30.7445 3.34981   4
   5  -3   0 29.1102 2.69205  11
   5  -3   0 25.1979 2.21340  17
   5  -3   0 30.9343 2.62536  18
   4  -3   0 189.233 13.1696   5
   4  -3   0 195.214 13.9571   6
   4  -3   0 204.724 13.1178   7
   4  -3   0 204.623 13.6388   4
   3  -3   0 28.7500 2.59018   4
   3  -3   0 29.2149 2.72314   5
   3  -3   0 27.8355 3.17362   6
   3  -3   0 23.5324 2.46300   7
   2  -3   0 3.20223 0.90966   7
   2  -3   0 4.69071 1.04056   4
   2  -3   0 5.97533 1.83602   6
   2  -3   0 4.28850 1.17318   5
   1  -3   0 4008.44 293.363   6
   1  -3   0 4471.81 286.118   2
   1  -3   0 3952.69 295.192   3
   1  -3   0 4670.52 302.647   1
   1  -3   0 4042.57 285.792   2
   1  -3   0 4438.53 283.586   5
   1  -3   0 4785.97 302.653   1
   1  -3   0 4456.65 295.681   3
  -1   3   0 4772.21 302.683   1
  -1   3   0 4724.38 302.687   1
   0  -3   0 140.998 9.90975   3
   0  -3   0 128.013 10.0525   1
   0  -3   0 149.905 9.36018   5
   0  -3   0 149.043 9.56016   2
   0  -3   0 156.374 10.1978   1
   0   3   0 126.262 9.88072   3
   0   3   0 151.772 10.1331   1
   0   3   0 129.808 9.46307   2
  -1  -3   0 24.8194 2.97414   1
  -1  -3   0 23.8042 2.64008   3
  -1  -3   0 23.3822 2.65553   2
  -1  -3   0 22.3651 2.76595   1
  -1  -3   0 22.2052 1.92523   5
   1   3   0 20.3390 1.81571   7
   1   3   0 22.4937 2.68777   3
   1   3   0 22.5508 2.43375   2
   1   3   0 24.0501 2.81206   1
   1   3   0 25.8424 2.62113   1
  -2  -3   0 1572.16 108.093   1
  -2  -3   0 1607.92 108.221   1
  -2  -3   0 1432.05 102.139   2
  -2  -3   0 1442.12 105.544   3
   2   3   0 1660.77 105.637   3
   2   3   0 1594.41 108.147   1
   2   3   0 1683.76 99.7271   7
   2   3   0 1585.03 108.085   1
   2   3   0 1624.45 102.109   2
   3   3   0 125.899 9.41065   3
   3   3   0 126.065 8.89718   2
   3   3   0 123.433 8.51858   7
   4   3   0 328.412 22.8963   8
   4   3   0 367.955 23.3282   7
   4   3   0 355.649 24.4501   4
   4   3   0 367.589 23.9282   2
   4   3   0 374.904 24.9839   3
   5   3   0 94.5048 7.49785   2
   5   3   0 93.9551 7.08958   7
   5   3   0 91.4014 5.83833  10
   5   3   0 92.8676 8.02907   4
   5   3   0 91.5281 6.52450  18
   5   3   0 101.993 8.31342   3
   5   3   0 95.1372 6.82037   9
   5   3   0 89.8558 6.09162   8
   6   3   0 15.2461 1.64275  10
   6   3   0 16.7717 2.04907  11
   6   3   0 13.9817 3.71187   4
   6   3   0 16.7472 1.87771  18
   6   3   0 15.0294 1.88975   9
   7   3   0 8.51850 1.79843  11
   7   3   0 6.38997 1.11846  10
   7   3   0 7.04567 1.45071  18
   8   3   0 1.86677 1.00627  11
   8   3   0 3.94788 0.88608  10
   9  -4   0 68.9898 4.47556  18
   9  -4   0 54.0192 4.42270  11
   8  -4   0 77.4640 5.42009  18
   8  -4   0 68.3157 5.17570  11
   8  -4   0 62.7983 4.45229  17
   7  -4   0 630.330 41.4541  18
   7  -4   0 620.287 37.3871  17
   7  -4   0 620.502 38.7876  16
   7  -4   0 633.681 42.6426  11
   6  -4   0 314.827 17.2670  17
   6  -4   0 270.578 19.0389   7
   6  -4   0 291.532 19.7004  11
   6  -4   0 300.819 17.9155  16
   6  -4   0 305.448 19.1952  18
   6  -4   0 264.918 18.3851  12
   6  -4   0 263.404 19.6608   4
   6  -4   0 270.072 19.3314  15
   5  -4   0 7.41159 1.04849  12
   5  -4   0 9.68469 1.18579  18
   5  -4   0 9.44667 2.08295   7
   5  -4   0 10.3449 1.16736  16
   5  -4   0 5.30937 1.71618  14
   5  -4   0 6.83272 1.34530  13
   5  -4   0 5.78880 1.25136  11
   5  -4   0 5.98665 1.80298   4
   5  -4   0 11.5834 1.16912  17
   5  -4   0 6.74521 1.59958  15
   4  -4   0 479.373 32.0580   7
   4  -4   0 483.678 33.8541   6
   4  -4   0 503.890 32.5537   5
   4  -4   0 536.783 33.2920   4
   3  -4   0 2.08900 0.95164   7
   3  -4   0 3.74424 1.94392   6
   3  -4   0 1.94481 1.52026   5
   3  -4   0 3.49782 1.16307   4
   2  -4   0 95.4400 6.52740   3
   2  -4   0 82.2660 6.14168   7
   2  -4   0 102.722 6.40592   2
   2  -4   0 86.8453 6.28916   2
   2  -4   0 91.8546 6.81234   1
   2  -4   0 91.0400 7.36874   6
   2  -4   0 99.7715 6.55507   3
   2  -4   0 93.0227 6.69681   1
   2  -4   0 102.953 6.66877   5
  -2   4   0 99.7194 6.67737   1
  -2   4   0 92.8761 6.70982   1
   1  -4   0 1.69329 1.45937   1
   1  -4   0 1.65348 1.10808   5
   1  -4   0 2.63663 2.60853   6
   1  -4   0 1.31409 1.25568   2
   1  -4   0 2.97763 1.44508   3
   1  -4   0 1.18560 1.08929   3
   1  -4   0 2.35530 1.13089   1
   1  -4   0 3.07737 0.95295   2
  -1   4   0 0.45268 1.20168   1
  -1   4   0 0.98796 1.15682   1
   0  -4   0 356.890 24.2306   1
   0  -4   0 350.793 23.5971   3
   0  -4   0 357.667 22.8211   2
   0  -4   0 350.423 24.0952   1
   0  -4   0 349.382 22.4437   5
   0   4   0 375.013 24.1722   1
   0   4   0 317.410 23.6006   3
   0   4   0 369.359 24.1870   1
   0   4   0 293.829 22.6846   2
  -1  -4   0 613.127 42.6122   1
  -1  -4   0 615.030 41.5643   3
  -1  -4   0 626.034 42.5093   1
  -1  -4   0 588.557 39.4497   5
  -1  -4   0 596.337 40.1661   2
   1   4   0 627.476 41.6295   3
   1   4   0 645.036 42.6054   1
   1   4   0 582.647 40.0715   2
   1   4   0 642.830 42.5440   1
  -2  -4   0 1.29671 1.81644   2
  -2  -4   0 0.36524 1.56620   3
  -2  -4   0 0.61980 1.62869   1
   2   4   0 0.81834 1.66143   3
   2   4   0 -0.9356 1.50603   1
   2   4   0 1.21826 1.41892   1
   2   4   0 0.84034 1.45551   2
   2   4   0 0.70085 0.99126   7
   3   4   0 729.868 48.6097   2
   3   4   0 755.847 50.5454   3
   4   4   0 1.60471 2.30863   2
   4   4   0 2.04651 0.99959   9
   4   4   0 4.97434 2.56556   4
   4   4   0 2.88629 0.82052  10
   4   4   0 4.06912 0.92484   8
   4   4   0 1.13854 2.33033   3
   5   4   0 186.322 10.9910  10
   5   4   0 183.848 14.0020   3
   5   4   0 168.464 11.5736   8
   5   4   0 178.476 12.8571   2
   5   4   0 185.586 12.6343   9
   5   4   0 169.477 13.4432   4
   6   4   0 67.5303 5.46517  11
   6   4   0 66.3786 5.14801   9
   6   4   0 70.1558 4.56399  10
   7   4   0 54.3747 3.96885   9
   7   4   0 49.0831 3.60444  10
   7   4   0 53.0978 4.18243  11
   8   4   0 2.34459 0.81136  10
   8   4   0 1.31552 0.83738  11
   9  -5   0 23.7363 2.10105  11
   9  -5   0 26.4785 2.31552  18
   8  -5   0 47.4553 3.97150  11
   8  -5   0 45.1285 3.14537  17
   8  -5   0 44.7933 3.72061  18
   7  -5   0 32.8288 3.10319  11
   7  -5   0 44.3119 3.70939  18
   7  -5   0 34.7783 3.66721  15
   7  -5   0 32.9715 2.86376  12
   7  -5   0 37.4872 2.98880  16
   7  -5   0 33.7281 2.84713  17
   6  -5   0 8.14396 1.21233  12
   6  -5   0 6.04061 1.84784  15
   6  -5   0 8.92408 1.40945  13
   6  -5   0 9.95758 1.33493  16
   6  -5   0 3.84498 2.05509  14
   6  -5   0 10.2455 1.73476  18
   6  -5   0 9.68224 1.09618  17
   6  -5   0 6.90998 1.51195  11
   5  -5   0 125.040 8.38053  11
   5  -5   0 112.925 9.13561  14
   5  -5   0 124.609 7.91181  13
   5  -5   0 114.975 7.55365  16
   5  -5   0 115.467 7.26590  17
   5  -5   0 113.721 8.34478  15
   5  -5   0 119.923 8.78930   4
   5  -5   0 104.459 8.63074   5
   5  -5   0 118.244 8.21751  18
   5  -5   0 123.392 7.79799  12
   4  -5   0 72.1072 5.18738   4
   4  -5   0 51.5118 4.75347   7
   4  -5   0 77.0003 5.53932   5
   4  -5   0 65.0265 5.91239   6
   3  -5   0 32.3097 3.67940   6
   3  -5   0 31.9938 3.15018   5
   2  -5   0 87.4505 5.71737   5
   2  -5   0 65.4090 5.82290   1
   2  -5   0 85.9382 5.53449   2
   2  -5   0 75.8041 5.44741   3
   2  -5   0 72.1033 5.24874   2
   2  -5   0 79.3443 6.93369   6
   2  -5   0 83.0605 5.60485   3
   2  -5   0 72.5501 5.63047   1
  -2   5   0 68.6053 5.66350   1
   1  -5   0 71.1912 4.87122   5
   1  -5   0 55.9951 4.86447   1
   1  -5   0 62.1200 6.51121   6
   1  -5   0 61.3672 5.27149   1
   1  -5   0 64.9536 4.99199   3
   1  -5   0 65.2386 4.78948   2
  -1   5   0 55.9700 5.02327   1
  -1   5   0 61.4804 5.06658   1
   0  -5   0 2.91868 1.34100   5
   0  -5   0 1.45166 1.78581   3
   0  -5   0 1.31483 1.14148   1
   0  -5   0 1.08846 1.69595   1
   0  -5   0 -0.6430 1.64158   2
   0   5   0 1.34333 1.49589   1
  -1  -5   0 246.883 16.0294   2
  -1  -5   0 224.797 17.0166   1
  -1  -5   0 228.093 15.3775   5
  -1  -5   0 239.005 16.6243   3
   1   5   0 232.793 16.9254   1
   2   5   0 1.63594 1.42014   2
   2   5   0 2.92146 1.98068   3
   3   5   0 3.95175 2.14474   2
   3   5   0 5.16212 0.93194   8
   3   5   0 1.79017 2.27686   3
   4   5   0 466.720 31.8932   4
   4   5   0 466.720 32.8687   3
   4   5   0 508.401 29.9657   8
   4   5   0 467.018 31.3314   2
   4   5   0 424.651 32.2904   9
   5   5   0 425.728 26.2901   8
   5   5   0 368.852 28.3100   4
   5   5   0 429.715 28.4528   9
   5   5   0 403.769 24.6334  10
   6   5   0 155.191 11.1244  11
   6   5   0 156.480 9.66223  10
   6   5   0 155.970 11.0830   9
   7   5   0 0.24346 0.98703  10
   7   5   0 0.32356 0.74755   9
   7   5   0 0.24313 1.03929  11
   9  -6   0 -0.7554 0.94896  18
   8  -6   0 79.0062 5.78893  18
   8  -6   0 76.2376 5.80705  11
   8  -6   0 84.9317 5.18593  17
   7  -6   0 0.51780 1.87681  15
   7  -6   0 1.34316 1.14024  17
   7  -6   0 1.52061 1.11671  12
   7  -6   0 2.32747 1.82674  18
   7  -6   0 2.03770 1.48221  11
   7  -6   0 2.05914 1.10991  16
   6  -6   0 4.98840 1.45411  13
   6  -6   0 5.81114 1.16641  12
   6  -6   0 8.88915 1.75582  18
   6  -6   0 5.13808 2.29292  14
   6  -6   0 6.27637 1.16142  17
   6  -6   0 7.83734 1.48226  11
   6  -6   0 5.31208 1.98018  15
   6  -6   0 5.33215 1.16405  16
   5  -6   0 47.1966 3.41662  12
   5  -6   0 43.8991 4.45534   5
   5  -6   0 43.4320 3.09071  17
   5  -6   0 52.0550 3.78665  11
   5  -6   0 45.0465 3.79226  18
   5  -6   0 40.3449 4.71295  14
   5  -6   0 45.6865 4.07433  15
   5  -6   0 46.9254 3.65083  13
   5  -6   0 42.1178 3.23329  16
   4  -6   0 70.6906 4.92661  13
   4  -6   0 69.0370 4.78615  12
   4  -6   0 64.7758 6.13348   6
   4  -6   0 68.3564 5.39416  15
   4  -6   0 77.9348 6.10583   5
   4  -6   0 69.5026 5.87643  14
   4  -6   0 69.1912 5.16470  11
   3  -6   0 139.888 11.2545   6
   3  -6   0 152.245 10.4372   5
   2  -6   0 28.8650 3.95980   6
   2  -6   0 27.9526 2.89360   3
   2  -6   0 26.4931 3.00977   5
   2  -6   0 28.6730 2.96484   2
   1  -6   0 188.196 12.7875   5
   1  -6   0 185.440 13.3934   3
   1  -6   0 186.715 14.1490   6
   1  -6   0 196.065 12.9777   2
   0  -6   0 148.783 11.7285   3
   0  -6   0 162.462 10.9623   5
   0  -6   0 167.959 11.3412   2
  -1  -6   0 6.23587 1.48906   5
  -1  -6   0 8.38426 2.25836   3
  -1  -6   0 10.8091 2.56590   2
   3   6   0 94.3685 6.34065   8
   4   6   0 532.340 34.2515   8
   4   6   0 551.099 37.0348   9
   4   6   0 515.329 36.3621   4
   5   6   0 28.6402 2.21235   8
   6   6   0 13.9965 1.89053  11
   6   6   0 15.1047 1.68099   9
   6   6   0 15.8985 1.70712  10
   7   6   0 4.01085 0.97408  11
   7   6   0 2.08722 0.93637  10
   8  -7   0 45.0435 3.69741  11
   8  -7   0 54.6237 4.03303  18
   7  -7   0 241.469 17.0484  16
   7  -7   0 293.537 18.4055  18
   7  -7   0 277.924 16.4442  17
   7  -7   0 235.363 19.8354  14
   7  -7   0 273.045 17.6856  13
   7  -7   0 295.096 18.5894  15
   7  -7   0 274.622 18.7503  11
   7  -7   0 293.266 17.6035  12
   6  -7   0 82.2094 5.43648  13
   6  -7   0 70.7945 5.45789  11
   6  -7   0 70.5846 4.99330  16
   6  -7   0 70.0754 4.79999  17
   6  -7   0 81.9050 5.19708  12
   6  -7   0 71.5989 5.89690  15
   6  -7   0 70.4068 6.78594  14
   6  -7   0 72.3531 5.66379  18
   5  -7   0 550.821 34.0994  12
   5  -7   0 516.721 35.6467  15
   5  -7   0 561.011 36.3565  11
   5  -7   0 479.220 35.3092  18
   5  -7   0 543.647 38.3090  14
   5  -7   0 551.167 34.2559  13
   4  -7   0 203.415 13.8079   5
   4  -7   0 206.274 12.7113  12
   4  -7   0 183.263 13.4913  15
   4  -7   0 171.196 14.5238   6
   4  -7   0 211.243 12.8477  13
   4  -7   0 204.131 13.5683  11
   4  -7   0 178.471 11.7019  10
   4  -7   0 202.795 14.4048  14
   3  -7   0 1.77387 1.60304  14
   3  -7   0 -0.9052 0.98012  13
   3  -7   0 0.23402 3.18679   6
   3  -7   0 0.55073 2.18266   5
   3  -7   0 -0.1884 0.75163  12
   3  -7   0 1.50919 1.01368  11
   3  -7   0 -0.4186 1.68691  15
   3  -7   0 2.14602 0.70734  10
   2  -7   0 27.5604 2.55071   9
   2  -7   0 33.6412 3.54165   5
   2  -7   0 30.7843 3.38627   2
   2  -7   0 26.0084 3.04835  14
   2  -7   0 25.1948 2.10483  10
   2  -7   0 24.6359 4.36999   6
   2  -7   0 29.1409 3.38563   3
   2  -7   0 31.7175 2.29892  12
   1  -7   0 46.7256 4.60898   3
   1  -7   0 47.3260 4.50076   5
   1  -7   0 45.5759 4.51352   2
   1  -7   0 42.1453 6.04614   6
   0  -7   0 0.95333 4.11214   6
   0  -7   0 2.50913 2.38077   2
   0  -7   0 -0.3886 2.30507   3
   0  -7   0 0.02873 0.86357   8
   0  -7   0 1.86491 1.71121   5
  -1  -7   0 14.9133 2.89758   2
  -1  -7   0 20.7634 3.61364   3
  -1  -7   0 21.3407 1.91097   8
  -2  -7   0 6.27066 1.21361   8
   3   7   0 74.8792 5.17395   8
   4   7   0 23.8423 2.12974   8
   5   7   0 13.9870 1.79385   9
   5   7   0 11.3594 1.42803   8
   6   7   0 6.86981 1.49700  11
   6   7   0 7.88663 1.04701   9
   7  -8   0 29.9233 2.63713  13
   7  -8   0 27.2428 3.54961  14
   7  -8   0 32.1170 2.56702  12
   7  -8   0 29.5536 2.61357  11
   6  -8   0 11.2471 1.75202  13
   6  -8   0 10.2395 2.19325  14
   6  -8   0 8.70855 2.19808  15
   6  -8   0 7.19072 1.54571  11
   6  -8   0 8.27953 1.33574  12
   5  -8   0 21.1822 3.81253   5
   5  -8   0 31.1489 3.25671  15
   5  -8   0 30.9661 2.72157  12
   5  -8   0 33.3560 3.08371  13
   5  -8   0 29.8167 2.70163  11
   5  -8   0 32.1809 3.73857  14
   4  -8   0 46.8181 4.56684  15
   4  -8   0 45.0303 3.79950  13
   4  -8   0 39.2987 4.96257   5
   4  -8   0 44.5377 3.08827  10
   4  -8   0 54.3574 5.05875  14
   4  -8   0 51.6208 3.57278  12
   3  -8   0 38.3291 2.74926  10
   3  -8   0 37.7077 4.43674   5
   3  -8   0 37.6479 3.21396  13
   3  -8   0 34.2430 3.99212  15
   3  -8   0 34.2762 5.54045   6
   3  -8   0 37.6373 4.14125  14
   3  -8   0 39.9386 3.00093  12
   2  -8   0 121.523 7.61781  12
   2  -8   0 113.947 8.71513   5
   2  -8   0 111.886 8.74902   2
   2  -8   0 109.685 7.66579  13
   2  -8   0 110.818 8.14912   9
   2  -8   0 109.540 8.78754  14
   2  -8   0 113.890 7.05578  10
   2  -8   0 124.600 10.4863   6
   2  -8   0 112.989 8.44298  15
   2  -8   0 123.284 8.74827   3
   1  -8   0 1.12979 1.16594   9
   1  -8   0 1.28931 2.28095   3
   1  -8   0 -0.5273 4.08958   6
   1  -8   0 0.73347 0.81796   8
   1  -8   0 0.12984 1.85618   5
   1  -8   0 -0.4423 1.07524  10
   1  -8   0 -0.2162 2.65458   2
   1  -8   0 -1.0872 1.43202  14
   0  -8   0 6.52115 1.29026   9
   0  -8   0 8.27232 3.02615   2
   0  -8   0 3.94674 2.08823   5
   0  -8   0 3.44722 4.24734   6
   0  -8   0 7.23832 1.40490  10
   0  -8   0 7.30825 2.91336   3
   0  -8   0 8.86796 1.22425   8
   0  -8   0 6.50457 1.53709  14
  -1  -8   0 5.46611 3.29194   2
  -1  -8   0 1.73096 1.02545   8
  -1  -8   0 4.30051 2.61467   3
  -1  -8   0 2.94414 1.29216   9
  -2  -8   0 8.11367 1.37614   8
  -3  -8   0 1.49313 1.27728   8
   3   8   0 0.48947 0.92561   8
   4   8   0 59.9152 4.23914   8
   5   8   0 1.62398 0.79109   8
   5   8   0 1.78700 1.29243   9
   6   8   0 107.891 7.62246   9
   6   8   0 106.206 7.52067  11
   7  -9   0 0.39696 1.85388  14
   7  -9   0 -0.3021 0.97100  12
   6  -9   0 47.5616 3.70151  12
   6  -9   0 52.2144 3.93359  13
   6  -9   0 54.1741 4.63862  15
   6  -9   0 63.9147 5.77719  14
   5  -9   0 4.82010 2.34104  15
   5  -9   0 4.96492 1.23961  12
   5  -9   0 6.49545 2.88539  14
   5  -9   0 5.62321 1.59068  13
   4  -9   0 77.6587 6.90239  15
   4  -9   0 86.4367 6.05848  13
   4  -9   0 88.7767 5.87655  12
   4  -9   0 88.1543 7.38381  14
   4  -9   0 80.9668 5.26389  10
   3  -9   0 238.254 16.3409  15
   3  -9   0 226.214 16.5203   5
   3  -9   0 236.269 14.2272  10
   3  -9   0 203.040 17.7946   6
   3  -9   0 245.424 17.4066  14
   3  -9   0 248.363 15.3817  13
   2  -9   0 90.6506 6.60367   9
   2  -9   0 97.0951 7.34946  14
   2  -9   0 92.0479 7.31342   3
   2  -9   0 91.6770 5.73702  10
   2  -9   0 91.2806 7.87827   5
   2  -9   0 92.0052 7.23970  15
   2  -9   0 74.1160 7.26695   2
   2  -9   0 89.1484 6.22340  13
   2  -9   0 85.1695 9.41215   6
   1  -9   0 211.521 13.9689  15
   1  -9   0 191.424 14.4386   2
   1  -9   0 190.767 13.9407   9
   1  -9   0 204.423 12.1628  10
   1  -9   0 191.250 14.5657  14
   1  -9   0 193.239 13.9782   5
   1  -9   0 193.627 14.5754   3
   1  -9   0 214.609 16.2528   6
   0  -9   0 317.250 18.8959  10
   0  -9   0 286.405 22.5098  14
   0  -9   0 311.603 23.3599   6
   0  -9   0 327.206 21.8193   9
   0  -9   0 320.772 22.4420   3
   0  -9   0 318.225 20.1366   8
   0  -9   0 302.367 21.7610   2
  -1  -9   0 292.729 22.3637   6
  -1  -9   0 312.102 20.9096   9
  -1  -9   0 286.035 19.2428   8
  -2  -9   0 93.8232 6.47408   8
  -3  -9   0 46.7056 3.69328   8
  -4  -9   0 3.17333 1.36092   8
   4   9   0 2.65247 0.93502   8
  -5  -9   0 8.02222 1.17216   8
   5   9   0 4.98850 1.09786  11
   5   9   0 9.47776 0.83923   8
   5   9   0 10.1381 1.15333   9
   7 -10   0 27.7395 3.14472  14
   6 -10   0 14.9814 1.68764  13
   6 -10   0 18.6124 2.63755  14
   6 -10   0 16.5626 1.95081  15
   5 -10   0 199.400 13.9439  15
   5 -10   0 173.079 13.0419  13
   5 -10   0 236.048 15.2597  14
   4 -10   0 72.0948 5.04496  10
   4 -10   0 77.6669 6.75402  15
   4 -10   0 95.9714 7.27497  14
   4 -10   0 83.8932 5.79607  13
   3 -10   0 197.535 13.2959  13
   3 -10   0 197.425 14.3078  15
   3 -10   0 207.936 15.1445  14
   3 -10   0 207.253 12.3329  10
   2 -10   0 13.8230 1.68122  10
   2 -10   0 13.2261 2.92287  15
   2 -10   0 13.2748 5.61917   6
   2 -10   0 15.7585 3.40157   5
   2 -10   0 12.6810 1.53555   9
   2 -10   0 14.2950 2.39399  14
   2 -10   0 12.5868 1.62715  13
   1 -10   0 51.4881 4.74811  14
   1 -10   0 51.3544 3.95277  10
   1 -10   0 51.4667 8.45786   6
   1 -10   0 46.9256 5.27532  15
   1 -10   0 50.9726 4.41084   9
   0 -10   0 35.5783 3.22356   9
   0 -10   0 30.7410 2.79189  10
   0 -10   0 24.1385 2.24721   8
  -1 -10   0 2.57100 1.60541   9
  -1 -10   0 2.81871 1.04428   8
  -2 -10   0 4.54967 1.24422   8
  -2 -10   0 5.83655 1.83661   9
  -3 -10   0 1.43115 1.18966   8
   3  10   0 1.65052 0.93436   8
  -4 -10   0 0.82992 1.06028   8
   4  10   0 0.16751 0.71392   8
   7 -11   0 2.30358 2.29138  14
   6 -11   0 5.45625 1.05343  13
   6 -11   0 6.53479 2.74963  14
   5 -11   0 -2.3592 1.81816  14
   5 -11   0 0.82033 0.97804  13
   5 -11   0 -1.7080 2.06990  15
   4 -11   0 28.8512 3.65122  15
   4 -11   0 33.4382 4.41667  14
   4 -11   0 34.5472 3.04626  13
   3 -11   0 4.23399 2.79195  15
   3 -11   0 4.60623 1.37382  13
   3 -11   0 4.19054 1.21668  10
   3 -11   0 3.76070 1.74402  14
   2 -11   0 22.5931 2.08833   9
   2 -11   0 17.9416 2.33501  14
   2 -11   0 20.6764 3.28104  15
   2 -11   0 21.7996 2.19587  10
   1 -11   0 17.4111 2.27813  14
   1 -11   0 16.6147 2.42291  15
   1 -11   0 14.6858 1.86698   9
   1 -11   0 11.2692 1.64404  10
   0 -11   0 58.6385 4.03827  10
   0 -11   0 49.4626 4.47656   9
   0 -11   0 51.5008 4.57897  15
  -1 -11   0 0.96516 1.51249   9
  -2 -11   0 22.4717 2.48003   9
   3  11   0 0.76832 0.81601   8
   6 -12   0 12.5860 1.86625  14
   5 -12   0 3.81604 0.89407  13
   5 -12   0 4.84892 1.80524  15
   5 -12   0 3.33206 1.80970  14
   4 -12   0 3.07726 1.68291  14
   4 -12   0 -0.4320 1.46907  15
   4 -12   0 0.92981 1.17929  13
   3 -12   0 0.55855 1.43910  14
   3 -12   0 1.89217 1.02858  10
   3 -12   0 0.86832 2.53763  15
   2 -12   0 0.14382 1.82731  14
   2 -12   0 3.78324 2.54741  15
   2 -12   0 -0.2723 1.07499  10
   1 -12   0 193.777 13.1311  15
   1 -12   0 185.398 13.2935   9
   1 -12   0 191.887 11.6766  10
   0 -12   0 6.76008 2.32830  15
   0 -12   0 3.03754 1.16673   9
   0 -12   0 3.27464 1.39735  10
  -1 -12   0 96.7745 7.59435  15
  -1 -12   0 117.847 7.86939   9
  -2 -12   0 68.6296 5.06466  15
  -2 -12   0 69.3987 5.29911   9
   4 -13   0 4.25795 1.15889  15
   4 -13   0 2.62188 1.83381  14
   3 -13   0 30.6409 2.96442  15
   3 -13   0 37.2273 3.37226  14
   2 -13   0 1.69541 1.44980  15
   2 -13   0 0.99191 1.09876  10
   1 -13   0 94.6399 6.23456  10
   1 -13   0 104.615 7.27839  15
   0 -13   0 1.01206 0.82478  10
   0 -13   0 -0.1756 1.90036  15
   0 -13   0 1.49751 0.65208   9
  -1 -13   1 1.18264 1.27652  15
  -1 -13   1 1.54214 1.05778   9
   0 -13   1 0.62045 0.92377   9
   0 -13   1 2.81454 1.17968  10
   0 -13   1 -0.9802 1.98820  15
   1 -13   1 33.7435 3.11863  15
   1 -13   1 33.7553 2.66052  10
   2 -13   1 17.6577 2.63220  15
   2 -13   1 21.5130 1.81667  10
   2 -13   1 19.1648 2.21973  14
   3 -13   1 -0.6359 1.37219  14
   3 -13   1 -0.2856 1.28452  15
   4 -13   1 15.0528 1.90912  14
  -3 -12   1 0.58892 1.16626  15
  -2 -12   1 49.0754 3.77125   9
  -2 -12   1 45.8362 3.80082  15
  -1 -12   1 137.494 8.94123  15
  -1 -12   1 112.758 8.79896   9
   0 -12   1 10.9786 1.57415   9
   0 -12   1 12.6566 2.66241  15
   0 -12   1 15.2390 1.75415  10
   1 -12   1 87.1976 6.69428  15
   1 -12   1 90.2626 5.48189  10
   1 -12   1 74.0622 6.04409   9
   1 -12   1 83.3437 6.61303  14
   2 -12   1 3.50776 1.52183  14
   2 -12   1 2.80545 1.12508  10
   2 -12   1 4.52437 2.47617  15
   3 -12   1 1.38612 1.63558  15
   3 -12   1 0.61112 0.79264  13
   3 -12   1 0.62467 1.54476  14
   3 -12   1 0.59454 1.00290  10
   4 -12   1 2.31587 2.45958  14
   4 -12   1 6.90130 1.10848  13
   4 -12   1 4.83997 1.96238  15
   5 -12   1 10.5332 1.46629  13
   5 -12   1 8.04150 2.01788  14
   6 -12   1 2.64763 0.76370  13
   6 -12   1 5.66582 1.63077  14
   4  11  -1 3.14651 0.49500   8
   3  11  -1 22.5279 1.73208   8
  -3 -11   1 19.8586 1.68915   8
  -2 -11   1 3.86927 1.67763   9
  -2 -11   1 4.81372 0.98278   8
  -1 -11   1 3.20472 0.94681   8
  -1 -11   1 6.41448 1.65481   9
   0 -11   1 48.1899 3.83104  10
   0 -11   1 54.9595 4.62395   9
   0 -11   1 47.4660 5.10448  15
   1 -11   1 -2.4828 2.56884  15
   1 -11   1 -0.5621 1.86142  14
   1 -11   1 -1.0654 1.31138   9
   1 -11   1 0.80831 1.22395  10
   2 -11   1 19.5833 2.06235  10
   2 -11   1 19.5440 2.34845  14
   2 -11   1 20.5174 3.13602  15
   2 -11   1 18.7297 2.04932   9
   3 -11   1 4.39554 1.16037  10
   3 -11   1 3.50801 1.41205  13
   3 -11   1 5.21829 2.60804  15
   3 -11   1 5.88586 1.85331  14
   4 -11   1 -2.8072 2.21602  15
   4 -11   1 -0.2980 1.35568  13
   4 -11   1 0.94324 1.85286  14
   5 -11   1 9.78709 1.36797  13
   5 -11   1 13.7069 2.32860  14
   6 -11   1 25.4144 3.18828  14
   5  10  -1 2.20131 1.02870  11
   4  10  -1 16.4327 1.57565   8
  -4 -10   1 16.6316 1.60950   8
  -3 -10   1 16.0084 1.92144   8
  -2 -10   1 0.99603 1.13102   8
  -2 -10   1 0.23403 1.62127   9
  -1 -10   1 21.0696 2.65410   9
  -1 -10   1 21.5765 2.17216   8
   0 -10   1 80.3109 6.37582  14
   0 -10   1 93.4905 6.34637   9
   0 -10   1 51.9047 8.47387   6
   0 -10   1 69.9036 5.33801   8
   0 -10   1 82.9853 5.30768  10
   1 -10   1 30.5026 3.41998  15
   1 -10   1 17.6353 6.02366   6
   1 -10   1 27.2705 3.04472   9
   1 -10   1 26.1799 3.52573  14
   1 -10   1 26.7162 2.77262  10
   1 -10   1 23.5707 3.69010   5
   2 -10   1 0.49306 1.00981   9
   2 -10   1 0.88296 1.20895  10
   2 -10   1 1.00107 1.19187  13
   2 -10   1 2.06423 2.70050   5
   2 -10   1 0.41060 2.06886  14
   2 -10   1 -0.5346 2.40365  15
   3 -10   1 203.552 14.5614  14
   3 -10   1 198.763 11.9501  10
   3 -10   1 194.755 13.6220  15
   3 -10   1 189.460 12.8375  13
   4 -10   1 66.1152 5.97708  14
   4 -10   1 51.9704 4.73175  15
   4 -10   1 61.7933 4.31028  12
   4 -10   1 53.3633 4.19881  13
   5 -10   1 119.663 7.71761  13
   5 -10   1 102.982 8.17591  15
   5 -10   1 126.564 9.36144  14
   5 -10   1 103.694 7.42107  12
   6 -10   1 1.43459 1.08064  12
   6 -10   1 1.29605 2.79528  14
   7 -10   1 -0.8373 1.48851  14
   5   9  -1 18.7300 1.58076   8
  -4  -9   1 30.2697 2.82281   8
  -3  -9   1 25.3545 2.51307   8
  -2  -9   1 90.5463 6.35038   8
  -1  -9   1 196.827 14.8179   6
  -1  -9   1 176.758 12.4913   9
  -1  -9   1 174.927 11.4177   8
  -1  -9   1 168.252 13.4592   2
  -1  -9   1 156.566 13.6342   3
   0  -9   1 180.808 13.7893   3
   0  -9   1 176.111 11.0994  10
   0  -9   1 177.016 12.8067   9
   0  -9   1 188.546 15.0548   6
   0  -9   1 186.710 11.7810   8
   0  -9   1 180.615 13.3043  14
   0  -9   1 175.775 13.4336   2
   1  -9   1 64.2496 5.69227  15
   1  -9   1 65.9997 6.45835   2
   1  -9   1 62.0934 5.49188  14
   1  -9   1 52.5046 5.70440   5
   1  -9   1 78.6974 9.43410   6
   1  -9   1 67.5213 5.06603   9
   1  -9   1 58.0795 6.06752   3
   1  -9   1 68.2163 4.32257  10
   2  -9   1 134.190 7.85697  10
   2  -9   1 128.253 9.67324   5
   2  -9   1 114.987 9.51936   2
   2  -9   1 130.876 8.97424   9
   2  -9   1 123.172 11.1141   6
   2  -9   1 118.767 8.44050  13
   2  -9   1 120.400 9.49935  14
   2  -9   1 130.001 9.29506  15
   2  -9   1 129.518 9.37822   3
   3  -9   1 46.6686 3.37256  12
   3  -9   1 42.4999 2.98353  10
   3  -9   1 41.1606 3.57737  13
   3  -9   1 36.9973 3.83569  15
   3  -9   1 40.1885 4.80521   5
   3  -9   1 45.2633 4.70275  14
   4  -9   1 11.2243 1.46400  12
   4  -9   1 12.7949 2.17016  14
   4  -9   1 5.29871 2.87793   5
   4  -9   1 9.85163 1.69807  13
   4  -9   1 9.03738 2.34691  15
   5  -9   1 3.48695 1.51762  13
   5  -9   1 3.38779 1.18681  12
   5  -9   1 4.63973 2.77998  14
   5  -9   1 2.72054 2.00254  15
   6  -9   1 7.22657 1.66366  13
   6  -9   1 6.39742 2.88527  14
   6  -9   1 8.49997 1.11906  12
   7  -9   1 22.3542 2.96141  14
   7  -9   1 22.7955 1.91867  12
   6   8  -1 40.7678 3.34642   9
   5   8  -1 33.8029 3.29434   9
   5   8  -1 31.3222 2.45606   8
   4   8  -1 16.3045 1.77424   8
   3   8  -1 1.08637 0.90751   8
  -3  -8   1 1.49465 1.23224   8
  -2  -8   1 2.57089 1.12697   8
  -1  -8   1 26.3701 4.21149   2
  -1  -8   1 25.3207 2.85297   9
  -1  -8   1 31.0266 2.33276   8
  -1  -8   1 17.5714 3.41537   3
   0  -8   1 2.97540 0.98748  10
   0  -8   1 3.74024 1.44161  14
   0  -8   1 3.13276 2.61315   2
   0  -8   1 4.66419 2.70313   3
   0  -8   1 2.51733 2.02303   5
   0  -8   1 5.15824 5.04270   6
   0  -8   1 3.75514 0.99517   8
   0  -8   1 3.06371 1.09293   9
   1  -8   1 32.4920 2.93860   9
   1  -8   1 31.0026 2.39878   8
   1  -8   1 38.3577 6.08327   6
   1  -8   1 30.7114 3.44047  14
   1  -8   1 36.5277 3.85896   2
   1  -8   1 29.9151 2.40830  10
   1  -8   1 38.7438 3.86491   5
   1  -8   1 33.0046 4.19506   3
   2  -8   1 6.09497 1.05415  12
   2  -8   1 7.11131 2.19486   2
   2  -8   1 6.80758 1.22910  13
   2  -8   1 5.42713 3.45562   6
   2  -8   1 5.54023 2.01751   5
   2  -8   1 5.20496 1.10350   9
   2  -8   1 6.27393 1.99994  15
   2  -8   1 6.04507 2.08860   3
   2  -8   1 6.06736 0.85736  10
   2  -8   1 6.88084 1.77267  14
   3  -8   1 8.74410 0.99980  10
   3  -8   1 12.2390 2.11352  14
   3  -8   1 7.48736 1.18663  12
   3  -8   1 9.92292 2.60854   5
   3  -8   1 11.6913 1.49900  13
   3  -8   1 10.1202 2.02953  15
   3  -8   1 10.0451 3.54733   6
   4  -8   1 -1.8850 1.21414  13
   4  -8   1 0.62076 1.21442  11
   4  -8   1 -1.0868 2.06122  14
   4  -8   1 1.94418 2.99741   5
   4  -8   1 -0.5497 0.59924  10
   4  -8   1 -0.3929 0.92703  12
   4  -8   1 0.13920 1.77253  15
   5  -8   1 41.1259 5.25025   5
   5  -8   1 51.0864 3.82979  12
   5  -8   1 52.7407 4.85772  14
   5  -8   1 57.8473 4.31917  11
   5  -8   1 55.2177 4.16217  13
   5  -8   1 38.0802 4.49729  15
   6  -8   1 4.58412 1.14771  11
   6  -8   1 4.43888 1.20027  12
   6  -8   1 4.70683 2.58125  14
   6  -8   1 1.93954 1.20354  18
   7  -8   1 18.2179 2.86724  14
   7  -8   1 22.0604 2.21839  11
   7  -8   1 24.0174 2.19202  12
   8  -8   1 0.20153 0.76121  12
   7   7  -1 14.6258 1.55500  11
   6   7  -1 21.6218 2.17094  11
   6   7  -1 17.4172 1.96499   9
   5   7  -1 5.35077 1.01121   8
   5   7  -1 1.19953 1.31577   9
   4   7  -1 112.768 7.53839   8
   3   7  -1 6.43473 1.06461   8
  -2  -7   1 13.2658 1.49824   8
  -1  -7   1 53.6516 3.81428   8
  -1  -7   1 52.2604 5.37234   2
  -1  -7   1 52.7599 5.77897   3
   0  -7   1 1.56623 2.10468   2
   0  -7   1 -1.2588 2.06829   3
   0  -7   1 -0.0661 1.65993   5
   1  -7   1 40.8440 3.85345   5
   1  -7   1 41.2690 4.03660   2
   1  -7   1 35.8557 5.05773   6
   1  -7   1 39.8554 4.25151   3
   2  -7   1 142.525 10.2276   3
   2  -7   1 134.329 11.1691   6
   2  -7   1 146.782 9.96510   2
   2  -7   1 144.260 10.1810   5
   3  -7   1 16.3054 1.71006  11
   3  -7   1 14.0746 2.20177  14
   3  -7   1 17.4902 1.67831  13
   3  -7   1 15.2593 2.54051   5
   3  -7   1 11.8274 3.08274   6
   3  -7   1 17.6451 1.70469  12
   3  -7   1 15.8371 1.41608  10
   3  -7   1 12.1514 1.99070  15
   4  -7   1 141.514 10.9782  15
   4  -7   1 169.026 10.3414  12
   4  -7   1 164.403 10.9843  11
   4  -7   1 165.490 11.9418  14
   4  -7   1 134.677 10.7137  18
   4  -7   1 169.891 10.4595  13
   4  -7   1 151.535 9.44442  10
   4  -7   1 173.009 11.6155   5
   5  -7   1 215.263 16.6671   5
   5  -7   1 260.884 15.8015  13
   5  -7   1 228.227 16.2919  18
   5  -7   1 232.487 16.4441  15
   5  -7   1 238.817 17.8762  14
   5  -7   1 253.487 15.6479  12
   5  -7   1 254.257 16.7363  11
   6  -7   1 1.65151 1.03608  11
   6  -7   1 1.86731 0.97713  17
   6  -7   1 0.87170 1.67847  18
   6  -7   1 2.22560 1.07811  13
   6  -7   1 -0.8552 2.23958  14
   6  -7   1 1.86401 1.13250  12
   7  -7   1 58.0675 4.61717  18
   7  -7   1 55.0523 4.03381  12
   7  -7   1 61.0652 4.58260  11
   7  -7   1 48.9754 3.57355  17
   8  -7   1 15.7621 1.97132  18
   8  -7   1 16.3794 1.87551  11
   8  -7   1 16.6725 1.69025  12
   7   6  -1 38.4700 2.73884  10
   7   6  -1 40.0494 2.91026   9
   7   6  -1 31.0286 2.98127  11
   6   6  -1 8.50897 1.81547  11
   6   6  -1 13.2845 1.55828  10
   6   6  -1 12.8947 1.57956   9
   5   6  -1 121.115 8.49225   9
   5   6  -1 110.264 7.58040   8
   4   6  -1 394.833 24.8646   8
   4   6  -1 377.227 26.9373   9
   3   6  -1 92.4748 6.20669   8
  -1  -6   1 0.42516 2.17912   3
  -1  -6   1 -1.6395 1.61280   2
  -1  -6   1 -1.0456 1.10199   5
   0  -6   1 -0.2080 1.90427   3
   0  -6   1 3.43468 1.84296   2
   0  -6   1 1.39573 1.46998   5
   1  -6   1 21.9949 2.68027   2
   1  -6   1 25.3610 2.78067   5
   1  -6   1 30.9916 4.28703   6
   1  -6   1 24.2207 3.05645   3
   2  -6   1 53.7922 3.90259   2
   2  -6   1 44.7936 5.07189   6
   2  -6   1 42.9263 4.31134   5
   2  -6   1 46.6549 3.94677   3
   3  -6   1 15.3470 2.51534   5
   3  -6   1 15.7214 2.80135   6
   4  -6   1 2.45717 1.05460  11
   4  -6   1 1.20352 0.82219  12
   4  -6   1 1.06447 1.65980  14
   4  -6   1 0.73859 1.17700  18
   4  -6   1 0.23453 1.72515   5
   4  -6   1 0.85232 1.03436  13
   4  -6   1 1.60772 1.42949  15
   5  -6   1 -0.0948 0.81379  17
   5  -6   1 0.83437 0.84116  11
   5  -6   1 0.54845 1.14704  13
   5  -6   1 -0.1191 1.39406  15
   5  -6   1 0.10431 1.27036  14
   5  -6   1 0.74704 0.85203  16
   5  -6   1 0.07141 0.90529  12
   5  -6   1 -1.1399 2.22769   5
   5  -6   1 0.73287 1.36879  18
   6  -6   1 -0.4316 1.61768  18
   6  -6   1 4.85390 1.45779  11
   6  -6   1 3.60886 1.06389  17
   6  -6   1 4.30752 2.07150  14
   6  -6   1 1.32576 1.31438  13
   6  -6   1 1.24187 0.97347  16
   6  -6   1 0.98351 1.07534  12
   7  -6   1 31.9275 2.87085  12
   7  -6   1 35.5240 3.57655  18
   7  -6   1 33.6020 2.78250  16
   7  -6   1 34.7503 2.69817  17
   7  -6   1 33.0695 3.04167  11
   8  -6   1 7.90859 1.63843  11
   8  -6   1 7.24988 1.43954  18
   9  -6   1 -1.3758 0.85408  18
   8   5  -1 101.577 5.95452  10
   8   5  -1 93.1846 6.84710  11
   7   5  -1 10.1850 1.50188  11
   7   5  -1 10.0067 1.34361  10
   7   5  -1 9.93661 1.10956   9
   6   5  -1 41.6086 3.19808  10
   6   5  -1 39.7638 3.98201  11
   6   5  -1 45.6987 3.86018   9
   5   5  -1 284.303 22.7679   4
   5   5  -1 329.858 19.5863  10
   5   5  -1 338.757 22.6140   9
   5   5  -1 300.978 22.2185   2
   5   5  -1 350.251 20.8824   8
   4   5  -1 213.812 15.9633   9
   4   5  -1 232.198 16.9692   3
   4   5  -1 239.311 14.7861   8
   4   5  -1 228.217 16.0508   2
   3   5  -1 217.366 15.3917   2
   3   5  -1 228.071 16.3605   3
   2   5  -1 113.356 8.56845   2
   2   5  -1 129.638 9.30248   3
  -2  -5   1 109.255 8.92865   2
  -2  -5   1 121.161 9.30263   3
   1   5  -1 3.33838 1.70595   1
  -1  -5   1 2.44716 1.46582   1
  -1  -5   1 2.81636 1.88416   1
  -1  -5   1 3.90342 1.86994   2
  -1  -5   1 4.14910 1.80996   3
  -1  -5   1 3.34215 1.16095   5
   0   5  -1 662.249 43.2770   1
   0   5  -1 617.378 43.2513   1
   0  -5   1 583.445 43.1694   1
   0  -5   1 644.511 40.2898   5
   0  -5   1 637.194 42.2232   3
   0  -5   1 586.921 43.2690   1
   0  -5   1 643.111 40.8407   2
  -1   5  -1 0.63383 1.08602   1
  -1   5  -1 1.12338 1.16706   1
   1  -5   1 1.53851 2.65487   6
   1  -5   1 1.93791 1.24247   2
   1  -5   1 2.33306 1.31768   3
   1  -5   1 1.00643 0.97236   1
   1  -5   1 2.41761 1.29574   5
   1  -5   1 0.41814 1.24285   1
  -2   5  -1 25.5850 2.45186   1
   2  -5   1 25.5296 2.29333   2
   2  -5   1 25.3954 3.20270   6
   2  -5   1 26.0076 2.30807   3
   2  -5   1 26.7250 2.45553   1
   2  -5   1 26.0986 2.47662   2
   2  -5   1 28.0410 2.52172   3
   2  -5   1 29.3782 2.82149   5
   2  -5   1 25.3715 2.63334   1
   3  -5   1 68.8112 5.17553   4
   3  -5   1 57.3426 5.56189   6
   3  -5   1 71.2190 5.32216   5
   4  -5   1 10.8037 1.94045   4
   4  -5   1 12.6589 2.30143   5
   4  -5   1 9.61400 2.11029   6
   5  -5   1 96.3332 6.59034  13
   5  -5   1 96.1213 6.09738  17
   5  -5   1 108.222 7.03486  11
   5  -5   1 106.167 7.56467   4
   5  -5   1 77.9051 7.15051   5
   5  -5   1 93.5202 6.32866  16
   5  -5   1 84.8529 6.93912  15
   5  -5   1 100.100 6.49056  12
   5  -5   1 107.656 6.93087  18
   5  -5   1 92.4647 7.64688  14
   6  -5   1 58.6106 4.52670  11
   6  -5   1 41.8548 5.10900   4
   6  -5   1 61.9463 4.52119  18
   6  -5   1 53.3372 3.73723  17
   6  -5   1 58.1422 3.99385  12
   6  -5   1 50.4685 4.09390  13
   6  -5   1 49.6824 3.85294  16
   7  -5   1 7.64890 1.29142  12
   7  -5   1 7.97313 1.75622  11
   7  -5   1 3.91661 1.29099  16
   7  -5   1 6.01486 1.34370  17
   7  -5   1 5.29230 1.87832  18
   8  -5   1 44.4877 3.53672  11
   8  -5   1 42.5450 3.53914  18
   8  -5   1 40.5959 2.97244  17
   9  -5   1 16.3260 1.86559  11
   9  -5   1 10.8129 1.44618  18
   8   4  -1 0.63726 0.73095  10
   8   4  -1 1.23491 0.90283  11
   7   4  -1 2.62351 1.08386  10
   7   4  -1 0.35983 1.28887  18
   7   4  -1 1.25164 1.60640  11
   7   4  -1 1.19362 0.86178   9
   6   4  -1 0.38757 0.93284   9
   6   4  -1 1.19410 0.88720  18
   6   4  -1 0.57674 0.98756  10
   6   4  -1 0.41009 1.45763  11
   5   4  -1 54.8821 3.79129  10
   5   4  -1 50.3291 5.94325   4
   5   4  -1 49.5455 4.75640   7
   5   4  -1 52.2641 4.12781  18
   5   4  -1 55.4339 3.74947   8
   5   4  -1 54.9129 4.27096   9
   5   4  -1 63.4474 5.60134   2
   4   4  -1 149.370 10.8239  18
   4   4  -1 150.262 11.3298   9
   4   4  -1 169.644 11.0893   7
   4   4  -1 166.360 10.4600   8
   4   4  -1 169.018 11.4886   2
   4   4  -1 170.469 12.3137   3
   3   4  -1 2.01073 1.25260   7
   3   4  -1 3.16382 1.71654   2
   3   4  -1 2.97118 1.92007   3
   2   4  -1 41.1913 3.13785   7
   2   4  -1 44.1333 3.61702   2
   2   4  -1 47.3102 4.12118   3
   2   4  -1 39.5930 4.00704   1
   2   4  -1 40.2480 3.89971   1
  -2  -4   1 40.0697 3.97003   2
  -2  -4   1 41.6401 4.04137   3
  -2  -4   1 39.9939 3.89117   1
  -2  -4   1 37.4676 4.22705   1
   1   4  -1 146.753 10.0545   7
   1   4  -1 154.748 11.4208   1
   1   4  -1 163.331 10.6626   2
   1   4  -1 163.378 11.3180   3
   1   4  -1 167.124 11.4503   1
  -1  -4   1 159.334 10.7926   2
  -1  -4   1 163.488 11.4083   1
  -1  -4   1 152.877 11.2341   3
  -1  -4   1 149.684 11.4629   1
  -1  -4   1 151.861 10.3174   5
   0   4  -1 5.13418 1.34874   3
   0   4  -1 5.56336 1.47175   1
   0   4  -1 5.95385 1.52695   1
   0   4  -1 3.86803 1.20522   2
   0  -4   1 4.05877 1.38686   2
   0  -4   1 4.10806 1.28938   5
   0  -4   1 2.48873 1.49272   1
   0  -4   1 5.84932 1.52630   1
   0  -4   1 4.94896 1.41293   3
  -1   4  -1 166.753 10.7823   1
  -1   4  -1 148.994 10.7514   1
   1  -4   1 151.355 10.7516   1
   1  -4   1 165.184 10.5520   3
   1  -4   1 138.279 10.4387   3
   1  -4   1 163.186 10.1507   2
   1  -4   1 149.073 10.7734   1
   1  -4   1 152.800 10.2144   5
   1  -4   1 136.847 10.0769   2
   1  -4   1 146.302 11.0539   6
  -2   4  -1 6.03923 0.99002   1
  -2   4  -1 8.87666 1.07736   1
   2  -4   1 7.64477 1.03463   2
   2  -4   1 9.64964 1.57340   5
   2  -4   1 8.03055 1.88822   6
   2  -4   1 10.0049 1.47978   4
   2  -4   1 9.85093 1.10540   2
   2  -4   1 8.41802 1.16436   1
   2  -4   1 7.49117 1.00807   3
   2  -4   1 10.6920 1.09195   3
   2  -4   1 8.03229 1.16270   1
   3  -4   1 79.7398 5.58863   4
   3  -4   1 79.1072 5.59286   5
   3  -4   1 68.2709 5.69732   6
   3  -4   1 69.5240 5.16812   7
   4  -4   1 840.803 52.8938   4
   4  -4   1 805.673 50.9931   7
   4  -4   1 734.010 53.5366   6
   4  -4   1 823.984 51.6291   5
   5  -4   1 60.7767 4.36934  18
   5  -4   1 59.3584 4.01469  12
   5  -4   1 55.6190 4.85834   7
   5  -4   1 52.2112 4.42528  15
   5  -4   1 61.8230 4.29055  11
   5  -4   1 49.9666 3.88184  16
   5  -4   1 58.8259 3.75292  17
   5  -4   1 53.3968 4.07755  13
   5  -4   1 58.9455 5.11586   4
   6  -4   1 175.915 11.6652  18
   6  -4   1 165.761 12.4177   4
   6  -4   1 170.762 11.8770  11
   6  -4   1 155.214 11.7754  15
   6  -4   1 176.018 10.4207  17
   6  -4   1 168.309 11.1032  12
   6  -4   1 174.948 10.8157  16
   7  -4   1 312.282 19.8506  18
   7  -4   1 278.380 18.9796  12
   7  -4   1 266.314 18.4104  16
   7  -4   1 291.012 20.3725  11
   7  -4   1 327.860 17.8414  17
   8  -4   1 0.58277 1.21304  18
   8  -4   1 0.00709 1.19285  17
   8  -4   1 0.15829 1.13186  11
   9  -4   1 0.46083 1.21717  11
   9  -4   1 0.51421 1.06713  18
   8   3  -1 13.7412 1.53387  11
   8   3  -1 11.1656 1.20644  10
   8   3  -1 9.10058 1.49035  18
   7   3  -1 11.6821 1.66902  11
   7   3  -1 9.68523 1.74081  18
   7   3  -1 13.4245 1.37520  10
   7   3  -1 12.1777 1.58931   9
   6   3  -1 7.31251 3.67226   4
   6   3  -1 18.0351 2.03334   9
   6   3  -1 22.5062 2.22447  10
   6   3  -1 20.7621 2.42415  18
   6   3  -1 20.5639 2.34854  11
   5   3  -1 214.656 13.0902  10
   5   3  -1 212.666 15.1126   9
   5   3  -1 217.744 13.8962   8
   5   3  -1 201.010 15.6114   4
   5   3  -1 212.079 14.6306   7
   5   3  -1 211.491 14.4950  18
   5   3  -1 221.543 15.9141   3
   5   3  -1 239.355 15.1215   2
   4   3  -1 106.304 8.10597   2
   4   3  -1 110.916 7.87137   7
   4   3  -1 118.242 8.88079   3
   4   3  -1 104.610 8.48684   4
   3   3  -1 214.287 14.5852   2
   3   3  -1 232.060 15.3636   3
   3   3  -1 226.397 14.1561   7
   3   3  -1 190.884 15.4501   1
   2   3  -1 1352.71 81.4369   7
   2   3  -1 1310.86 86.2803   3
   2   3  -1 1351.40 88.3471   1
   2   3  -1 1309.62 83.3955   2
   2   3  -1 1268.02 88.2759   1
  -2  -3   1 1320.91 88.3932   1
  -2  -3   1 1174.30 86.2230   3
  -2  -3   1 1258.34 88.3004   1
  -2  -3   1 1250.74 83.4349   2
   1   3  -1 706.387 45.5972   1
   1   3  -1 669.098 43.0172   2
   1   3  -1 649.381 44.5496   3
   1   3  -1 681.366 45.5969   1
   1   3  -1 660.759 41.8870   7
  -1  -3   1 616.959 42.3695   5
  -1  -3   1 633.451 44.5272   3
  -1  -3   1 633.203 43.0245   2
  -1  -3   1 624.049 45.5859   1
  -1  -3   1 756.235 45.6354   1
   0   3  -1 410.199 29.0007   2
   0   3  -1 464.261 30.7786   1
   0   3  -1 400.217 30.0252   3
   0   3  -1 483.836 30.7682   1
   0  -3   1 447.319 28.6867   5
   0  -3   1 459.719 30.7723   1
   0  -3   1 478.419 29.0472   2
   0  -3   1 433.867 30.0345   3
   0  -3   1 442.710 30.7408   1
  -1   3  -1 755.282 47.2677   1
  -1   3  -1 739.858 47.2731   1
   1  -3   1 599.217 46.0779   6
   1  -3   1 699.543 46.1420   3
   1  -3   1 708.662 44.6489   2
   1  -3   1 758.646 45.3122   4
   1  -3   1 650.840 46.1277   3
   1  -3   1 701.758 47.2660   1
   1  -3   1 618.809 44.6321   2
   1  -3   1 683.294 44.2747   5
   1  -3   1 684.266 47.2585   1
  -2   3  -1 17.8935 1.63176   1
  -2   3  -1 21.7788 1.57994   1
   2  -3   1 20.4231 1.56707   3
   2  -3   1 23.4825 2.32583   5
   2  -3   1 17.5001 1.79229   1
   2  -3   1 20.7566 1.58250   3
   2  -3   1 24.5736 2.35140   4
   2  -3   1 18.8893 1.64672   2
   2  -3   1 24.0563 1.64364   1
   2  -3   1 20.1914 1.84150   7
   2  -3   1 20.0058 2.46433   6
   3  -3   1 1.15593 1.26807   6
   3  -3   1 0.00515 0.96043   5
   3  -3   1 1.26726 1.13372   7
   3  -3   1 2.15359 1.20308   4
   4  -3   1 3.53286 1.51396   7
   4  -3   1 0.75540 1.15084   5
   4  -3   1 -0.8236 1.66874   4
   5  -3   1 19.0885 1.89387  12
   5  -3   1 23.0250 2.94294   4
   5  -3   1 20.8909 1.94239  16
   5  -3   1 22.8854 1.85303  17
   5  -3   1 19.4864 1.37697  10
   5  -3   1 24.7376 2.28427  18
   5  -3   1 20.1025 2.34756  11
   5  -3   1 21.3753 2.92775   7
   6  -3   1 -0.4572 2.23655   4
   6  -3   1 0.44865 1.03062  17
   6  -3   1 -0.4783 1.29689  11
   6  -3   1 -0.1556 0.91554  12
   6  -3   1 1.86085 1.10237  16
   6  -3   1 0.79616 0.95606  18
   7  -3   1 35.7894 2.78356  17
   7  -3   1 30.9314 3.54943  11
   7  -3   1 31.0782 3.42367  18
   8  -3   1 -0.3355 0.82576  17
   8  -3   1 0.54650 1.13909  11
   8  -3   1 -0.9893 1.18088  18
   9  -3   1 0.37132 0.84829  11
   9  -3   1 1.38527 0.97632  18
   8   2  -1 107.095 7.71433  18
   8   2  -1 124.617 8.12221  11
   8   2  -1 102.297 6.75731  10
   7   2  -1 11.6780 1.96201  11
   7   2  -1 12.9395 1.39042  17
   7   2  -1 11.1915 1.51772  18
   7   2  -1 9.82778 1.15577  10
   6   2  -1 335.512 24.1480   4
   6   2  -1 371.437 20.6886  10
   6   2  -1 343.108 20.6488  17
   6   2  -1 343.184 23.8143   9
   6   2  -1 360.888 22.9480  18
   6   2  -1 320.472 23.9950   3
   6   2  -1 367.443 23.7213  11
   6   2  -1 308.758 22.9992   2
   6   2  -1 334.985 22.9585   7
   5   2  -1 7.01525 0.77338   8
   5   2  -1 7.98834 1.28097  18
   5   2  -1 9.45434 2.25300   2
   5   2  -1 7.60515 0.99222  10
   5   2  -1 8.43096 2.48961   3
   5   2  -1 9.72321 2.45130   7
   5   2  -1 4.73162 3.10237   4
   5   2  -1 7.11383 0.98980  17
   5   2  -1 5.95303 1.39457  11
   5   2  -1 7.36941 1.08367   9
   4   2  -1 108.419 7.59894   7
   4   2  -1 104.117 8.21040   4
   4   2  -1 111.527 7.77199   2
   4   2  -1 107.100 8.29103   3
   3   2  -1 307.924 20.4026   3
   3   2  -1 301.590 19.1643   7
   3   2  -1 281.380 20.7766   1
   3   2  -1 311.356 19.6112   2
  -3  -2   1 279.137 20.8011   1
   2   2  -1 26.6511 2.69728   1
   2   2  -1 25.6875 2.34390   2
   2   2  -1 25.0729 2.25831   7
   2   2  -1 28.2921 2.63857   1
   2   2  -1 26.0798 2.65819   3
  -2  -2   1 25.5486 2.79566   1
  -2  -2   1 25.2339 2.87521   1
  -2  -2   1 23.3334 2.60421   3
  -2  -2   1 20.6129 2.46708   2
   1   2  -1 552.546 35.1827   1
   1   2  -1 493.232 32.3630   7
   1   2  -1 535.847 35.1703   1
   1   2  -1 510.940 33.1951   2
   1   2  -1 497.509 34.3552   3
  -1  -2   1 464.138 32.6707   5
  -1  -2   1 530.283 35.1890   1
  -1  -2   1 545.928 35.1819   1
  -1  -2   1 495.582 33.1964   2
  -1  -2   1 492.752 34.3551   3
   0   2  -1 517.037 35.3172   2
   0   2  -1 610.076 37.4137   1
   0   2  -1 523.702 36.5111   3
   0   2  -1 559.299 37.3850   1
   0  -2   1 565.973 37.3930   1
   0  -2   1 604.107 37.4074   1
   0  -2   1 471.640 36.4922   3
   0  -2   1 529.620 35.3138   2
   0  -2   1 528.380 34.9108   5
   0  -2   1 552.550 36.5172   3
  -1   2  -1 95.1910 6.31580   1
  -1   2  -1 101.432 6.33692   1
   1  -2   1 92.2597 5.85674   7
   1  -2   1 92.2106 6.13949   3
   1  -2   1 80.8244 6.36741   6
   1  -2   1 89.8842 5.92611   2
   1  -2   1 83.3310 6.15338   3
   1  -2   1 85.0684 5.95780   2
   1  -2   1 85.7889 6.00487   5
   1  -2   1 91.5372 6.34621   1
   1  -2   1 89.5627 6.30014   1
   1  -2   1 90.7680 6.15710   4
  -2   2  -1 7.70130 0.92178   1
  -2   2  -1 8.35623 0.88328   1
   2  -2   1 10.0661 1.04677   1
   2  -2   1 7.96209 1.30772   5
   2  -2   1 8.00878 1.37066   4
   2  -2   1 8.47322 0.91143   2
   2  -2   1 7.64966 1.27317   7
   2  -2   1 8.54975 1.39055   6
   2  -2   1 8.91155 0.90922   1
   2  -2   1 7.37976 0.89415   3
   2  -2   1 6.38874 0.87580   3
   2  -2   1 8.26734 0.81205   2
   3  -2   1 23.8103 2.25124   5
   3  -2   1 26.8946 2.69742   4
   3  -2   1 23.4234 2.31974   7
   3  -2   1 24.6133 2.64353   6
   4  -2   1 10.5542 2.02777   4
   4  -2   1 12.6440 2.01718   7
   5  -2   1 66.6541 5.17185   7
   5  -2   1 61.0792 4.57002  18
   5  -2   1 63.5983 4.04271  17
   5  -2   1 58.8095 4.72068  11
   5  -2   1 63.0300 4.21991  16
   5  -2   1 60.9782 3.81506  10
   5  -2   1 61.5350 5.50949   4
   6  -2   1 -1.6691 0.98487  17
   6  -2   1 -0.3247 1.32043  11
   6  -2   1 0.50876 0.56069  10
   6  -2   1 -4.3464 2.26208   4
   6  -2   1 0.43254 0.93016  18
   6  -2   1 0.05202 0.89582  12
   6  -2   1 0.13378 1.04489  16
   7  -2   1 118.207 8.58273  18
   7  -2   1 127.654 7.77520  17
   7  -2   1 124.894 9.06713  11
   8  -2   1 32.3123 3.01639  18
   8  -2   1 37.3215 3.59707  11
   8  -2   1 35.6690 2.81094  17
   9  -2   1 0.31434 0.90788  18
   9  -2   1 0.31874 0.84784  11
   9   1  -1 2.42214 1.16020  11
   9   1  -1 0.44750 1.10708  18
   8   1  -1 3.87269 1.18925  18
   8   1  -1 3.95245 0.84827  10
   8   1  -1 5.46998 1.31133  11
   8   1  -1 4.08212 1.11114  17
   7   1  -1 24.8529 2.27741  17
   7   1  -1 28.4146 2.74951  11
   7   1  -1 26.0169 2.11497  10
   7   1  -1 24.2657 2.91957  18
   6   1  -1 12.4200 1.65252  18
   6   1  -1 13.5745 1.21404  10
   6   1  -1 10.2158 3.03478   4
   6   1  -1 10.4845 1.71423  11
   6   1  -1 9.29318 2.24290   3
   6   1  -1 13.7245 1.36336  17
   6   1  -1 10.5975 2.07261   2
   6   1  -1 11.5768 1.48158   9
   6   1  -1 10.4100 2.55354   7
   5   1  -1 19.9918 2.19338  18
   5   1  -1 25.4369 3.00081   3
   5   1  -1 20.5006 1.90666   9
   5   1  -1 21.3468 1.69967  10
   5   1  -1 21.9913 1.79610  17
   5   1  -1 20.5376 3.20732   4
   5   1  -1 22.8000 2.06666  16
   5   1  -1 20.3032 2.63705   7
   5   1  -1 18.6164 2.04805  11
   5   1  -1 26.2393 2.63863   2
   4   1  -1 2.44564 1.15070   2
   4   1  -1 0.29932 1.34223   3
   4   1  -1 0.37897 1.27873   7
   4   1  -1 1.16461 1.59747   4
   3   1  -1 98.0446 8.18674   1
   3   1  -1 120.969 8.33991   1
   3   1  -1 130.163 8.17887   3
   3   1  -1 122.498 7.69099   7
   3   1  -1 98.8361 8.07171   3
   3   1  -1 94.5341 7.63979   2
   3   1  -1 123.112 7.83137   2
   3   1  -1 113.451 8.08576   4
  -3  -1   1 120.274 8.32740   1
  -3  -1   1 116.018 8.41110   1
   2   1  -1 112.550 7.86721   2
   2   1  -1 120.549 7.89661   2
   2   1  -1 120.523 8.43199   1
   2   1  -1 118.557 8.25103   3
   2   1  -1 108.963 8.15981   3
   2   1  -1 116.898 7.78076   7
   2   1  -1 129.465 8.42943   1
  -2  -1   1 123.300 8.47228   1
  -2  -1   1 100.074 8.20385   3
  -2  -1   1 122.855 8.43009   1
   1   1  -1 85.8084 5.79879   7
   1   1  -1 93.4482 6.35996   1
   1   1  -1 92.2999 6.33677   1
   1   1  -1 84.5404 5.95742   2
   1   1  -1 88.7423 6.18275   3
  -1  -1   1 82.5449 6.17283   3
  -1  -1   1 98.6716 6.36930   1
  -1  -1   1 91.8956 6.36081   1
  -1  -1   1 79.2858 5.94162   2
   0   1  -1 21.6231 1.74573   3
   0   1  -1 24.9603 1.80513   1
   0   1  -1 26.4157 1.85767   1
   0   1  -1 23.2830 1.70458   2
   0  -1   1 25.0103 1.82225   1
   0  -1   1 23.4525 1.74040   3
   0  -1   1 19.4671 1.65498   5
   0  -1   1 21.7610 1.77253   3
   0  -1   1 24.1120 1.80975   1
   0  -1   1 22.5581 1.67507   2
  -1   1  -1 7.20636 1.01266   1
  -1   1  -1 5.57389 0.87372   1
   1  -1   1 6.08033 0.87968   7
   1  -1   1 6.47154 0.85796   6
   1  -1   1 7.58901 0.88044   5
   1  -1   1 10.4526 0.96656   2
   1  -1   1 7.93250 0.86503   3
   1  -1   1 10.1545 1.08617   1
   1  -1   1 7.14080 0.95283   4
  -2   1  -1 1685.06 104.359   1
  -2   1  -1 1300.50 104.406   1
   2  -1   1 1632.83 104.478   1
   2  -1   1 1421.20 104.359   1
   2  -1   1 1479.09 99.9872   4
   2  -1   1 1621.66 98.6489   2
   2  -1   1 1570.68 96.6032   7
   2  -1   1 1494.93 97.5612   5
   2  -1   1 1551.35 101.878   3
   2  -1   1 1492.62 98.7029   2
   2  -1   1 1585.23 101.895   3
  -3   1  -1 27.6103 3.28160   1
  -3   1  -1 38.3861 2.98124   1
   3  -1   1 37.0523 2.72150   5
   3  -1   1 34.2937 3.12193   1
   3  -1   1 36.1680 2.75718   2
   3  -1   1 37.1211 2.95060   3
   3  -1   1 38.2221 3.45609   4
   3  -1   1 38.4318 3.07659   7
   3  -1   1 36.9395 2.85892   2
   3  -1   1 39.7562 2.98666   1
   3  -1   1 38.5857 2.94816   3
   4  -1   1 212.564 13.6625   7
   4  -1   1 208.066 13.5836   2
   4  -1   1 212.858 14.3090   4
   4  -1   1 201.412 14.0474   3
   4  -1   1 214.413 14.0703   3
   4  -1   1 187.165 13.4911   2
   5  -1   1 86.8955 6.42456   3
   5  -1   1 87.4430 5.53917  10
   5  -1   1 93.5130 6.88001   7
   5  -1   1 97.1245 5.96684  16
   5  -1   1 91.0833 7.38512   4
   5  -1   1 93.3796 5.68514  17
   5  -1   1 92.9055 6.37201  18
   5  -1   1 85.3801 6.58318  11
   6  -1   1 590.996 41.5728   4
   6  -1   1 621.140 36.7799  10
   6  -1   1 632.012 40.8114  18
   6  -1   1 618.916 36.8392  17
   6  -1   1 620.978 42.0644  11
   7  -1   1 -0.7057 1.58558  18
   7  -1   1 0.31076 0.66038  10
   7  -1   1 -0.7341 1.11378  11
   7  -1   1 2.01240 1.14301  17
   8  -1   1 29.2982 2.88856  11
   8  -1   1 30.9832 2.55198  17
   8  -1   1 28.9306 2.69542  18
   9  -1   1 30.8130 2.72260  18
   9  -1   1 31.9191 2.58113  11
   9   0  -1 8.56203 1.23405  18
   8   0  -1 0.49702 1.52938  18
   8   0  -1 -1.5645 1.64010  11
   8   0  -1 -0.5797 0.53390  10
   8   0  -1 0.45503 0.79809  17
   7   0  -1 3.68372 1.13898  18
   7   0  -1 2.82946 0.74258  10
   7   0  -1 3.81149 1.62802  11
   7   0  -1 3.81854 1.16104  17
   6   0  -1 20.2723 1.57229  10
   6   0  -1 19.4145 3.30997   4
   6   0  -1 17.5869 1.60599  17
   6   0  -1 17.8785 2.03844  11
   6   0  -1 19.0304 2.15092  16
   6   0  -1 19.2698 2.31433  18
   6   0  -1 22.1427 3.13839   7
   5   0  -1 270.730 18.5969   4
   5   0  -1 241.831 18.5177   9
   5   0  -1 266.148 17.8899  18
   5   0  -1 271.028 16.0710  10
   5   0  -1 285.342 16.7889  16
   5   0  -1 273.111 18.3865   3
   5   0  -1 269.209 17.7471   2
   5   0  -1 282.599 17.8517   7
   5   0  -1 274.127 16.1489  17
   5   0  -1 258.247 18.4475  11
   4   0  -1 504.546 37.0659   2
   4   0  -1 513.792 37.8772   4
   4   0  -1 553.395 38.3955   3
   4   0  -1 639.654 37.1582   2
   4   0  -1 624.891 36.6323   7
   4   0  -1 594.744 38.4242   3
   3   0  -1 562.365 40.6993   1
   3   0  -1 562.295 39.7641   3
   3   0  -1 641.519 37.8247   7
   3   0  -1 513.608 39.0895   4
   3   0  -1 543.065 38.4282   2
   3   0  -1 630.829 38.4780   2
   3   0  -1 626.934 39.7818   3
   3   0  -1 631.094 40.7505   1
  -3   0   1 626.700 40.8255   1
  -3   0   1 598.597 40.7579   1
   2   0  -1 544.680 34.7600   7
   2   0  -1 562.702 35.4136   2
   2   0  -1 560.052 36.6097   3
   2   0  -1 524.938 35.3999   2
   2   0  -1 547.181 37.4807   1
   2   0  -1 511.319 36.5992   3
   2   0  -1 552.339 37.4840   1
  -2   0   1 563.396 37.5098   1
  -2   0   1 559.231 37.5130   1
   1   0  -1 593.859 40.8819   3
   1   0  -1 604.993 40.7462   6
   1   0  -1 583.850 38.7420   7
   1   0  -1 584.569 39.5646   2
   1   0  -1 552.327 39.5567   2
   1   0  -1 593.725 40.8818   3
   1   0  -1 636.955 41.8734   1
   1   0  -1 647.461 41.9319   1
  -1   0   1 690.798 42.0539   1
  -1   0   1 624.190 42.1981   1
   0   0  -1 2097.83 147.635   1
   0   0  -1 2115.16 139.456   2
   0   0  -1 2134.60 147.587   1
   0   0  -1 2197.95 144.110   3
   0   0   1 2232.67 144.108   3
   0   0   1 2025.84 147.694   1
   0   0   1 2283.68 147.654   1
   0   0   1 2179.70 139.451   2
  -1   0  -1 743.694 51.8419   3
  -1   0  -1 782.697 53.1612   1
  -1   0  -1 854.581 53.1084   1
   1   0   1 808.963 50.1773   2
   1   0   1 836.228 53.1132   1
   1   0   1 670.862 50.8002   4
   1   0   1 707.870 50.1917   2
   1   0   1 779.053 49.0852   7
   1   0   1 738.095 51.8313   3
   1   0   1 807.988 51.8419   3
   1   0   1 821.315 53.1568   1
  -2   0  -1 110.433 7.46183   1
  -2   0  -1 100.743 7.24368   1
   2   0   1 107.931 7.34843   1
   2   0   1 104.913 7.09204   3
   2   0   1 92.8368 7.05718   4
   2   0   1 95.2172 6.53627   5
   2   0   1 101.676 7.29501   1
   2   0   1 102.893 6.77631   7
   2   0   1 101.993 6.83743   2
   2   0   1 91.2652 7.07275   3
   2   0   1 98.2388 6.80986   2
  -3   0  -1 335.776 24.2790   1
  -3   0  -1 354.906 24.1143   1
   3   0   1 314.741 22.7086   2
   3   0   1 338.318 23.2620   4
   3   0   1 339.819 24.1209   1
   3   0   1 369.115 24.1418   1
   3   0   1 315.579 23.4960   3
   3   0   1 371.529 22.4164   7
   3   0   1 373.322 22.7637   2
   3   0   1 362.654 23.5672   3
   4   0   1 18.8692 2.37875   7
   4   0   1 14.2642 1.87749   2
   4   0   1 18.3654 2.27797   3
   4   0   1 19.2536 2.56390   4
   5   0   1 2.15369 1.72665   7
   5   0   1 1.05573 0.68399   9
   5   0   1 3.50035 1.71548   3
   5   0   1 1.42001 1.04546  18
   5   0   1 4.87735 2.21093   4
   5   0   1 0.43599 1.33917   2
   5   0   1 1.23215 0.63439  10
   5   0   1 1.80364 0.84835  17
   5   0   1 2.03733 1.11747  11
   6   0   1 31.6488 4.27532   4
   6   0   1 26.5258 2.08463  10
   6   0   1 28.6637 2.27505  17
   6   0   1 21.5144 2.59574   3
   6   0   1 28.8061 3.08229  11
   6   0   1 28.1644 2.81757  18
   7   0   1 3.16864 1.72025  11
   7   0   1 2.45650 0.82161  10
   7   0   1 3.84374 1.18272  17
   7   0   1 5.94295 1.24933  18
   8   0   1 -1.7230 1.55832  11
   8   0   1 -0.0278 0.44897  10
   8   0   1 -0.0178 1.48853  18
   9   0   1 2.53226 1.12030  11
   9  -1  -1 102.063 7.29228  18
   9  -1  -1 109.125 7.56266  11
   8  -1  -1 76.0347 5.62712  18
   8  -1  -1 76.1409 5.79669  11
   8  -1  -1 79.5941 5.07499  17
   7  -1  -1 43.9342 3.60726  18
   7  -1  -1 45.7489 3.69314  16
   7  -1  -1 42.4363 2.87861  10
   7  -1  -1 44.0599 3.29683  17
   7  -1  -1 43.8371 4.99799   7
   7  -1  -1 46.4955 3.75800  11
   6  -1  -1 100.170 6.32132  17
   6  -1  -1 104.407 6.64252  16
   6  -1  -1 101.635 7.10697  18
   6  -1  -1 96.1193 7.71372   7
   6  -1  -1 105.330 7.33639  11
   6  -1  -1 96.3926 6.11057  10
   6  -1  -1 95.7474 8.26454   4
   5  -1  -1 1.43262 1.88042   7
   5  -1  -1 1.89722 0.98609  18
   5  -1  -1 3.56268 0.91532  16
   5  -1  -1 2.50969 0.84073  17
   5  -1  -1 2.11218 2.11363   4
   5  -1  -1 2.09381 0.50423  10
   4  -1  -1 78.9663 5.12658   2
   4  -1  -1 75.8425 5.17963   2
   4  -1  -1 78.2805 5.38900   3
   4  -1  -1 78.5974 5.35879   3
   4  -1  -1 68.9637 5.43665   1
   4  -1  -1 75.7292 5.70274   7
   4  -1  -1 83.3767 5.88223   4
   3  -1  -1 87.5154 5.62575   2
   3  -1  -1 80.7767 5.74227   5
   3  -1  -1 87.2620 5.96673   7
   3  -1  -1 89.5797 5.85915   3
   3  -1  -1 85.8437 6.59391   6
   3  -1  -1 81.3896 5.99515   1
   3  -1  -1 85.0501 6.06882   4
   3  -1  -1 88.2690 5.64256   2
   3  -1  -1 83.7812 5.97748   1
   3  -1  -1 87.6759 5.84889   3
  -3   1   1 80.7344 6.08099   1
  -3   1   1 82.8478 6.04561   1
   2  -1  -1 28.1286 2.46187   4
   2  -1  -1 27.4317 3.09193   6
   2  -1  -1 30.7502 2.18052   3
   2  -1  -1 30.5548 2.17694   3
   2  -1  -1 29.1636 2.06795   2
   2  -1  -1 27.8747 2.08672   2
   2  -1  -1 27.4523 2.37815   7
   2  -1  -1 29.5599 2.22935   1
   2  -1  -1 33.3830 2.23797   1
   2  -1  -1 33.1705 2.37832   5
  -2   1   1 31.4956 2.31636   1
  -2   1   1 33.4274 2.27003   1
   1  -1  -1 48.9992 3.32649   7
   1  -1  -1 48.1755 3.37696   4
   1  -1  -1 50.1691 3.44634   3
   1  -1  -1 48.0570 3.75805   6
   1  -1  -1 48.7503 3.62282   1
   1  -1  -1 56.9864 3.56174   1
   1  -1  -1 47.8263 3.43512   3
   1  -1  -1 48.8381 3.38783   2
   1  -1  -1 50.6587 3.31214   2
   1  -1  -1 48.5927 3.46286   5
  -1   1   1 47.1384 3.61885   1
   0  -1  -1 49.6384 3.60396   1
   0  -1  -1 48.8828 3.45442   2
   0  -1  -1 47.6881 3.52027   3
   0  -1  -1 48.9029 3.72983   1
   0  -1  -1 45.1127 3.30075   5
   0   1   1 42.5979 3.34226   2
   0   1   1 47.0098 3.61785   1
   0   1   1 51.7625 3.71277   1
   0   1   1 44.4572 3.50870   3
  -1  -1  -1 0.61137 1.09942   1
  -1  -1  -1 1.47541 1.35479   1
  -1  -1  -1 -0.0620 1.15911   2
  -1  -1  -1 0.49787 1.16193   3
   1   1   1 -0.1524 0.74283   7
   1   1   1 0.11459 1.07608   1
   1   1   1 -0.6022 1.10280   3
   1   1   1 0.83763 0.93364   2
   1   1   1 0.28628 1.05667   1
  -2  -1  -1 157.864 11.1225   1
  -2  -1  -1 152.976 11.2475   1
  -2  -1  -1 139.132 10.4900   2
  -2  -1  -1 142.502 10.7809   3
   2   1   1 139.896 11.0124   1
   2   1   1 166.111 11.1466   1
   2   1   1 142.422 10.7216   3
   2   1   1 173.299 10.4365   2
   2   1   1 165.975 10.1513   7
   2   1   1 170.118 10.8305   3
  -3  -1  -1 20.2606 2.52132   1
   3   1   1 18.2053 2.31989   1
   3   1   1 22.7214 2.79230   1
   3   1   1 21.7940 2.56953   3
   3   1   1 24.1210 2.65916   2
   3   1   1 23.0484 2.83651   4
   3   1   1 27.4425 2.41470   7
   4   1   1 3.35564 1.91424   4
   4   1   1 6.18593 1.91487   3
   4   1   1 2.21586 1.38324   2
   4   1   1 3.40666 1.40976   7
   5   1   1 0.65407 0.74348  10
   5   1   1 0.32236 1.82067   2
   5   1   1 0.22546 2.04358   7
   5   1   1 0.09033 0.76218   9
   5   1   1 1.13287 2.36772   4
   5   1   1 0.41987 0.79925  17
   5   1   1 0.20741 1.11726  11
   5   1   1 -0.9299 1.00791  18
   5   1   1 -1.0666 2.31468   3
   6   1   1 5.29817 0.97943   9
   6   1   1 7.68224 1.14467  17
   6   1   1 6.87643 2.19423   2
   6   1   1 5.27696 1.04709  10
   6   1   1 1.46798 2.98494   4
   6   1   1 4.49856 1.42638  18
   6   1   1 5.77721 1.56550  11
   7   1   1 47.8403 3.67639  11
   7   1   1 42.0450 2.86723  10
   7   1   1 37.4306 2.88439  17
   7   1   1 41.3588 3.65594  18
   8   1   1 19.0604 2.11032  18
   8   1   1 24.4349 2.43000  11
   8   1   1 24.3577 1.69866  10
   9  -2  -1 -1.3279 1.07575  18
   9  -2  -1 -0.8472 0.83797  11
   9  -2  -1 -0.5217 0.79099  17
   8  -2  -1 1.21395 1.55498  11
   8  -2  -1 2.46869 0.86965  17
   8  -2  -1 -0.4029 1.63410  18
   7  -2  -1 0.53658 1.53942  18
   7  -2  -1 3.07202 1.13316  11
   7  -2  -1 4.12320 1.22064  17
   7  -2  -1 4.51841 1.08970  16
   7  -2  -1 3.36851 2.71003   7
   6  -2  -1 2.75222 0.47229  10
   6  -2  -1 2.72369 2.58530   7
   6  -2  -1 3.16532 1.92589   4
   6  -2  -1 5.58938 1.83070  15
   6  -2  -1 2.90447 1.22587  11
   6  -2  -1 1.20517 1.08410  16
   6  -2  -1 3.38727 1.28252  18
   6  -2  -1 3.29982 1.03267  17
   5  -2  -1 17.6727 1.74206  16
   5  -2  -1 19.5244 2.47106   7
   5  -2  -1 18.6253 2.41291   4
   5  -2  -1 16.1808 1.64146  17
   5  -2  -1 17.0357 1.67165  18
   4  -2  -1 2.01990 1.05296   5
   4  -2  -1 4.74313 1.36976   7
   4  -2  -1 2.94605 1.23763   4
   4  -2  -1 2.80259 2.13554   6
   3  -2  -1 8.55570 1.34519   7
   3  -2  -1 8.99864 1.38062   5
   3  -2  -1 9.64296 1.33079   4
   3  -2  -1 9.57135 2.03273   6
   2  -2  -1 31.7087 2.67394   5
   2  -2  -1 32.0933 2.52671   4
   2  -2  -1 31.5416 2.50323   7
   2  -2  -1 32.3669 3.42734   6
   1  -2  -1 11.2322 1.45563   1
   1  -2  -1 11.2507 1.36280   1
   1  -2  -1 11.7139 1.52192   2
   1  -2  -1 9.54930 1.34722   3
   1  -2  -1 10.9184 1.39895   3
   1  -2  -1 11.1059 1.46667   5
   1  -2  -1 12.4627 1.91312   6
   1  -2  -1 9.99798 1.07693   7
   1  -2  -1 9.90164 1.17481   2
  -1   2   1 11.7344 1.46991   1
  -1   2   1 11.8664 1.47597   1
   0  -2  -1 501.472 33.7777   5
   0  -2  -1 505.094 35.3506   3
   0  -2  -1 533.907 36.2763   1
   0  -2  -1 560.030 36.2058   1
   0  -2  -1 513.755 34.2292   2
   0   2   1 557.730 36.2179   1
   0   2   1 505.445 34.1759   2
   0   2   1 553.225 36.2746   1
   0   2   1 503.548 35.3547   3
  -1  -2  -1 396.616 27.0643   2
  -1  -2  -1 420.819 28.6487   1
  -1  -2  -1 421.981 28.7359   1
  -1  -2  -1 390.699 27.9849   3
   1   2   1 413.950 26.2881   7
   1   2   1 430.044 28.6611   1
   1   2   1 425.627 28.7342   1
   1   2   1 425.718 28.0168   3
   1   2   1 403.671 27.0110   2
  -2  -2  -1 141.571 10.9843   2
  -2  -2  -1 151.506 11.7646   1
  -2  -2  -1 160.747 11.6007   1
  -2  -2  -1 149.833 11.3539   3
   2   2   1 175.618 10.9175   2
   2   2   1 150.315 11.5800   1
   2   2   1 171.518 10.5434   7
   2   2   1 163.163 11.6156   1
   2   2   1 176.061 11.4575   3
   3   2   1 46.6665 4.35683   4
   3   2   1 49.2354 3.81214   7
   3   2   1 47.4452 4.57841   3
   3   2   1 42.7169 4.32794   1
   3   2   1 53.4497 4.14862   2
   4   2   1 50.9687 4.42513   7
   4   2   1 48.9372 4.45273   2
   4   2   1 46.9824 5.20387   3
   4   2   1 50.6388 4.90587   4
   5   2   1 121.550 7.70193   8
   5   2   1 111.999 7.33733  10
   5   2   1 120.254 8.50994   9
   5   2   1 116.554 7.33561  17
   5   2   1 122.469 9.59012   4
   5   2   1 133.360 9.68342   3
   5   2   1 117.214 8.19856  18
   5   2   1 122.875 8.91695   2
   5   2   1 117.448 8.56276  11
   6   2   1 109.318 8.15065   9
   6   2   1 115.804 7.19836  10
   6   2   1 107.457 7.12490  17
   6   2   1 112.178 7.99723  18
   6   2   1 129.367 8.45749  11
   7   2   1 4.46123 1.41696  18
   7   2   1 1.56795 1.66584  11
   7   2   1 1.99382 0.88267  10
   8   2   1 46.6699 3.07797  10
   8   2   1 46.7175 3.71154  11
   9  -3  -1 4.70691 0.88947  17
   9  -3  -1 1.74716 0.94086  11
   9  -3  -1 0.27331 1.11290  18
   8  -3  -1 1.40744 1.48814  11
   8  -3  -1 2.45810 1.23181  17
   8  -3  -1 2.26220 1.25389  18
   7  -3  -1 11.8345 1.92856  18
   7  -3  -1 10.6148 1.63155  16
   7  -3  -1 6.05741 2.80095   7
   7  -3  -1 9.89015 1.72803  11
   7  -3  -1 10.9789 1.50497  17
   6  -3  -1 11.1259 1.34940  17
   6  -3  -1 10.0464 1.61112  18
   6  -3  -1 10.7999 2.04422  15
   6  -3  -1 9.55912 2.42271   7
   6  -3  -1 9.31050 1.49390  11
   6  -3  -1 11.2549 1.39845  16
   5  -3  -1 60.8815 4.09795  16
   5  -3  -1 61.5943 4.44838  18
   5  -3  -1 52.9795 4.99305   4
   5  -3  -1 58.9468 5.03154   7
   5  -3  -1 62.9522 3.94483  17
   4  -3  -1 89.5297 6.53235   7
   4  -3  -1 94.1595 6.68806   4
   4  -3  -1 93.0282 6.62630   5
   4  -3  -1 92.1120 7.40445   6
   3  -3  -1 202.110 13.6903   7
   3  -3  -1 219.856 14.1969   4
   3  -3  -1 199.969 14.7010   6
   3  -3  -1 223.598 14.0307   5
   2  -3  -1 21.8689 1.84769   1
   2  -3  -1 21.5254 1.90090   3
   2  -3  -1 27.5659 2.54585   5
   2  -3  -1 20.5187 1.69532   2
   2  -3  -1 20.0369 1.83931   7
   2  -3  -1 26.8672 2.98976   6
   2  -3  -1 30.0967 2.20309   4
   2  -3  -1 24.8867 2.03573   2
   2  -3  -1 24.0061 1.85797   3
   2  -3  -1 20.8797 2.15140   1
  -2   3   1 20.1619 1.96087   1
   1  -3  -1 8420.44 586.391   7
   1  -3  -1 9144.97 635.445   1
   1  -3  -1 8685.48 600.146   2
   1  -3  -1 9481.96 635.441   1
   1  -3  -1 9903.81 600.973   2
   1  -3  -1 9769.61 620.552   3
   1  -3  -1 9029.10 620.048   3
   1  -3  -1 9747.16 594.429   5
   1  -3  -1 8692.50 617.918   6
  -1   3   1 9548.77 635.302   1
  -1   3   1 9999.99 635.614   1
   0  -3  -1 5.53342 1.74204   1
   0  -3  -1 5.34837 1.09750   5
   0  -3  -1 4.82929 1.35122   1
   0  -3  -1 6.89982 1.57026   2
   0  -3  -1 4.08874 1.55085   3
   0   3   1 5.19304 1.27503   2
   0   3   1 4.69078 1.54522   3
   0   3   1 3.69462 1.44970   1
   0   3   1 5.87932 1.62862   1
  -1  -3  -1 112.639 8.07233   2
  -1  -3  -1 112.386 8.32947   3
  -1  -3  -1 116.886 8.65845   1
  -1  -3  -1 111.889 8.44302   1
   1   3   1 113.584 7.97919   2
   1   3   1 119.116 8.39839   3
   1   3   1 115.175 8.64832   1
   1   3   1 116.052 8.57296   1
  -2  -3  -1 324.350 23.7218   3
  -2  -3  -1 325.941 24.3934   1
  -2  -3  -1 328.815 22.9529   2
  -2  -3  -1 333.646 24.2357   1
   2   3   1 367.374 22.8578   2
   2   3   1 342.419 24.3008   1
   2   3   1 362.352 22.1387   7
   2   3   1 377.005 23.8394   3
   2   3   1 341.859 24.2518   1
   3   3   1 156.169 10.9212   2
   3   3   1 153.862 11.6457   3
   3   3   1 157.404 10.4967   7
   4   3   1 7.90754 2.40715   2
   4   3   1 12.3199 3.20591   3
   4   3   1 8.44791 1.22889   9
   4   3   1 12.4279 2.73558   4
   4   3   1 10.2705 1.08814  10
   4   3   1 12.5901 1.25680   8
   5   3   1 27.4094 2.42169  18
   5   3   1 25.4551 3.54554   2
   5   3   1 25.5331 2.28235  10
   5   3   1 25.5139 1.97123   8
   5   3   1 25.3360 2.86805  11
   5   3   1 23.7308 2.44760   9
   5   3   1 30.5358 4.35359   3
   5   3   1 21.0377 3.87888   4
   6   3   1 10.6848 1.28585  10
   6   3   1 11.4448 1.84721  11
   6   3   1 10.9917 1.54677  18
   6   3   1 7.88144 1.21521   9
   7   3   1 2.25272 1.58963  11
   7   3   1 0.27757 0.94835  10
   8   3   1 26.4972 1.85765  10
   8   3   1 26.8901 2.34866  11
   9  -4  -1 62.8190 4.39126  11
   9  -4  -1 51.9747 4.25733  18
   9  -4  -1 58.2904 3.75853  17
   8  -4  -1 56.9233 4.50538  11
   8  -4  -1 68.1274 4.89959  18
   8  -4  -1 55.9385 3.92121  17
   7  -4  -1 277.020 17.3335  18
   7  -4  -1 258.315 15.4772  17
   7  -4  -1 247.527 17.4623  15
   7  -4  -1 248.676 17.6296  11
   7  -4  -1 249.185 16.0608  16
   6  -4  -1 372.237 25.5931  11
   6  -4  -1 379.470 23.3175  16
   6  -4  -1 390.113 22.4672  17
   6  -4  -1 366.724 25.1543  15
   6  -4  -1 361.015 23.9579  12
   6  -4  -1 341.150 24.5105   7
   6  -4  -1 405.310 24.9457  18
   5  -4  -1 43.5520 3.28785  12
   5  -4  -1 39.5542 4.33723  14
   5  -4  -1 43.2619 3.62371  11
   5  -4  -1 52.8441 3.14524  17
   5  -4  -1 47.2901 3.45483  18
   5  -4  -1 50.2856 4.12603   7
   5  -4  -1 38.5251 4.15206   5
   5  -4  -1 48.1126 3.98273  15
   5  -4  -1 43.7899 5.28047   6
   5  -4  -1 50.9796 3.29597  16
   5  -4  -1 48.1884 4.02789   4
   5  -4  -1 39.3446 3.43060  13
   4  -4  -1 103.117 7.04216   4
   4  -4  -1 98.1326 7.04631   5
   4  -4  -1 91.5253 6.67304   7
   4  -4  -1 89.2208 7.82119   6
   3  -4  -1 44.9804 3.78270   5
   3  -4  -1 46.2504 4.75225   6
   3  -4  -1 39.1218 3.13805   7
   3  -4  -1 42.9147 3.53025   4
   2  -4  -1 0.43370 0.52576   7
   2  -4  -1 1.35651 2.07317   6
   2  -4  -1 2.03248 1.14336   2
   2  -4  -1 1.61690 0.83808   1
   2  -4  -1 1.30907 0.85411   3
   2  -4  -1 0.68597 0.94848   3
   2  -4  -1 1.13470 1.34767   1
   2  -4  -1 0.59817 1.49466   5
   2  -4  -1 0.95071 0.67490   2
  -2   4   1 1.22763 0.88715   1
  -2   4   1 1.08631 0.98715   1
   1  -4  -1 317.469 23.5582   1
   1  -4  -1 348.739 22.0131   5
   1  -4  -1 358.772 22.2337   2
   1  -4  -1 332.298 23.3809   6
   1  -4  -1 343.480 22.9219   3
   1  -4  -1 325.894 23.4200   1
   1  -4  -1 308.286 22.8354   3
  -1   4   1 366.564 23.5193   1
  -1   4   1 340.855 23.4854   1
   0  -4  -1 1.05269 1.36546   3
   0  -4  -1 1.47937 1.77223   1
   0  -4  -1 0.94366 0.99754   5
   0  -4  -1 2.92471 1.22169   1
   0  -4  -1 1.28750 1.63104   2
   0   4   1 0.20296 1.50719   1
   0   4   1 1.55456 1.49411   1
   0   4   1 1.99764 1.23408   2
   0   4   1 1.86011 1.31625   3
  -1  -4  -1 500.806 32.1327   2
  -1  -4  -1 453.904 34.0581   1
  -1  -4  -1 506.624 33.2467   3
  -1  -4  -1 473.208 33.9267   1
   1   4   1 488.269 34.0048   1
   1   4   1 483.430 32.0282   2
   1   4   1 482.134 34.0697   1
   1   4   1 517.504 33.3048   3
  -2  -4  -1 3.64091 1.78413   1
   2   4   1 2.42793 1.77214   1
   2   4   1 6.72704 1.81487   2
   2   4   1 6.23927 2.04350   3
   3   4   1 11.4004 3.03514   3
   3   4   1 8.31817 1.86426   2
   4   4   1 121.576 9.66526   4
   4   4   1 113.929 8.79196   9
   4   4   1 128.945 8.01483   8
   4   4   1 113.663 9.95380   3
   4   4   1 126.698 9.36801   2
   5   4   1 16.6449 1.48099   8
   5   4   1 12.8154 1.64497   9
   5   4   1 16.2057 1.81838  10
   5   4   1 13.6853 2.92477   2
   5   4   1 21.0348 3.97938   4
   6   4   1 17.1140 2.08030  11
   6   4   1 15.6415 1.76824   9
   6   4   1 12.1177 1.50491  10
   7   4   1 44.4387 3.30925  10
   7   4   1 51.5977 4.13543  11
   8   4   1 11.6366 1.04947  10
   8   4   1 12.8715 1.41430  11
   9  -5  -1 4.44237 1.24099  18
   9  -5  -1 6.60539 0.95893  17
   8  -5  -1 0.45390 1.39119  16
   8  -5  -1 1.14543 1.32697  11
   8  -5  -1 1.07663 0.84821  17
   8  -5  -1 3.29009 1.34382  18
   7  -5  -1 0.74313 1.16437  17
   7  -5  -1 1.42689 1.69249  18
   7  -5  -1 1.10244 0.98335  12
   7  -5  -1 2.50505 2.03925  15
   7  -5  -1 4.19048 1.28700  16
   7  -5  -1 2.24089 0.98877  11
   6  -5  -1 -1.5699 1.12665  13
   6  -5  -1 -0.2376 1.80258  15
   6  -5  -1 -1.3832 0.98494  16
   6  -5  -1 0.53546 2.08258  14
   6  -5  -1 0.83282 0.98057  17
   6  -5  -1 0.81382 0.91101  12
   6  -5  -1 0.77430 1.15841  11
   6  -5  -1 -0.6358 1.39957  18
   5  -5  -1 4.55398 2.82796   6
   5  -5  -1 3.85527 1.35381  13
   5  -5  -1 2.09181 1.59124   5
   5  -5  -1 2.84871 0.88797  17
   5  -5  -1 2.37335 1.03780  12
   5  -5  -1 2.75377 1.03473  11
   5  -5  -1 6.54563 1.95862  14
   5  -5  -1 2.70193 1.23545  18
   5  -5  -1 2.75105 0.93018  16
   5  -5  -1 4.95848 1.62670  15
   4  -5  -1 1.15839 1.80253   5
   4  -5  -1 0.58760 2.51846   6
   3  -5  -1 -1.3866 1.62687   5
   3  -5  -1 -0.2309 2.09562   6
   2  -5  -1 44.4457 3.87406   3
   2  -5  -1 48.7242 3.70129   2
   2  -5  -1 51.4171 3.99287   1
   2  -5  -1 47.3985 5.96978   6
   2  -5  -1 53.8419 4.14663   2
   2  -5  -1 52.1347 4.15001   5
   2  -5  -1 56.6415 4.10368   3
   1  -5  -1 59.7794 5.45538   1
   1  -5  -1 69.8329 7.17750   6
   1  -5  -1 68.0735 5.85272   1
   1  -5  -1 73.7631 5.59995   3
   1  -5  -1 82.4685 5.57270   2
   1  -5  -1 75.8367 5.32504   5
   0  -5  -1 428.395 27.8963   3
   0  -5  -1 418.240 26.4853   5
   0  -5  -1 351.988 28.5448   1
   0  -5  -1 424.694 26.9758   2
   0   5   1 411.475 28.5515   1
  -1  -5  -1 143.821 10.0296   3
  -1  -5  -1 115.151 10.3037   1
  -1  -5  -1 146.964 9.77116   2
   1   5   1 123.468 10.1580   1
   3   5   1 12.2864 3.54071   3
   3   5   1 11.6117 2.26690   2
   4   5   1 65.9488 6.43052   2
   4   5   1 64.4282 7.55458   3
   4   5   1 69.7408 4.56453   8
   4   5   1 62.2214 5.05567   9
   4   5   1 57.7310 6.37097   4
   5   5   1 350.486 21.3553  10
   5   5   1 379.164 24.7030   9
   5   5   1 333.537 22.7243   8
   6   5   1 61.1122 4.83404   9
   6   5   1 63.2024 4.29729  10
   6   5   1 63.6986 5.04437  11
   7   5   1 1.10520 1.40378  11
   7   5   1 2.75795 0.98527  10
   9  -6  -1 10.1282 1.56737  18
   8  -6  -1 6.28280 1.42892  16
   8  -6  -1 7.23353 1.30262  17
   8  -6  -1 5.05779 1.31809  11
   8  -6  -1 5.84138 1.80601  18
   7  -6  -1 0.22788 0.67587  12
   7  -6  -1 -1.0924 2.08363  15
   7  -6  -1 2.03319 1.28597  18
   7  -6  -1 0.58504 0.93737  11
   7  -6  -1 1.36824 0.84522  16
   7  -6  -1 -1.1834 1.67401  14
   7  -6  -1 1.55461 1.39668  13
   7  -6  -1 1.12289 1.11720  17
   6  -6  -1 1.96955 1.07232  16
   6  -6  -1 0.66432 2.31226  14
   6  -6  -1 -0.1592 1.31264  13
   6  -6  -1 1.45734 1.20444  11
   6  -6  -1 1.22762 1.50632  18
   6  -6  -1 2.00595 1.02376  17
   6  -6  -1 1.16480 1.95541  15
   6  -6  -1 2.03037 1.00506  12
   5  -6  -1 98.9766 7.60430  14
   5  -6  -1 88.2672 5.68217  17
   5  -6  -1 94.9949 5.99682  16
   5  -6  -1 81.6311 7.35106   5
   5  -6  -1 80.5853 6.47478  18
   5  -6  -1 95.2347 6.88368  15
   5  -6  -1 82.7862 8.37060   6
   5  -6  -1 91.8106 6.33082  13
   5  -6  -1 97.9952 6.16029  12
   5  -6  -1 90.5283 6.59619  11
   4  -6  -1 0.81055 1.04854  13
   4  -6  -1 -0.0117 0.53713  10
   4  -6  -1 1.22054 0.79618  12
   4  -6  -1 -0.7845 2.93680   6
   4  -6  -1 -0.4253 2.16890   5
   4  -6  -1 1.39007 1.69062  14
   4  -6  -1 -1.1870 0.88688  11
   4  -6  -1 -1.6678 1.62828  15
   3  -6  -1 2.60007 1.67269   5
   3  -6  -1 2.98874 3.21649   6
   2  -6  -1 387.059 27.7360   6
   2  -6  -1 426.464 27.0213   3
   2  -6  -1 383.263 26.1245   5
   2  -6  -1 389.877 26.2380   2
   1  -6  -1 -0.6787 2.04690   3
   1  -6  -1 1.25775 2.97277   6
   1  -6  -1 2.94552 1.47293   5
   1  -6  -1 3.00827 2.11813   2
   0  -6  -1 4.59463 2.28446   3
   0  -6  -1 2.85675 1.42784   5
   0  -6  -1 4.35824 2.21243   2
  -1  -6  -1 118.183 9.59281   3
  -1  -6  -1 119.643 9.13244   2
   3   6   1 65.2450 4.53805   8
   4   6   1 117.716 8.85107   9
   4   6   1 113.990 9.85048   4
   4   6   1 122.969 7.93258   8
   5   6   1 0.67465 0.68724   8
   5   6   1 0.25407 1.26626   9
   6   6   1 -0.6051 1.10508  10
   6   6   1 -0.4987 1.05708   9
   6   6   1 0.42981 0.93954  11
   7   6   1 3.12163 0.87085  10
   7   6   1 1.27085 0.77318  11
   8  -7  -1 125.126 8.68047  18
   7  -7  -1 232.823 16.4358  18
   7  -7  -1 256.000 16.8183  11
   7  -7  -1 245.676 15.2900  16
   7  -7  -1 256.879 15.7445  12
   7  -7  -1 220.886 17.8808  14
   7  -7  -1 247.748 16.6642  15
   6  -7  -1 135.625 9.23332  11
   6  -7  -1 136.015 10.0921  14
   6  -7  -1 122.172 9.18296  18
   6  -7  -1 141.224 8.83080  13
   6  -7  -1 131.317 8.60722  12
   6  -7  -1 122.201 9.20469  15
   6  -7  -1 120.713 8.34666  16
   5  -7  -1 116.202 8.06398  16
   5  -7  -1 127.882 8.53577  13
   5  -7  -1 113.387 9.47382   5
   5  -7  -1 128.746 8.93379  11
   5  -7  -1 130.172 9.70597  14
   5  -7  -1 130.014 9.19718  15
   5  -7  -1 130.767 8.34457  12
   4  -7  -1 109.437 7.75391  11
   4  -7  -1 101.378 6.62134  10
   4  -7  -1 109.804 7.24575  12
   4  -7  -1 109.079 8.05817  15
   4  -7  -1 108.735 9.85444   6
   4  -7  -1 110.256 7.40773  13
   4  -7  -1 109.955 8.44442   5
   4  -7  -1 115.216 8.64282  14
   3  -7  -1 1.73647 0.47310   9
   3  -7  -1 2.92127 2.34709   5
   3  -7  -1 -1.2188 3.09058   6
   3  -7  -1 3.35210 0.75366  10
   3  -7  -1 3.23786 0.85478   3
   3  -7  -1 0.90814 1.88132  15
   3  -7  -1 1.82697 0.87008  12
   3  -7  -1 2.34559 1.10258  13
   3  -7  -1 2.41773 1.64374  14
   2  -7  -1 89.0198 6.97828   5
   2  -7  -1 90.4749 6.75540   2
   2  -7  -1 92.7583 5.73599  12
   2  -7  -1 80.7321 6.70981  14
   2  -7  -1 85.2482 6.52903  15
   2  -7  -1 97.7613 6.81901   3
   2  -7  -1 75.3429 5.33777  10
   2  -7  -1 83.5665 9.18145   6
   2  -7  -1 79.9817 6.15979   9
   1  -7  -1 0.06076 0.74665   8
   1  -7  -1 -0.2037 1.61099   5
   1  -7  -1 -5.6530 4.23755   6
   1  -7  -1 0.72223 1.11679   9
   1  -7  -1 -2.0990 1.97623   3
   1  -7  -1 0.73614 2.37742   2
   0  -7  -1 20.0685 3.29793   2
   0  -7  -1 20.9382 2.01816   8
   0  -7  -1 19.5092 3.50697   3
   0  -7  -1 19.8460 2.33861   9
   0  -7  -1 21.8394 2.81597   5
   0  -7  -1 18.5276 4.28243   6
  -1  -7  -1 4.02116 2.86708   2
  -1  -7  -1 4.47920 3.09827   3
  -1  -7  -1 8.27654 1.17657   8
  -2  -7  -1 9.83775 1.41252   8
   3   7   1 -0.0365 0.84512   8
   4   7   1 16.5263 1.91699   8
   5   7   1 4.00463 1.39359   9
   5   7   1 2.72099 0.82884   8
   6   7   1 4.40898 1.06122  11
   6   7   1 3.25952 1.06955   9
   7  -8  -1 2.43163 1.42521  15
   7  -8  -1 2.48567 1.01744  12
   7  -8  -1 0.80806 2.64654  14
   6  -8  -1 -0.0847 2.14981  15
   6  -8  -1 0.65170 1.02178  13
   6  -8  -1 3.11753 2.75503  14
   6  -8  -1 -0.2570 1.19294  11
   6  -8  -1 -0.0176 1.04328  12
   5  -8  -1 1.59948 1.08850  12
   5  -8  -1 4.87664 1.92450  14
   5  -8  -1 3.91593 1.46618  13
   5  -8  -1 3.01873 1.69467  15
   4  -8  -1 17.2377 1.67100  10
   4  -8  -1 19.2183 2.73936  14
   4  -8  -1 17.5191 2.02718  12
   4  -8  -1 19.8054 3.35630   5
   4  -8  -1 12.9578 2.68063  15
   4  -8  -1 16.5567 1.88017  13
   4  -8  -1 10.1669 4.18743   6
   3  -8  -1 1.30656 2.16296  15
   3  -8  -1 2.10449 0.99495  12
   3  -8  -1 1.77219 2.84016   5
   3  -8  -1 2.26601 0.88136  10
   3  -8  -1 1.35341 1.17824  13
   3  -8  -1 -1.8466 3.93733   6
   3  -8  -1 -0.7627 1.81780  14
   2  -8  -1 -0.0158 2.05992   5
   2  -8  -1 0.63667 1.00997   9
   2  -8  -1 1.66079 4.32797   6
   2  -8  -1 1.34301 1.07840  13
   2  -8  -1 0.33156 1.02040  10
   2  -8  -1 2.16284 2.15384   3
   2  -8  -1 -1.7995 1.61591  14
   2  -8  -1 -1.1316 2.40355   2
   2  -8  -1 -0.7018 2.10729  15
   1  -8  -1 3.73553 0.94448   8
   1  -8  -1 4.01216 2.49826   3
   1  -8  -1 2.69683 2.41899   5
   1  -8  -1 1.72576 2.70187   2
   1  -8  -1 3.81336 1.03303  10
   1  -8  -1 4.61671 1.57796  14
   1  -8  -1 0.66984 4.55045   6
   1  -8  -1 3.36778 1.11887   9
   0  -8  -1 3.63483 2.94562   3
   0  -8  -1 5.41558 1.24207  10
   0  -8  -1 8.68357 3.14164   2
   0  -8  -1 7.05155 1.66971   9
   0  -8  -1 6.93117 1.23892   8
   0  -8  -1 9.38361 4.72327   6
  -1  -8  -1 39.4796 3.94017   9
  -1  -8  -1 42.7882 3.25205   8
  -1  -8  -1 34.6880 5.30113   3
  -1  -8  -1 44.2591 5.48844   2
  -1  -8  -1 53.0458 6.79744   6
  -2  -8  -1 98.5240 6.80836   8
  -3  -8  -1 259.838 15.7231   8
   3   8   1 218.672 15.4975   8
   4   8   1 381.073 24.5248   8
   5   8   1 46.6833 3.42524  11
   5   8   1 36.7692 3.09551   9
   5   8   1 33.7235 2.56930   8
   6   8   1 13.7409 1.55431  11
   6   8   1 17.8937 1.65010   9
   7  -9  -1 1.71496 2.76636  14
   7  -9  -1 6.03589 1.77827  15
   7  -9  -1 5.10536 1.15164  13
   6  -9  -1 32.4516 3.89283  14
   6  -9  -1 27.6673 2.68634  13
   6  -9  -1 30.1621 2.43076  12
   6  -9  -1 36.3044 3.88925  15
   5  -9  -1 3.74817 1.21731  12
   5  -9  -1 4.80930 1.90537  15
   5  -9  -1 6.39463 1.61492  13
   5  -9  -1 5.43677 2.89924  14
   4  -9  -1 75.6513 6.61890  14
   4  -9  -1 65.8017 6.73678   5
   4  -9  -1 69.7024 4.61694  10
   4  -9  -1 71.9631 5.08167  13
   4  -9  -1 74.4124 5.85882  15
   3  -9  -1 25.6942 2.54062  13
   3  -9  -1 19.5716 3.07322  15
   3  -9  -1 18.6363 3.36566   5
   3  -9  -1 10.0448 5.23667   6
   3  -9  -1 18.4121 2.79558  14
   3  -9  -1 20.2846 2.12933  10
   2  -9  -1 28.8524 6.91234   6
   2  -9  -1 19.5102 3.23859   3
   2  -9  -1 25.0096 3.60533   5
   2  -9  -1 23.6199 3.24020  15
   2  -9  -1 21.8069 2.74938  14
   2  -9  -1 23.9875 2.56013   9
   2  -9  -1 24.2271 2.48952  10
   2  -9  -1 21.8678 3.71313   2
   2  -9  -1 22.8441 2.45332  13
   1  -9  -1 -5.2704 3.41037   2
   1  -9  -1 1.17446 0.80654   8
   1  -9  -1 1.12117 5.09215   6
   1  -9  -1 5.49658 1.49547  10
   1  -9  -1 1.30433 2.48652  15
   1  -9  -1 1.90062 1.21593   9
   1  -9  -1 5.32488 1.76473  14
   1  -9  -1 0.03504 2.62214   3
   0  -9  -1 7.58328 5.29732   6
   0  -9  -1 5.11689 1.49011   9
   0  -9  -1 4.94154 1.37624  10
   0  -9  -1 2.70205 3.53764   2
   0  -9  -1 4.89525 1.22291   8
  -1  -9  -1 42.0659 3.42981   8
  -1  -9  -1 43.3686 4.15167   9
  -1  -9  -1 39.6923 6.98897   6
  -2  -9  -1 2.93167 1.29659   8
  -3  -9  -1 3.84427 1.41411   8
   3   9   1 3.41650 1.02807   8
  -4  -9  -1 2.65589 1.28556   8
   4   9   1 2.40089 0.85632   8
  -5  -9  -1 3.39249 1.09535   8
   5   9   1 4.59802 0.52164   8
   5   9   1 5.40123 0.89050   9
   5   9   1 4.63256 0.87680  11
   7 -10  -1 24.5169 3.15338  14
   6 -10  -1 9.45690 1.78730  15
   6 -10  -1 7.32663 2.26550  14
   6 -10  -1 9.86672 1.36313  13
   5 -10  -1 79.6365 5.86703  13
   5 -10  -1 86.7088 7.36120  14
   5 -10  -1 79.7091 6.74086  15
   4 -10  -1 71.0792 4.88071  13
   4 -10  -1 65.3149 6.17728  14
   4 -10  -1 52.8728 5.41839  15
   4 -10  -1 65.6213 4.21943  10
   3 -10  -1 31.9098 4.12378  14
   3 -10  -1 29.6873 2.64693  10
   3 -10  -1 28.9599 2.95569  13
   3 -10  -1 30.9593 3.82811  15
   2 -10  -1 32.1076 3.09412   9
   2 -10  -1 37.9602 3.09686  10
   2 -10  -1 36.2790 4.02661  14
   2 -10  -1 33.6079 2.99623  13
   2 -10  -1 36.7040 3.85009  15
   1 -10  -1 28.6539 2.99368   9
   1 -10  -1 28.3117 3.06047  10
   1 -10  -1 28.6319 3.46408  14
   1 -10  -1 32.6135 3.54518  15
   0 -10  -1 12.9951 1.73546  10
   0 -10  -1 16.3815 2.35437  15
   0 -10  -1 12.5796 1.88654   9
  -1 -10  -1 20.6678 2.01592   8
  -1 -10  -1 28.7632 3.35074   9
  -2 -10  -1 2.93457 1.71570   9
  -2 -10  -1 1.88595 1.12811   8
   3  10   1 67.8542 4.63205   8
   4  10   1 13.4854 1.24224   8
   7 -11  -1 0.80636 1.46543  14
   6 -11  -1 -0.5285 0.85406  13
   6 -11  -1 1.01544 1.75315  15
   6 -11  -1 -0.4817 2.60074  14
   5 -11  -1 0.45915 2.52230  14
   5 -11  -1 0.00582 1.61404  15
   5 -11  -1 -0.5442 0.94556  13
   4 -11  -1 1.67651 2.80543  15
   4 -11  -1 4.47770 1.08854  13
   4 -11  -1 5.06275 2.47235  14
   3 -11  -1 1.98090 1.58274  14
   3 -11  -1 1.70406 2.86925  15
   3 -11  -1 0.14287 1.17244  10
   3 -11  -1 -0.0046 0.87252  13
   2 -11  -1 13.8894 2.92614  15
   2 -11  -1 12.1539 1.58456   9
   2 -11  -1 10.7188 1.49033  10
   2 -11  -1 13.7430 2.29466  14
   1 -11  -1 0.50125 1.11890   9
   1 -11  -1 0.67252 2.59193  15
   1 -11  -1 0.86952 1.33903  10
   0 -11  -1 9.88569 1.65645   9
   0 -11  -1 8.40344 1.64800  10
   0 -11  -1 11.9107 2.08769  15
  -1 -11  -1 -1.0727 1.51164   9
  -1 -11  -1 0.35131 0.84457   8
  -1 -11  -1 0.16275 1.63665  15
  -2 -11  -1 13.7190 2.50430  15
  -2 -11  -1 18.4759 2.20071   9
  -3 -11  -1 27.7580 2.06788   8
  -3 -11  -1 29.8913 2.56720  15
   6 -12  -1 1.79978 1.43451  14
   5 -12  -1 -0.6113 1.34396  15
   5 -12  -1 -0.2931 1.57979  14
   4 -12  -1 64.0068 5.18606  15
   4 -12  -1 55.0984 4.84946  14
   3 -12  -1 2.77901 1.45662  14
   3 -12  -1 0.51942 1.01536  10
   3 -12  -1 3.81628 1.88066  15
   2 -12  -1 35.2559 3.38776  15
   2 -12  -1 33.6822 2.66063  10
   2 -12  -1 29.7866 3.03787  14
   1 -12  -1 88.0664 5.98576  10
   1 -12  -1 95.8972 6.79901   9
   1 -12  -1 102.835 7.31369  15
   0 -12  -1 18.6548 1.95812  10
   0 -12  -1 19.7860 2.39482   9
   0 -12  -1 13.1228 2.61424  15
  -1 -12  -1 20.1093 2.35731  15
  -1 -12  -1 19.3130 2.37415   9
  -2 -12  -1 5.19391 1.24643   9
  -2 -12  -1 4.30693 1.28637  15
   4 -13  -1 10.8049 1.49192  14
   4 -13  -1 13.1729 1.57497  15
   3 -13  -1 0.90527 1.39587  14
   3 -13  -1 -0.3852 1.42844  15
   2 -13  -1 8.27795 1.71281  15
   2 -13  -1 8.15912 1.19850  10
   1 -13  -1 3.95094 2.02028  15
   1 -13  -1 1.65117 1.07404  10
   0 -13  -1 13.9985 1.87295  15
   0 -13  -1 18.8126 1.50958  10
  -1 -13   2 -0.5447 1.23136  10
  -1 -13   2 -0.6044 1.33671  15
  -1 -13   2 1.10803 0.94160   9
   0 -13   2 42.4768 3.60096  15
   0 -13   2 41.5486 3.37771   9
   0 -13   2 48.4976 3.28300  10
   1 -13   2 -0.4621 1.12432  10
   1 -13   2 2.86916 1.49883  15
   1 -13   2 0.11006 1.46440  14
   2 -13   2 26.4505 3.01552  15
   2 -13   2 17.8729 2.41836  14
   2 -13   2 23.6030 1.92431  10
   3 -13   2 28.1726 3.40906  14
   4 -13   2 13.9964 1.43472  13
   4 -13   2 21.5706 2.41758  14
   5 -13   2 1.39725 1.41852  14
   3  12  -2 2.75119 0.77233   8
  -3 -12   2 4.74290 1.27972  15
  -3 -12   2 4.38614 0.98969   9
  -2 -12   2 49.1384 3.94288  15
  -1 -12   2 7.03613 1.52844   9
  -1 -12   2 9.28918 1.87069  15
   0 -12   2 3.01155 1.75367  15
   0 -12   2 1.59478 1.29352  10
   0 -12   2 2.86600 1.46668   9
   1 -12   2 23.1469 2.40391  10
   1 -12   2 24.2684 2.50227   9
   1 -12   2 23.2791 3.09607  15
   1 -12   2 25.5432 2.71764  14
   2 -12   2 -1.5105 2.29014  15
   2 -12   2 1.08063 1.53976  14
   2 -12   2 1.92025 1.01839  10
   3 -12   2 15.0006 2.34248  14
   3 -12   2 19.4526 2.13265  13
   3 -12   2 19.3305 2.58529  15
   4 -12   2 5.38507 1.93884  14
   4 -12   2 7.93315 1.16385  13
   5 -12   2 10.6489 2.08985  14
   5 -12   2 8.81651 1.17557  13
   6 -12   2 -0.5822 2.05198  14
   4  11  -2 9.78594 0.88919   8
  -4 -11   2 6.36509 1.06075   8
   3  11  -2 4.56601 1.04365   8
  -3 -11   2 5.56756 1.07664   8
  -2 -11   2 7.88262 1.79758   9
  -2 -11   2 7.58404 1.15099   8
  -1 -11   2 15.1376 1.99667   9
  -1 -11   2 13.0161 1.54684   8
   0 -11   2 1.11159 1.30235   9
   0 -11   2 -0.2345 1.25186  10
   0 -11   2 -0.4279 1.74229  14
   0 -11   2 0.12318 2.59315  15
   1 -11   2 -0.4531 1.95162  14
   1 -11   2 2.13824 1.18985  10
   1 -11   2 0.23719 1.07422   9
   1 -11   2 1.59338 2.52510  15
   2 -11   2 -0.9962 2.37280  15
   2 -11   2 -0.0009 1.52813  14
   2 -11   2 0.54062 1.19629  13
   2 -11   2 1.80880 1.04848  10
   3 -11   2 4.13473 2.28214  15
   3 -11   2 4.45778 1.41972  13
   3 -11   2 5.35640 2.51791  14
   4 -11   2 95.0223 6.88291  14
   4 -11   2 73.6823 5.65591  13
   5 -11   2 -0.2128 1.97359  14
   5 -11   2 2.39174 1.36476  13
   6 -11   2 177.454 13.3530  14
   5  10  -2 0.49862 0.42820   8
   5  10  -2 0.71703 0.81843  11
  -5 -10   2 0.50061 0.65847   8
   4  10  -2 0.17227 0.60842   8
  -4 -10   2 0.74369 1.12690   8
   3  10  -2 117.571 7.87652   8
  -2 -10   2 70.2927 5.54477   9
  -2 -10   2 61.3128 4.62087   8
  -1 -10   2 22.6208 2.13419   8
  -1 -10   2 25.9034 3.11937   9
   0 -10   2 457.193 32.6879   8
   0 -10   2 537.538 36.5852  14
   0 -10   2 555.781 30.7053  10
   0 -10   2 488.753 36.2865   6
   1 -10   2 13.5506 1.74336   9
   1 -10   2 8.63175 6.24261   6
   1 -10   2 9.50080 3.37605   5
   1 -10   2 10.3604 2.21631  14
   1 -10   2 12.3745 1.67824  10
   1 -10   2 10.7151 2.65012  15
   2 -10   2 135.735 10.3675  15
   2 -10   2 119.587 10.7032   5
   2 -10   2 152.116 8.84059  10
   2 -10   2 144.490 9.52999  13
   2 -10   2 153.207 11.0323  14
   3 -10   2 -2.1030 2.10487  15
   3 -10   2 4.07204 1.20301  12
   3 -10   2 3.93356 1.15540  10
   3 -10   2 4.34670 2.96177   5
   3 -10   2 2.12274 2.38815  14
   3 -10   2 1.62619 1.40965  13
   4 -10   2 153.268 10.2761  13
   4 -10   2 178.262 12.0518  14
   4 -10   2 153.416 10.0550  12
   4 -10   2 132.029 10.8002  15
   5 -10   2 11.0409 3.04839  14
   5 -10   2 11.3278 1.72084  13
   5 -10   2 8.12070 1.39793  12
   6 -10   2 84.6409 6.87877  14
   6 -10   2 83.8785 5.67384  12
   7 -10   2 28.6871 2.18864  12
   6   9  -2 26.9227 2.39632  11
   6   9  -2 32.0958 2.50408   9
   5   9  -2 66.6352 4.86202   9
   5   9  -2 61.7400 4.29460   8
   4   9  -2 18.4886 1.74913   8
  -4  -9   2 11.3387 1.77654   8
  -3  -9   2 62.9895 4.62512   8
  -2  -9   2 98.2992 6.72723   8
  -1  -9   2 7.86247 3.30389   3
  -1  -9   2 5.98311 3.53336   2
  -1  -9   2 7.44369 1.74685  14
  -1  -9   2 8.19975 1.82566   9
  -1  -9   2 11.5853 1.47515   8
   0  -9   2 16.0591 2.12040  14
   0  -9   2 13.7589 3.42967   3
   0  -9   2 15.3684 3.48005   2
   0  -9   2 13.8295 1.70436   8
   0  -9   2 16.2829 1.92872   9
   0  -9   2 11.4057 2.43371   5
   0  -9   2 16.1365 1.60588  10
   0  -9   2 16.0857 6.13130   6
   1  -9   2 3.73737 1.21985   9
   1  -9   2 1.73706 1.74378  14
   1  -9   2 4.28070 2.25482   5
   1  -9   2 2.85265 2.60128   2
   1  -9   2 2.01232 4.39382   6
   1  -9   2 2.16556 2.11138  15
   1  -9   2 5.27758 2.57458   3
   1  -9   2 5.51143 1.00821  10
   2  -9   2 0.87795 0.77917  10
   2  -9   2 -0.8046 1.81147  14
   2  -9   2 1.25250 0.94608  12
   2  -9   2 -0.8514 1.81627   3
   2  -9   2 0.80620 1.17245  13
   2  -9   2 2.16875 2.38699   5
   2  -9   2 0.34131 1.04743   9
   2  -9   2 -0.4299 1.95155  15
   3  -9   2 118.505 7.82706  12
   3  -9   2 120.879 7.29021  10
   3  -9   2 125.834 9.41163  14
   3  -9   2 106.826 8.57379  15
   3  -9   2 116.830 9.26925   5
   3  -9   2 120.041 8.05512  13
   4  -9   2 15.8799 1.65189  13
   4  -9   2 15.7758 2.33902  14
   4  -9   2 16.1659 3.38960   5
   4  -9   2 11.9824 2.28041  15
   4  -9   2 12.7218 1.60598  12
   5  -9   2 154.441 10.1883  12
   5  -9   2 155.617 12.0676  14
   5  -9   2 153.148 10.3744  13
   6  -9   2 9.97943 2.79101  14
   6  -9   2 12.3702 1.53033  11
   6  -9   2 10.2722 1.46763  12
   7  -9   2 0.15142 0.72799  12
   6   8  -2 11.3714 1.28306   9
   6   8  -2 11.1843 1.42135  11
   5   8  -2 4.52249 1.44348   9
   5   8  -2 3.57374 0.83711   8
   4   8  -2 0.09114 0.90997   8
   3   8  -2 7.79539 1.22061   8
  -2  -8   2 7.03449 1.24484   8
  -1  -8   2 40.9118 4.24522  14
  -1  -8   2 48.0685 5.49774   2
  -1  -8   2 43.8399 4.08500   9
  -1  -8   2 48.3256 3.44921   8
  -1  -8   2 46.6316 5.23845   3
   0  -8   2 20.6733 4.76512   6
   0  -8   2 18.5738 1.91134  10
   0  -8   2 18.6002 2.57025   5
   0  -8   2 12.9787 2.68928   2
   0  -8   2 21.9798 1.88432   8
   0  -8   2 19.4332 2.22648   9
   0  -8   2 25.3844 3.65081   3
   0  -8   2 21.2396 2.66288  14
   1  -8   2 12.9823 4.00611   6
   1  -8   2 14.4461 1.91615  14
   1  -8   2 11.2818 1.25166  12
   1  -8   2 9.85814 1.26484   9
   1  -8   2 10.7703 2.29366   5
   1  -8   2 14.2177 2.77068   2
   1  -8   2 12.7352 1.28019   8
   1  -8   2 12.0217 2.92691   3
   1  -8   2 11.5075 1.20008  10
   1  -8   2 12.3950 1.37990  13
   2  -8   2 24.1763 1.85705  10
   2  -8   2 22.8605 2.59434  15
   2  -8   2 18.3197 3.61731   6
   2  -8   2 22.8149 2.33822  13
   2  -8   2 23.4636 2.62463  14
   2  -8   2 25.5875 2.92605   3
   2  -8   2 26.7346 2.11295  12
   2  -8   2 23.1401 2.92170   2
   2  -8   2 22.6969 3.09239   5
   2  -8   2 21.5039 2.25940   9
   3  -8   2 9.45229 1.87611  15
   3  -8   2 11.7785 1.15015  10
   3  -8   2 12.0340 1.54809  13
   3  -8   2 11.8949 2.21273  14
   3  -8   2 12.7612 1.35184  12
   3  -8   2 8.87118 2.62698   5
   4  -8   2 64.5937 5.80564  14
   4  -8   2 55.5386 5.74156   5
   4  -8   2 68.0521 4.45395  12
   4  -8   2 59.2782 4.64014  13
   4  -8   2 64.7072 4.69293  11
   4  -8   2 62.2148 3.84358  10
   4  -8   2 53.0583 4.98556  15
   5  -8   2 12.5466 1.51960  12
   5  -8   2 12.7911 1.79316  13
   5  -8   2 12.1983 1.82286  11
   5  -8   2 9.32695 3.07985   5
   5  -8   2 8.39393 2.65766  14
   6  -8   2 82.5547 5.65277  12
   6  -8   2 87.8670 6.15436  11
   6  -8   2 81.0186 6.01235  18
   6  -8   2 79.3520 7.13932  14
   7  -8   2 11.8865 1.44610  12
   7  -8   2 11.8991 1.53613  11
   7  -8   2 12.2214 1.76279  13
   8  -8   2 28.1002 2.22929  12
   8  -8   2 34.6356 2.83430  11
   7   7  -2 5.84398 0.84505   9
   7   7  -2 3.62611 0.96234  11
   7   7  -2 6.87042 1.04487  10
   6   7  -2 5.00566 1.33189   9
   6   7  -2 8.43715 1.31354  11
   5   7  -2 0.81336 1.33554   9
   5   7  -2 0.72205 0.77924   8
   4   7  -2 17.9667 1.83415   8
   3   7  -2 56.0640 3.99016   8
  -2  -7   2 28.7911 2.44553   8
  -1  -7   2 450.185 30.0482   2
  -1  -7   2 473.113 31.1020   3
  -1  -7   2 426.722 29.2396   5
   0  -7   2 191.562 12.8416   5
   0  -7   2 180.074 13.1251   2
   0  -7   2 190.422 13.6766   3
   1  -7   2 152.691 10.9706   2
   1  -7   2 168.054 11.0663   5
   1  -7   2 150.001 12.4898   6
   1  -7   2 154.779 11.4105   3
   2  -7   2 728.672 47.1791   5
   2  -7   2 748.260 47.3884   2
   2  -7   2 672.148 49.2055   6
   2  -7   2 757.034 48.8975   3
   3  -7   2 205.231 12.9324  10
   3  -7   2 221.511 14.0416  13
   3  -7   2 210.758 15.8266  14
   3  -7   2 221.844 14.9025  11
   3  -7   2 223.436 14.8799   5
   3  -7   2 214.837 13.9326  12
   4  -7   2 265.463 20.4054  18
   4  -7   2 323.595 19.8049  13
   4  -7   2 306.480 22.2572  14
   4  -7   2 323.356 21.0286  11
   4  -7   2 296.248 18.2293  10
   4  -7   2 322.557 19.6992  12
   4  -7   2 306.594 20.7083   5
   5  -7   2 3.06667 1.54960  18
   5  -7   2 0.00744 1.26546  13
   5  -7   2 0.39871 1.04277  12
   5  -7   2 0.40055 2.22298   5
   5  -7   2 -0.5078 1.31219  11
   5  -7   2 -0.8093 1.97689  14
   6  -7   2 7.83446 1.35133  11
   6  -7   2 4.09130 2.21124  14
   6  -7   2 4.93519 1.15423  17
   6  -7   2 7.81161 1.90991  18
   6  -7   2 10.1415 1.43169  12
   6  -7   2 8.80329 1.62404  13
   7  -7   2 3.01876 1.39717  13
   7  -7   2 3.47691 1.18326  11
   7  -7   2 3.63718 0.93026  12
   7  -7   2 2.80708 1.77174  18
   8  -7   2 3.73600 1.48752  11
   8  -7   2 3.60826 0.72950  12
   8  -7   2 3.26641 1.17771  18
   7   6  -2 309.835 19.6653   9
   7   6  -2 257.722 17.0572  10
   7   6  -2 283.613 19.4857  11
   6   6  -2 30.9880 2.17223   8
   6   6  -2 33.9436 3.50297  11
   5   6  -2 115.413 7.56825   8
   5   6  -2 98.0000 9.14525   4
   5   6  -2 121.716 8.55040   9
   4   6  -2 112.824 8.54793   9
   4   6  -2 119.454 7.76542   8
   3   6  -2 111.208 7.37485   8
  -1  -6   2 122.297 8.74129   5
  -1  -6   2 132.028 9.79902   3
  -1  -6   2 129.851 9.32980   2
   0  -6   2 3.87860 1.95917   3
   0  -6   2 4.30600 1.39982   5
   0  -6   2 0.14630 1.75303   2
   1  -6   2 2.15961 1.80919   3
   1  -6   2 3.11026 1.43387   5
   1  -6   2 1.58355 1.47364   2
   1  -6   2 2.20504 2.35220   6
   2  -6   2 0.24634 1.19783   2
   2  -6   2 4.00268 2.20066   6
   2  -6   2 0.01307 1.09580   3
   2  -6   2 -2.4649 1.29430   5
   3  -6   2 21.6785 2.85677   5
   3  -6   2 15.5624 2.48861   6
   4  -6   2 58.2806 5.31236  14
   4  -6   2 64.9979 5.58023   5
   4  -6   2 65.4494 5.36653   4
   4  -6   2 65.0549 4.72775  11
   4  -6   2 59.9847 4.27816  12
   4  -6   2 65.0028 4.69395  18
   4  -6   2 56.2540 3.69996  10
   4  -6   2 62.0467 4.43845  13
   5  -6   2 110.369 8.74211   5
   5  -6   2 120.865 8.12217  11
   5  -6   2 102.895 8.85172  14
   5  -6   2 109.836 8.75822   4
   5  -6   2 115.626 8.08275  18
   5  -6   2 117.811 7.62587  12
   5  -6   2 111.150 7.05179  17
   5  -6   2 117.715 7.75022  13
   6  -6   2 -0.0897 1.68781  18
   6  -6   2 1.59252 1.07846  17
   6  -6   2 1.56792 1.12588  12
   6  -6   2 -0.7082 1.46499  11
   6  -6   2 -2.8682 2.41666   4
   6  -6   2 0.37290 0.94945  16
   6  -6   2 1.26980 1.33069  13
   7  -6   2 40.2359 3.23710  12
   7  -6   2 39.7939 3.44475  18
   7  -6   2 36.1319 2.78485  17
   7  -6   2 44.4020 3.82726  11
   8  -6   2 1.88686 1.13254  11
   8  -6   2 3.23794 0.98010  12
   8  -6   2 3.88527 1.23642  18
   8   5  -2 53.1352 3.42047  10
   8   5  -2 53.6081 4.11334  11
   7   5  -2 30.0985 3.27334  11
   7   5  -2 28.0533 2.49189  10
   7   5  -2 30.3125 2.50366   9
   6   5  -2 4.04758 1.26174  10
   6   5  -2 4.94235 1.68050  11
   6   5  -2 6.00816 1.23267   9
   6   5  -2 5.50787 1.36934  18
   6   5  -2 5.58502 0.66965   8
   5   5  -2 -1.8823 3.03296   3
   5   5  -2 1.02942 1.20716  10
   5   5  -2 3.33703 3.12340   4
   5   5  -2 -0.3410 0.83227   8
   5   5  -2 0.35816 2.18327   2
   5   5  -2 -0.0889 1.05637   9
   5   5  -2 0.37869 1.13217  18
   4   5  -2 507.922 29.6249   8
   4   5  -2 485.208 32.2590   3
   4   5  -2 426.930 30.4791  18
   4   5  -2 431.852 31.9168   9
   3   5  -2 42.4448 4.57794   3
   3   5  -2 37.3444 3.87886   2
   2   5  -2 309.143 20.8321   3
   2   5  -2 303.845 19.9186   2
  -2  -5   2 286.472 20.7464   3
  -2  -5   2 285.891 19.9876   2
   1   5  -2 2.98507 1.59782   2
   1   5  -2 5.51010 1.75668   1
   1   5  -2 2.21980 2.05653   3
   1   5  -2 2.59817 1.66871   1
  -1  -5   2 2.42183 1.41205   1
  -1  -5   2 4.97899 2.05337   3
  -1  -5   2 2.38302 1.75974   1
  -1  -5   2 2.43933 1.46176   2
  -1  -5   2 1.44340 0.95176   5
   0   5  -2 596.844 41.6707   1
   0   5  -2 597.084 41.6499   1
   0  -5   2 540.285 41.5916   1
   0  -5   2 647.679 40.7181   3
   0  -5   2 581.146 41.7040   1
   0  -5   2 604.730 38.8494   5
   0  -5   2 653.075 39.3596   2
  -1   5  -2 3.59431 1.23416   1
  -1   5  -2 3.21973 1.19347   1
   1  -5   2 1.43592 0.90487   2
   1  -5   2 2.18120 1.04310   1
   1  -5   2 0.79768 2.26649   6
   1  -5   2 0.25560 1.31844   1
   1  -5   2 4.11802 1.24695   2
   1  -5   2 0.31550 1.51675   5
   1  -5   2 1.85435 1.32183   3
  -2   5  -2 41.4464 3.49790   1
   2  -5   2 38.6134 3.49619   1
   2  -5   2 42.3131 3.35893   3
   2  -5   2 41.4430 3.59131   1
   2  -5   2 49.1092 3.46129   3
   2  -5   2 44.3375 3.74192   5
   2  -5   2 44.5809 4.05117   6
   2  -5   2 41.0147 3.29520   2
   2  -5   2 50.3369 3.41457   2
   3  -5   2 13.2921 1.96161   4
   3  -5   2 12.1113 1.93029   5
   3  -5   2 10.9188 1.76190   6
   4  -5   2 63.5459 5.27822   5
   4  -5   2 59.3035 4.60522  11
   4  -5   2 64.0512 5.21545   4
   4  -5   2 59.4058 4.21391  12
   5  -5   2 71.6169 5.21722  13
   5  -5   2 78.5199 5.34340  18
   5  -5   2 78.6706 5.60495  11
   5  -5   2 69.5429 4.74674  17
   5  -5   2 65.3391 4.89390  16
   5  -5   2 77.6245 5.12905  12
   5  -5   2 83.3681 6.38052   4
   6  -5   2 426.012 28.4204  16
   6  -5   2 493.774 31.3651  11
   6  -5   2 472.089 27.4456  17
   6  -5   2 490.178 30.4911  18
   6  -5   2 454.941 29.3506  12
   6  -5   2 447.285 29.4586  13
   6  -5   2 419.617 31.0669   4
   7  -5   2 4.74879 1.90057  18
   7  -5   2 6.82034 1.37677  11
   7  -5   2 5.57703 1.32162  17
   7  -5   2 7.02448 1.33809  12
   8  -5   2 227.649 14.0268  18
   8  -5   2 185.728 14.2361  11
   9  -5   2 18.4935 2.06940  11
   9  -5   2 20.0944 1.84240  18
   8   4  -2 40.7937 3.26705  11
   8   4  -2 39.8772 2.74051  10
   7   4  -2 0.21403 0.87412   9
   7   4  -2 1.33631 0.96976  18
   7   4  -2 0.69658 1.65923  11
   7   4  -2 0.94618 0.99011  10
   6   4  -2 10.4435 1.33485   9
   6   4  -2 9.99177 3.90346   4
   6   4  -2 9.44115 1.28167  10
   6   4  -2 10.0764 1.86327  11
   6   4  -2 12.6238 1.67189  18
   5   4  -2 35.0550 3.01873   9
   5   4  -2 29.7087 4.37631   4
   5   4  -2 37.1630 4.48191   2
   5   4  -2 36.1141 3.96103   7
   5   4  -2 35.5755 4.62779   3
   5   4  -2 35.2834 2.54453   8
   5   4  -2 34.2472 2.59830  10
   5   4  -2 32.6194 2.76347  18
   4   4  -2 2.43382 0.86016   8
   4   4  -2 3.87879 2.67644   3
   4   4  -2 3.43898 2.07136   2
   4   4  -2 3.23447 1.45505   7
   4   4  -2 3.26648 0.94629  18
   3   4  -2 214.826 14.2628   7
   3   4  -2 219.741 14.8144   2
   3   4  -2 218.853 15.5308   3
   2   4  -2 84.0359 6.67031   3
   2   4  -2 91.6068 6.25143   2
   2   4  -2 85.2886 6.64507   1
   2   4  -2 85.0662 5.67636   7
   2   4  -2 76.7408 6.49566   1
  -2  -4   2 80.4020 6.60590   1
  -2  -4   2 85.8449 6.16854   2
  -2  -4   2 85.0948 6.66837   3
  -2  -4   2 71.1948 6.59968   1
   1   4  -2 721.305 46.3464   3
   1   4  -2 673.742 47.3986   1
   1   4  -2 677.213 47.3947   1
   1   4  -2 649.088 43.4695   7
   1   4  -2 667.065 44.7209   2
  -1  -4   2 730.713 44.7809   2
  -1  -4   2 684.061 44.0766   5
  -1  -4   2 697.321 47.4563   1
  -1  -4   2 715.760 46.3123   3
  -1  -4   2 664.153 47.3736   1
   0   4  -2 17.2860 2.35807   3
   0   4  -2 18.0332 2.26620   2
   0   4  -2 27.2005 2.57450   1
   0   4  -2 19.4117 2.62188   1
   0  -4   2 24.4123 2.69880   1
   0  -4   2 24.5870 2.41075   2
   0  -4   2 20.9929 2.42749   1
   0  -4   2 23.2840 2.39808   3
   0  -4   2 24.0203 2.14689   5
  -1   4  -2 174.727 11.8250   1
  -1   4  -2 184.654 11.8225   1
   1  -4   2 174.638 11.1103   2
   1  -4   2 168.368 11.8172   1
   1  -4   2 145.096 11.0717   2
   1  -4   2 171.978 11.5561   3
   1  -4   2 174.426 11.8191   1
   1  -4   2 171.890 11.1667   5
   1  -4   2 160.609 11.7991   6
   1  -4   2 144.736 11.4433   3
  -2   4  -2 39.3795 3.09732   1
   2  -4   2 36.5448 3.03594   2
   2  -4   2 37.4176 3.39524   6
   2  -4   2 38.2309 3.10254   1
   2  -4   2 38.4897 3.03123   3
   2  -4   2 41.2534 2.93580   2
   2  -4   2 42.7588 3.08950   3
   2  -4   2 43.5666 3.43848   4
   2  -4   2 36.2003 3.23472   1
   2  -4   2 45.0919 3.40793   5
   3  -4   2 505.933 39.0210   6
   3  -4   2 604.496 37.7976   5
   3  -4   2 646.383 38.7274   4
   4  -4   2 934.792 61.8360   5
   4  -4   2 988.627 63.4262   4
   5  -4   2 63.9302 4.90085  18
   5  -4   2 64.3266 4.25130  17
   5  -4   2 67.6768 4.57807  12
   5  -4   2 60.3176 4.41182  16
   5  -4   2 62.6287 4.60303  13
   5  -4   2 67.8130 5.05877  11
   5  -4   2 80.8168 5.95974   4
   6  -4   2 198.319 12.0479  12
   6  -4   2 184.786 11.2480  17
   6  -4   2 194.253 12.9636  11
   6  -4   2 178.560 12.4727  18
   6  -4   2 170.841 11.6386  16
   6  -4   2 174.029 13.4517   4
   7  -4   2 9.99829 1.88370  11
   7  -4   2 8.73535 1.40522  12
   7  -4   2 9.79960 1.47520  17
   7  -4   2 9.63335 1.97733  18
   8  -4   2 1.53434 1.76638  18
   8  -4   2 -0.1771 1.17509  11
   9  -4   2 33.1447 2.78115  18
   9  -4   2 38.7663 3.04010  11
   8   3  -2 53.5416 4.28071  18
   8   3  -2 64.2483 3.87629  10
   8   3  -2 59.8959 4.79775  11
   7   3  -2 257.361 17.2490  11
   7   3  -2 231.817 16.5349  18
   7   3  -2 247.523 14.9583  10
   7   3  -2 251.564 17.1199   9
   6   3  -2 236.580 15.9608  18
   6   3  -2 248.421 14.4485  10
   6   3  -2 226.868 16.5585   2
   6   3  -2 245.850 16.6174  11
   6   3  -2 230.624 16.2406   7
   6   3  -2 226.029 17.3513   4
   6   3  -2 242.202 16.5836   9
   5   3  -2 1418.85 87.2365   7
   5   3  -2 1341.22 81.5151  10
   5   3  -2 1300.92 87.3520   8
   5   3  -2 1353.53 90.5971   4
   5   3  -2 1412.21 92.2886   3
   5   3  -2 1389.14 94.1687   9
   5   3  -2 1385.77 90.0682  18
   4   3  -2 2.54884 2.18973   3
   4   3  -2 4.22234 1.72796   2
   4   3  -2 2.26693 1.59576   7
   3   3  -2 745.865 46.0946   7
   3   3  -2 743.127 48.9022   3
   3   3  -2 651.948 49.9647   1
   3   3  -2 756.122 47.2244   2
   2   3  -2 3.55820 1.36859   2
   2   3  -2 0.86392 1.01352   7
   2   3  -2 3.70373 1.76762   3
   2   3  -2 2.43228 1.26622   1
   2   3  -2 2.88583 1.51904   1
  -2  -3   2 2.75251 1.65713   3
  -2  -3   2 3.28354 1.14415   2
  -2  -3   2 3.08234 1.37493   1
  -2  -3   2 1.93291 0.56240   5
  -2  -3   2 1.62739 1.55836   1
   1   3  -2 149.610 11.3416   1
   1   3  -2 166.070 11.1943   3
   1   3  -2 158.538 10.2429   7
   1   3  -2 176.597 11.4555   1
   1   3  -2 161.187 10.7097   2
  -1  -3   2 147.598 10.6469   2
  -1  -3   2 160.794 11.1711   3
  -1  -3   2 140.626 10.3576   5
  -1  -3   2 161.181 11.3704   1
  -1  -3   2 174.793 11.4497   1
   0   3  -2 8.22771 1.30545   3
   0   3  -2 6.50361 1.34009   1
   0   3  -2 11.7506 1.57104   1
   0   3  -2 12.0967 1.38306   2
   0  -3   2 8.88138 1.32956   3
   0  -3   2 5.97539 1.09240   5
   0  -3   2 6.78392 1.25160   2
   0  -3   2 11.1724 1.52893   1
   0  -3   2 7.11044 1.41119   1
  -1   3  -2 130.606 9.20777   1
  -1   3  -2 143.474 9.24330   1
   1  -3   2 139.064 8.89903   4
   1  -3   2 114.613 9.11406   6
   1  -3   2 136.195 8.64336   2
   1  -3   2 119.535 8.97664   3
   1  -3   2 131.850 9.18755   1
   1  -3   2 141.518 9.27686   1
   1  -3   2 127.484 8.71083   5
   1  -3   2 113.570 8.66477   2
   1  -3   2 133.687 8.96637   3
  -2   3  -2 4.39789 0.89137   1
  -2   3  -2 2.49315 0.96970   1
   2  -3   2 4.19379 0.73869   2
   2  -3   2 3.33055 0.96935   6
   2  -3   2 3.58537 0.83944   3
   2  -3   2 3.40347 1.18140   4
   2  -3   2 3.52309 1.04507   2
   2  -3   2 4.56347 0.85889   3
   2  -3   2 4.29116 0.79394   1
   2  -3   2 3.00663 1.18150   1
   2  -3   2 3.92936 1.29350   5
   3  -3   2 0.32575 1.18742   5
   3  -3   2 1.53036 1.32844   4
   3  -3   2 0.20964 0.99817   6
   3  -3   2 0.00689 1.21029   7
   4  -3   2 180.256 11.5633   7
   4  -3   2 162.348 11.5408   5
   4  -3   2 173.705 12.1468   4
   5  -3   2 78.6922 5.54690  18
   5  -3   2 79.9447 5.86361  11
   5  -3   2 81.8318 5.02143  17
   5  -3   2 83.2801 5.36072  12
   5  -3   2 76.4170 5.22181  16
   5  -3   2 81.1501 6.91183   4
   5  -3   2 72.7132 4.78257  10
   6  -3   2 62.2964 4.68921  18
   6  -3   2 64.7306 4.06949  17
   6  -3   2 58.0395 3.62678  10
   6  -3   2 55.6175 4.61072  11
   6  -3   2 63.2150 4.25784  16
   6  -3   2 57.9569 4.32000  12
   6  -3   2 50.4073 5.77748   4
   7  -3   2 59.9962 4.82245  18
   7  -3   2 56.9215 4.96114  11
   7  -3   2 58.1260 4.27718  12
   7  -3   2 58.7627 4.11133  17
   8  -3   2 7.55113 1.46251  11
   8  -3   2 10.2077 1.51023  18
   9  -3   2 0.54011 0.87301  18
   9  -3   2 3.37817 0.91265  11
   9   2  -2 26.1807 2.11080  18
   8   2  -2 7.78728 1.37261  18
   8   2  -2 13.5858 1.37183  10
   8   2  -2 9.22259 1.78284  11
   7   2  -2 28.5509 2.70803  18
   7   2  -2 32.4251 2.96848  11
   7   2  -2 28.7566 2.39919  17
   7   2  -2 30.3689 2.28428  10
   6   2  -2 66.1460 4.33344  10
   6   2  -2 61.0561 6.51219   4
   6   2  -2 64.9673 4.82667  18
   6   2  -2 67.2047 5.63116   2
   6   2  -2 66.2445 6.07798   7
   6   2  -2 68.1696 4.34404  17
   6   2  -2 64.0048 5.86777   3
   6   2  -2 69.2492 4.96543   9
   6   2  -2 65.1353 5.22071  11
   5   2  -2 5.14749 0.90887  17
   5   2  -2 4.37390 2.17917   7
   5   2  -2 5.61893 0.61530   8
   5   2  -2 5.27706 1.98434   2
   5   2  -2 4.62430 1.19672  18
   5   2  -2 7.34784 2.32494   3
   5   2  -2 6.71694 1.15361  16
   5   2  -2 4.34880 0.92982   9
   5   2  -2 3.85818 2.36722   4
   5   2  -2 7.31719 0.93277  10
   4   2  -2 38.1993 4.24969   4
   4   2  -2 42.1194 4.01185   3
   4   2  -2 39.6461 3.44566   7
   4   2  -2 35.7628 3.53967   2
   3   2  -2 0.25199 0.56640   1
   3   2  -2 3.08580 1.37715   7
   3   2  -2 3.12646 1.27787   2
   3   2  -2 2.16821 1.30274   1
   3   2  -2 3.82152 1.59874   3
  -3  -2   2 2.51050 1.45831   1
  -3  -2   2 1.98764 1.62007   1
   2   2  -2 406.803 27.2476   3
   2   2  -2 397.548 27.8723   1
   2   2  -2 429.885 27.9252   1
   2   2  -2 424.996 26.3320   2
   2   2  -2 414.757 25.7101   7
  -2  -2   2 377.717 27.2344   3
  -2  -2   2 404.479 27.9335   1
  -2  -2   2 408.058 27.9302   1
  -2  -2   2 361.492 26.2970   2
   1   2  -2 43.5545 3.43177   2
   1   2  -2 39.4869 3.61299   1
   1   2  -2 48.5134 3.77183   1
   1   2  -2 44.2369 3.53204   3
   1   2  -2 41.1246 3.12655   7
  -1  -2   2 38.7031 3.36217   2
  -1  -2   2 44.6686 3.72964   1
  -1  -2   2 43.5910 3.73309   1
  -1  -2   2 38.9183 3.09608   5
  -1  -2   2 41.3618 3.51241   3
   0   2  -2 133.784 8.50874   1
   0   2  -2 114.850 8.26226   3
   0   2  -2 112.551 7.95038   2
   0   2  -2 125.082 8.43562   1
   0  -2   2 118.213 7.93337   2
   0  -2   2 115.398 8.35474   3
   0  -2   2 117.463 8.25152   3
   0  -2   2 126.185 8.48893   1
   0  -2   2 107.534 7.83294   5
   0  -2   2 122.561 8.44381   1
  -1   2  -2 586.558 36.2795   1
   1  -2   2 560.747 35.3682   3
   1  -2   2 543.898 34.2144   2
   1  -2   2 491.388 35.3684   3
   1  -2   2 515.269 33.9194   5
   1  -2   2 477.645 35.1205   6
   1  -2   2 527.346 36.2884   1
   1  -2   2 589.390 36.2378   1
   1  -2   2 470.213 34.2524   2
   1  -2   2 529.903 34.7330   4
  -2   2  -2 20.0299 2.18955   1
  -2   2  -2 21.2866 2.03241   1
   2  -2   2 19.0980 1.64708   2
   2  -2   2 21.0130 2.20899   4
   2  -2   2 19.2185 1.89895   1
   2  -2   2 23.4789 1.94959   3
   2  -2   2 17.3997 1.93474   5
   2  -2   2 22.0745 2.04734   7
   2  -2   2 19.6959 1.80222   3
   2  -2   2 17.5091 1.86954   6
   2  -2   2 18.0147 1.89152   2
   2  -2   2 18.8955 2.15984   1
  -3   2  -2 7.61539 1.02712   1
  -3   2  -2 6.71205 1.33960   1
   3  -2   2 7.54922 0.96334   2
   3  -2   2 7.60351 1.72270   4
   3  -2   2 8.37133 1.05290   3
   3  -2   2 6.42505 0.92556   2
   3  -2   2 5.78286 1.04558   1
   3  -2   2 8.93736 1.61354   7
   3  -2   2 8.54471 1.12545   3
   3  -2   2 7.43584 1.24955   5
   3  -2   2 6.27525 1.04301   1
   4  -2   2 45.1709 3.22683   2
   4  -2   2 45.5933 3.42545   3
   4  -2   2 46.7393 3.88648   7
   4  -2   2 45.6088 3.41382   3
   4  -2   2 46.5909 4.35187   4
   4  -2   2 49.8811 3.29540   2
   5  -2   2 170.230 11.0850  18
   5  -2   2 159.964 11.4211  11
   5  -2   2 170.534 12.0020   4
   5  -2   2 165.435 10.3422  16
   5  -2   2 155.303 9.81775  10
   5  -2   2 169.533 9.95331  17
   5  -2   2 155.855 10.6186  12
   6  -2   2 134.881 8.97296  12
   6  -2   2 137.976 8.33100  17
   6  -2   2 133.623 9.21891  18
   6  -2   2 130.065 10.4303   4
   6  -2   2 138.533 9.67041  11
   6  -2   2 129.740 8.12127  10
   7  -2   2 189.790 11.3581  10
   7  -2   2 194.122 13.3252  11
   7  -2   2 185.408 11.5856  17
   7  -2   2 191.137 12.9030  18
   8  -2   2 91.9979 6.72992  11
   8  -2   2 92.6208 6.53332  18
   9  -2   2 6.36871 1.09743  18
   9  -2   2 11.0028 1.17039  11
   9   1  -2 5.63617 1.07204  18
   9   1  -2 6.45852 1.25501  11
   8   1  -2 39.9590 2.85139  17
   8   1  -2 38.5983 3.32938  11
   8   1  -2 37.3872 2.60612  10
   8   1  -2 36.8067 3.18810  18
   7   1  -2 -0.2362 1.04605  17
   7   1  -2 1.51620 1.12367  11
   7   1  -2 0.02437 1.42512  18
   7   1  -2 0.72641 0.65174  10
   6   1  -2 63.6993 5.28463   2
   6   1  -2 71.6925 4.74454  16
   6   1  -2 70.6078 4.90251   9
   6   1  -2 65.3604 5.25794  11
   6   1  -2 65.5080 4.31749  10
   6   1  -2 69.8946 5.08500  18
   6   1  -2 66.9001 5.60541   3
   6   1  -2 68.9788 4.43955  17
   6   1  -2 69.4822 5.83557   7
   6   1  -2 61.5564 6.30139   4
   5   1  -2 6.73346 0.80980  10
   5   1  -2 5.15566 1.15399  18
   5   1  -2 3.87497 1.88688   3
   5   1  -2 6.04241 1.72293   2
   5   1  -2 8.38594 1.90850   7
   5   1  -2 5.71748 2.14819   4
   5   1  -2 5.72290 0.81648   9
   5   1  -2 7.62968 1.13091  16
   5   1  -2 5.61151 1.21178  11
   4   1  -2 64.3797 4.76610   7
   4   1  -2 50.8249 4.83562   4
   4   1  -2 58.6575 4.77567   3
   4   1  -2 61.0772 4.45631   2
   3   1  -2 632.674 38.3760   2
   3   1  -2 523.578 38.3089   2
   3   1  -2 603.990 37.6370   7
   3   1  -2 630.893 39.7259   3
   3   1  -2 548.885 39.6737   3
   3   1  -2 595.623 38.9795   4
   3   1  -2 583.767 40.6107   1
   3   1  -2 599.953 40.6393   1
  -3  -1   2 579.023 40.6987   1
  -3  -1   2 609.728 40.6946   1
   2   1  -2 94.4020 6.42932   3
   2   1  -2 74.6525 6.02329   2
   2   1  -2 94.1943 6.13797   2
   2   1  -2 72.7858 6.28251   3
   2   1  -2 102.664 6.58912   1
   2   1  -2 97.1734 6.08791   7
   2   1  -2 87.2070 6.47337   1
  -2  -1   2 84.4035 6.39191   3
  -2  -1   2 91.7241 6.61598   1
  -2  -1   2 100.119 6.63159   1
   1   1  -2 2383.71 159.827   3
   1   1  -2 2529.84 163.402   1
   1   1  -2 2228.58 151.036   7
   1   1  -2 2358.82 163.610   1
   1   1  -2 2268.48 154.350   2
  -1  -1   2 2277.56 159.183   3
  -1  -1   2 2323.60 154.001   2
  -1  -1   2 2496.11 163.544   1
  -1  -1   2 2635.58 163.969   1
   0   1  -2 2102.85 134.434   1
   0   1  -2 1923.02 126.682   2
   0   1  -2 1925.87 130.835   3
   0   1  -2 2004.67 134.480   1
   0  -1   2 1997.11 131.319   3
   0  -1   2 1894.87 134.030   1
   0  -1   2 1976.01 134.788   1
   0  -1   2 1919.98 127.225   2
   0  -1   2 1939.20 128.688   4
  -1   1  -2 2727.35 200.398   1
  -1   1  -2 3165.06 200.574   1
   1  -1   2 3121.54 192.140   4
   1  -1   2 2521.07 188.824   2
   1  -1   2 2927.36 200.752   1
   1  -1   2 3138.72 196.024   3
  -2   1  -2 141.889 11.7854   1
  -2   1  -2 179.659 11.6628   1
   2  -1   2 157.204 11.6905   1
   2  -1   2 178.337 10.8492   7
   2  -1   2 175.586 10.9562   2
   2  -1   2 140.972 10.9599   2
   2  -1   2 179.497 11.3345   3
   2  -1   2 166.589 11.3490   3
   2  -1   2 156.252 10.7957   5
   2  -1   2 164.798 11.6573   1
   2  -1   2 163.824 11.2745   4
  -3   1  -2 3351.58 227.283   1
   3  -1   2 3221.49 214.838   2
   3  -1   2 3661.50 222.778   3
   3  -1   2 3426.05 215.441   2
   3  -1   2 3289.66 221.920   3
   3  -1   2 3175.35 212.379   5
   3  -1   2 3612.24 217.717   4
   3  -1   2 2941.47 227.286   1
   3  -1   2 3473.79 210.620   7
   3  -1   2 3204.13 227.313   1
   4  -1   2 65.2780 5.43638   3
   4  -1   2 75.2856 5.36840   7
   4  -1   2 70.9918 5.11790   2
   4  -1   2 69.2116 5.79258   4
   5  -1   2 292.753 19.4638   3
   5  -1   2 266.470 18.3469  12
   5  -1   2 284.664 18.9922  18
   5  -1   2 289.500 19.5837  11
   5  -1   2 312.306 19.9622   4
   5  -1   2 284.256 17.1478  17
   5  -1   2 277.366 17.0856  10
   6  -1   2 228.171 13.0630  17
   6  -1   2 224.372 14.5321  18
   6  -1   2 218.264 14.9278  11
   6  -1   2 204.647 13.9464  12
   6  -1   2 202.842 12.9263  10
   6  -1   2 210.444 15.6541   4
   7  -1   2 11.2164 1.55658  18
   7  -1   2 11.3605 2.00533  11
   7  -1   2 11.3399 1.09931  10
   7  -1   2 11.2340 1.29077  17
   8  -1   2 1.28035 1.14281  11
   8  -1   2 1.24357 1.13401  18
   9  -1   2 -1.4004 0.66777  11
   9   0  -2 10.5573 1.15809  17
   9   0  -2 10.1210 1.26363  11
   9   0  -2 11.7339 1.42045  18
   8   0  -2 12.6336 1.58281  17
   8   0  -2 14.7450 2.07698  18
   8   0  -2 18.0348 1.83572  11
   7   0  -2 166.472 11.8114  11
   7   0  -2 170.328 10.2327  17
   7   0  -2 153.212 12.1366   7
   7   0  -2 166.494 11.3435  18
   7   0  -2 168.550 10.0472  10
   6   0  -2 130.173 9.74271   7
   6   0  -2 129.314 8.14217  10
   6   0  -2 137.325 9.17148  18
   6   0  -2 136.902 8.27345  17
   6   0  -2 130.237 10.1275   4
   6   0  -2 135.497 9.51962  11
   6   0  -2 136.249 8.65665  16
   5   0  -2 429.751 29.2436   4
   5   0  -2 456.802 29.3765   3
   5   0  -2 405.830 28.7373  18
   5   0  -2 457.534 28.2745   7
   5   0  -2 433.551 26.9737  16
   5   0  -2 422.135 25.9256  10
   5   0  -2 462.848 28.4039   2
   5   0  -2 418.070 29.9298   9
   4   0  -2 366.688 22.0449   2
   4   0  -2 326.034 22.7942   3
   4   0  -2 328.731 22.7812   3
   4   0  -2 317.627 21.9661   2
   4   0  -2 360.862 21.8813   7
   4   0  -2 320.287 22.6231   4
   3   0  -2 2515.80 174.877   2
   3   0  -2 2955.43 175.806   2
   3   0  -2 2396.53 177.094   4
   3   0  -2 2746.76 185.052   1
   3   0  -2 2580.68 180.685   3
   3   0  -2 2773.16 185.045   1
   3   0  -2 2831.76 171.271   7
   3   0  -2 2732.04 181.630   3
  -3   0   2 2746.33 185.093   1
  -3   0   2 2866.49 185.111   1
   2   0  -2 1781.05 112.535   7
   2   0  -2 1828.37 121.920   1
   2   0  -2 1765.39 118.288   6
   2   0  -2 1610.69 118.753   3
   2   0  -2 1816.10 115.417   2
   2   0  -2 1696.37 114.940   2
   2   0  -2 1781.25 122.109   1
   2   0  -2 1775.35 118.971   3
  -2   0   2 1939.85 121.684   1
  -2   0   2 1848.63 122.148   1
   1   0  -2 22.9918 2.35493   6
   1   0  -2 23.3567 1.87160   3
   1   0  -2 25.4578 2.17897   1
   1   0  -2 19.6660 1.71636   2
   1   0  -2 21.6564 1.93528   1
   1   0  -2 24.2744 1.87251   2
   1   0  -2 18.9956 1.78804   3
  -1   0   2 21.9162 2.00660   1
  -1   0   2 22.3130 1.84154   3
  -1   0   2 25.2326 2.11831   1
   0   0  -2 1037.16 72.7940   6
   0   0  -2 1104.05 70.9514   2
   0   0  -2 1071.56 75.0225   1
   0   0  -2 1074.19 75.0829   1
   0   0  -2 1134.88 73.2441   3
   0   0   2 1154.31 70.8969   2
   0   0   2 1154.77 73.2292   3
   0   0   2 978.166 71.6555   4
   0   0   2 1081.14 75.0669   1
   0   0   2 1201.87 75.0454   1
  -1   0  -2 25.3067 2.57321   1
  -1   0  -2 30.2303 3.03451   1
  -1   0  -2 27.5641 2.46107   3
  -1   0  -2 26.6585 2.64183   2
   1   0   2 22.5347 2.39916   4
   1   0   2 25.2046 2.36212   3
   1   0   2 26.0521 2.66241   1
   1   0   2 26.0326 2.28126   2
   1   0   2 26.9970 2.40749   3
   1   0   2 26.0121 2.53517   1
  -2   0  -2 27.0262 3.35051   1
  -2   0  -2 29.3379 2.68414   1
   2   0   2 23.4752 2.67713   4
   2   0   2 26.9651 2.47754   7
   2   0   2 26.1233 2.40559   2
   2   0   2 24.8611 2.47450   3
   2   0   2 27.1066 2.67524   1
   2   0   2 20.8647 2.50138   2
   2   0   2 25.9222 2.63778   3
   2   0   2 27.0732 2.93779   1
  -3   0  -2 5.15212 1.79447   1
   3   0   2 8.72819 1.61957   3
   3   0   2 6.88369 1.78628   4
   3   0   2 9.15985 1.54267   2
   3   0   2 6.23295 1.55669   1
   3   0   2 6.37007 1.41457   1
   3   0   2 6.79630 1.42539   7
   4   0   2 60.0331 4.70367   2
   4   0   2 59.3183 5.20885   3
   4   0   2 58.1351 5.20808   4
   4   0   2 60.6341 4.88927   7
   5   0   2 19.2070 1.91767   9
   5   0   2 19.8097 1.68189  10
   5   0   2 29.3278 3.61132   4
   5   0   2 19.8182 2.00836  11
   5   0   2 19.9599 1.86337  12
   5   0   2 22.1212 2.49003   2
   5   0   2 19.3405 3.00915   3
   5   0   2 18.2381 1.78566  17
   5   0   2 18.3366 2.18984  18
   6   0   2 175.196 11.6983  11
   6   0   2 169.045 10.0281  10
   6   0   2 154.873 10.0243  17
   6   0   2 162.734 11.2524  18
   6   0   2 159.615 12.5121   4
   7   0   2 10.4642 1.16067  10
   7   0   2 14.1015 2.04103  11
   7   0   2 7.95430 1.83196  18
   7   0   2 10.6545 1.44279  17
   8   0   2 6.55014 1.22145  18
   8   0   2 7.71716 1.35048  11
   9  -1  -2 103.722 7.45450  11
   9  -1  -2 107.802 6.54715  17
   9  -1  -2 106.520 7.33997  18
   8  -1  -2 1.09998 1.13103  17
   8  -1  -2 -0.4616 1.61252  18
   8  -1  -2 -0.4580 1.45311  11
   7  -1  -2 81.8102 5.18027  10
   7  -1  -2 92.3655 6.34218  18
   7  -1  -2 86.2965 6.43054  11
   7  -1  -2 75.4729 7.00215   7
   7  -1  -2 86.7404 5.51896  17
   7  -1  -2 82.8402 5.67267  16
   6  -1  -2 7.96203 0.80183  10
   6  -1  -2 9.94753 1.24216  17
   6  -1  -2 9.31296 2.38487   7
   6  -1  -2 10.2355 1.34684  16
   6  -1  -2 7.70860 1.45605  18
   6  -1  -2 7.29068 1.37821  11
   5  -1  -2 36.4535 3.10679  18
   5  -1  -2 41.7885 3.99631   7
   5  -1  -2 34.9195 3.78235   4
   4  -1  -2 197.109 12.8965   3
   4  -1  -2 169.912 13.1867   1
   4  -1  -2 191.708 13.0551   4
   4  -1  -2 200.251 12.4541   2
   4  -1  -2 197.623 12.7036   7
   3  -1  -2 4.13887 0.89074   3
   3  -1  -2 4.94494 0.77841   2
   3  -1  -2 7.04906 2.11158   6
   3  -1  -2 3.90702 0.81866   1
   3  -1  -2 5.41153 1.43992   7
   3  -1  -2 5.31108 1.13534   4
  -3   1   2 4.94363 1.11617   1
  -3   1   2 4.48982 0.87474   1
   2  -1  -2 778.379 51.6520   2
   2  -1  -2 829.932 54.6615   1
   2  -1  -2 803.661 51.6493   2
   2  -1  -2 796.596 50.6577   7
   2  -1  -2 795.681 53.3625   3
   2  -1  -2 799.051 51.2118   5
   2  -1  -2 828.739 53.3720   3
   2  -1  -2 747.290 52.2885   4
   2  -1  -2 754.209 53.3289   6
   2  -1  -2 814.574 54.6788   1
  -2   1   2 764.062 54.7132   1
  -2   1   2 881.983 54.6611   1
   1  -1  -2 186.649 12.5015   1
   1  -1  -2 176.973 12.2912   6
   1  -1  -2 158.625 11.7332   2
   1  -1  -2 176.511 11.8500   2
   1  -1  -2 178.219 12.1685   3
   1  -1  -2 174.664 12.5839   1
   1  -1  -2 170.860 12.1473   3
  -1   1   2 197.261 12.5926   1
  -1   1   2 197.583 12.5234   1
   0  -1  -2 1322.26 88.3769   3
   0  -1  -2 1359.07 90.5234   1
   0  -1  -2 1364.13 90.6211   1
   0  -1  -2 1293.00 85.6041   2
   0   1   2 1229.19 90.5842   1
   0   1   2 1255.41 85.5248   2
   0   1   2 1307.94 88.3677   3
   0   1   2 1476.89 90.5537   1
  -1  -1  -2 112.756 7.74684   1
  -1  -1  -2 98.4677 7.38122   2
  -1  -1  -2 105.428 7.96077   1
  -1  -1  -2 94.3473 7.53653   3
   1   1   2 105.109 7.20277   2
   1   1   2 107.459 7.89918   1
   1   1   2 108.086 7.72094   1
   1   1   2 102.177 7.54367   3
  -2  -1  -2 18.2060 2.60474   1
  -2  -1  -2 15.4595 2.10605   3
  -2  -1  -2 15.0924 2.27841   2
  -2  -1  -2 20.9901 2.56276   1
   2   1   2 17.0798 2.28482   1
   2   1   2 20.7283 2.35009   3
   2   1   2 19.5184 2.32993   2
   2   1   2 17.8722 2.17281   4
   2   1   2 18.8069 2.25850   1
   2   1   2 17.6080 2.09199   7
   3   1   2 105.757 7.68259   3
   3   1   2 104.647 7.22600   2
   3   1   2 103.237 7.08451   7
   3   1   2 88.5150 7.41176   4
   4   1   2 10.9417 2.46497   3
   4   1   2 8.80736 2.02373   2
   4   1   2 10.5389 2.36237   4
   4   1   2 10.4932 2.08601   7
   5   1   2 73.1139 6.22027   3
   5   1   2 65.8819 4.32032  17
   5   1   2 66.2702 4.89939  18
   5   1   2 65.1935 4.95375   9
   5   1   2 62.4558 5.65968   2
   5   1   2 69.1152 5.14243  11
   5   1   2 63.9907 4.63483  12
   5   1   2 71.0545 4.35283  10
   5   1   2 70.4119 6.38419   4
   6   1   2 2.69559 0.92077   9
   6   1   2 2.47524 0.84586  10
   6   1   2 -0.6689 1.43620  11
   6   1   2 3.22263 1.03200  17
   6   1   2 -0.3465 2.94366   4
   6   1   2 3.26898 1.35457  18
   7   1   2 184.074 12.6536  18
   7   1   2 198.370 13.1724  11
   7   1   2 177.867 11.2792  10
   8   1   2 83.6764 5.76533  11
   8   1   2 69.3854 5.45133  18
   8   1   2 82.3242 4.80477  10
   9  -2  -2 34.0929 2.84028  18
   9  -2  -2 31.8883 2.35675  17
   8  -2  -2 18.8597 2.02404  17
   8  -2  -2 16.1007 1.88670  18
   8  -2  -2 14.2047 1.95533  11
   7  -2  -2 14.4074 2.06541  18
   7  -2  -2 12.8752 3.01323   7
   7  -2  -2 13.4564 1.86445  11
   7  -2  -2 16.4457 1.88796  16
   7  -2  -2 17.2380 1.69399  17
   6  -2  -2 39.2836 2.48996  10
   6  -2  -2 44.0373 3.98395  15
   6  -2  -2 35.6588 3.38901  11
   6  -2  -2 40.5580 2.93801  17
   6  -2  -2 41.9494 4.27952   7
   6  -2  -2 41.6191 3.11002  16
   6  -2  -2 39.9984 3.41206  18
   5  -2  -2 53.5703 4.85389   4
   5  -2  -2 60.4238 4.49326  18
   5  -2  -2 60.5949 4.88317   7
   5  -2  -2 62.3872 3.89034  17
   5  -2  -2 59.6578 4.06346  16
   4  -2  -2 1.99048 1.85612   6
   4  -2  -2 3.72258 1.55464   7
   4  -2  -2 2.21161 1.00935   4
   3  -2  -2 18.4349 2.28700   7
   3  -2  -2 21.7710 2.04089   4
   3  -2  -2 24.1987 2.37861   5
   3  -2  -2 23.7921 2.75257   6
   2  -2  -2 131.672 9.20091   2
   2  -2  -2 148.930 9.55273   3
   2  -2  -2 142.114 9.38911   5
   2  -2  -2 150.557 9.56120   3
   2  -2  -2 138.031 10.1297   6
   2  -2  -2 138.405 9.77472   1
   2  -2  -2 136.914 9.27472   2
   2  -2  -2 140.647 9.38832   4
   2  -2  -2 135.812 9.85772   1
   2  -2  -2 132.281 9.16693   7
  -2   2   2 146.160 9.85933   1
  -2   2   2 147.423 9.79183   1
   1  -2  -2 5115.00 336.429   1
   1  -2  -2 5335.67 328.668   3
   1  -2  -2 4758.75 328.270   3
   1  -2  -2 4946.09 336.218   1
   1  -2  -2 4609.35 317.578   2
   1  -2  -2 4536.85 326.793   6
   1  -2  -2 4922.79 315.083   5
   1  -2  -2 4657.42 317.842   2
  -1   2   2 5226.31 336.585   1
  -1   2   2 5170.24 336.536   1
   0  -2  -2 826.468 55.8615   3
   0  -2  -2 863.388 54.1192   2
   0  -2  -2 867.100 57.2033   1
   0  -2  -2 840.148 57.3202   1
   0   2   2 774.890 54.0039   2
   0   2   2 847.200 57.2127   1
   0   2   2 886.658 57.3309   1
   0   2   2 772.875 55.8459   3
  -1  -2  -2 707.427 45.6495   2
  -1  -2  -2 649.663 47.1030   3
  -1  -2  -2 702.194 48.3928   1
  -1  -2  -2 722.666 48.2480   1
   1   2   2 709.646 47.1381   3
   1   2   2 700.271 48.2460   1
   1   2   2 706.078 45.5289   2
   1   2   2 711.539 48.3581   1
  -2  -2  -2 7.45117 2.36584   1
  -2  -2  -2 12.3954 2.11560   1
  -2  -2  -2 9.20052 2.16764   2
  -2  -2  -2 12.4837 2.21642   3
   2   2   2 12.6205 2.09882   1
   2   2   2 10.7412 2.01770   1
   2   2   2 14.2692 1.95668   2
   2   2   2 15.1213 2.33140   3
   3   2   2 98.9763 6.89057   2
   3   2   2 92.7612 7.47513   3
   3   2   2 82.9132 6.99052   4
   4   2   2 43.6823 4.24707   2
   4   2   2 51.1177 5.29310   3
   4   2   2 40.2199 3.38090   9
   4   2   2 43.9316 4.58689   4
   4   2   2 40.1457 2.89757   8
   5   2   2 480.349 31.4526   3
   5   2   2 473.962 27.0302  10
   5   2   2 435.274 30.8129   4
   5   2   2 452.129 29.8452  18
   5   2   2 442.241 28.8005   8
   5   2   2 428.406 31.1528   9
   5   2   2 455.221 30.8165  11
   5   2   2 444.397 30.0475   2
   6   2   2 27.3658 2.78964  18
   6   2   2 27.5402 4.56910   4
   6   2   2 33.1417 3.31557  11
   6   2   2 31.6757 2.61419  10
   6   2   2 26.9365 2.65685   9
   7   2   2 61.9260 4.85728  11
   7   2   2 55.7380 3.84471  10
   8   2   2 36.0696 2.37931  10
   8   2   2 36.9721 2.99916  11
   9  -3  -2 12.6499 2.06973  18
   9  -3  -2 17.5355 1.52615  17
   8  -3  -2 34.3998 3.20201  16
   8  -3  -2 36.8901 3.17646  18
   8  -3  -2 38.8669 3.31260  11
   8  -3  -2 32.1924 2.85418  17
   7  -3  -2 77.3335 7.01791   7
   7  -3  -2 95.0668 6.49312  18
   7  -3  -2 83.5728 6.80840  15
   7  -3  -2 84.6384 5.64478  17
   7  -3  -2 86.1582 5.76693  16
   7  -3  -2 88.1913 6.43050  11
   6  -3  -2 132.865 7.75653  17
   6  -3  -2 121.142 7.98386  16
   6  -3  -2 105.289 9.59450  14
   6  -3  -2 130.339 8.97287  15
   6  -3  -2 124.833 8.56711  18
   6  -3  -2 126.557 9.10706   7
   6  -3  -2 129.058 8.82018  11
   5  -3  -2 17.4326 1.62381  17
   5  -3  -2 15.8444 1.63819  18
   5  -3  -2 17.0178 1.76126  16
   5  -3  -2 18.1517 2.12228  15
   5  -3  -2 24.1543 3.71651   6
   5  -3  -2 19.4564 2.35010   7
   5  -3  -2 10.8469 1.99584   4
   4  -3  -2 27.9519 2.55243   4
   4  -3  -2 26.9584 2.85784   7
   4  -3  -2 32.7433 3.75361   6
   4  -3  -2 27.0021 2.93319   5
   3  -3  -2 497.192 32.5775   7
   3  -3  -2 509.712 33.6345   4
   3  -3  -2 512.238 34.6577   6
   3  -3  -2 527.264 33.0991   5
   2  -3  -2 8.15054 1.20538   3
   2  -3  -2 7.15609 1.01520   1
   2  -3  -2 7.18093 0.90077   2
   2  -3  -2 4.78898 1.12379   3
   2  -3  -2 9.58759 2.24371   6
   2  -3  -2 6.72615 1.42148   2
   2  -3  -2 7.70829 1.09121   7
   2  -3  -2 7.04847 1.61271   1
   2  -3  -2 7.50114 1.42356   5
  -2   3   2 5.87438 1.21386   1
  -2   3   2 8.25774 1.16095   1
   1  -3  -2 7100.92 478.586   6
   1  -3  -2 7242.72 481.466   3
   1  -3  -2 6592.48 465.241   2
   1  -3  -2 6520.42 480.380   3
   1  -3  -2 8076.22 466.424   2
   1  -3  -2 6425.92 454.768   7
   1  -3  -2 7401.87 492.717   1
   1  -3  -2 7484.62 492.999   1
   1  -3  -2 7416.68 461.399   5
  -1   3   2 7643.63 492.842   1
  -1   3   2 7550.34 492.624   1
   0  -3  -2 29.0353 2.95019   1
   0  -3  -2 28.4981 3.54211   1
   0  -3  -2 27.1012 3.21622   3
   0  -3  -2 29.3806 3.25145   2
   0   3   2 30.6432 3.15745   1
   0   3   2 27.8103 3.34988   1
   0   3   2 26.5100 2.71148   2
   0   3   2 27.9818 3.16773   3
  -1  -3  -2 85.5176 6.33969   2
  -1  -3  -2 81.8617 6.58839   1
  -1  -3  -2 77.9424 6.80427   1
  -1  -3  -2 84.3929 6.53450   3
   1   3   2 85.9063 6.70846   1
   1   3   2 82.7578 6.16365   2
   1   3   2 87.2853 6.83488   1
   1   3   2 86.1160 6.52151   3
  -2  -3  -2 -0.8255 1.56624   1
   2   3   2 -0.0288 1.12733   1
   2   3   2 0.65395 1.98059   3
   2   3   2 -1.5696 1.49553   1
   2   3   2 -0.7263 1.15790   2
   3   3   2 20.9051 3.30490   3
   3   3   2 18.2263 2.69997   4
   3   3   2 18.1235 2.63908   2
   4   3   2 139.959 10.3900   4
   4   3   2 127.804 9.63856   9
   4   3   2 146.443 10.8324   3
   4   3   2 124.881 8.31933  10
   4   3   2 136.185 8.82468   8
   4   3   2 149.571 10.1536   2
   5   3   2 2.09917 1.00037   9
   5   3   2 2.27000 0.73117   8
   5   3   2 3.59299 2.18700   4
   5   3   2 0.78585 2.05776   2
   5   3   2 2.63707 0.99765  11
   5   3   2 1.37593 3.26531   3
   5   3   2 3.69033 0.99326  10
   6   3   2 41.6745 3.11838  10
   6   3   2 40.1182 3.41977   9
   6   3   2 46.1670 3.96739  11
   7   3   2 6.34674 1.25782  11
   7   3   2 4.90366 1.10075  10
   8   3   2 32.5064 2.18270  10
   8   3   2 34.3079 2.67946  11
   9  -4  -2 72.1274 5.20951  18
   8  -4  -2 20.4775 1.88608  16
   8  -4  -2 18.9995 1.78264  17
   8  -4  -2 18.7624 1.99970  11
   8  -4  -2 18.8675 2.42860  18
   7  -4  -2 99.6183 6.29804  17
   7  -4  -2 101.287 7.26379  11
   7  -4  -2 106.103 7.33476  18
   7  -4  -2 95.0808 7.28817  15
   7  -4  -2 85.8915 8.17714  14
   7  -4  -2 108.635 6.71824  16
   6  -4  -2 20.9961 2.34992  18
   6  -4  -2 15.3740 1.62182  16
   6  -4  -2 19.6873 2.39711  15
   6  -4  -2 19.4015 2.98403   7
   6  -4  -2 12.3627 1.78558  13
   6  -4  -2 11.7114 1.46734  12
   6  -4  -2 12.8093 2.50474  14
   6  -4  -2 18.1778 1.76838  17
   6  -4  -2 13.8679 1.61924  11
   5  -4  -2 24.1851 2.00748  12
   5  -4  -2 25.0366 2.77517  14
   5  -4  -2 22.9098 3.96354   6
   5  -4  -2 26.1002 2.14600  16
   5  -4  -2 22.7969 1.93314  17
   5  -4  -2 23.4236 2.29458  13
   5  -4  -2 24.0152 2.96372  15
   5  -4  -2 21.9116 2.38456  18
   5  -4  -2 24.8672 2.93855   7
   5  -4  -2 22.6749 2.22925  11
   4  -4  -2 48.9860 4.04603   4
   4  -4  -2 51.6084 3.96121   7
   4  -4  -2 49.6725 4.45141   5
   4  -4  -2 56.1583 5.29978   6
   3  -4  -2 58.5374 4.37501   7
   3  -4  -2 63.7844 5.83430   6
   3  -4  -2 69.3427 5.06944   5
   2  -4  -2 668.769 40.2232   5
   2  -4  -2 633.474 40.5099   2
   2  -4  -2 565.189 39.3824   7
   2  -4  -2 613.989 41.7323   3
   2  -4  -2 659.077 42.1488   6
   2  -4  -2 619.679 42.7058   1
   2  -4  -2 586.698 40.3231   2
   2  -4  -2 679.800 41.7561   3
  -2   4   2 562.343 42.7604   1
  -2   4   2 646.552 42.7665   1
   1  -4  -2 133.365 8.71958   3
   1  -4  -2 98.1648 8.16262   2
   1  -4  -2 120.587 9.71758   6
   1  -4  -2 134.166 8.62471   2
   1  -4  -2 127.953 8.42538   5
   1  -4  -2 114.251 8.74163   1
   1  -4  -2 117.996 9.15695   1
  -1   4   2 120.211 8.89464   1
  -1   4   2 123.460 8.87885   1
   0  -4  -2 953.158 70.1890   1
   0  -4  -2 952.283 69.9997   1
   0  -4  -2 1070.17 65.3868   5
   0  -4  -2 1095.07 68.4792   3
   0  -4  -2 1092.01 66.3022   2
   0   4   2 940.945 70.1236   1
   0   4   2 1031.94 70.1063   1
  -1  -4  -2 -1.9250 2.01407   2
  -1  -4  -2 1.18425 1.43708   1
  -1  -4  -2 1.83342 2.14657   3
  -1  -4  -2 -0.0434 2.07560   1
   1   4   2 1.11630 1.37389   1
   1   4   2 1.74990 2.01714   3
   1   4   2 -0.4366 1.13291   2
   1   4   2 1.31265 1.74686   1
   2   4   2 44.2873 4.62375   3
   2   4   2 47.5457 4.32897   2
   3   4   2 33.5819 3.72665   2
   3   4   2 34.7558 4.57121   3
   3   4   2 29.4768 2.50540   8
   4   4   2 89.9164 7.95893   4
   4   4   2 92.5545 7.78701   2
   4   4   2 84.0097 6.81093   9
   4   4   2 95.3008 8.94766   3
   4   4   2 101.618 6.24484   8
   5   4   2 6.34330 1.18173  10
   5   4   2 6.21716 0.88814   8
   5   4   2 5.18226 1.24976   9
   5   4   2 4.83513 3.46635   4
   5   4   2 6.23291 1.23414  11
   6   4   2 0.71771 1.06944  11
   6   4   2 1.74259 1.11820  10
   6   4   2 1.92365 1.24312   9
   7   4   2 119.968 8.55890  11
   7   4   2 122.539 7.50143  10
   9  -5  -2 7.88697 1.27034  18
   8  -5  -2 3.66575 1.37269  16
   8  -5  -2 3.56658 0.96267  11
   8  -5  -2 1.26020 1.78674  18
   8  -5  -2 5.94793 1.27994  17
   7  -5  -2 32.3786 3.05864  11
   7  -5  -2 34.8883 3.02320  18
   7  -5  -2 37.6143 3.38961  15
   7  -5  -2 34.6999 2.71244  17
   7  -5  -2 31.9141 2.64880  16
   7  -5  -2 29.1385 3.74340  14
   6  -5  -2 1.80495 1.40751  18
   6  -5  -2 1.41572 2.03259  15
   6  -5  -2 2.82879 1.24489  13
   6  -5  -2 2.64265 1.11301  11
   6  -5  -2 4.35510 0.97966  12
   6  -5  -2 4.27487 2.27479  14
   6  -5  -2 1.88074 1.10712  16
   6  -5  -2 2.28496 1.04377  17
   5  -5  -2 29.2246 4.53910   6
   5  -5  -2 28.4521 3.74250  14
   5  -5  -2 24.9812 2.25110  12
   5  -5  -2 26.6678 2.31086  16
   5  -5  -2 25.9066 2.61444  18
   5  -5  -2 26.4155 2.48361  11
   5  -5  -2 28.3980 2.56185  13
   5  -5  -2 27.4531 2.07001  17
   5  -5  -2 28.3913 3.27212  15
   4  -5  -2 8.28841 2.16754   5
   4  -5  -2 0.68733 3.07244   6
   3  -5  -2 2.33929 1.64873   5
   3  -5  -2 0.56325 3.06733   6
   2  -5  -2 105.083 7.60421   5
   2  -5  -2 101.087 7.76161   2
   2  -5  -2 108.928 7.74534   3
   2  -5  -2 112.785 8.92515   6
   1  -5  -2 18.8708 2.78465   2
   1  -5  -2 21.7324 3.55022   6
   1  -5  -2 25.9642 2.71187   5
   1  -5  -2 18.8354 2.54131   3
   0  -5  -2 121.143 11.0439   1
   0  -5  -2 161.552 10.8880   3
   0  -5  -2 153.948 10.4724   2
  -1  -5  -2 1080.49 74.7160   3
  -1  -5  -2 1136.86 72.3314   2
   3   5   2 591.335 37.8745   8
   4   5   2 7.98655 3.34883   4
   4   5   2 10.7976 1.29426   8
   4   5   2 7.84078 1.41235   9
   4   5   2 6.27766 3.26623   2
   4   5   2 10.2515 4.08463   3
   5   5   2 172.170 12.5666   8
   5   5   2 215.157 13.8966   9
   5   5   2 199.605 13.5676  11
   6   5   2 4.08073 1.18756  10
   6   5   2 2.57854 1.07134   9
   6   5   2 3.79820 1.13182  11
   7   5   2 61.0092 3.76681  10
   7   5   2 53.8482 4.27078  11
   9  -6  -2 -0.9795 1.18635  18
   8  -6  -2 106.193 6.85857  16
   8  -6  -2 102.315 7.45176  18
   7  -6  -2 31.9487 2.95010  11
   7  -6  -2 34.4741 2.57585  17
   7  -6  -2 32.0452 3.85951  14
   7  -6  -2 31.9305 3.93240  15
   7  -6  -2 35.1799 2.85205  16
   7  -6  -2 28.3217 2.67029  13
   7  -6  -2 31.8618 2.89553  18
   7  -6  -2 33.2454 2.60933  12
   6  -6  -2 24.3967 2.18239  12
   6  -6  -2 23.9120 2.31454  16
   6  -6  -2 22.0655 2.03929  17
   6  -6  -2 24.7605 2.95593  15
   6  -6  -2 18.1530 2.29010  18
   6  -6  -2 23.2560 2.44969  11
   6  -6  -2 19.1049 3.22355  14
   6  -6  -2 25.1533 2.24400  13
   5  -6  -2 426.526 25.5154  13
   5  -6  -2 373.728 27.7233   6
   5  -6  -2 417.876 28.6889  14
   5  -6  -2 387.779 24.6297  16
   5  -6  -2 415.617 26.6959  15
   5  -6  -2 399.648 25.3721  12
   5  -6  -2 351.383 26.9616  11
   4  -6  -2 75.0064 5.96395   5
   4  -6  -2 68.4735 5.09987  11
   4  -6  -2 73.0229 7.83649   6
   4  -6  -2 60.7951 4.64060  16
   4  -6  -2 70.6578 5.65297  15
   4  -6  -2 66.5424 4.33862  10
   4  -6  -2 73.6316 4.75721  12
   4  -6  -2 73.3026 5.93243  14
   4  -6  -2 73.0629 4.95409  13
   3  -6  -2 81.8019 8.38015   6
   3  -6  -2 92.5653 6.48650   5
   3  -6  -2 78.5989 5.68607   2
   3  -6  -2 71.4167 5.43049   2
   3  -6  -2 88.0275 5.74262   3
   3  -6  -2 70.7537 5.71558   3
   3  -6  -2 88.5986 6.39339  14
   2  -6  -2 1760.28 109.994   6
   2  -6  -2 1530.85 106.213   2
   2  -6  -2 1635.36 109.645   3
   2  -6  -2 1643.53 105.217   5
   1  -6  -2 263.240 19.5877   6
   1  -6  -2 267.204 18.5984   3
   1  -6  -2 273.602 18.0620   2
   1  -6  -2 256.293 17.6770   5
   0  -6  -2 100.366 9.68608   6
   0  -6  -2 108.185 8.27135   2
   0  -6  -2 103.543 8.30509   3
  -1  -6  -2 133.289 10.1596   2
  -1  -6  -2 130.495 10.5332   3
   3   6   2 8.61224 1.16118   8
   4   6   2 3.61484 0.94324   8
   4   6   2 6.41781 3.56285   4
   4   6   2 5.63836 1.65326   9
   5   6   2 20.5797 2.35117  11
   5   6   2 21.7271 1.80876   8
   5   6   2 22.9588 2.65245   9
   6   6   2 39.1136 3.07987  10
   6   6   2 43.4595 3.34909  11
   6   6   2 42.9436 3.43555   9
   8  -7  -2 120.078 8.32202  16
   8  -7  -2 145.441 9.28371  15
   7  -7  -2 128.369 10.4073  14
   7  -7  -2 118.186 8.77226  12
   7  -7  -2 145.713 9.80339  15
   7  -7  -2 148.428 9.11761  13
   7  -7  -2 136.954 8.67276  16
   6  -7  -2 1.65963 1.41405  13
   6  -7  -2 -1.6257 2.63612  14
   6  -7  -2 2.56763 1.64407  15
   6  -7  -2 3.01903 1.01693  12
   6  -7  -2 2.19763 1.10572  16
   6  -7  -2 1.13003 1.10776  11
   5  -7  -2 -0.3869 0.92353  12
   5  -7  -2 0.18824 1.29089  13
   5  -7  -2 -0.1355 2.33000  14
   5  -7  -2 -0.2625 1.03068  11
   5  -7  -2 3.32557 3.65496   6
   5  -7  -2 0.86102 2.20136  15
   5  -7  -2 0.59660 1.11888  16
   4  -7  -2 6.31612 1.06793  16
   4  -7  -2 5.21450 0.94802  10
   4  -7  -2 6.89511 1.33461  13
   4  -7  -2 3.56356 2.20622  15
   4  -7  -2 5.36317 1.05423  12
   4  -7  -2 8.12726 2.87801   5
   4  -7  -2 6.16609 3.98892   6
   4  -7  -2 6.53505 2.07534  14
   3  -7  -2 95.9563 5.84106  10
   3  -7  -2 95.1256 6.28730  12
   3  -7  -2 80.6853 6.57938   9
   3  -7  -2 92.0298 6.73417   2
   3  -7  -2 99.6018 9.14437   6
   3  -7  -2 96.3995 7.14967  15
   3  -7  -2 97.7231 7.71088   5
   3  -7  -2 94.6364 6.70002   3
   3  -7  -2 97.5249 6.39592  13
   3  -7  -2 95.9549 7.43406  14
   2  -7  -2 1.14213 1.97635  15
   2  -7  -2 -0.8985 2.25668   2
   2  -7  -2 -1.8221 1.47335  14
   2  -7  -2 0.81568 1.84133   5
   2  -7  -2 -0.7952 3.74347   6
   2  -7  -2 0.06315 1.13183   9
   2  -7  -2 -0.8092 2.00975   3
   2  -7  -2 0.09019 0.95967  10
   2  -7  -2 0.97059 0.98922  13
   1  -7  -2 128.865 9.23833   8
   1  -7  -2 144.693 8.77890  10
   1  -7  -2 150.179 10.5879   2
   1  -7  -2 147.453 10.8726   3
   1  -7  -2 139.320 10.1341   9
   1  -7  -2 154.758 12.1533   6
   0  -7  -2 66.5062 6.70803   3
   0  -7  -2 61.7329 5.41469   9
   0  -7  -2 84.3529 6.77556   2
   0  -7  -2 74.7719 8.66552   6
   0  -7  -2 64.8170 4.50955  10
   0  -7  -2 68.5201 4.74458   8
  -1  -7  -2 63.8882 4.48846   8
  -1  -7  -2 64.6859 7.61793   6
  -1  -7  -2 56.8806 6.68214   2
  -2  -7  -2 38.7092 3.19854   8
   3   7   2 22.3602 4.27363   4
   3   7   2 28.8347 2.37925   8
   4   7   2 0.36453 0.89356   8
   5   7   2 13.0888 1.53343  11
   5   7   2 12.0535 1.64974   9
   5   7   2 12.7298 1.16461   8
   6   7   2 3.47797 0.72186   9
   6   7   2 2.74736 0.91300  11
   8  -8  -2 0.09789 1.65094  15
   7  -8  -2 12.1431 2.37779  14
   7  -8  -2 12.8798 1.94434  15
   7  -8  -2 11.1030 1.77523  13
   6  -8  -2 19.4661 2.20111  12
   6  -8  -2 22.0979 3.51192  14
   6  -8  -2 20.7157 2.27836  13
   6  -8  -2 24.5387 3.10542  15
   5  -8  -2 79.1046 6.90383  14
   5  -8  -2 75.9567 6.55863  15
   5  -8  -2 71.5147 5.23307  12
   5  -8  -2 74.6865 5.47921  13
   4  -8  -2 -0.0267 1.00316  12
   4  -8  -2 -0.5723 1.26191  13
   4  -8  -2 -1.6400 2.18229  14
   4  -8  -2 -2.8169 2.40101  15
   4  -8  -2 4.06334 5.34608   6
   4  -8  -2 0.86759 0.87955  10
   3  -8  -2 139.576 10.3643   3
   3  -8  -2 156.383 9.22059  10
   3  -8  -2 144.701 13.4264   6
   3  -8  -2 136.971 10.4030   9
   3  -8  -2 159.839 10.8939  15
   3  -8  -2 165.251 11.4307  14
   3  -8  -2 147.243 11.0871   5
   3  -8  -2 153.063 9.96309  13
   2  -8  -2 84.4811 8.96204   6
   2  -8  -2 71.6077 5.33171  13
   2  -8  -2 77.0938 5.04808  10
   2  -8  -2 82.9434 6.34285  15
   2  -8  -2 80.0340 6.58643   3
   2  -8  -2 74.5263 6.27290  14
   2  -8  -2 73.8277 5.74563   9
   2  -8  -2 74.4982 6.79745   2
   1  -8  -2 29.4602 3.26275  14
   1  -8  -2 30.8612 3.84674  15
   1  -8  -2 24.4860 5.76970   6
   1  -8  -2 26.3428 3.16481   9
   1  -8  -2 29.4281 4.19337   2
   1  -8  -2 33.5379 4.09897   3
   1  -8  -2 27.5434 2.77930  10
   0  -8  -2 33.4856 2.92937  10
   0  -8  -2 37.5271 2.90768   8
   0  -8  -2 23.4154 4.40913   3
   0  -8  -2 39.5597 5.00027   2
   0  -8  -2 38.7067 3.82011   9
   0  -8  -2 29.7566 5.94962   6
  -1  -8  -2 173.133 14.1013   6
  -1  -8  -2 170.062 11.0080   8
  -1  -8  -2 160.117 12.0257   9
  -2  -8  -2 164.293 10.9897   8
  -3  -8  -2 390.172 26.3099   8
   3   8   2 423.199 26.2309   8
   4   8   2 296.121 19.1058   8
   5   8   2 122.470 7.61000  11
   5   8   2 96.7906 6.84159   8
   5   8   2 101.544 7.57004   9
   7  -9  -2 -1.0179 1.97760  14
   7  -9  -2 -0.7709 0.94700  13
   7  -9  -2 -0.1087 1.42066  15
   6  -9  -2 219.339 15.5992  13
   6  -9  -2 245.162 17.7423  14
   6  -9  -2 259.441 16.6570  15
   5  -9  -2 55.1737 5.53561  15
   5  -9  -2 55.0657 5.11698  14
   5  -9  -2 52.9887 4.33911  13
   4  -9  -2 8.39489 1.61363  13
   4  -9  -2 6.34989 1.27034  10
   4  -9  -2 2.35762 5.39061   6
   4  -9  -2 7.69322 2.59659  14
   4  -9  -2 9.31860 2.99594  15
   3  -9  -2 7.81688 2.78451  15
   3  -9  -2 1.93547 5.46589   6
   3  -9  -2 9.29903 1.38734  10
   3  -9  -2 9.06049 1.58518  13
   3  -9  -2 7.40604 2.32221  14
   2  -9  -2 41.1307 6.82141   6
   2  -9  -2 26.7359 3.31681  14
   2  -9  -2 34.7943 2.76534  10
   2  -9  -2 30.8788 3.20384   9
   2  -9  -2 38.7673 4.53840  15
   2  -9  -2 38.2433 2.97262  13
   2  -9  -2 24.7616 3.95610   2
   1  -9  -2 106.006 6.48305  10
   1  -9  -2 105.256 7.56666   9
   1  -9  -2 109.855 7.89143  15
   1  -9  -2 90.7600 6.48572   8
   1  -9  -2 99.8814 10.5166   6
   1  -9  -2 92.7201 7.82577  14
   0  -9  -2 5.34419 1.46307  10
   0  -9  -2 1.43879 5.37274   6
   0  -9  -2 4.14154 1.53544   9
  -1  -9  -2 105.507 7.35877   8
  -1  -9  -2 111.316 8.26846   9
  -2  -9  -2 11.4304 1.61170   8
  -3  -9  -2 35.4341 2.95716   8
   3   9   2 33.7061 2.59238   8
   4   9   2 20.7576 1.73804   8
   5   9   2 8.07152 0.96316  11
   7 -10  -2 11.6237 2.13262  14
   7 -10  -2 6.35076 1.43117  15
   6 -10  -2 48.7171 4.27528  15
   6 -10  -2 48.8241 3.71976  13
   6 -10  -2 53.8635 4.79955  14
   5 -10  -2 6.58718 1.56148  13
   5 -10  -2 6.43066 2.06503  14
   5 -10  -2 5.98274 2.82784  15
   4 -10  -2 -0.1732 1.73665  14
   4 -10  -2 0.05156 1.03652  10
   4 -10  -2 0.62531 1.42283  13
   4 -10  -2 0.21723 3.00262  15
   3 -10  -2 -0.1588 1.02568  10
   3 -10  -2 1.96090 2.08568  15
   3 -10  -2 -1.3877 2.19246  14
   3 -10  -2 1.58211 1.32721  13
   2 -10  -2 0.84837 1.33508   9
   2 -10  -2 0.10627 1.46804  10
   2 -10  -2 1.24567 1.91357  14
   2 -10  -2 4.34545 2.75358  15
   1 -10  -2 17.8129 2.13644  10
   1 -10  -2 17.6237 2.41854  15
   1 -10  -2 13.6094 1.83481   9
   0 -10  -2 9.13691 2.76478  15
   0 -10  -2 9.43208 1.80295   9
   0 -10  -2 11.9248 1.36338   8
   0 -10  -2 11.4192 1.75012  10
  -1 -10  -2 48.0522 4.50510   9
  -2 -10  -2 56.4923 4.61152   9
   3  10   2 51.4568 3.57051   8
  -4 -10  -2 1.20365 0.93388   8
   4  10   2 1.00943 0.48551   8
   4  10   2 2.03761 0.66614  11
   7 -11  -2 16.6562 2.05212  14
   6 -11  -2 2.41356 2.06100  15
   6 -11  -2 1.00455 1.70619  14
   5 -11  -2 14.1695 2.80376  15
   5 -11  -2 11.7234 1.69066  13
   5 -11  -2 15.1839 2.21679  14
   4 -11  -2 2.20683 1.73531  14
   4 -11  -2 3.18461 2.88445  15
   4 -11  -2 2.31108 1.39078  13
   3 -11  -2 7.26743 2.18645  15
   3 -11  -2 3.55136 2.18183  14
   3 -11  -2 3.87585 1.28934  10
   2 -11  -2 7.18889 1.98790  14
   2 -11  -2 11.0665 2.13688  15
   2 -11  -2 7.83325 1.42371  10
   2 -11  -2 8.48999 1.09585   9
   1 -11  -2 55.6892 5.35242  15
   1 -11  -2 54.7294 4.51300   9
   1 -11  -2 62.8298 4.22793  10
   0 -11  -2 60.5573 5.03806   9
   0 -11  -2 57.7760 4.81167  15
  -1 -11  -2 6.23035 0.77086   8
  -1 -11  -2 10.8772 2.37647  15
  -1 -11  -2 5.87614 1.64598   9
  -2 -11  -2 79.3127 5.54914   9
  -2 -11  -2 67.8855 5.16659  15
  -2 -11  -2 65.2505 4.58697   8
  -3 -11  -2 14.3041 1.10171   8
   3  11   2 14.4846 1.16796   8
   5 -12  -2 5.80677 1.57430  14
   5 -12  -2 7.74190 1.58785  15
   4 -12  -2 124.111 8.78557  14
   4 -12  -2 108.996 8.29932  15
   3 -12  -2 9.08198 2.06916  15
   3 -12  -2 7.38644 1.12344  10
   3 -12  -2 5.37799 1.88285  14
   2 -12  -2 105.307 7.33304  15
   2 -12  -2 87.4949 5.99044  10
   1 -12  -2 78.1522 5.27287  10
   1 -12  -2 79.3119 5.94816  15
   1 -12  -2 80.7233 5.70073   9
   0 -12  -2 45.3289 3.62120  15
   0 -12  -2 47.8354 3.62268   9
   0 -12  -2 37.7908 3.06970  10
  -1 -12  -2 2.01779 1.10893   9
  -1 -12  -2 1.56747 1.34032  15
   3 -13  -2 2.31117 1.30402  15
   2 -13  -2 5.28715 1.00847  10
   2 -13  -2 6.61672 1.54417  15
   1 -13  -2 4.99932 1.04669  10
   1 -13  -2 3.95255 1.30513  15
  -2 -13   3 159.548 10.5344   9
  -2 -13   3 139.625 10.1468  15
  -1 -13   3 19.6311 2.09640   9
  -1 -13   3 16.9273 2.07529  15
  -1 -13   3 18.9882 1.75396  10
   0 -13   3 36.5971 3.15249  15
   1 -13   3 1.83232 1.38383  15
   1 -13   3 2.05051 1.22460  14
   2 -13   3 47.5813 4.08224  14
   3 -13   3 1.45327 1.54902  14
   4 -13   3 56.0984 4.05825  13
   4 -13   3 59.5610 4.79959  14
   5 -13   3 -2.3186 1.86203  14
  -3 -12   3 2.75187 1.32613   9
  -2 -12   3 51.9413 4.00715   9
  -2 -12   3 46.9819 4.01574  15
  -1 -12   3 1.25805 1.35345   9
  -1 -12   3 -0.8806 2.22982  15
   0 -12   3 22.3189 2.90818  15
   0 -12   3 26.7372 3.17381  14
   0 -12   3 26.7975 2.59154  10
   0 -12   3 25.6172 2.73127   9
   1 -12   3 43.1416 4.44147  15
   1 -12   3 43.9226 4.56342  14
   1 -12   3 49.3238 3.43612  10
   2 -12   3 21.3237 2.53140  15
   2 -12   3 21.4975 2.87738  14
   3 -12   3 6.25026 1.07219  13
   3 -12   3 6.67450 1.87737  14
   4 -12   3 18.2766 1.85242  13
   4 -12   3 17.4423 2.51434  14
   5 -12   3 18.9229 3.01199  14
   6 -12   3 -1.0153 1.86852  14
   4  11  -3 1.52747 0.72836   8
  -4 -11   3 2.32953 0.69951   8
   3  11  -3 45.4128 3.21795   8
  -3 -11   3 44.2789 3.29709   8
  -2 -11   3 5.08551 1.73998   9
  -2 -11   3 3.25001 1.01539   8
  -1 -11   3 24.9059 2.97385   9
  -1 -11   3 16.9444 1.64379   8
   0 -11   3 1.98647 2.46062  15
   0 -11   3 3.29341 1.63277   9
   0 -11   3 1.45263 1.85049  14
   0 -11   3 2.37836 1.52349  10
   1 -11   3 22.7470 2.25381  10
   1 -11   3 20.8293 2.78384  14
   1 -11   3 18.8166 2.93407  15
   2 -11   3 8.41469 1.41257  10
   2 -11   3 9.68724 2.44898  14
   2 -11   3 6.85880 2.27799  15
   2 -11   3 9.35749 1.43442  13
   3 -11   3 1.72161 2.47963  14
   3 -11   3 3.56254 1.03855  13
   4 -11   3 105.229 8.18970  14
   4 -11   3 99.2361 7.03934  13
   5 -11   3 1.77256 2.74668  14
   5 -11   3 0.25873 1.12215  12
   6 -11   3 152.458 11.3659  14
   5  10  -3 0.63336 0.48880   8
   5  10  -3 0.50448 0.78558   9
  -5 -10   3 0.56011 0.70809   8
   4  10  -3 0.34480 0.87240   8
  -4 -10   3 -0.8617 0.78575   8
  -3 -10   3 227.456 14.8659   8
  -2 -10   3 124.142 8.18105   8
  -2 -10   3 117.263 9.07205   9
  -1 -10   3 2.73803 1.25333  14
  -1 -10   3 0.76877 1.76085   9
  -1 -10   3 1.44212 1.17424   8
  -1 -10   3 8.57645 6.76118   6
   0 -10   3 302.491 17.8386  10
   0 -10   3 292.346 20.5461   9
   0 -10   3 287.421 21.3282  14
   1 -10   3 40.0640 3.64091   9
   1 -10   3 43.4150 3.21037  10
   1 -10   3 50.4031 4.58749  14
   1 -10   3 43.7148 4.49008  15
   2 -10   3 1.77549 1.58361  14
   2 -10   3 2.71626 2.03917  15
   2 -10   3 -1.3267 2.53891   5
   2 -10   3 1.70970 0.94992  10
   2 -10   3 1.39798 1.28978  13
   3 -10   3 129.680 8.32902  13
   3 -10   3 102.106 9.51660   5
   3 -10   3 139.168 9.84099  14
   3 -10   3 106.734 8.88448  15
   3 -10   3 121.529 8.07885  12
   3 -10   3 125.788 7.54220  10
   4 -10   3 143.413 10.5389  14
   4 -10   3 115.483 8.72326  13
   4 -10   3 137.816 8.75614  12
   5 -10   3 28.3969 2.46497  12
   5 -10   3 30.4148 3.09738  13
   5 -10   3 33.7242 3.87321  14
   6 -10   3 67.4524 5.64080  14
   7 -10   3 0.93122 0.96873  12
   6   9  -3 8.40035 1.23705   9
   6   9  -3 11.1384 1.21760  11
   5   9  -3 98.6565 6.51934   8
  -4  -9   3 39.4346 3.31691   8
  -3  -9   3 67.1402 4.86911   8
  -2  -9   3 218.077 14.2482   8
  -1  -9   3 -1.2529 1.09896   8
  -1  -9   3 1.20965 3.08167   3
  -1  -9   3 -1.2415 1.18926   9
  -1  -9   3 -0.7440 2.59588   2
  -1  -9   3 0.73204 1.55013  14
   0  -9   3 0.54340 2.63959   2
   0  -9   3 2.80519 2.34249   5
   0  -9   3 4.21756 1.68453  14
   0  -9   3 2.31711 4.33599   6
   0  -9   3 3.43844 1.07937  10
   0  -9   3 1.05762 0.90746   8
   0  -9   3 1.56073 1.32522   9
   0  -9   3 1.76917 2.24486   3
   1  -9   3 6.60153 2.68409   2
   1  -9   3 1.54003 3.85344   6
   1  -9   3 5.62227 1.98729  15
   1  -9   3 5.15204 1.02682  10
   1  -9   3 4.91986 1.84625  14
   1  -9   3 5.78684 1.24781   9
   1  -9   3 5.30340 2.83193   3
   1  -9   3 3.41690 2.31182   5
   2  -9   3 39.1265 2.96362  12
   2  -9   3 37.5168 2.78208  10
   2  -9   3 37.2034 4.39637   5
   2  -9   3 36.0856 3.83119   3
   2  -9   3 34.9654 3.41625  13
   2  -9   3 37.8201 3.15388   9
   2  -9   3 42.1639 4.33961  14
   2  -9   3 31.6283 3.73547  15
   3  -9   3 81.0951 6.66387  14
   3  -9   3 70.0045 6.63918   5
   3  -9   3 72.8818 5.41201  13
   3  -9   3 75.9765 5.24734  12
   3  -9   3 74.6828 4.77035  10
   4  -9   3 72.0966 5.44547  13
   4  -9   3 67.9330 6.86879   5
   4  -9   3 80.3583 5.45100  12
   4  -9   3 81.2221 4.81565  10
   4  -9   3 82.2459 7.04112  14
   5  -9   3 35.5952 3.21221  13
   5  -9   3 33.5945 3.39779  11
   5  -9   3 31.3477 2.84019  12
   5  -9   3 24.3358 3.65528  14
   6  -9   3 55.5895 4.20265  11
   6  -9   3 42.7614 3.41575  12
   6  -9   3 45.2497 4.88226  14
   7  -9   3 13.6903 1.49369  12
   6   8  -3 4.18686 1.12330  11
   6   8  -3 3.43689 1.22596   9
   5   8  -3 6.70583 1.55656   9
   5   8  -3 5.29455 0.94516   8
   4   8  -3 7.25813 1.33017   8
  -2  -8   3 -0.1268 1.26193   8
  -1  -8   3 67.9218 5.65341   9
  -1  -8   3 72.4595 6.76627   2
  -1  -8   3 69.7412 7.03605   3
  -1  -8   3 75.5525 5.01560   8
   0  -8   3 5.42793 2.26981   5
   0  -8   3 8.40553 1.41519   9
   0  -8   3 7.94665 2.87767   3
   0  -8   3 8.01476 1.28968  10
   0  -8   3 10.8296 2.78910   2
   0  -8   3 8.48689 1.66955  14
   0  -8   3 10.8312 1.17005   8
   1  -8   3 68.6750 4.31893  10
   1  -8   3 63.7120 4.91114   9
   1  -8   3 63.0986 4.38859   8
   1  -8   3 72.9322 5.65874   5
   1  -8   3 66.4157 5.91895   3
   1  -8   3 64.6541 6.87554   6
   1  -8   3 70.4232 5.66865   2
   1  -8   3 63.2590 4.47077  12
   1  -8   3 67.5295 5.43537  14
   1  -8   3 60.9584 4.58102  13
   2  -8   3 38.7983 3.06007  13
   2  -8   3 32.6903 3.48636  15
   2  -8   3 43.2438 3.78915   3
   2  -8   3 35.9546 2.99970   9
   2  -8   3 35.7870 2.81620  12
   2  -8   3 38.4446 3.97225   2
   2  -8   3 37.7333 2.55791  10
   2  -8   3 35.2584 3.94812  14
   2  -8   3 36.9842 4.52860   5
   3  -8   3 78.8474 6.79762  14
   3  -8   3 74.8176 5.01847  10
   3  -8   3 85.0228 6.06743  11
   3  -8   3 81.7387 5.54756  12
   3  -8   3 83.3610 6.82038   5
   3  -8   3 84.2628 5.71366  13
   4  -8   3 48.9353 3.83674  13
   4  -8   3 48.8487 3.77513  11
   4  -8   3 44.7142 2.96706  10
   4  -8   3 46.5584 5.03278   5
   4  -8   3 43.9285 4.95132  14
   4  -8   3 47.9384 3.58858  12
   5  -8   3 24.6418 2.50003  12
   5  -8   3 26.6822 2.89757  13
   5  -8   3 21.3895 3.87465   5
   5  -8   3 27.0541 3.10065  11
   5  -8   3 20.4630 3.14167  14
   6  -8   3 0.44816 1.52209  13
   6  -8   3 0.48830 1.21348  12
   6  -8   3 -2.3671 2.02902  14
   6  -8   3 1.85467 1.61817  11
   7  -8   3 12.2787 1.53931  12
   7  -8   3 12.1898 1.73615  13
   7  -8   3 11.1394 1.86468  11
   8  -8   3 35.8575 2.63404  12
   8  -8   3 38.8549 2.98311  11
   7   7  -3 15.7752 1.61448  10
   7   7  -3 21.3274 1.81881   9
   7   7  -3 21.5381 1.99190  11
   6   7  -3 13.2422 1.18383   8
   6   7  -3 18.5492 1.84807   9
   6   7  -3 18.4796 2.14045  11
   5   7  -3 0.47437 0.82295   8
   5   7  -3 0.85556 1.36020   9
   4   7  -3 10.0434 1.40058   8
   3   7  -3 25.8803 2.21099   8
  -2  -7   3 30.2863 2.47210   8
  -1  -7   3 1275.94 85.0755   3
  -1  -7   3 1245.85 81.0554   5
  -1  -7   3 1269.29 82.3105   2
   0  -7   3 445.735 30.1193   3
   0  -7   3 427.858 28.9941   2
   0  -7   3 439.630 28.6299   5
   1  -7   3 0.05460 2.94565   6
   1  -7   3 2.22392 1.65631   5
   1  -7   3 0.39655 1.83358   3
   1  -7   3 2.43015 1.64468   2
   2  -7   3 541.360 40.8848   6
   2  -7   3 607.786 41.0705  11
   2  -7   3 612.036 43.1706  14
   2  -7   3 620.642 39.4332   5
   2  -7   3 601.085 39.4699   2
   2  -7   3 643.472 40.7543   3
   3  -7   3 43.8655 3.11591  12
   3  -7   3 40.6562 3.51043  11
   3  -7   3 45.4850 4.75935   5
   3  -7   3 41.6969 3.32331  13
   3  -7   3 41.4837 4.15715  14
   3  -7   3 39.0965 2.67955  10
   4  -7   3 113.616 9.10397  14
   4  -7   3 113.724 7.02536  10
   4  -7   3 112.370 8.20066  18
   4  -7   3 123.078 8.91669   5
   4  -7   3 124.079 8.41830  11
   4  -7   3 123.954 7.79096  12
   4  -7   3 108.958 7.78383  13
   5  -7   3 1.78215 1.44041  11
   5  -7   3 3.07703 1.96627  14
   5  -7   3 1.61198 1.10307  12
   5  -7   3 3.57958 0.95074  17
   5  -7   3 -1.6820 2.18002   5
   5  -7   3 4.25567 1.62304  18
   5  -7   3 2.90763 1.05295  13
   6  -7   3 2.22431 1.09137  13
   6  -7   3 0.73569 1.55369  11
   6  -7   3 -1.1112 1.16080  12
   6  -7   3 2.61686 1.28217  18
   7  -7   3 2.61984 1.73315  18
   7  -7   3 1.06315 1.12200  11
   7  -7   3 -0.0612 1.23926  12
   8  -7   3 6.32772 1.27407  11
   8  -7   3 9.55640 0.98821  12
   7   6  -3 259.534 17.9998   9
   7   6  -3 258.816 17.8527  11
   6   6  -3 15.0738 1.34933   8
   6   6  -3 22.0199 1.94487  10
   6   6  -3 19.1711 2.32236  11
   6   6  -3 17.5223 2.14258  18
   6   6  -3 20.9486 2.14599   9
   5   6  -3 4.98839 1.37025   9
   5   6  -3 2.11266 3.32916   4
   5   6  -3 6.26900 1.39267  18
   5   6  -3 6.84244 1.14132   8
   4   6  -3 98.3900 6.13927   8
   4   6  -3 86.3212 6.31889  18
   4   6  -3 77.5538 8.42407   3
   3   6  -3 119.003 7.87123   8
  -1  -6   3 286.427 20.6771   3
  -1  -6   3 295.509 19.4817   5
  -1  -6   3 308.371 20.0258   2
   0  -6   3 153.959 10.6347   5
   0  -6   3 156.902 10.8144   2
   0  -6   3 153.738 11.2723   3
   1  -6   3 79.4624 6.65043   3
   1  -6   3 87.5417 6.42686   5
   1  -6   3 88.3251 6.21803   2
   1  -6   3 79.6302 7.16314   6
   2  -6   3 78.8568 6.01882   5
   2  -6   3 71.4161 6.08510   6
   2  -6   3 79.0013 5.80862   3
   2  -6   3 82.6912 5.70210   2
   3  -6   3 9.88466 2.05879   5
   4  -6   3 4.44239 1.00597  12
   4  -6   3 4.17906 0.86280  17
   4  -6   3 4.26322 0.55197  10
   4  -6   3 3.28593 1.66037  14
   4  -6   3 4.79397 1.99467   5
   4  -6   3 6.12288 1.23485  13
   4  -6   3 5.00166 2.15326   4
   4  -6   3 5.30288 1.45418  18
   4  -6   3 4.89595 1.23596  11
   5  -6   3 36.5480 3.04484  12
   5  -6   3 39.6407 4.68538   5
   5  -6   3 40.5658 3.27244  13
   5  -6   3 38.0166 3.55468  11
   5  -6   3 36.1618 4.42654   4
   5  -6   3 31.7382 4.07403  14
   5  -6   3 40.1453 3.59022  18
   5  -6   3 35.3308 2.74493  17
   6  -6   3 48.3330 3.62270  12
   6  -6   3 48.9612 3.50980  17
   6  -6   3 51.9575 4.37684  18
   6  -6   3 52.6064 4.41843  11
   6  -6   3 43.5656 5.29515   4
   6  -6   3 47.8019 3.97872  13
   7  -6   3 7.25316 1.87056  11
   7  -6   3 9.26586 1.98476  18
   7  -6   3 9.87156 1.25630  12
   8  -6   3 9.43664 1.26094  12
   8  -6   3 11.6547 1.45773  11
   8  -6   3 9.98624 1.47708  18
   8   5  -3 44.2006 2.75919  10
   8   5  -3 36.9700 3.13754  11
   7   5  -3 5.69411 1.09600   9
   7   5  -3 5.92017 1.22652  10
   7   5  -3 8.41706 1.39133  11
   7   5  -3 5.76949 1.09361  18
   6   5  -3 11.3299 1.39912  18
   6   5  -3 11.6828 1.46447  10
   6   5  -3 10.4540 1.00686   8
   6   5  -3 8.17574 1.40710   9
   6   5  -3 14.6238 1.67236  11
   5   5  -3 31.7752 5.02336   3
   5   5  -3 37.1874 3.16987  18
   5   5  -3 39.7231 2.98975  10
   5   5  -3 39.1345 2.78493   8
   5   5  -3 31.8997 4.18076   2
   5   5  -3 33.6385 3.24404   9
   5   5  -3 41.0322 4.98382   4
   4   5  -3 21.9320 3.32228   2
   4   5  -3 31.5266 4.30685   3
   4   5  -3 26.3490 2.06148   8
   4   5  -3 24.3976 2.55662   9
   3   5  -3 47.4428 5.17232   3
   3   5  -3 47.5308 4.58866   2
   2   5  -3 1.72700 1.59567   2
   2   5  -3 3.65948 1.75653   3
  -2  -5   3 2.07721 1.53613   2
  -2  -5   3 0.34972 1.61152   3
  -2  -5   3 0.42721 1.56146   1
   1   5  -3 164.255 11.9717   1
   1   5  -3 154.429 11.3313   2
   1   5  -3 151.831 11.8841   3
   1   5  -3 159.265 11.9110   1
  -1  -5   3 174.389 11.3241   2
  -1  -5   3 152.031 12.0037   1
  -1  -5   3 154.058 11.8829   1
  -1  -5   3 183.079 11.8212   3
  -1  -5   3 168.926 10.8810   5
   0   5  -3 74.0980 6.54060   1
   0   5  -3 89.3751 6.47485   1
   0  -5   3 82.3394 5.87697   5
   0  -5   3 82.8892 6.49667   1
   0  -5   3 75.2735 6.35704   1
   0  -5   3 88.0330 6.41364   3
   0  -5   3 84.4924 6.07598   2
  -1   5  -3 0.10159 1.08119   1
  -1   5  -3 -0.9371 1.27126   1
   1  -5   3 1.22744 1.49483   5
   1  -5   3 0.77273 1.84541   6
   1  -5   3 -0.1530 1.23611   3
   1  -5   3 -1.3424 1.22666   2
   1  -5   3 0.44823 1.27155   1
   1  -5   3 0.49401 1.02717   1
  -2   5  -3 67.1063 5.63761   1
   2  -5   3 86.6549 5.62469   3
   2  -5   3 66.1806 5.37714   2
   2  -5   3 70.3396 5.68415   6
   2  -5   3 90.2457 5.41637   2
   2  -5   3 66.2593 5.74618   1
   2  -5   3 85.8055 5.87554   5
   2  -5   3 70.8660 5.50915   3
   2  -5   3 88.7063 5.86398   4
   3  -5   3 35.9048 3.49683   4
   3  -5   3 32.4535 3.36681   5
   4  -5   3 22.6777 2.29255  18
   4  -5   3 18.4997 1.81315  12
   4  -5   3 18.3353 2.72282   4
   4  -5   3 13.6298 2.34449   5
   4  -5   3 16.4636 1.26483  10
   4  -5   3 18.7031 1.79641  13
   4  -5   3 20.2097 1.86698  11
   5  -5   3 58.2603 4.41756  18
   5  -5   3 57.3074 4.13491  13
   5  -5   3 45.1395 3.73589  16
   5  -5   3 57.1390 5.49543   4
   5  -5   3 61.1612 4.05699  12
   5  -5   3 58.4554 4.46702  11
   5  -5   3 52.3697 3.69667  17
   6  -5   3 92.2683 6.60513  12
   6  -5   3 99.7982 6.99560  18
   6  -5   3 99.4616 7.36087  11
   6  -5   3 101.575 6.27768  17
   7  -5   3 6.71024 1.36121  12
   7  -5   3 5.52895 1.35694  11
   7  -5   3 7.44080 1.08609  17
   7  -5   3 6.12138 1.43121  18
   8  -5   3 29.5377 2.34049  12
   8  -5   3 33.1715 2.79194  11
   8  -5   3 29.0076 2.73450  18
   8   4  -3 34.5926 3.05720  11
   8   4  -3 34.8115 2.87428  18
   8   4  -3 43.4158 2.73875  10
   7   4  -3 34.4843 3.71165  11
   7   4  -3 34.5975 3.26153  18
   7   4  -3 38.5244 3.01735   9
   7   4  -3 34.7009 2.78361  10
   6   4  -3 20.3598 2.07335  18
   6   4  -3 13.4748 4.20620   4
   6   4  -3 19.7809 1.97724  10
   6   4  -3 17.2321 2.20629  11
   6   4  -3 18.7937 3.51069   7
   6   4  -3 17.6729 2.11609   9
   5   4  -3 0.22852 0.72515   8
   5   4  -3 1.12013 2.84344   3
   5   4  -3 0.24772 1.08826  18
   5   4  -3 -2.1693 2.54543   4
   5   4  -3 0.60837 2.22933   2
   5   4  -3 0.18218 2.13667   7
   5   4  -3 -0.2386 0.88581   9
   5   4  -3 0.64711 0.84151  10
   4   4  -3 63.9781 4.46170   8
   4   4  -3 67.9909 6.34594   3
   4   4  -3 70.2558 5.70160   2
   4   4  -3 64.2871 5.05456   7
   3   4  -3 115.060 8.46766   2
   3   4  -3 115.797 8.00971   7
   3   4  -3 120.971 9.05303   3
   2   4  -3 295.235 18.7019   7
   2   4  -3 285.566 20.5603   1
   2   4  -3 307.043 20.5616   1
   2   4  -3 308.302 19.4009   2
   2   4  -3 300.284 20.1120   3
  -2  -4   3 293.064 19.3884   2
  -2  -4   3 265.694 20.5465   1
  -2  -4   3 291.101 20.0897   3
  -2  -4   3 276.743 18.7550   5
  -2  -4   3 281.930 20.6261   1
   1   4  -3 172.245 12.3621   2
   1   4  -3 171.816 11.7833   7
   1   4  -3 181.165 12.8540   3
   1   4  -3 185.895 13.2171   1
   1   4  -3 192.529 13.1731   1
  -1  -4   3 187.661 12.0494   5
  -1  -4   3 189.237 12.8545   3
  -1  -4   3 174.707 13.1003   1
  -1  -4   3 189.688 13.2587   1
  -1  -4   3 189.469 12.4063   2
   0   4  -3 90.1522 7.43360   3
   0   4  -3 89.7900 7.07415   2
   0   4  -3 107.341 7.58776   1
   0   4  -3 110.514 7.67226   1
   0  -4   3 100.597 7.44734   3
   0  -4   3 110.920 7.65284   1
   0  -4   3 99.3197 6.99568   5
   0  -4   3 106.696 7.11780   2
   0  -4   3 103.645 7.59760   1
  -1   4  -3 467.821 30.2361   1
  -1   4  -3 439.049 30.2110   1
   1  -4   3 465.396 28.4899   2
   1  -4   3 458.991 30.1956   1
   1  -4   3 497.889 29.0199   4
   1  -4   3 378.031 29.4440   3
   1  -4   3 410.320 30.2325   1
   1  -4   3 455.063 28.3030   5
   1  -4   3 464.684 29.4944   3
   1  -4   3 374.448 28.4977   2
   1  -4   3 405.349 29.3620   6
  -2   4  -3 29.6321 2.37500   1
  -2   4  -3 24.5094 2.51643   1
   2  -4   3 24.3549 2.31629   2
   2  -4   3 21.7151 2.14702   3
   2  -4   3 22.1453 2.28043   6
   2  -4   3 25.1819 2.13005   2
   2  -4   3 26.3862 2.68721   4
   2  -4   3 20.2738 2.57652   1
   2  -4   3 24.9356 2.25316   1
   2  -4   3 23.9921 2.52196   5
   2  -4   3 27.8084 2.32968   3
   3  -4   3 281.992 19.0036   4
   3  -4   3 279.014 18.5334   5
   4  -4   3 424.788 28.5839   5
   4  -4   3 450.374 29.4385   4
   5  -4   3 35.0091 3.04128  18
   5  -4   3 28.0043 2.66547  13
   5  -4   3 29.7501 2.01121  10
   5  -4   3 28.8580 3.06716  11
   5  -4   3 31.9289 2.65872  12
   5  -4   3 34.0410 4.02587   4
   5  -4   3 35.6671 2.45401  17
   5  -4   3 32.5601 2.49011  16
   6  -4   3 18.8115 2.26345  18
   6  -4   3 15.5193 3.54345   4
   6  -4   3 21.0062 2.31192  12
   6  -4   3 19.4404 2.08269  17
   6  -4   3 18.9346 2.24028  11
   7  -4   3 -1.5740 1.10344  11
   7  -4   3 -0.0323 1.20506  18
   7  -4   3 -1.6530 1.17525  12
   7  -4   3 0.67755 1.18533  17
   8  -4   3 -0.3585 1.14769  18
   8  -4   3 -0.9200 1.09376  11
   9  -4   3 1.17437 0.80518  18
   9  -4   3 -0.0378 0.76089  11
   8   3  -3 94.3508 5.42777  10
   8   3  -3 76.8123 6.02499  18
   8   3  -3 86.8894 6.46479  11
   7   3  -3 158.961 10.8600  18
   7   3  -3 156.330 11.1423   9
   7   3  -3 165.366 9.80871  10
   7   3  -3 156.380 11.3875  11
   6   3  -3 701.211 39.6261  10
   6   3  -3 647.811 45.7157   9
   6   3  -3 695.261 43.8550  18
   6   3  -3 647.722 43.6889   2
   6   3  -3 625.232 45.1980  11
   5   3  -3 1086.97 73.2947   8
   5   3  -3 1127.48 79.0219   9
   5   3  -3 1202.98 77.5984   3
   5   3  -3 1219.78 73.3475   7
   5   3  -3 1132.18 75.5967  18
   5   3  -3 1079.27 76.1126   4
   5   3  -3 1146.29 68.4134  10
   5   3  -3 1212.60 74.9136   2
   4   3  -3 256.351 16.5679   7
   4   3  -3 243.923 17.7713   3
   4   3  -3 253.038 17.0009   2
   3   3  -3 654.233 41.1502   2
   3   3  -3 561.584 43.5404   1
   3   3  -3 650.115 40.1959   7
   3   3  -3 654.330 42.6476   3
   2   3  -3 16.8868 2.19667   1
   2   3  -3 14.2904 2.00629   3
   2   3  -3 13.1167 1.47799   7
   2   3  -3 13.4719 1.87471   1
   2   3  -3 15.2518 1.93446   2
  -2  -3   3 10.5626 2.07671   1
  -2  -3   3 12.5232 1.95768   1
  -2  -3   3 10.6960 1.31699   5
  -2  -3   3 12.3314 1.90323   3
  -2  -3   3 13.5378 1.70595   2
   1   3  -3 155.207 10.3305   1
   1   3  -3 154.726 10.4312   1
   1   3  -3 135.694 10.0516   3
   1   3  -3 139.727 9.66676   2
   1   3  -3 132.681 9.27282   7
  -1  -3   3 140.039 9.39668   5
  -1  -3   3 127.962 10.3424   1
  -1  -3   3 160.254 10.3545   1
  -1  -3   3 135.610 10.0389   3
  -1  -3   3 152.236 9.67630   2
   0   3  -3 6.87179 1.49661   3
   0   3  -3 8.06559 1.41567   1
   0   3  -3 5.53087 1.15875   2
   0   3  -3 5.80673 1.72486   1
   0  -3   3 6.81593 1.53065   3
   0  -3   3 9.34686 1.51879   1
   0  -3   3 8.43094 1.29584   2
   0  -3   3 7.43241 1.16174   5
   0  -3   3 5.65209 1.53748   1
  -1   3  -3 1.17369 1.00313   1
  -1   3  -3 1.89550 1.16267   1
   1  -3   3 2.88639 0.91615   2
   1  -3   3 4.00329 1.08981   3
   1  -3   3 2.21158 1.02334   2
   1  -3   3 3.21902 0.96522   6
   1  -3   3 2.61122 1.00739   3
   1  -3   3 0.70530 1.18587   5
   1  -3   3 2.44969 1.42386   1
   1  -3   3 2.26434 0.98060   1
   1  -3   3 2.95441 1.09951   4
  -2   3  -3 2.10135 1.20225   1
  -2   3  -3 4.60971 1.19936   1
   2  -3   3 2.26533 0.90107   3
   2  -3   3 3.50358 0.96823   1
   2  -3   3 3.80256 1.17000   2
   2  -3   3 2.38072 0.89120   2
   2  -3   3 2.18826 1.05843   5
   2  -3   3 2.33389 1.05015   3
   2  -3   3 4.35738 1.34614   4
   2  -3   3 1.89241 0.71377   6
   2  -3   3 2.39007 1.28428   1
  -3   3  -3 43.7206 3.64877   1
   3  -3   3 47.3422 3.45712   2
   3  -3   3 45.8260 3.53455   3
   3  -3   3 50.9546 3.37553   2
   3  -3   3 47.8492 3.55854   3
   3  -3   3 50.3170 3.75177   5
   3  -3   3 50.6345 4.16721   4
   3  -3   3 44.9239 3.72870   1
   3  -3   3 46.3221 3.57312   1
   4  -3   3 14.5461 2.43334   4
   4  -3   3 13.4582 1.89069   5
   5  -3   3 35.1852 2.94652  12
   5  -3   3 35.5591 2.84116  16
   5  -3   3 35.5120 3.36637  11
   5  -3   3 38.7210 2.50455  10
   5  -3   3 41.2238 3.03071  18
   5  -3   3 38.1526 4.32497   4
   5  -3   3 38.9582 2.76025  17
   6  -3   3 8.15059 0.78353  10
   6  -3   3 7.29674 3.06236   4
   6  -3   3 9.54590 1.73375  18
   6  -3   3 6.80472 1.37684  12
   6  -3   3 6.54896 1.67895  11
   6  -3   3 10.0837 1.38586  17
   7  -3   3 13.5938 2.05005  18
   7  -3   3 12.5926 1.59929  17
   7  -3   3 13.2453 1.70317  11
   7  -3   3 9.95441 1.58380  12
   8  -3   3 6.25425 1.69409  11
   8  -3   3 8.97816 1.39976  18
   9  -3   3 0.15864 0.72710  11
   9  -3   3 -1.1522 0.73466  18
   9   2  -3 82.2078 5.68144  18
   8   2  -3 2.67990 0.83043  10
   8   2  -3 2.09086 0.71596  17
   8   2  -3 0.77571 1.49913  18
   8   2  -3 0.91701 1.55198  11
   7   2  -3 25.1361 2.38759  18
   7   2  -3 24.3955 3.01780  11
   7   2  -3 20.4785 2.11630  10
   7   2  -3 22.4528 2.08428  17
   6   2  -3 2.73316 0.85349   9
   6   2  -3 5.43217 2.10211   2
   6   2  -3 2.04802 2.14063   7
   6   2  -3 2.76027 2.68738   4
   6   2  -3 1.90041 0.77987  10
   6   2  -3 2.42445 1.31419  11
   6   2  -3 3.39366 1.18069  17
   6   2  -3 3.69518 2.08407   3
   6   2  -3 3.36401 0.99759  18
   5   2  -3 1.90094 0.97425  16
   5   2  -3 2.10237 1.67368   7
   5   2  -3 3.27032 1.61565   2
   5   2  -3 2.61496 0.81844  10
   5   2  -3 3.09828 0.96035  17
   5   2  -3 2.24139 2.07678   3
   5   2  -3 2.78323 1.06969  18
   5   2  -3 1.92028 0.50161   8
   5   2  -3 2.92414 0.85192   9
   5   2  -3 5.26795 2.63627   4
   4   2  -3 143.785 9.62903   2
   4   2  -3 141.312 9.55225   7
   4   2  -3 129.969 9.94156   4
   4   2  -3 137.633 10.1261   3
   3   2  -3 56.4797 4.32459   2
   3   2  -3 52.9070 4.57563   1
   3   2  -3 54.5254 4.10891   7
   3   2  -3 53.4533 4.49370   3
  -3  -2   3 45.1670 4.45880   1
  -3  -2   3 53.0337 4.73061   1
   2   2  -3 204.748 13.2791   2
   2   2  -3 196.873 12.8921   7
   2   2  -3 214.092 14.1362   1
   2   2  -3 195.947 14.0280   1
   2   2  -3 202.537 13.7943   3
  -2  -2   3 213.255 14.1400   1
  -2  -2   3 207.997 14.1665   1
  -2  -2   3 171.577 13.1973   2
  -2  -2   3 182.854 13.7596   3
   1   2  -3 69.8176 5.47558   3
   1   2  -3 79.7187 5.63764   1
   1   2  -3 70.3619 5.24420   2
   1   2  -3 73.7131 5.65007   1
  -1  -2   3 77.6827 5.26328   2
  -1  -2   3 67.9206 5.45496   3
  -1  -2   3 76.4355 5.78247   1
  -1  -2   3 79.7039 5.72172   1
   0   2  -3 2.74571 1.15808   3
   0   2  -3 0.56475 1.27122   1
   0   2  -3 1.31411 1.12302   1
   0   2  -3 1.77306 0.89955   2
   0  -2   3 0.25490 1.33293   1
   0  -2   3 2.19445 1.12180   3
   0  -2   3 0.76230 0.74677   4
   0  -2   3 0.93449 0.93787   2
   0  -2   3 0.39377 1.10824   1
  -1   2  -3 5.13531 1.49054   1
  -1   2  -3 4.92189 1.39106   1
   1  -2   3 3.41001 1.03249   4
   1  -2   3 1.68622 0.92952   5
   1  -2   3 3.55103 1.07469   3
   1  -2   3 2.10761 1.25328   2
   1  -2   3 2.36465 0.99655   3
   1  -2   3 3.83725 1.55453   1
   1  -2   3 3.71844 1.07450   1
   1  -2   3 3.77418 0.93106   2
  -2   2  -3 9.04445 1.78327   1
  -2   2  -3 7.51692 1.43671   1
   2  -2   3 8.11022 1.31062   1
   2  -2   3 8.24253 1.49319   2
   2  -2   3 6.84255 1.67231   1
   2  -2   3 8.62881 1.21795   2
   2  -2   3 9.91621 1.41775   5
   2  -2   3 9.74225 1.48425   3
   2  -2   3 7.18406 1.26648   3
   2  -2   3 7.86534 1.52929   4
  -3   2  -3 80.4333 6.49944   1
   3  -2   3 91.1074 6.58941   4
   3  -2   3 85.5505 6.10859   3
   3  -2   3 80.7472 6.21510   1
   3  -2   3 89.1627 5.84536   2
   3  -2   3 85.7762 5.90606   5
   3  -2   3 79.7587 5.84986   2
   3  -2   3 83.9989 6.04711   3
   3  -2   3 82.2241 6.27570   1
   4  -2   3 226.940 14.9449   4
   4  -2   3 187.079 14.0034   2
   4  -2   3 200.950 14.5261   3
   4  -2   3 233.951 14.0753   2
   4  -2   3 220.005 14.5949   3
   5  -2   3 464.923 33.1877  11
   5  -2   3 503.867 33.0100   4
   5  -2   3 487.575 31.1560  12
   5  -2   3 495.606 29.1147  17
   5  -2   3 492.992 32.2286  18
   5  -2   3 483.222 29.0510  10
   6  -2   3 131.756 8.94398  11
   6  -2   3 124.456 7.46752  10
   6  -2   3 120.491 8.24499  12
   6  -2   3 117.308 8.61697  18
   6  -2   3 113.999 9.75865   4
   6  -2   3 124.574 7.68765  17
   7  -2   3 144.719 9.30782  17
   7  -2   3 150.816 9.95311  12
   7  -2   3 160.767 10.8084  11
   7  -2   3 147.457 9.01729  10
   7  -2   3 148.514 10.3103  18
   8  -2   3 -0.6967 1.07381  18
   8  -2   3 0.05735 1.49396  11
   9   1  -3 5.12926 1.14965  18
   9   1  -3 6.55732 0.78712  17
   8   1  -3 28.4110 2.46562  17
   8   1  -3 31.0289 2.21074  10
   8   1  -3 32.2232 3.23108  11
   8   1  -3 31.6379 3.21788  18
   7   1  -3 7.92987 1.30772  17
   7   1  -3 8.31588 1.03065  10
   7   1  -3 5.57770 1.64412  18
   7   1  -3 5.71115 1.60130  11
   6   1  -3 1.06171 0.91575  18
   6   1  -3 2.24700 0.68401   9
   6   1  -3 2.58525 1.15746  16
   6   1  -3 2.45954 0.77219  10
   6   1  -3 5.36545 2.73635   7
   6   1  -3 3.59391 2.28321   4
   6   1  -3 2.31648 0.98914  17
   6   1  -3 1.61235 1.18492  11
   5   1  -3 11.2831 2.14382   3
   5   1  -3 9.62387 1.12028   9
   5   1  -3 12.2887 1.07185  10
   5   1  -3 14.7902 2.27954   7
   5   1  -3 11.3973 1.41178  18
   5   1  -3 9.50892 1.72813   2
   5   1  -3 8.31140 2.12544   4
   5   1  -3 14.5952 1.33930  16
   4   1  -3 36.5521 3.48393   7
   4   1  -3 31.9076 3.28828   4
   4   1  -3 34.6331 3.30287   3
   4   1  -3 35.2365 3.11145   2
   3   1  -3 4.79742 1.21723   1
   3   1  -3 4.09966 1.00495   2
   3   1  -3 5.35017 1.52272   7
   3   1  -3 6.94152 1.50767   1
   3   1  -3 5.75324 1.41907   3
   3   1  -3 7.70347 1.30593   2
   3   1  -3 4.66957 1.37649   3
  -3  -1   3 4.81561 1.63309   1
  -3  -1   3 4.82858 1.32219   1
   2   1  -3 286.761 19.0800   7
   2   1  -3 308.352 20.7187   1
   2   1  -3 289.924 20.1848   3
   2   1  -3 309.797 19.5038   2
  -2  -1   3 255.500 20.1645   3
  -2  -1   3 322.491 20.7188   1
  -2  -1   3 313.969 20.7557   1
   1   1  -3 162.633 11.1783   3
   1   1  -3 165.472 11.1513   6
   1   1  -3 190.459 11.5972   1
   1   1  -3 158.077 11.4623   1
   1   1  -3 169.926 10.8624   2
  -1  -1   3 167.556 11.4844   1
  -1  -1   3 152.256 11.1570   3
  -1  -1   3 165.354 11.5808   1
  -1  -1   3 140.309 10.7436   2
   0   1  -3 4497.75 297.603   1
   0   1  -3 4278.92 288.356   6
   0   1  -3 4234.75 280.804   2
   0  -1   3 4263.86 297.843   1
   0  -1   3 4560.12 298.038   1
   0  -1   3 4307.27 281.472   2
   0  -1   3 4516.80 290.843   3
   0  -1   3 4177.78 284.383   4
  -1   1  -3 997.700 74.4226   3
  -1   1  -3 1097.39 76.2593   1
  -1   1  -3 1162.15 76.3861   1
   1  -1   3 1138.80 72.9194   4
   1  -1   3 1175.36 74.4144   3
  -2   1  -3 2.61628 1.40750   1
  -2   1  -3 -0.1260 1.66484   1
   2  -1   3 1.52319 0.95681   5
   2  -1   3 0.80051 1.22246   2
   2  -1   3 0.73260 1.26849   4
   2  -1   3 0.81068 1.21657   2
   2  -1   3 0.93475 1.07059   3
   2  -1   3 1.38463 1.51591   1
   2  -1   3 1.03151 1.43898   1
   2  -1   3 1.70593 1.27663   3
   3  -1   3 633.786 43.8393   5
   3  -1   3 629.932 47.1165   1
   3  -1   3 738.437 44.4562   2
   3  -1   3 620.708 47.0983   1
   3  -1   3 756.941 45.2903   4
   3  -1   3 728.471 45.9904   3
   4  -1   3 289.918 18.8874   2
   4  -1   3 271.691 19.5764   3
   4  -1   3 294.106 19.5823   4
   5  -1   3 45.0754 3.50726  18
   5  -1   3 40.1211 2.88597  10
   5  -1   3 44.1636 2.88643  17
   5  -1   3 45.3717 3.72497   2
   5  -1   3 43.9623 3.25005  12
   5  -1   3 39.7878 3.17288   9
   5  -1   3 52.8949 4.96512   4
   5  -1   3 41.7626 4.04873   3
   5  -1   3 43.4618 3.63925  11
   6  -1   3 178.228 14.2168   4
   6  -1   3 187.310 13.0000  18
   6  -1   3 196.893 13.5362  11
   6  -1   3 195.049 11.6413  10
   6  -1   3 192.900 12.6078  12
   6  -1   3 198.698 11.7546  17
   7  -1   3 15.0224 2.14182  18
   7  -1   3 16.9269 1.49538  10
   7  -1   3 17.1201 1.90967  11
   8  -1   3 2.18374 1.50188  11
   8  -1   3 2.29342 1.03860  18
   9   0  -3 -1.5622 0.92531  17
   9   0  -3 0.06469 1.50644  18
   8   0  -3 94.4403 6.72041  18
   8   0  -3 94.0508 6.99576  11
   8   0  -3 93.5920 6.01823  17
   7   0  -3 410.739 30.6040   7
   7   0  -3 472.693 27.9623  17
   7   0  -3 446.732 31.8530  11
   7   0  -3 480.273 27.8478  10
   7   0  -3 484.269 31.0205  18
   7   0  -3 496.993 29.0733  16
   6   0  -3 394.174 23.3630  16
   6   0  -3 378.778 22.4833  17
   6   0  -3 383.328 24.9363  18
   6   0  -3 350.624 25.6147  11
   6   0  -3 379.844 24.8423   7
   6   0  -3 364.775 22.3854  10
   5   0  -3 333.832 20.2116  10
   5   0  -3 317.801 22.8042   4
   5   0  -3 344.123 22.8074  15
   5   0  -3 347.585 22.1697   2
   5   0  -3 345.871 22.2069   7
   5   0  -3 341.536 22.9395   3
   5   0  -3 338.578 22.4655  18
   4   0  -3 2.26802 1.01741   2
   4   0  -3 1.19820 1.27599   4
   4   0  -3 -0.5442 0.58803   2
   4   0  -3 2.75607 1.22525   3
   4   0  -3 0.50882 0.98058   3
   4   0  -3 0.58770 1.58554   7
   3   0  -3 1324.31 84.7195   3
   3   0  -3 1331.20 84.5756   6
   3   0  -3 1183.68 81.9560   2
   3   0  -3 1201.04 84.7276   3
   3   0  -3 1328.43 80.3946   7
   3   0  -3 1221.88 86.7509   1
   3   0  -3 1345.99 81.9995   2
   3   0  -3 1322.84 86.7799   1
   3   0  -3 1095.68 82.9819   4
  -3   0   3 1393.92 86.8176   1
  -3   0   3 1225.54 86.8344   1
   2   0  -3 84.9388 6.06244   3
   2   0  -3 94.6064 6.31596   1
   2   0  -3 70.1102 5.72491   4
   2   0  -3 94.4585 5.84052   2
   2   0  -3 86.5954 6.14123   1
   2   0  -3 72.5662 5.70874   2
   2   0  -3 81.1443 6.06972   3
   2   0  -3 88.9424 6.37876   6
   2   0  -3 91.8368 5.85462   7
  -2   0   3 90.0615 6.19347   1
  -2   0   3 85.9481 6.38463   1
   1   0  -3 491.645 31.3754   3
   1   0  -3 436.661 31.2493   6
   1   0  -3 472.861 31.3595   3
   1   0  -3 461.048 30.3894   2
   1   0  -3 466.867 32.1986   1
  -1   0   3 437.906 30.3082   2
  -1   0   3 460.260 31.3466   3
  -1   0   3 467.944 32.2136   1
  -1   0   3 515.351 32.1428   1
   0   0  -3 469.811 32.6103   1
   0   0  -3 450.977 32.4756   1
   0   0  -3 461.649 30.7520   2
   0   0  -3 414.593 31.4078   6
   0   0  -3 480.550 31.6972   3
   0   0   3 480.845 32.5811   1
   0   0   3 431.045 30.8756   4
   0   0   3 509.833 30.6456   2
   0   0   3 527.626 32.5025   1
   0   0   3 493.692 31.6634   3
  -1   0  -3 76.7875 6.64978   1
  -1   0  -3 88.8098 6.35976   1
  -1   0  -3 68.2213 6.10811   2
  -1   0  -3 82.5488 6.13353   3
   1   0   3 91.9791 6.11984   3
   1   0   3 78.5396 5.79727   4
   1   0   3 89.2521 6.54352   1
   1   0   3 82.3963 6.31183   1
   1   0   3 82.4900 5.82537   2
  -2   0  -3 12.2857 2.55094   1
  -2   0  -3 15.7014 1.97315   1
   2   0   3 16.4277 2.08593   3
   2   0   3 8.17108 1.54913   2
   2   0   3 11.9933 2.03346   1
   2   0   3 9.74255 1.91633   1
   2   0   3 13.8583 1.77801   2
   2   0   3 12.2546 1.84260   4
   3   0   3 11.1376 1.98606   3
   3   0   3 4.62692 1.62806   2
   3   0   3 5.38814 1.77845   4
   4   0   3 -2.2218 1.43576   2
   4   0   3 0.01970 1.74283   4
   4   0   3 -0.7047 1.77862   3
   5   0   3 -2.5842 1.08074  11
   5   0   3 -0.3901 0.87592  12
   5   0   3 -0.2393 1.09645  18
   5   0   3 0.70502 2.41265   4
   5   0   3 -0.7853 0.70251   9
   5   0   3 1.98055 2.23171   3
   5   0   3 -0.6070 0.86377  17
   5   0   3 0.13888 1.75140   2
   5   0   3 -0.8518 0.78380  10
   6   0   3 17.0484 3.66503   4
   6   0   3 16.6901 1.90692  10
   6   0   3 17.4639 2.18083  11
   6   0   3 19.3555 2.20141  12
   6   0   3 21.2270 2.52414  18
   6   0   3 18.7358 2.04612  17
   6   0   3 20.0734 1.72183   9
   7   0   3 3.82292 0.77480  10
   7   0   3 1.71455 1.62816  11
   7   0   3 4.41249 1.55533  18
   8   0   3 1.53674 0.94971  18
   8   0   3 4.10877 1.14360  11
   9  -1  -3 72.0835 4.57177  17
   8  -1  -3 -0.1508 1.28716  11
   8  -1  -3 -0.7173 1.61882  18
   8  -1  -3 -0.3591 1.11186  17
   7  -1  -3 41.5153 3.36211  16
   7  -1  -3 35.9199 3.51424  11
   7  -1  -3 39.2486 2.53400  10
   7  -1  -3 32.3287 4.25320   7
   7  -1  -3 38.2772 3.61987  18
   7  -1  -3 42.2679 3.03588  17
   6  -1  -3 19.2370 2.42467  15
   6  -1  -3 13.7901 2.74911   7
   6  -1  -3 15.2570 1.28674  10
   6  -1  -3 18.4849 1.69457  16
   6  -1  -3 15.7634 1.82105  18
   6  -1  -3 13.9992 1.67589  11
   6  -1  -3 15.5901 1.53258  17
   5  -1  -3 41.5345 4.05863   7
   5  -1  -3 39.8664 3.67746  15
   5  -1  -3 36.4380 3.39606   4
   4  -1  -3 1.94530 1.59321   7
   4  -1  -3 0.97805 0.67760   2
   4  -1  -3 2.31860 1.05377   4
   4  -1  -3 1.95488 0.82257   3
   4  -1  -3 0.29088 2.49818   6
   4  -1  -3 2.52996 0.92899   3
  -4   1   3 0.41643 0.79733   1
   3  -1  -3 25.0908 2.83742   6
   3  -1  -3 21.4008 2.02765   1
   3  -1  -3 21.9972 2.11138   1
   3  -1  -3 21.5844 2.06263   3
   3  -1  -3 21.6300 1.79660   2
   3  -1  -3 20.5150 2.14945   7
   3  -1  -3 19.8028 2.00018   3
   3  -1  -3 19.5398 1.80589   2
   3  -1  -3 18.8383 1.76262   4
  -3   1   3 19.6470 2.43125   1
  -3   1   3 19.9479 1.97159   1
   2  -1  -3 400.076 30.4491   1
   2  -1  -3 454.840 28.2183   7
   2  -1  -3 431.803 28.9605   4
   2  -1  -3 443.221 29.7198   3
   2  -1  -3 497.509 28.7976   2
   2  -1  -3 391.021 28.7318   2
   2  -1  -3 429.009 29.8566   6
   2  -1  -3 453.198 29.7336   3
   2  -1  -3 474.249 30.4971   1
  -2   1   3 491.962 30.4636   1
  -2   1   3 409.744 30.5383   1
   1  -1  -3 651.128 44.9229   3
   1  -1  -3 638.993 46.1171   1
   1  -1  -3 683.791 43.5575   2
   1  -1  -3 652.714 44.8059   6
  -1   1   3 642.258 44.9038   3
  -1   1   3 751.337 46.0727   1
  -1   1   3 679.915 46.1340   1
   0  -1  -3 747.892 51.7308   6
   0  -1  -3 783.488 51.9982   3
   0  -1  -3 722.757 50.3802   2
   0  -1  -3 812.092 53.2786   1
   0  -1  -3 756.770 53.3856   1
   0   1   3 818.514 53.2977   1
   0   1   3 836.328 52.0009   3
   0   1   3 763.240 53.3922   1
   0   1   3 749.228 50.2870   2
  -1  -1  -3 10.3369 2.38877   1
  -1  -1  -3 10.0460 1.77420   3
  -1  -1  -3 11.6533 2.15411   2
  -1  -1  -3 10.1860 1.70247   1
   1   1   3 8.26243 1.39182   4
   1   1   3 11.3443 1.73718   3
   1   1   3 8.86498 1.42544   2
   1   1   3 9.33560 1.83095   1
   1   1   3 9.75580 2.14890   1
  -2  -1  -3 -0.1296 2.32145   1
  -2  -1  -3 3.26557 1.64590   1
   2   1   3 0.09039 1.29815   4
   2   1   3 1.42982 1.41612   2
   2   1   3 2.27140 1.78769   3
   2   1   3 1.00297 1.52527   1
   2   1   3 2.74960 1.55235   1
   3   1   3 166.608 11.7902   2
   3   1   3 192.094 12.5473   3
   3   1   3 159.222 12.0585   4
   4   1   3 161.177 12.2638   9
   4   1   3 185.737 12.2427   2
   4   1   3 174.969 12.6674   4
   4   1   3 161.801 12.1522  11
   4   1   3 186.138 11.2956   8
   4   1   3 171.384 10.6237  10
   4   1   3 197.262 13.0824   3
   5   1   3 82.9940 5.14623  17
   5   1   3 75.9622 6.59972   2
   5   1   3 85.7335 6.05243  11
   5   1   3 76.7357 5.89367   9
   5   1   3 80.3145 7.24889   3
   5   1   3 81.5818 5.66760  12
   5   1   3 82.8868 7.25355   4
   5   1   3 81.6480 5.12901  10
   5   1   3 77.2935 5.74479  18
   6   1   3 63.2329 4.46276  10
   6   1   3 76.7853 5.50362  11
   6   1   3 67.8173 5.11762  18
   7   1   3 82.1152 5.72874  11
   7   1   3 74.4680 5.56175  18
   7   1   3 73.0761 4.82212  10
   8   1   3 18.0527 1.98253  11
   8   1   3 18.8066 1.32980  10
   9  -2  -3 20.8558 2.18428  18
   9  -2  -3 19.3481 1.70629  17
   8  -2  -3 31.9464 2.87686  18
   8  -2  -3 22.8715 2.82399  11
   8  -2  -3 30.9932 2.56827  17
   8  -2  -3 30.7034 2.52687  16
   7  -2  -3 8.79759 1.12563  17
   7  -2  -3 5.99522 1.47706  16
   7  -2  -3 5.60638 1.36061  11
   7  -2  -3 4.67881 2.65165   7
   7  -2  -3 7.54027 1.73625  18
   6  -2  -3 49.0505 4.31736  11
   6  -2  -3 61.6785 4.08894  16
   6  -2  -3 64.5087 3.88543  17
   6  -2  -3 58.6995 4.23009  18
   6  -2  -3 55.1599 3.47778  10
   6  -2  -3 59.8077 5.50124   7
   6  -2  -3 62.3882 4.93112  15
   6  -2  -3 46.5904 5.27791  14
   5  -2  -3 27.5281 3.16733  15
   5  -2  -3 30.6412 2.46788  16
   5  -2  -3 35.1966 3.40028   7
   5  -2  -3 31.3639 2.29772  17
   4  -2  -3 5.08008 1.42588   7
   4  -2  -3 3.77980 0.92584   4
   4  -2  -3 3.53753 2.19806   6
   3  -2  -3 3.09109 0.68180   2
   3  -2  -3 4.41241 0.71491   2
   3  -2  -3 4.77230 2.39470   6
   3  -2  -3 2.83967 0.79374   1
   3  -2  -3 4.24908 1.31710   7
   3  -2  -3 5.07919 0.85759   3
   3  -2  -3 3.53866 0.79483   1
   3  -2  -3 4.49793 0.80762   4
   3  -2  -3 4.61731 0.82316   3
  -3   2   3 2.70161 0.91910   1
  -3   2   3 4.37439 0.74440   1
   2  -2  -3 95.6239 6.64211   1
   2  -2  -3 98.9719 6.49726   3
   2  -2  -3 87.1474 6.87362   1
   2  -2  -3 93.2643 6.46595   3
   2  -2  -3 88.9391 6.17501   2
   2  -2  -3 91.6288 6.14686   7
   2  -2  -3 90.6128 6.37678   2
   2  -2  -3 94.2704 7.04741   6
  -2   2   3 80.1603 6.81812   1
  -2   2   3 90.7343 6.62996   1
   1  -2  -3 8307.21 529.695   1
   1  -2  -3 8920.90 517.932   3
   1  -2  -3 7688.91 500.425   2
   1  -2  -3 7797.16 513.574   6
   1  -2  -3 7201.02 499.794   2
   1  -2  -3 6944.00 528.907   1
  -1   2   3 7886.04 529.730   1
  -1   2   3 7528.87 530.061   1
  -1   2   3 7583.59 516.173   3
   0  -2  -3 221.051 15.1670   6
   0  -2  -3 220.951 15.0779   3
   0  -2  -3 231.177 14.7030   2
   0  -2  -3 214.175 15.3755   1
   0  -2  -3 225.371 15.6829   1
   0   2   3 223.121 15.6094   1
   0   2   3 204.135 15.0228   3
   0   2   3 193.494 14.4200   2
   0   2   3 227.941 15.4292   1
  -1  -2  -3 467.247 32.4278   1
  -1  -2  -3 494.027 30.7782   2
  -1  -2  -3 482.630 32.6754   1
  -1  -2  -3 436.885 31.6425   3
   1   2   3 468.758 32.5444   1
   1   2   3 437.264 31.6551   3
   1   2   3 471.857 32.4369   1
   1   2   3 475.995 30.5641   2
  -2  -2  -3 288.554 20.9423   1
   2   2   3 321.666 19.7302   2
   2   2   3 294.461 19.9210   4
   2   2   3 291.155 20.9500   1
   2   2   3 318.985 20.5256   3
   2   2   3 255.884 20.9555   1
   3   2   3 5.88218 2.41982   3
   3   2   3 2.99102 1.83157   4
   3   2   3 4.01375 1.79458   2
   4   2   3 1.83872 2.14715   2
   4   2   3 0.88803 0.65964   8
   4   2   3 -0.9803 2.22896   4
   4   2   3 -1.9371 2.75229   3
   4   2   3 2.05057 0.94508  10
   4   2   3 0.89231 1.00564   9
   5   2   3 69.2458 6.71373   4
   5   2   3 74.7735 5.39716  11
   5   2   3 70.5104 4.64974  10
   5   2   3 64.6736 6.16821   2
   5   2   3 70.4622 5.19878   9
   5   2   3 67.8992 4.55306   8
   5   2   3 65.6337 4.92591  12
   5   2   3 74.2797 7.19152   3
   6   2   3 34.7737 3.04699  11
   6   2   3 31.3686 2.62867  10
   6   2   3 33.6608 2.94435   9
   7   2   3 1.24290 0.92767  10
   7   2   3 -1.1379 0.99612  11
   8   2   3 14.3094 1.56534  11
   8   2   3 13.8448 1.07354  10
   9  -3  -3 6.58566 1.38901  18
   9  -3  -3 10.7470 1.14060  17
   8  -3  -3 59.9071 4.62850  16
   8  -3  -3 62.5417 4.33137  17
   8  -3  -3 66.4671 5.11708  18
   7  -3  -3 25.2413 2.47969  17
   7  -3  -3 29.5606 3.14729  15
   7  -3  -3 30.1174 3.19976  18
   7  -3  -3 19.4115 3.46204   7
   7  -3  -3 28.8996 2.66965  11
   7  -3  -3 24.9123 2.35368  16
   6  -3  -3 124.442 9.24833  11
   6  -3  -3 124.840 10.2473  14
   6  -3  -3 137.389 9.50919  15
   6  -3  -3 138.015 9.16596  18
   6  -3  -3 135.947 8.54764  16
   6  -3  -3 135.928 8.19710  17
   6  -3  -3 126.827 9.65992   7
   5  -3  -3 1.90223 1.62002  15
   5  -3  -3 0.56299 1.80649  14
   5  -3  -3 4.06931 0.98274  16
   5  -3  -3 1.93513 3.24742   6
   5  -3  -3 2.63389 0.87729  17
   5  -3  -3 1.59059 1.51617   7
   4  -3  -3 277.845 19.3321   6
   4  -3  -3 272.842 17.9499   7
   3  -3  -3 741.483 45.0626   5
   3  -3  -3 697.066 44.3978   7
   3  -3  -3 713.813 46.5947   3
   3  -3  -3 692.367 45.0697   2
   3  -3  -3 726.337 47.1558   6
   3  -3  -3 726.646 45.0924   2
   3  -3  -3 653.193 47.6836   1
   3  -3  -3 739.746 46.5928   3
  -3   3   3 640.346 47.6948   1
  -3   3   3 663.539 47.6868   1
   2  -3  -3 88.1204 6.11343   1
   2  -3  -3 85.6461 6.89399   6
   2  -3  -3 79.0201 5.67131   2
   2  -3  -3 88.3183 6.11871   2
   2  -3  -3 89.1116 6.03678   5
   2  -3  -3 75.6686 6.01207   3
   2  -3  -3 82.0243 5.57302   7
   2  -3  -3 88.1646 6.00455   3
   2  -3  -3 71.7460 6.55845   1
  -2   3   3 78.8982 6.28301   1
  -2   3   3 86.2508 6.25115   1
   1  -3  -3 1319.91 85.2180   2
   1  -3  -3 1293.17 90.2435   1
   1  -3  -3 1355.50 87.7912   6
   1  -3  -3 1369.66 90.0668   1
   1  -3  -3 1350.66 87.9695   3
   1  -3  -3 1124.79 85.0330   2
  -1   3   3 1366.49 90.1239   1
  -1   3   3 1354.67 90.2104   1
   0  -3  -3 38.4118 3.51357   1
   0  -3  -3 35.3369 3.92866   3
   0  -3  -3 38.9830 4.27785   1
   0  -3  -3 35.1651 3.92997   2
   0   3   3 34.1996 3.71869   3
   0   3   3 38.5775 3.74727   1
   0   3   3 34.2903 4.00230   1
   0   3   3 35.9813 3.25156   2
  -1  -3  -3 10.0455 2.08395   1
  -1  -3  -3 13.2345 2.78479   1
  -1  -3  -3 14.6604 2.65778   3
  -1  -3  -3 16.1130 2.66676   2
   1   3   3 15.0825 2.44644   1
   1   3   3 13.7596 2.29701   1
   1   3   3 16.0300 2.53126   3
   1   3   3 13.1315 1.90902   2
  -2  -3  -3 7.58145 2.11511   1
   2   3   3 11.7941 2.07251   2
   2   3   3 7.68932 2.13656   1
   2   3   3 12.3292 2.59548   3
   3   3   3 -0.7206 2.60034   3
   3   3   3 2.59935 2.07910   4
   3   3   3 0.22404 1.88722   2
   4   3   3 18.8355 1.65132   8
   4   3   3 19.8980 4.17760   3
   4   3   3 19.2617 1.84677  10
   4   3   3 19.4480 3.25789   2
   4   3   3 20.2420 2.23233   9
   4   3   3 21.4764 3.50207   4
   5   3   3 4.56637 1.17717   9
   5   3   3 7.22264 3.23525   4
   5   3   3 7.54686 0.86818   8
   5   3   3 7.36875 1.49120  11
   5   3   3 5.63534 1.12806  10
   6   3   3 1.64703 1.52002  11
   6   3   3 0.73435 1.03735  10
   6   3   3 2.37668 0.91903   9
   7   3   3 41.8411 3.52802  11
   7   3   3 37.2255 2.62526  10
   9  -4  -3 30.8396 2.73824  18
   8  -4  -3 2.69500 1.42046  16
   8  -4  -3 1.64500 1.21017  17
   8  -4  -3 2.42795 1.30564  18
   7  -4  -3 10.7629 1.65868  16
   7  -4  -3 11.8751 2.21310  14
   7  -4  -3 12.7956 1.34075  17
   7  -4  -3 11.2515 2.58409  15
   7  -4  -3 12.8895 1.65781  18
   6  -4  -3 -0.6532 1.94476  15
   6  -4  -3 0.98595 1.08817  16
   6  -4  -3 -0.9840 2.10817  14
   6  -4  -3 -0.5186 1.09598  13
   6  -4  -3 -0.5329 1.71880   7
   6  -4  -3 0.87507 1.28160  18
   6  -4  -3 1.08747 0.97110  17
   5  -4  -3 4.82608 1.11048  17
   5  -4  -3 5.02499 1.14069  18
   5  -4  -3 6.31032 1.14155  13
   5  -4  -3 4.62216 1.98722  14
   5  -4  -3 4.18844 1.82473  15
   5  -4  -3 4.94118 1.08049  16
   5  -4  -3 1.53437 2.90546   6
   5  -4  -3 4.94231 0.84340  12
   5  -4  -3 2.69837 1.43014   7
   4  -4  -3 119.960 8.35773   7
   4  -4  -3 127.188 9.86057   6
   3  -4  -3 0.62585 0.81876   3
   3  -4  -3 0.13789 0.65030   1
   3  -4  -3 0.37649 0.64766   2
   3  -4  -3 1.47659 0.95613   7
   3  -4  -3 0.80280 0.98038   2
   3  -4  -3 -0.2002 1.35141   5
   3  -4  -3 4.63782 3.03027   6
   3  -4  -3 -0.9398 0.79049   3
  -3   4   3 0.10072 0.63620   1
   2  -4  -3 21.3059 2.39889   5
   2  -4  -3 16.1266 1.83613   1
   2  -4  -3 14.6473 1.85569   3
   2  -4  -3 12.1950 2.34906   1
   2  -4  -3 13.8988 1.63285   2
   2  -4  -3 19.7992 2.08789   3
   2  -4  -3 16.7238 3.70883   6
   2  -4  -3 17.2976 1.48373   7
   2  -4  -3 16.6497 2.28970   2
  -2   4   3 10.9517 1.89106   1
   1  -4  -3 18.6892 3.17961   6
   1  -4  -3 12.3804 1.72714   1
   1  -4  -3 14.3006 2.33955   2
   1  -4  -3 13.9125 2.67419   1
   1  -4  -3 16.2429 2.29727   3
  -1   4   3 13.1268 2.21027   1
  -1   4   3 12.6463 2.13644   1
   0  -4  -3 27.7068 3.56539   6
   0  -4  -3 24.0586 3.36150   1
   0  -4  -3 26.3414 2.90324   1
   0  -4  -3 24.2757 3.17713   2
   0  -4  -3 32.4631 3.85267   3
   0   4   3 23.0746 3.15452   1
  -1  -4  -3 3.17238 2.35657   2
  -1  -4  -3 5.26235 2.42691   3
  -1  -4  -3 8.27437 2.55541   1
   1   4   3 1.90196 1.82102   1
   2   4   3 0.56973 1.77074   2
   2   4   3 1.53649 2.36816   3
   3   4   3 3.42745 2.70380   3
   3   4   3 7.82323 2.56937   4
   3   4   3 5.43968 0.89371   8
   3   4   3 4.34091 2.34592   2
   4   4   3 21.4315 3.79073   2
   4   4   3 27.0053 2.61277   9
   4   4   3 17.9468 4.54815   3
   4   4   3 24.3138 1.98616   8
   4   4   3 20.0438 3.78102   4
   5   4   3 5.96671 1.19332  10
   5   4   3 4.14936 1.46275  11
   5   4   3 5.81426 0.86176   8
   5   4   3 6.35111 1.29306   9
   6   4   3 46.1165 3.94415  11
   6   4   3 52.5340 3.93096   9
   6   4   3 49.9137 3.56123  10
   7   4   3 38.3577 2.72896  10
   7   4   3 45.8833 3.52958  11
   9  -5  -3 3.69473 1.42765  18
   8  -5  -3 27.0169 2.72043  15
   8  -5  -3 25.7108 2.56496  16
   8  -5  -3 21.6312 2.57892  18
   7  -5  -3 34.5189 3.89839  14
   7  -5  -3 35.5619 4.16167  15
   7  -5  -3 30.9962 3.26142  18
   7  -5  -3 32.3542 2.59839  16
   7  -5  -3 34.6437 2.64821  17
   7  -5  -3 26.2530 2.91993  13
   6  -5  -3 13.3480 1.51719  12
   6  -5  -3 13.0429 2.77124  14
   6  -5  -3 17.4574 1.83434  13
   6  -5  -3 18.6797 1.79527  17
   6  -5  -3 15.9804 2.61417  15
   6  -5  -3 12.1481 1.84471  18
   6  -5  -3 14.8047 4.14939   6
   6  -5  -3 14.1537 1.65081  16
   5  -5  -3 1.79491 1.01320  16
   5  -5  -3 2.44403 1.13140  13
   5  -5  -3 3.97507 0.85592  17
   5  -5  -3 3.27029 4.11958   6
   5  -5  -3 -0.4470 1.96757  14
   5  -5  -3 1.37766 1.87411  15
   5  -5  -3 1.58525 0.75479  12
   4  -5  -3 2.82818 3.59477   6
   4  -5  -3 1.13613 1.01105  13
   4  -5  -3 0.82507 0.68232  10
   4  -5  -3 -1.1864 1.65397  14
   4  -5  -3 1.65879 1.79963  15
   3  -5  -3 21.9244 2.73038   2
   3  -5  -3 25.4640 4.30072   6
   3  -5  -3 25.6739 2.39307   3
   3  -5  -3 24.6499 3.06221   5
   3  -5  -3 27.5461 2.07403   2
   3  -5  -3 19.9677 2.34908   3
   2  -5  -3 700.288 48.8818   2
   2  -5  -3 736.729 48.4180   5
   2  -5  -3 798.176 50.9919   6
   2  -5  -3 767.385 50.3842   3
   1  -5  -3 231.167 15.2408   3
   1  -5  -3 211.690 14.7935   2
   1  -5  -3 198.465 15.6654   6
   0  -5  -3 12.1466 2.79699   2
   0  -5  -3 12.2210 2.74943   3
   0  -5  -3 10.0356 3.01187   6
  -1  -5  -3 255.539 18.1115   3
  -1  -5  -3 249.227 17.5773   2
   3   5   3 133.584 9.12791   8
   3   5   3 149.035 10.8017   4
   4   5   3 1.59446 3.17214   4
   4   5   3 -0.1976 0.76856   8
   4   5   3 -0.5880 1.15999   9
   5   5   3 54.1370 4.17229   9
   5   5   3 46.9990 3.35549   8
   5   5   3 47.8852 4.21041  11
   6   5   3 7.22648 1.17349   9
   6   5   3 7.23742 1.24217  11
   6   5   3 7.92696 1.30214  10
   7   5   3 1.39188 0.80336  11
   7   5   3 3.68778 0.81969  10
   8  -6  -3 137.129 8.01913  16
   8  -6  -3 108.495 8.63851  15
   7  -6  -3 17.9506 1.80549  16
   7  -6  -3 12.3672 3.12046  14
   7  -6  -3 15.0041 2.75327  15
   7  -6  -3 11.8556 1.83397  13
   6  -6  -3 12.9091 1.77135  13
   6  -6  -3 10.0866 2.82164  14
   6  -6  -3 12.7600 2.63164  15
   6  -6  -3 10.1476 1.27046  12
   5  -6  -3 98.0815 8.18066  14
   5  -6  -3 88.9184 6.49038  16
   5  -6  -3 100.589 7.64638  15
   5  -6  -3 91.6933 9.16950   6
   5  -6  -3 106.664 6.66951  12
   5  -6  -3 101.101 6.81224  13
   4  -6  -3 63.4383 5.61629  15
   4  -6  -3 65.9902 4.31229  10
   4  -6  -3 71.8200 4.71836  12
   4  -6  -3 71.6928 4.83447  13
   4  -6  -3 69.1088 7.55556   6
   4  -6  -3 64.9397 5.47402  14
   4  -6  -3 63.3270 4.57191  16
   3  -6  -3 66.6426 8.41826   6
   3  -6  -3 69.6291 5.47353   2
   3  -6  -3 78.8035 5.43607   3
   3  -6  -3 68.6717 5.38028  15
   3  -6  -3 81.6519 6.03619   5
   3  -6  -3 73.0295 5.87945  14
   3  -6  -3 62.4887 5.13605   9
   3  -6  -3 77.9834 4.86078  12
   3  -6  -3 73.8335 4.98438  13
   3  -6  -3 63.1448 4.59296  10
   2  -6  -3 568.015 37.1129   6
   2  -6  -3 549.190 36.1980   3
   2  -6  -3 486.939 35.0712   2
   1  -6  -3 446.455 30.4926   6
   1  -6  -3 415.115 29.0260   2
   1  -6  -3 445.849 29.9824   3
   0  -6  -3 30.1465 3.89498   3
   0  -6  -3 20.8927 4.75410   6
   0  -6  -3 24.0193 3.64513   2
  -1  -6  -3 87.6747 8.87693   6
  -1  -6  -3 81.5890 7.60990   3
  -1  -6  -3 72.7567 6.88657   2
  -1  -6  -3 76.7160 5.39502   8
   3   6   3 2.44390 3.03333   4
   3   6   3 -0.0939 1.03431   8
   4   6   3 0.69006 1.29975   9
   4   6   3 1.47814 0.88638   8
   5   6   3 14.5994 1.88442  11
   5   6   3 16.9618 1.84389   9
   5   6   3 13.2493 1.24821   8
   6   6   3 6.47245 1.22597  10
   6   6   3 7.89366 1.13385   9
   6   6   3 8.55870 1.15502  11
   8  -7  -3 53.5935 3.92398  15
   8  -7  -3 43.4260 3.29201  16
   7  -7  -3 46.5714 4.72387  15
   7  -7  -3 49.9947 5.47458  14
   7  -7  -3 44.0267 3.72685  13
   7  -7  -3 41.3267 3.37649  16
   6  -7  -3 -2.0227 2.39423  15
   6  -7  -3 3.95094 1.13331  13
   6  -7  -3 2.19405 1.05583  12
   6  -7  -3 4.33271 2.79573  14
   6  -7  -3 1.64368 1.15490  16
   5  -7  -3 36.7608 3.06930  13
   5  -7  -3 41.8442 3.06380  12
   5  -7  -3 38.9843 4.70106  15
   5  -7  -3 38.6408 4.81799  14
   5  -7  -3 33.8094 3.03362  16
   5  -7  -3 41.5856 5.95250   6
   4  -7  -3 5.87901 1.38246  13
   4  -7  -3 5.83351 1.40668  16
   4  -7  -3 7.23233 1.15196  12
   4  -7  -3 8.61450 1.20580  10
   4  -7  -3 10.2225 1.73825  14
   4  -7  -3 6.87014 2.44788  15
   4  -7  -3 5.61151 5.25810   6
   3  -7  -3 14.9121 1.54440  16
   3  -7  -3 16.7150 1.96059  14
   3  -7  -3 17.2629 2.06010   3
   3  -7  -3 13.8503 4.61266   6
   3  -7  -3 11.5859 2.53685   2
   3  -7  -3 14.2143 1.48725  10
   3  -7  -3 16.1252 1.80623   9
   3  -7  -3 15.5597 2.57082  15
   3  -7  -3 15.6839 1.68186  13
   2  -7  -3 16.0677 2.44361  15
   2  -7  -3 10.9283 1.61705   9
   2  -7  -3 16.6094 1.58844  10
   2  -7  -3 13.9979 1.55048  13
   2  -7  -3 10.9111 3.14208   2
   2  -7  -3 14.3665 1.61578  16
   2  -7  -3 15.0914 2.06517  14
   2  -7  -3 18.1564 3.00188   3
   2  -7  -3 17.3978 4.70573   6
   1  -7  -3 5.80116 2.77007   2
   1  -7  -3 1.32617 2.58730   3
   1  -7  -3 0.85147 1.35683   9
   1  -7  -3 1.29356 1.01933  10
   1  -7  -3 -0.3108 3.93429   6
   0  -7  -3 24.4112 3.97170   2
   0  -7  -3 20.9002 2.10579  10
   0  -7  -3 18.8040 2.14993   8
   0  -7  -3 18.5831 2.25774   9
   0  -7  -3 15.3846 4.75483   6
   0  -7  -3 13.9127 3.23922   3
  -1  -7  -3 10.8614 4.51609   6
  -1  -7  -3 12.1783 1.78062   8
  -2  -7  -3 19.8222 2.29252   8
  -2  -7  -3 23.5626 5.51473   6
   3   7   3 4.06976 1.04369   8
   4   7   3 88.2370 5.95008   8
   5   7   3 1.29866 0.93401  11
   5   7   3 1.05852 0.56565   8
   5   7   3 0.46377 1.13667   9
   6   7   3 33.8793 2.59576  11
   8  -8  -3 3.28222 1.36628  15
   7  -8  -3 1.10085 1.70769  15
   7  -8  -3 -1.6924 2.89805  14
   7  -8  -3 1.09104 1.01225  16
   7  -8  -3 0.31452 1.08366  13
   6  -8  -3 2.30163 1.53803  13
   6  -8  -3 4.31990 2.84939  14
   6  -8  -3 0.30480 2.73219  15
   6  -8  -3 1.17728 1.10933  16
   5  -8  -3 -1.8507 1.40448  13
   5  -8  -3 1.55332 1.34377  16
   5  -8  -3 2.03685 1.95505  15
   5  -8  -3 -1.3391 2.55937  14
   5  -8  -3 6.13727 5.10169   6
   4  -8  -3 1.29788 2.30968  14
   4  -8  -3 3.73844 1.10461  10
   4  -8  -3 2.49471 1.10202  16
   4  -8  -3 4.30293 2.73785  15
   4  -8  -3 3.62742 1.07190  13
   4  -8  -3 6.67257 6.12180   6
   3  -8  -3 86.1431 6.73399   3
   3  -8  -3 98.3790 9.94773   6
   3  -8  -3 90.4927 7.43722  14
   3  -8  -3 73.9612 6.77393   2
   3  -8  -3 96.1123 5.85667  10
   3  -8  -3 96.8447 7.34788  15
   3  -8  -3 87.3048 6.46163   9
   3  -8  -3 98.2978 6.33020  13
   2  -8  -3 43.9285 4.11272   9
   2  -8  -3 37.2502 5.08349   2
   2  -8  -3 48.8694 3.77576  13
   2  -8  -3 58.9012 7.15007   6
   2  -8  -3 51.0670 3.55318  10
   2  -8  -3 54.6265 4.95670  15
   2  -8  -3 55.9538 4.99317   3
   2  -8  -3 46.8015 4.20272  14
   1  -8  -3 143.330 12.2236   2
   1  -8  -3 171.683 13.9092   6
   1  -8  -3 154.924 11.6944   9
   1  -8  -3 161.922 11.3465  15
   1  -8  -3 179.422 12.6460   3
   1  -8  -3 156.528 10.5734   8
   1  -8  -3 174.855 10.1096  10
   0  -8  -3 43.7671 5.69918   3
   0  -8  -3 44.0685 3.51289   8
   0  -8  -3 37.0372 5.48322   2
   0  -8  -3 55.3516 7.23541   6
   0  -8  -3 48.2654 4.56392   9
   0  -8  -3 45.6723 3.60038  10
  -1  -8  -3 57.1350 4.89523   9
  -1  -8  -3 55.3467 7.38025   6
  -1  -8  -3 51.2789 4.01572   8
  -2  -8  -3 13.7494 2.08338   8
  -3  -8  -3 136.702 9.14385   8
   3   8   3 133.876 8.97371   8
  -4  -8  -3 28.9501 3.00875   8
   4   8   3 41.6945 2.73781   8
   5   8   3 24.9582 2.12366  11
   5   8   3 23.9926 2.13568   9
   7  -9  -3 9.68470 1.94199  15
   7  -9  -3 14.4982 2.40299  14
   6  -9  -3 241.278 16.4079  15
   6  -9  -3 236.162 15.5249  13
   5  -9  -3 20.9896 3.37238  14
   5  -9  -3 25.9381 2.85300  13
   5  -9  -3 23.1242 3.55599  15
   4  -9  -3 19.1028 2.11019  10
   4  -9  -3 19.6828 2.15212  13
   4  -9  -3 14.8020 2.98753  14
   4  -9  -3 22.3705 2.88948  15
   3  -9  -3 15.7626 6.11675   6
   3  -9  -3 21.8295 2.71173  13
   3  -9  -3 24.7085 2.57449  10
   3  -9  -3 29.6456 3.60892  15
   3  -9  -3 23.1505 3.02144  14
   2  -9  -3 19.8498 2.68569  14
   2  -9  -3 22.0231 6.36694   6
   2  -9  -3 22.9876 2.44950  13
   2  -9  -3 19.0870 3.21974  15
   2  -9  -3 22.3777 2.74041   9
   2  -9  -3 20.7250 2.35805  10
   1  -9  -3 1.72264 1.38160  10
   1  -9  -3 3.52479 1.71186   9
   1  -9  -3 1.54938 0.67917   8
   1  -9  -3 3.81511 5.54128   6
   1  -9  -3 -1.1481 1.78833  15
   0  -9  -3 10.4748 2.05412  15
   0  -9  -3 8.41889 1.67818  10
   0  -9  -3 8.83730 1.78813   9
  -1  -9  -3 37.1799 4.48065   9
  -2  -9  -3 30.2590 2.67097   8
   3   9   3 8.47675 1.03737   8
   4   9   3 9.79296 1.39615  11
   4   9   3 11.8159 1.13523   8
   7 -10  -3 26.4137 3.06674  15
   7 -10  -3 29.1555 3.19328  14
   6 -10  -3 9.12031 2.88925  14
   6 -10  -3 16.1639 2.22685  15
   5 -10  -3 19.8590 2.71602  15
   5 -10  -3 20.5261 2.60299  14
   5 -10  -3 18.3183 2.08310  13
   4 -10  -3 1.79895 2.22127  15
   4 -10  -3 0.56664 1.03582  10
   4 -10  -3 0.45319 1.01126  13
   4 -10  -3 0.39992 2.37696  14
   3 -10  -3 1.42324 1.10950  10
   3 -10  -3 4.50993 3.08942  15
   3 -10  -3 3.98093 2.20287  14
   2 -10  -3 6.74557 1.97116  14
   2 -10  -3 6.35580 1.71825  10
   2 -10  -3 6.59324 1.37487   9
   2 -10  -3 6.86756 2.71893  15
   1 -10  -3 0.88691 2.43186  15
   1 -10  -3 0.72566 1.60006   9
   1 -10  -3 -1.4953 1.69342  10
   0 -10  -3 -0.9389 2.40824  15
   0 -10  -3 0.34235 1.46854  10
   0 -10  -3 0.07314 0.87271   8
   0 -10  -3 0.71364 1.49521   9
  -1 -10  -3 7.32115 1.82400   9
  -1 -10  -3 7.70936 1.79972  15
  -1 -10  -3 5.88899 1.08847   8
  -2 -10  -3 2.59763 2.09433  15
  -2 -10  -3 0.17759 1.70014   9
  -2 -10  -3 1.74619 1.09273   8
  -3 -10  -3 43.7767 3.23296   8
  -3 -10  -3 43.4013 3.57494  15
   3  10   3 48.5690 3.16153   8
   6 -11  -3 -1.1920 2.03234  15
   6 -11  -3 0.51666 1.69375  14
   5 -11  -3 0.50150 1.79142  15
   5 -11  -3 -0.5078 1.61680  14
   4 -11  -3 0.84894 2.19869  14
   4 -11  -3 6.97466 2.14618  15
   3 -11  -3 0.24992 1.23073  10
   3 -11  -3 -0.8455 2.81650  15
   3 -11  -3 1.56620 1.39894  14
   2 -11  -3 1.72678 0.63436   9
   2 -11  -3 2.12848 1.27864  10
   2 -11  -3 1.62836 1.85408  15
   1 -11  -3 0.67735 1.63268  15
   1 -11  -3 -0.2624 1.07847   9
   1 -11  -3 -2.0575 1.42747  10
   0 -11  -3 41.8677 3.42222  10
   0 -11  -3 37.1491 3.55177  15
   0 -11  -3 41.8017 3.62468   9
  -1 -11  -3 13.8543 2.37866  15
  -1 -11  -3 11.6703 1.82037   9
  -2 -11  -3 43.4587 3.78837   9
  -2 -11  -3 43.2421 3.72115  15
   5 -12  -3 1.67747 1.48298  15
   5 -12  -3 2.20496 1.27520  14
   4 -12  -3 24.2473 2.49281  14
   3 -12  -3 3.78978 1.85430  15
   3 -12  -3 1.62106 1.02887  10
   2 -12  -3 3.31335 1.70228  15
   2 -12  -3 3.01488 1.14209  10
   1 -12  -3 38.2712 2.90306  10
   1 -12  -3 33.0787 3.25404  15
   0 -12  -3 1.09134 0.89312  10
   0 -12  -3 -0.0453 0.91278   9
   0 -12  -3 -0.9572 1.94628  15
  -1 -12  -3 10.8129 1.46092  15
  -1 -12  -3 9.81683 1.33602   9
   2 -14   4 28.6337 2.59300  14
   3 -14   4 72.3558 5.53368  14
  -2 -13   4 40.9416 3.18315   9
  -2 -13   4 33.4861 3.22365  15
  -1 -13   4 -0.0672 1.18335  10
  -1 -13   4 0.16601 1.77602  15
   0 -13   4 1.77263 1.28134  15
   0 -13   4 0.90895 1.06157  14
   1 -13   4 37.3980 3.41853  14
   2 -13   4 7.96614 2.19305  14
   3 -13   4 2.59959 1.59839  14
   4 -13   4 1.15045 0.71012  13
   4 -13   4 -0.2554 1.58113  14
   5 -13   4 2.36445 0.72863  13
   5 -13   4 4.11375 1.35481  14
   3  12  -4 11.0295 1.15190   8
  -3 -12   4 15.7307 1.82690   9
  -3 -12   4 12.3606 1.12772   8
  -2 -12   4 8.32138 0.99299   8
  -2 -12   4 10.3049 1.40526   9
  -1 -12   4 -0.3741 1.55271  15
   0 -12   4 0.00383 1.34059  14
   0 -12   4 1.12750 1.57991  15
   1 -12   4 7.07349 1.61807  15
   1 -12   4 8.01095 1.76514  14
   2 -12   4 6.36264 1.77356  14
   3 -12   4 10.3225 1.27365  13
   3 -12   4 10.6448 2.05737  14
   4 -12   4 0.79622 2.54401  14
   5 -12   4 6.95931 1.92219  14
   4  11  -4 -0.0325 0.53572   8
  -4 -11   4 0.45010 0.94737   8
  -3 -11   4 0.13355 1.02843   8
  -2 -11   4 2.47480 1.60646   9
  -2 -11   4 0.89764 0.98585   8
  -1 -11   4 16.7412 2.24696  14
  -1 -11   4 10.1752 1.79137   9
   0 -11   4 16.3169 2.80049  15
   0 -11   4 21.8383 2.68131  14
   1 -11   4 9.91977 1.40334  10
   1 -11   4 9.88297 2.27732  15
   1 -11   4 10.8687 2.43483  14
   2 -11   4 67.1186 4.94042  13
   2 -11   4 72.9175 4.53078  10
   2 -11   4 64.1667 5.75906  14
   3 -11   4 123.097 9.45351  14
   3 -11   4 111.134 7.92706  13
   4 -11   4 1.96620 0.88690  12
   4 -11   4 0.82885 2.71424  14
   5 -11   4 12.8934 2.83030  14
   5 -11   4 12.1459 1.55540  12
   6 -11   4 88.3295 6.28057  12
   6 -11   4 103.471 7.49853  14
   5  10  -4 43.0947 3.06090   8
  -5 -10   4 47.1394 3.23484   8
   4  10  -4 77.2401 5.37202   8
  -4 -10   4 79.6164 5.47863   8
  -2 -10   4 32.2349 3.66144   9
  -2 -10   4 33.7532 2.76820   8
  -1 -10   4 12.0627 1.90582   9
  -1 -10   4 10.1770 5.40115   6
  -1 -10   4 24.1140 2.98772  14
  -1 -10   4 14.3386 1.69065   8
   0 -10   4 38.6295 3.34396   9
   0 -10   4 31.1109 2.88500  10
   0 -10   4 38.1513 4.03275  14
   1 -10   4 27.6274 3.07498  14
   1 -10   4 26.7228 2.32143  10
   1 -10   4 26.2472 4.11248   5
   1 -10   4 22.4781 2.78965   9
   1 -10   4 23.5245 2.83265  15
   2 -10   4 60.7650 6.06413   5
   2 -10   4 62.1558 4.57993  12
   2 -10   4 63.3076 4.24843  10
   2 -10   4 70.3431 6.01815  14
   2 -10   4 65.6639 4.75533  13
   3 -10   4 19.3175 3.85950   5
   3 -10   4 26.1896 2.45107  12
   3 -10   4 22.5681 3.29821  14
   3 -10   4 25.1243 2.70975  13
   3 -10   4 22.6709 2.07398  10
   4 -10   4 10.6937 1.52275  12
   4 -10   4 8.90149 2.79969  14
   4 -10   4 10.6706 1.77002  13
   5 -10   4 -0.1850 1.18812  12
   5 -10   4 -0.9246 1.78930  14
   6 -10   4 18.1594 2.09280  12
   6 -10   4 13.3693 2.49144  14
   7 -10   4 11.4021 1.26269  13
   7 -10   4 9.36560 1.26034  12
   6   9  -4 5.87149 1.09906  11
   6   9  -4 9.83159 1.26174   9
   5   9  -4 31.6198 3.08502   9
   5   9  -4 27.6754 2.21659   8
   4   9  -4 12.2710 1.38199   8
  -4  -9   4 8.24085 1.63126   8
  -3  -9   4 0.47416 1.15657   8
  -2  -9   4 15.2937 1.86337   8
  -1  -9   4 -1.3977 2.40730   3
  -1  -9   4 0.27779 3.06616   2
  -1  -9   4 -0.4262 1.18522   9
  -1  -9   4 0.10409 1.62151  14
  -1  -9   4 -0.0442 0.88049   8
   0  -9   4 53.6770 4.33552   9
   0  -9   4 51.8244 5.50624   3
   0  -9   4 50.7890 7.18441   6
   0  -9   4 55.0010 3.95539  10
   0  -9   4 57.6683 3.85064   8
   0  -9   4 52.8770 4.88189  14
   0  -9   4 54.2524 5.75034   2
   0  -9   4 52.1444 5.36721   5
   1  -9   4 9.53292 1.36817   9
   1  -9   4 7.73623 1.11716  12
   1  -9   4 8.93226 2.71845   2
   1  -9   4 9.06506 2.61422   3
   1  -9   4 9.28639 1.33301  13
   1  -9   4 11.0176 2.60172   5
   1  -9   4 8.56525 1.91115  15
   1  -9   4 9.46071 1.32922  10
   1  -9   4 9.25640 1.60354  14
   2  -9   4 51.7254 4.89113   3
   2  -9   4 54.2169 5.41601   5
   2  -9   4 55.7687 5.29851   2
   2  -9   4 56.2304 4.22805   9
   2  -9   4 56.2888 4.03285  12
   2  -9   4 58.1117 4.22999  13
   2  -9   4 54.9370 3.77981  10
   2  -9   4 60.1265 5.36951  14
   3  -9   4 -1.1501 2.13810  14
   3  -9   4 0.68071 1.29589  13
   3  -9   4 2.00303 2.63035   5
   3  -9   4 0.69848 0.91797  10
   3  -9   4 0.31065 0.99485  12
   4  -9   4 7.90718 2.57726  14
   4  -9   4 9.43967 0.93136  10
   4  -9   4 9.87369 1.79849  11
   4  -9   4 10.1989 1.23943  12
   4  -9   4 8.32346 1.64761  13
   5  -9   4 100.582 6.76163  12
   5  -9   4 94.1744 8.16300  14
   5  -9   4 99.1543 7.19037  11
   6  -9   4 19.3946 2.31824  11
   6  -9   4 20.9722 2.33004  12
   7  -9   4 5.39151 1.20462  11
   7  -9   4 6.15664 1.11775  13
   7  -9   4 7.21934 0.98622  12
   7   8  -4 0.67783 0.75851   9
   6   8  -4 0.21059 1.41602  11
   6   8  -4 -0.0720 0.83105   9
   5   8  -4 10.6618 1.19754   8
   5   8  -4 6.53894 1.66809   9
   4   8  -4 -0.1631 0.91065   8
  -2  -8   4 19.2838 1.97554   8
  -1  -8   4 27.9271 2.36763   8
  -1  -8   4 34.5437 4.28447   3
  -1  -8   4 25.0713 3.90803   2
  -1  -8   4 24.0757 2.98749   9
   0  -8   4 69.3835 4.67345  10
   0  -8   4 74.1777 6.34804   2
   0  -8   4 80.0518 6.06241   5
   0  -8   4 71.2694 4.76267   8
   0  -8   4 71.4871 6.59797   3
   0  -8   4 61.7695 5.31853   9
   1  -8   4 90.4932 8.57445   6
   1  -8   4 97.5876 6.13075  10
   1  -8   4 106.708 7.61222   5
   1  -8   4 106.271 7.55764   2
   1  -8   4 88.3435 6.53734  13
   1  -8   4 101.725 7.59846  14
   1  -8   4 90.9249 7.00272   9
   1  -8   4 93.5980 6.43531  12
   1  -8   4 100.624 7.79580   3
   1  -8   4 102.681 6.37469   8
   2  -8   4 30.4445 2.54316   9
   2  -8   4 29.2863 2.33092  10
   2  -8   4 30.8813 2.73327  13
   2  -8   4 34.0242 3.72318  14
   2  -8   4 33.5425 3.84573   5
   2  -8   4 29.6866 3.45686   3
   2  -8   4 32.5258 3.68812   2
   2  -8   4 31.4494 2.48248  12
   3  -8   4 377.444 25.3138  11
   3  -8   4 369.407 24.8040   5
   3  -8   4 344.446 22.0704  10
   3  -8   4 370.079 23.6991  12
   3  -8   4 384.935 26.7626  14
   3  -8   4 373.498 23.8170  13
   4  -8   4 22.7304 2.90763  11
   4  -8   4 31.3572 4.34727   5
   4  -8   4 22.6675 1.75099  10
   4  -8   4 23.2679 2.11579  12
   4  -8   4 23.8187 2.72556  13
   4  -8   4 27.6390 3.02928  14
   5  -8   4 341.976 22.6172  12
   5  -8   4 313.383 25.5136  14
   5  -8   4 363.454 24.1700  11
   5  -8   4 388.947 22.8424  13
   6  -8   4 94.6973 7.33188  11
   6  -8   4 107.626 7.15644  13
   6  -8   4 101.984 6.93525  12
   7  -8   4 1.80362 1.33133  13
   7  -8   4 -0.0116 1.51975  11
   7  -8   4 2.06540 1.19731  12
   8  -8   4 1.63218 0.60893  12
   8  -8   4 0.57354 0.88239  11
   7   7  -4 7.41161 1.55444  11
   7   7  -4 11.8914 1.36321  10
   7   7  -4 11.8451 1.22418   9
   6   7  -4 29.2316 2.08606   8
   5   7  -4 24.0477 2.12848   8
   5   7  -4 19.7380 2.45406  18
   5   7  -4 26.2586 3.29570   9
   4   7  -4 364.313 23.4771   8
   3   7  -4 271.222 17.6558   8
  -2  -7   4 1.03218 0.93884   8
  -1  -7   4 787.402 52.1986   2
  -1  -7   4 778.300 54.0154   3
  -1  -7   4 822.272 51.4133   5
   0  -7   4 8.86272 2.19105   2
   0  -7   4 7.08690 2.04016   5
   0  -7   4 3.21636 2.29594   3
   1  -7   4 4.84432 2.63780   6
   1  -7   4 3.46418 2.15094   3
   1  -7   4 4.88284 1.78877   5
   1  -7   4 5.20183 1.73923   2
   2  -7   4 114.118 7.43509   2
   2  -7   4 109.041 7.99254  14
   2  -7   4 106.371 7.67203   3
   2  -7   4 102.572 7.37726  11
   2  -7   4 94.6859 6.33834  10
   2  -7   4 101.762 7.78583   5
   2  -7   4 99.2463 7.29430   9
   2  -7   4 104.300 6.95578  13
   3  -7   4 6.49094 2.13027   5
   3  -7   4 5.66755 1.23930  13
   3  -7   4 2.69396 1.77160  14
   3  -7   4 4.60924 0.99199  12
   3  -7   4 3.51930 1.19549  11
   3  -7   4 5.24301 0.71413  10
   4  -7   4 22.7349 2.63099  11
   4  -7   4 16.1866 2.51485  14
   4  -7   4 19.0064 3.20063   5
   4  -7   4 20.9682 2.10451  13
   4  -7   4 22.3449 2.66167  18
   4  -7   4 18.5641 2.14612  12
   4  -7   4 21.4829 1.52312  10
   5  -7   4 0.46906 1.47040  11
   5  -7   4 -0.1291 1.81814  14
   5  -7   4 -0.2117 1.37254  13
   5  -7   4 1.25183 1.13485  12
   5  -7   4 1.60383 1.59608  18
   5  -7   4 2.58776 2.65060   5
   6  -7   4 1.65070 1.26459  18
   6  -7   4 2.08359 0.92649  12
   6  -7   4 2.29500 1.63495  11
   6  -7   4 -0.1736 1.49475  13
   7  -7   4 1.13923 1.26899  12
   7  -7   4 1.05518 1.58512  11
   7  -7   4 2.19490 1.65953  18
   8  -7   4 0.65502 1.34489  11
   8  -7   4 1.85973 0.65611  12
   8   6  -4 1.98056 0.73750  10
   7   6  -4 17.2662 2.09498  11
   7   6  -4 18.7628 2.07405  18
   7   6  -4 17.7744 1.94865   9
   7   6  -4 17.5960 1.66906  10
   6   6  -4 30.4979 2.56254  18
   6   6  -4 28.2413 2.08037   8
   5   6  -4 3.05046 1.28901   9
   5   6  -4 4.98820 1.00532  18
   5   6  -4 6.42052 2.53443   4
   5   6  -4 1.88400 0.82136   8
   4   6  -4 8.12861 1.09781   8
   4   6  -4 5.90532 3.46413   3
   4   6  -4 9.25963 3.15214   2
   3   6  -4 33.2162 2.55997   8
  -2  -6   4 3.77191 2.44306   3
  -1  -6   4 496.933 34.6800   3
  -1  -6   4 504.005 32.9057   5
  -1  -6   4 521.289 33.4748   2
   0  -6   4 3.58410 1.98350   3
   0  -6   4 2.03017 1.33420   5
   0  -6   4 1.18997 1.65515   2
   1  -6   4 66.7735 5.23264   2
   1  -6   4 67.6836 5.19473   5
   1  -6   4 60.5485 5.68482   6
   1  -6   4 67.9406 5.40132   3
   2  -6   4 90.5474 6.61154   3
   2  -6   4 85.3061 6.32766   2
   2  -6   4 89.1577 6.65863   5
   3  -6   4 15.6614 2.68306   5
   3  -6   4 12.3875 1.53114  12
   3  -6   4 12.2025 2.32332   4
   3  -6   4 14.8701 1.53683  13
   3  -6   4 12.9204 1.54202  11
   3  -6   4 14.7650 1.49690   2
   3  -6   4 14.2791 1.48328   3
   3  -6   4 12.4764 1.14526  10
   3  -6   4 13.2074 1.58237   2
   4  -6   4 8.87462 2.41223   4
   4  -6   4 10.3751 1.25321  12
   4  -6   4 6.44225 1.72648  14
   4  -6   4 8.65061 0.87678  10
   4  -6   4 9.26061 1.45048  13
   4  -6   4 5.74091 2.09463   5
   4  -6   4 8.68340 1.17441  11
   4  -6   4 6.88644 1.04285  17
   4  -6   4 10.7815 1.66569  18
   5  -6   4 18.6508 2.00104  13
   5  -6   4 20.5786 1.90714  12
   5  -6   4 16.5354 2.08390  11
   5  -6   4 17.7890 2.23205  18
   5  -6   4 19.1306 1.89435  17
   5  -6   4 15.8551 3.30106   4
   6  -6   4 12.6179 1.69207  12
   6  -6   4 13.0301 1.74766  18
   6  -6   4 13.3444 1.81539  13
   6  -6   4 11.6566 1.96984  11
   7  -6   4 44.4786 4.10855  11
   7  -6   4 40.2721 3.68126  18
   7  -6   4 52.1708 3.67342  12
   8  -6   4 6.36392 1.19212  18
   8  -6   4 6.10240 1.20743  11
   8   5  -4 2.51752 1.07649  18
   8   5  -4 1.34205 0.83020  11
   8   5  -4 2.97103 0.84240  10
   7   5  -4 21.5686 2.27519   9
   7   5  -4 21.0281 2.47672  18
   7   5  -4 18.5023 2.32556  11
   7   5  -4 21.8404 2.14723  10
   6   5  -4 -0.4580 1.35355  18
   6   5  -4 0.23758 0.47932   8
   6   5  -4 -0.8967 1.31578  10
   6   5  -4 0.57463 1.52686  11
   6   5  -4 1.04861 1.29968   9
   5   5  -4 20.0364 2.07679   9
   5   5  -4 23.6635 3.59596   2
   5   5  -4 12.2621 3.28438   3
   5   5  -4 18.9697 1.65921   8
   5   5  -4 17.0312 1.92392  10
   5   5  -4 16.8319 3.64201   4
   5   5  -4 20.4913 2.27790  18
   4   5  -4 0.24360 0.72100   8
   4   5  -4 0.30872 2.21622   3
   4   5  -4 2.92127 2.26498   2
   4   5  -4 1.97581 0.97512   9
   3   5  -4 3.85779 1.89246   2
   3   5  -4 2.06097 2.35817   3
   3   5  -4 4.82110 1.35856   7
   2   5  -4 16.8286 2.76243   3
   2   5  -4 16.8055 2.41124   2
   2   5  -4 16.3125 1.96706   7
  -2  -5   4 13.7925 2.44590   1
  -2  -5   4 18.0795 2.78606   3
  -2  -5   4 18.8290 2.60526   2
   1   5  -4 12.8767 1.43443   7
   1   5  -4 9.95946 2.06656   1
  -1  -5   4 11.8748 1.57133   5
  -1  -5   4 11.0664 2.04069   1
  -1  -5   4 13.8227 2.30664   1
  -1  -5   4 16.7289 2.25613   3
  -1  -5   4 11.6138 2.09276   2
   0   5  -4 165.347 11.9554   1
   0   5  -4 157.805 12.0213   1
   0  -5   4 145.319 11.8999   1
   0  -5   4 177.603 11.0863   5
   0  -5   4 171.638 11.9960   1
   0  -5   4 170.364 11.2583   2
   0  -5   4 164.155 11.7439   3
   1  -5   4 378.687 23.7342   2
   1  -5   4 375.354 23.5875   5
   1  -5   4 314.821 25.1726   1
   1  -5   4 412.207 24.6123   3
   1  -5   4 335.544 24.4232   6
   1  -5   4 351.451 25.1443   1
   2  -5   4 594.123 34.4404   4
   2  -5   4 537.186 33.6227   5
   2  -5   4 561.740 33.6589   2
   2  -5   4 530.392 34.8021   3
   2  -5   4 436.005 33.7625   2
   2  -5   4 448.295 34.8642   3
   3  -5   4 425.208 26.0160   2
   3  -5   4 423.906 26.4201   5
   3  -5   4 364.853 26.0663   2
   3  -5   4 356.573 26.8563   3
   3  -5   4 441.097 27.0339   4
   3  -5   4 404.286 26.8941   3
   4  -5   4 61.6388 5.00325   5
   4  -5   4 54.4890 4.20681  18
   4  -5   4 59.6128 4.20545  13
   4  -5   4 58.4430 5.32473   4
   4  -5   4 56.4419 4.06807  12
   4  -5   4 56.4398 4.43345  11
   4  -5   4 54.5536 3.73609  17
   4  -5   4 57.8549 3.55043  10
   5  -5   4 173.895 11.9134  11
   5  -5   4 163.284 11.5993  18
   5  -5   4 171.056 10.1070  10
   5  -5   4 176.865 12.6087   4
   5  -5   4 180.552 11.1261  12
   5  -5   4 151.513 10.3247  17
   5  -5   4 170.124 11.1838  13
   6  -5   4 8.81071 1.76138  11
   6  -5   4 7.87384 1.47984  12
   6  -5   4 5.30769 1.28044  17
   6  -5   4 5.23497 2.36765   4
   6  -5   4 5.48562 1.80636  18
   7  -5   4 28.7668 3.35636  18
   7  -5   4 33.9842 2.88725  12
   7  -5   4 29.2474 2.88720  11
   8  -5   4 5.18410 1.18513  18
   8  -5   4 5.94772 1.04580  12
   8  -5   4 4.54168 1.18168  11
   8   4  -4 13.2917 1.68099  18
   8   4  -4 15.1518 1.77899  11
   8   4  -4 15.5944 1.54399  10
   7   4  -4 3.19694 1.53101  18
   7   4  -4 4.08625 1.09784  10
   7   4  -4 3.02697 0.94050   9
   7   4  -4 2.62386 1.59119  11
   6   4  -4 2.62479 1.52212  11
   6   4  -4 2.75846 1.06374  18
   6   4  -4 2.39248 1.18555   9
   6   4  -4 2.73915 0.98937  10
   6   4  -4 0.68311 2.09754   7
   5   4  -4 0.44008 1.10408   9
   5   4  -4 -0.4068 2.38591   4
   5   4  -4 2.37345 0.89344  10
   5   4  -4 1.67703 1.11363  18
   5   4  -4 2.55788 1.78565   7
   5   4  -4 2.53678 2.86896   3
   5   4  -4 2.98194 2.36052   2
   5   4  -4 0.80268 0.73624   8
   4   4  -4 210.338 13.8606   8
   4   4  -4 219.343 15.7080   3
   4   4  -4 217.379 14.3851   7
   4   4  -4 214.709 14.7969   2
   3   4  -4 368.389 23.6454   2
   3   4  -4 340.171 22.8853   7
   3   4  -4 356.650 24.5374   3
   2   4  -4 1727.94 117.065   1
   2   4  -4 1741.26 110.621   2
   2   4  -4 1714.25 114.343   3
   2   4  -4 1710.06 117.106   1
   2   4  -4 1740.28 107.987   7
  -2  -4   4 1651.34 117.102   1
  -2  -4   4 1785.89 117.178   1
  -2  -4   4 1734.40 110.638   2
  -2  -4   4 1649.49 109.065   5
  -2  -4   4 1640.72 114.306   3
   1   4  -4 106.040 7.79137   1
   1   4  -4 97.9762 7.42589   2
   1   4  -4 98.7337 6.93341   7
   1   4  -4 98.3526 7.66949   3
   1   4  -4 111.260 8.04677   1
  -1  -4   4 106.333 7.08655   5
  -1  -4   4 99.9751 7.65130   3
  -1  -4   4 105.342 7.93615   1
  -1  -4   4 110.566 8.01165   1
  -1  -4   4 107.564 7.41422   2
   0   4  -4 77.3743 6.02698   1
   0   4  -4 65.8950 5.50478   2
   0   4  -4 74.0176 5.97926   1
   0   4  -4 72.5320 5.70195   3
   0  -4   4 68.9553 5.89847   1
   0  -4   4 79.6161 5.35525   5
   0  -4   4 85.3869 5.55017   2
   0  -4   4 75.4039 5.71817   3
   0  -4   4 80.8032 5.95668   1
  -1   4  -4 755.447 53.6373   1
  -1   4  -4 815.817 53.6965   1
   1  -4   4 873.536 51.4057   4
   1  -4   4 684.136 51.9209   6
   1  -4   4 760.840 53.6088   1
   1  -4   4 678.841 52.3260   3
   1  -4   4 801.294 50.1772   5
   1  -4   4 866.819 50.6566   2
   1  -4   4 712.408 53.6877   1
   1  -4   4 866.257 52.3734   3
  -2   4  -4 130.720 10.1491   1
   2  -4   4 158.329 10.0189   4
   2  -4   4 155.017 9.71912   5
   2  -4   4 135.591 10.0958   1
   2  -4   4 118.985 9.63062   2
   2  -4   4 158.897 9.94998   3
   2  -4   4 158.278 9.54202   2
   2  -4   4 125.558 9.84779   3
   3  -4   4 3.75234 1.37470   5
   3  -4   4 0.98441 1.06553   3
   3  -4   4 2.52926 0.83423   2
   3  -4   4 0.68685 1.04963   2
   3  -4   4 1.72964 0.93835   3
   3  -4   4 1.37333 1.50847   4
   4  -4   4 18.9356 2.80945   4
   4  -4   4 15.6228 2.25994   5
   4  -4   4 16.9264 1.42973  10
   4  -4   4 21.1204 2.08407  12
   4  -4   4 18.2269 1.71698  17
   4  -4   4 19.1592 1.94476  18
   4  -4   4 20.2903 2.20368  11
   5  -4   4 35.8850 3.35472  11
   5  -4   4 31.2943 2.91829  13
   5  -4   4 41.6717 2.69516  17
   5  -4   4 31.6396 2.30753  10
   5  -4   4 39.2835 3.30596  18
   5  -4   4 36.3747 4.46525   4
   5  -4   4 31.9914 2.90826  12
   6  -4   4 88.0058 6.15349  18
   6  -4   4 81.9379 6.03192  11
   6  -4   4 83.5104 5.76739  12
   6  -4   4 70.4311 7.22208   4
   6  -4   4 78.7255 4.86711  10
   6  -4   4 80.0859 5.19429  17
   7  -4   4 11.4402 2.09092  18
   7  -4   4 15.1554 1.75724  12
   7  -4   4 10.4814 1.96499  11
   8  -4   4 15.7875 1.94674  11
   8  -4   4 16.7024 1.82442  12
   8  -4   4 15.2425 1.92795  18
   9   3  -4 11.9289 1.33513  18
   8   3  -4 225.983 16.5081  11
   8   3  -4 239.718 16.0037  18
   8   3  -4 250.089 14.3750  10
   7   3  -4 22.7167 2.30588  18
   7   3  -4 16.7927 2.24398  11
   7   3  -4 24.6916 2.19579  10
   6   3  -4 177.424 12.7952   7
   6   3  -4 172.367 12.8443  11
   6   3  -4 188.905 12.8520   9
   6   3  -4 180.407 11.1336  10
   6   3  -4 193.051 12.4872  18
   5   3  -4 55.0030 5.37627   3
   5   3  -4 49.7516 4.71873   7
   5   3  -4 50.6589 4.64649   2
   5   3  -4 38.6540 4.91594   4
   5   3  -4 45.4879 3.23275   8
   5   3  -4 44.4831 3.40078  16
   5   3  -4 50.9729 3.78812   9
   5   3  -4 47.6979 3.74520  18
   5   3  -4 48.5945 3.31887  10
   4   3  -4 4.54634 1.76922   2
   4   3  -4 4.97562 1.80728   7
   4   3  -4 4.67072 2.21258   3
   3   3  -4 20.5661 2.45495   7
   3   3  -4 23.2418 2.79067   1
   3   3  -4 25.7817 3.02376   3
   3   3  -4 26.9156 2.74591   2
   2   3  -4 -0.6261 1.52367   1
   2   3  -4 -0.0372 1.45892   2
   2   3  -4 -1.3290 1.12698   1
   2   3  -4 0.15803 1.36140   3
   2   3  -4 -0.4226 1.10124   7
  -2  -3   4 -0.6705 1.22526   2
  -2  -3   4 0.49781 1.29410   3
  -2  -3   4 0.82521 0.70763   5
  -2  -3   4 0.61545 1.54671   1
  -2  -3   4 0.43827 1.63296   1
   1   3  -4 0.25703 1.40982   2
   1   3  -4 0.15591 1.36568   1
   1   3  -4 -1.4994 1.22719   3
   1   3  -4 0.45339 1.62477   1
  -1  -3   4 0.07587 1.16484   1
  -1  -3   4 0.67185 0.79496   5
  -1  -3   4 -0.0512 1.24359   3
  -1  -3   4 0.22135 1.01595   2
  -1  -3   4 1.31616 1.58977   1
   0   3  -4 23.9018 2.53311   1
   0   3  -4 20.2195 2.54841   3
   0   3  -4 19.4500 2.19918   2
   0   3  -4 20.8225 2.56017   1
   0  -3   4 23.2727 2.56300   1
   0  -3   4 21.7812 2.59746   1
   0  -3   4 22.2585 2.30678   2
   0  -3   4 22.6376 2.56220   3
   0  -3   4 19.6718 2.06707   5
  -1   3  -4 1550.50 96.7553   1
   1  -3   4 1472.19 94.3536   3
   1  -3   4 1473.55 96.6508   1
   1  -3   4 1213.11 94.3368   3
   1  -3   4 1369.23 90.3620   5
   1  -3   4 1519.19 92.5075   4
   1  -3   4 1306.07 96.7272   1
   1  -3   4 1411.72 91.2979   2
  -2   3  -4 0.84651 1.39117   1
  -2   3  -4 -2.7534 1.22699   1
   2  -3   4 -0.3002 1.03281   1
   2  -3   4 -0.6150 1.24682   4
   2  -3   4 0.08299 1.24251   3
   2  -3   4 -1.2935 1.01256   2
   2  -3   4 -0.2936 1.30366   5
   2  -3   4 0.40616 1.26548   1
   2  -3   4 -0.3239 1.03101   3
   2  -3   4 -0.1251 1.14115   2
   3  -3   4 136.815 11.0835   2
   3  -3   4 174.910 11.7012   4
   3  -3   4 153.454 11.4438   3
   3  -3   4 185.223 11.0674   2
   3  -3   4 174.320 11.2051   5
   3  -3   4 173.154 11.5010   3
   4  -3   4 11.7946 1.46144  11
   4  -3   4 10.5495 1.21731  17
   4  -3   4 11.7392 1.21625  10
   4  -3   4 10.6788 1.40099   3
   4  -3   4 12.6787 1.48991   3
   4  -3   4 13.1950 2.44852   4
   4  -3   4 13.2983 1.98251   5
   4  -3   4 8.86533 1.20270   2
   4  -3   4 13.4467 1.57100   2
   5  -3   4 39.5611 3.05333  12
   5  -3   4 37.7461 3.32651  18
   5  -3   4 32.5652 3.08149  11
   5  -3   4 38.7713 4.45749   4
   5  -3   4 39.4322 2.53955  10
   5  -3   4 37.5575 2.78938  17
   6  -3   4 8.25972 1.38049  11
   6  -3   4 8.99377 1.77908  18
   6  -3   4 7.52038 0.85496  10
   6  -3   4 11.3612 1.56592  12
   6  -3   4 8.08919 3.13156   4
   6  -3   4 7.55940 1.12222  17
   7  -3   4 65.8899 4.78576  12
   7  -3   4 67.5845 5.29436  11
   7  -3   4 61.0620 5.17835  18
   8  -3   4 50.1576 3.98177  11
   8  -3   4 44.2368 3.60441  18
   9   2  -4 8.77708 1.21459  18
   8   2  -4 8.97456 1.33027  11
   8   2  -4 6.31538 1.12528  17
   8   2  -4 9.54191 1.76207  18
   7   2  -4 6.39878 1.16762  17
   7   2  -4 5.97591 1.63312  18
   7   2  -4 2.30132 1.44031  11
   7   2  -4 6.75534 1.13071  10
   6   2  -4 3.53376 1.20247  16
   6   2  -4 2.61114 0.92339  10
   6   2  -4 4.24551 2.29451   7
   6   2  -4 2.44660 1.32814  18
   6   2  -4 1.69512 1.19806  11
   6   2  -4 3.64633 2.09373   3
   6   2  -4 2.23583 0.93931  17
   6   2  -4 2.57519 0.82484   9
   5   2  -4 37.1881 4.75320   4
   5   2  -4 44.1792 3.47144   9
   5   2  -4 43.4117 2.97573   8
   5   2  -4 47.9443 3.00555  10
   5   2  -4 38.3872 3.55915  11
   5   2  -4 43.1766 3.02886  17
   5   2  -4 47.4259 3.38636  16
   5   2  -4 48.2817 4.60157   3
   5   2  -4 51.1304 4.19917   2
   5   2  -4 47.7282 3.56699  18
   5   2  -4 49.1140 4.52074   7
   4   2  -4 3.11905 1.64611   2
   4   2  -4 2.76316 1.43756   7
   4   2  -4 2.75559 1.77947   4
   4   2  -4 4.82069 1.85737   3
   3   2  -4 34.3282 3.46362   1
   3   2  -4 40.9096 3.84532   1
   3   2  -4 43.5257 3.53661   7
   3   2  -4 46.2518 3.63749   2
   3   2  -4 44.6599 3.92832   3
  -3  -2   4 40.3623 4.18970   1
  -3  -2   4 41.7821 3.83556   1
   2   2  -4 50.5708 3.99284   2
   2   2  -4 50.2418 4.07182   1
   2   2  -4 51.8352 4.34330   1
   2   2  -4 51.9990 3.78656   7
   2   2  -4 51.9889 4.25450   3
  -2  -2   4 47.7552 4.26034   1
  -2  -2   4 47.0073 4.17519   3
  -2  -2   4 43.6190 3.80949   2
  -2  -2   4 45.9773 4.44155   1
   1   2  -4 121.004 8.71112   3
   1   2  -4 114.513 8.93017   1
   1   2  -4 128.442 9.12199   1
   1   2  -4 118.748 8.47170   2
  -1  -2   4 120.906 9.12461   1
  -1  -2   4 122.929 8.40413   2
  -1  -2   4 139.719 9.04385   1
  -1  -2   4 122.405 8.69487   3
   0   2  -4 1216.79 79.6974   1
   0   2  -4 1199.68 79.6189   1
   0   2  -4 1136.41 77.7214   3
   0   2  -4 1075.89 75.2390   2
   0  -2   4 1173.46 77.6928   3
   0  -2   4 1168.07 75.1874   2
   0  -2   4 1127.03 79.6848   1
   0  -2   4 1174.47 79.6000   1
   0  -2   4 1204.08 76.0522   4
  -1   2  -4 43.6466 3.77544   3
  -1   2  -4 41.4046 4.00865   1
  -1   2  -4 49.1011 4.43175   1
   1  -2   4 43.3381 3.53059   3
   1  -2   4 47.8788 3.53378   4
   1  -2   4 38.6781 3.96490   1
   1  -2   4 49.0327 3.56552   2
   1  -2   4 37.0466 3.53687   2
   1  -2   4 50.6392 3.74436   3
   1  -2   4 47.9960 3.92773   1
  -2   2  -4 484.038 37.6860   1
  -2   2  -4 566.416 37.9264   1
   2  -2   4 478.481 35.6278   2
   2  -2   4 566.591 37.6942   1
   2  -2   4 582.338 35.5643   2
   2  -2   4 601.728 35.2611   5
   2  -2   4 624.577 36.2205   4
   2  -2   4 565.445 36.7818   3
   2  -2   4 505.535 36.7461   3
   2  -2   4 495.141 37.7892   1
   3  -2   4 120.649 8.51138   4
   3  -2   4 114.258 8.00510   2
   3  -2   4 113.169 8.00613   5
   3  -2   4 118.354 8.44140   3
   4  -2   4 884.396 59.6393   3
   4  -2   4 864.633 57.6375   2
   4  -2   4 921.265 58.9027   4
   5  -2   4 312.089 21.1255  18
   5  -2   4 332.262 21.7770  11
   5  -2   4 341.856 20.4405  12
   5  -2   4 277.190 21.3490   3
   5  -2   4 306.147 21.7938   9
   5  -2   4 332.586 20.6862   2
   5  -2   4 335.486 22.0958   4
   5  -2   4 313.397 19.0537  17
   5  -2   4 309.707 18.9718  10
   6  -2   4 38.8295 2.74674  17
   6  -2   4 24.5433 4.25656   4
   6  -2   4 32.4834 3.27986  18
   6  -2   4 33.6110 2.99976  11
   6  -2   4 31.4958 3.03584  12
   6  -2   4 30.9832 2.31927  10
   7  -2   4 92.9129 6.89679  11
   7  -2   4 82.2572 6.69058  18
   7  -2   4 93.5269 6.32775  12
   7  -2   4 92.3108 5.53398  10
   8  -2   4 31.3251 2.85625  11
   8  -2   4 23.7271 2.31004  18
   9   1  -4 1.16810 1.01135  18
   9   1  -4 2.08828 0.88613  17
   8   1  -4 14.7471 1.75158  18
   8   1  -4 12.3471 1.52846  11
   8   1  -4 12.7947 1.29751  17
   7   1  -4 1.81552 1.08178  17
   7   1  -4 0.94856 1.45050  16
   7   1  -4 -0.3305 0.89625  11
   7   1  -4 -0.0069 2.72019   7
   7   1  -4 0.82305 1.08936  18
   7   1  -4 0.58849 0.81026  10
   6   1  -4 290.970 17.2505  16
   6   1  -4 240.231 18.8791  11
   6   1  -4 268.865 18.9998   9
   6   1  -4 274.794 16.5782  17
   6   1  -4 284.841 16.5089  10
   6   1  -4 292.266 18.4591  18
   6   1  -4 274.393 18.5336   7
   5   1  -4 2.46202 1.75726   3
   5   1  -4 2.25960 0.82476  17
   5   1  -4 1.70146 0.68083   9
   5   1  -4 2.46820 1.06418  18
   5   1  -4 2.22900 0.70929  10
   5   1  -4 2.85783 1.42957   2
   5   1  -4 0.51043 1.36416   4
   5   1  -4 4.14619 0.92520  16
   5   1  -4 2.17716 1.64198   7
   4   1  -4 509.761 38.1987   4
   4   1  -4 601.000 37.1011   7
   4   1  -4 594.592 37.6973   2
   4   1  -4 608.059 39.0022   3
   3   1  -4 19.9273 2.17274   2
   3   1  -4 19.5834 2.34382   3
   3   1  -4 16.5141 2.10919   1
   3   1  -4 15.2696 1.88258   2
   3   1  -4 19.3696 2.20281   7
   3   1  -4 18.2927 2.34290   1
  -3  -1   4 18.3496 2.30738   1
  -3  -1   4 17.1930 2.39585   1
   2   1  -4 68.6828 5.31626   7
   2   1  -4 74.5254 5.69389   1
   2   1  -4 85.5421 6.28020   6
   2   1  -4 76.5361 5.50262   2
   2   1  -4 74.0602 5.92675   1
   2   1  -4 81.2410 5.73462   3
   2   1  -4 72.6047 5.68995   3
  -2  -1   4 88.6644 5.98998   1
  -2  -1   4 69.3726 6.01656   1
  -2  -1   4 76.2808 5.41194   2
  -2  -1   4 77.3510 5.69376   3
   1   1  -4 1666.94 110.635   2
   1   1  -4 1754.41 117.108   1
   1   1  -4 1742.24 117.046   1
   1   1  -4 1749.54 114.285   3
   1   1  -4 1726.39 113.653   6
  -1  -1   4 1674.81 110.588   2
  -1  -1   4 1647.05 117.120   1
  -1  -1   4 1663.70 114.256   3
  -1  -1   4 1804.21 117.060   1
   0   1  -4 1115.83 76.8863   2
   0   1  -4 1199.88 79.3837   3
   0   1  -4 1236.51 81.3554   1
   0   1  -4 1192.11 78.7524   6
   0   1  -4 1218.51 81.4328   1
   0  -1   4 1268.50 81.3023   1
   0  -1   4 1263.85 79.3486   3
   0  -1   4 1117.11 81.3692   1
   0  -1   4 1112.85 77.5923   4
   0  -1   4 1157.81 76.7759   2
  -1   1  -4 867.731 58.7010   1
  -1   1  -4 755.858 57.0937   3
  -1   1  -4 819.122 58.5189   1
  -1   1  -4 755.109 55.3568   2
   1  -1   4 911.298 58.6486   1
   1  -1   4 926.880 55.9036   4
   1  -1   4 932.743 57.0976   3
  -2   1  -4 246.712 19.5145   1
  -2   1  -4 251.469 19.3188   1
   2  -1   4 294.067 19.4108   1
   2  -1   4 228.197 19.3423   1
   2  -1   4 255.386 18.7976   3
   2  -1   4 299.162 18.5319   4
   2  -1   4 307.929 18.2017   2
   2  -1   4 315.922 18.9372   3
   3  -1   4 128.665 9.32868   3
   3  -1   4 117.509 8.62167   5
   3  -1   4 132.054 8.94181   2
   3  -1   4 135.620 9.26797   4
   4  -1   4 42.6822 3.28909  11
   4  -1   4 48.4818 4.44004   3
   4  -1   4 36.9931 2.75297  10
   4  -1   4 42.5404 4.35595   4
   4  -1   4 38.6883 2.80260  17
   5  -1   4 0.03237 1.02395  12
   5  -1   4 -0.2557 2.43760   4
   5  -1   4 0.28949 1.15583  11
   5  -1   4 0.34687 1.68848   2
   5  -1   4 -0.9131 2.14146   3
   5  -1   4 0.93894 0.98556  17
   5  -1   4 1.93088 0.84304  10
   5  -1   4 0.49198 0.68242   9
   5  -1   4 0.76422 1.21207  18
   6  -1   4 31.1850 2.74458  12
   6  -1   4 24.8696 2.87122  18
   6  -1   4 18.4171 3.97489   4
   6  -1   4 26.8680 2.13948  10
   6  -1   4 25.3122 3.10067  11
   7  -1   4 48.6504 4.16575  11
   7  -1   4 48.8345 4.01777  18
   7  -1   4 51.7971 3.94816  12
   7  -1   4 56.3605 3.37136  10
   8  -1   4 23.2786 2.06073  11
   8  -1   4 17.0110 1.85216  18
   9   0  -4 36.8192 3.07066  18
   9   0  -4 35.9243 2.65398  17
   8   0  -4 258.975 17.3453  18
   8   0  -4 256.614 15.6042  17
   7   0  -4 381.874 29.8876  11
   7   0  -4 473.229 29.2196  18
   7   0  -4 458.004 27.3379  16
   7   0  -4 448.682 26.3069  17
   7   0  -4 434.114 26.1734  10
   6   0  -4 700.308 45.8810  18
   6   0  -4 712.225 41.4474  17
   6   0  -4 615.298 47.1645  11
   6   0  -4 715.822 43.0113  16
   6   0  -4 722.151 44.9124   7
   6   0  -4 710.410 41.3960  10
   5   0  -4 10.0999 1.21788   9
   5   0  -4 11.1750 1.44345  18
   5   0  -4 13.7564 1.25795  17
   5   0  -4 12.0543 2.15850   7
   5   0  -4 12.8919 1.95128  15
   5   0  -4 14.2711 1.67151   2
   5   0  -4 11.2531 1.15590  10
   4   0  -4 9.25819 1.37902   4
   4   0  -4 12.4166 1.47404   2
   4   0  -4 11.5726 2.06724   7
   4   0  -4 10.3364 1.58294   3
   3   0  -4 10.5017 1.31750   4
   3   0  -4 17.0847 1.67295   2
   3   0  -4 14.7731 1.76105   1
   3   0  -4 10.1806 1.43319   1
   3   0  -4 14.4710 1.90767   7
   3   0  -4 9.29063 1.26899   2
   3   0  -4 14.1934 1.70177   3
   3   0  -4 15.0134 2.46352   6
   3   0  -4 12.0646 1.53272   3
  -3   0   4 11.7669 1.94246   1
  -3   0   4 12.9165 1.65050   1
   2   0  -4 41.9519 3.43753   7
   2   0  -4 44.1986 3.93101   6
   2   0  -4 43.4391 3.73437   1
   2   0  -4 42.5509 3.44074   2
   2   0  -4 39.1592 3.45960   3
  -2   0   4 42.4641 3.51512   1
  -2   0   4 41.0208 4.06202   1
   1   0  -4 276.953 18.9186   1
   1   0  -4 268.376 18.7741   1
   1   0  -4 277.261 18.2897   3
   1   0  -4 270.018 17.7794   2
   1   0  -4 259.281 18.2202   6
  -1   0   4 271.426 18.2382   3
  -1   0   4 292.885 18.7336   1
  -1   0   4 248.558 17.5907   2
  -1   0   4 252.863 18.8587   1
   0   0  -4 53.5901 5.28783   1
   0   0  -4 57.1307 4.44546   3
   0   0  -4 57.6910 4.81851   2
   0   0  -4 56.8414 4.80156   1
   0   0  -4 50.6551 4.21766   6
   0   0   4 58.7890 5.09224   1
   0   0   4 57.1272 4.28009   2
   0   0   4 50.6678 3.90518   4
   0   0   4 56.6524 4.31519   3
   0   0   4 64.9464 4.82768   1
  -1   0  -4 56.2690 4.85707   3
  -1   0  -4 52.8155 4.79679   2
  -1   0  -4 55.2044 5.02590   1
  -1   0  -4 51.3140 5.50870   1
   1   0   4 65.8252 4.55464   2
   1   0   4 61.8604 4.41049   4
   1   0   4 66.7611 4.87880   3
   1   0   4 59.7009 5.04165   1
   1   0   4 52.1113 5.14260   1
  -2   0  -4 22.6154 2.92060   1
  -2   0  -4 17.4224 2.97227   1
   2   0   4 26.7726 2.68518   4
   2   0   4 23.3681 2.71709   3
   2   0   4 17.2597 2.49797   1
   2   0   4 24.0641 2.58292   2
   2   0   4 22.1379 2.86773   1
   3   0   4 477.045 32.9670   2
   3   0   4 501.093 33.5366   4
   3   0   4 532.064 34.2863   3
   4   0   4 7.13739 0.95121  11
   4   0   4 6.11890 0.73758   8
   4   0   4 7.28019 2.47776   3
   4   0   4 6.66105 1.86419   2
   4   0   4 6.62402 2.23155   4
   4   0   4 4.35097 0.95788  17
   4   0   4 5.06271 0.96321   9
   4   0   4 5.02890 0.83306  10
   5   0   4 48.0321 3.12394  17
   5   0   4 45.7368 3.50960  11
   5   0   4 42.9110 3.43644  12
   5   0   4 40.6922 3.14125  10
   5   0   4 43.0679 3.57339  18
   5   0   4 43.0409 5.02121   4
   5   0   4 39.6404 4.87049   3
   6   0   4 13.6868 1.51550  10
   6   0   4 20.3576 1.90644  12
   6   0   4 16.3187 1.60980   9
   6   0   4 14.3278 1.89267  18
   6   0   4 12.9333 1.97763  11
   7   0   4 21.5158 1.70855  10
   7   0   4 19.5969 2.49025  18
   7   0   4 21.9961 2.81202  11
   9  -1  -4 -0.2417 1.18109  18
   9  -1  -4 2.93402 0.79681  17
   8  -1  -4 2.59089 1.72913  18
   8  -1  -4 1.52097 1.16735  17
   8  -1  -4 1.87158 1.13758  16
   7  -1  -4 41.0420 4.48505   7
   7  -1  -4 34.1288 3.10594  18
   7  -1  -4 38.5580 2.94148  17
   7  -1  -4 35.4960 2.87909  16
   7  -1  -4 36.3557 2.39605  10
   6  -1  -4 70.7462 5.93045   7
   6  -1  -4 66.4117 4.29423  10
   6  -1  -4 70.9326 4.79764  16
   6  -1  -4 70.4483 4.56050  17
   6  -1  -4 71.2728 5.66978  15
   6  -1  -4 69.6783 5.17959  18
   5  -1  -4 223.891 14.0922  10
   5  -1  -4 239.572 14.7721  16
   5  -1  -4 234.455 14.2059  17
   5  -1  -4 259.548 15.8634   7
   5  -1  -4 227.747 15.9854  15
   4  -1  -4 136.368 10.2500   2
   4  -1  -4 164.180 11.4532   6
   4  -1  -4 157.503 10.4853   7
   4  -1  -4 152.127 10.6357   3
   4  -1  -4 159.806 10.7074   3
   4  -1  -4 161.923 10.2611   2
   3  -1  -4 104.399 6.16522   2
   3  -1  -4 90.1291 6.30946   3
   3  -1  -4 96.7042 6.40935   3
   3  -1  -4 99.7889 7.16124   6
   3  -1  -4 75.0153 5.91138   4
   3  -1  -4 76.9349 6.49336   1
   3  -1  -4 105.005 6.23910   7
   3  -1  -4 93.7211 6.54831   1
   3  -1  -4 80.0761 6.03761   2
  -3   1   4 83.9470 6.46423   1
  -3   1   4 79.5154 6.67100   1
   2  -1  -4 350.001 20.9769   2
   2  -1  -4 329.049 20.4876   7
   2  -1  -4 315.962 21.5637   3
   2  -1  -4 324.467 22.2362   1
   2  -1  -4 272.452 22.0945   1
   2  -1  -4 331.155 21.5984   3
   2  -1  -4 322.024 21.8137   6
  -2   1   4 329.936 22.1122   1
  -2   1   4 295.171 22.2317   1
   1  -1  -4 126.185 10.3320   1
   1  -1  -4 129.148 10.0246   1
   1  -1  -4 137.059 9.75569   3
   1  -1  -4 145.128 9.71507   2
   1  -1  -4 142.085 9.98822   6
  -1   1   4 155.745 10.3558   1
  -1   1   4 129.483 9.68175   3
  -1   1   4 156.211 10.1250   1
  -1   1   4 132.601 9.37419   2
   0  -1  -4 60.3786 4.85791   3
   0  -1  -4 59.8385 4.85449   6
   0  -1  -4 51.9083 5.45505   1
   0  -1  -4 52.4630 4.89095   1
   0  -1  -4 57.8986 5.07776   2
   0   1   4 59.4492 5.34799   1
   0   1   4 56.4349 4.42993   2
   0   1   4 54.0876 4.09391   4
   0   1   4 62.0421 4.74355   3
   0   1   4 57.8754 4.93457   1
  -1  -1  -4 7.71640 2.09284   1
  -1  -1  -4 10.8550 2.42866   2
  -1  -1  -4 10.1776 2.20059   3
  -1  -1  -4 11.0359 2.64559   1
   1   1   4 12.1716 2.14293   3
   1   1   4 9.93885 1.60416   2
   1   1   4 12.5623 2.30208   1
   1   1   4 11.4554 1.53916   4
   1   1   4 8.62807 1.78809   1
  -2  -1  -4 520.473 36.3921   1
   2   1   4 518.127 34.6691   4
   2   1   4 489.992 36.3512   1
   2   1   4 557.399 34.3078   2
   2   1   4 477.643 36.4598   1
   2   1   4 573.554 35.5791   3
   3   1   4 119.341 8.72644   2
   3   1   4 133.761 9.51304   3
   3   1   4 111.530 8.86385   4
   4   1   4 743.317 46.5932   3
   4   1   4 684.808 45.4819   4
   4   1   4 665.612 46.2130  11
   4   1   4 697.542 43.4664   8
   4   1   4 638.870 46.8838   9
   4   1   4 677.094 40.6126  10
   4   1   4 668.301 44.6878   2
   5   1   4 465.663 27.0631  10
   5   1   4 450.683 30.0184   2
   5   1   4 442.959 28.9471  12
   5   1   4 425.593 31.3857   3
   5   1   4 452.549 30.7703   4
   5   1   4 468.197 31.1938   9
   5   1   4 449.023 30.7968  11
   6   1   4 263.116 17.4084  11
   6   1   4 254.402 17.3502   9
   6   1   4 244.626 15.1355  10
   6   1   4 239.329 16.2536  12
   7   1   4 37.7813 2.66512  10
   7   1   4 39.4207 3.57004  11
   8   1   4 11.3938 1.27105  11
   9  -2  -4 5.17518 1.32926  18
   8  -2  -4 1.07030 0.84783  17
   8  -2  -4 1.09703 1.27080  18
   8  -2  -4 1.48612 1.12052  16
   7  -2  -4 16.5375 1.80106  16
   7  -2  -4 11.6299 2.66190  15
   7  -2  -4 12.1580 1.37925  17
   7  -2  -4 10.4084 1.95489  18
   6  -2  -4 78.1792 5.79824  18
   6  -2  -4 73.5185 7.00520  14
   6  -2  -4 83.7074 6.60444   7
   6  -2  -4 86.6199 5.29542  17
   6  -2  -4 82.7072 5.53425  16
   6  -2  -4 80.9441 4.95969  10
   6  -2  -4 88.1642 6.42255  15
   5  -2  -4 321.175 20.1711  10
   5  -2  -4 336.148 20.2957  17
   5  -2  -4 346.994 22.7886  15
   5  -2  -4 355.856 24.0032   6
   5  -2  -4 326.256 21.0765  16
   5  -2  -4 355.574 22.2421   7
   4  -2  -4 728.656 50.0660   6
   4  -2  -4 754.307 47.3417   7
   3  -2  -4 315.421 20.4510   3
   3  -2  -4 285.545 19.7098   2
   3  -2  -4 280.628 20.8970   1
   3  -2  -4 319.279 19.7592   2
   3  -2  -4 306.762 20.9634   6
   3  -2  -4 314.565 19.5484   7
   3  -2  -4 303.134 20.9344   1
   3  -2  -4 309.025 20.4182   3
  -3   2   4 277.952 21.0356   1
  -3   2   4 310.341 20.8901   1
   2  -2  -4 119.313 8.91375   2
   2  -2  -4 123.504 9.31394   3
   2  -2  -4 133.152 9.85774   1
   2  -2  -4 135.458 9.79660   6
   2  -2  -4 129.551 9.53215   1
   2  -2  -4 138.146 9.40895   3
   2  -2  -4 144.243 8.82177   7
   2  -2  -4 134.768 9.16648   2
  -2   2   4 131.974 9.52774   1
  -2   2   4 136.048 9.83503   1
   1  -2  -4 1763.34 109.247   2
   1  -2  -4 1900.05 112.774   3
   1  -2  -4 1520.39 112.672   3
   1  -2  -4 1800.02 112.336   6
   1  -2  -4 1675.70 115.450   1
   1  -2  -4 1467.70 115.555   1
  -1   2   4 1766.99 115.506   1
  -1   2   4 1512.18 109.050   2
  -1   2   4 1789.21 112.755   3
  -1   2   4 1697.57 115.636   1
   0  -2  -4 12.2232 2.17843   6
   0  -2  -4 12.0772 2.51225   2
   0  -2  -4 11.3863 1.98466   3
   0  -2  -4 7.68799 1.85278   1
   0  -2  -4 6.15988 2.55928   1
   0   2   4 10.0968 2.13165   1
   0   2   4 11.0386 1.82676   3
   0   2   4 7.70162 1.97317   1
   0   2   4 7.90144 1.67299   2
  -1  -2  -4 7.21814 2.34912   3
  -1  -2  -4 10.6519 2.53308   2
  -1  -2  -4 9.08704 2.70420   1
  -1  -2  -4 10.9989 2.21360   1
   1   2   4 10.5785 2.19405   1
   1   2   4 10.8686 2.33757   3
   1   2   4 9.04174 2.23737   1
   1   2   4 11.1454 1.90399   2
   1   2   4 10.3520 1.61764   4
  -2  -2  -4 407.974 32.5181   1
   2   2   4 511.686 31.9202   3
   2   2   4 484.496 30.6654   2
   2   2   4 438.103 32.5315   1
   2   2   4 480.368 30.9844   4
   3   2   4 1.48207 2.10571   3
   3   2   4 0.50883 1.88560   4
   3   2   4 -0.9967 1.77642   2
   4   2   4 90.0092 5.92472   8
   4   2   4 91.9898 7.40274   2
   4   2   4 99.7169 8.38064   3
   4   2   4 86.3303 5.66308  10
   4   2   4 99.4192 7.65751   4
   4   2   4 85.6116 6.60821   9
   4   2   4 87.1840 6.51336  11
   5   2   4 0.78142 3.02159   4
   5   2   4 1.24597 0.48210   8
   5   2   4 0.86656 2.66856   2
   5   2   4 -0.8757 0.95121  10
   5   2   4 0.27525 1.13313  12
   5   2   4 -0.1795 0.92889   9
   5   2   4 1.08246 1.32955  11
   6   2   4 20.8938 2.16264  10
   6   2   4 24.4167 2.92786  11
   7   2   4 40.9890 3.58759  11
   7   2   4 39.4512 2.81128  10
   8   2   4 1.18966 0.72265  11
   9  -3  -4 51.3903 3.97189  18
   8  -3  -4 330.858 21.3497  18
   8  -3  -4 316.525 19.9388  16
   8  -3  -4 307.142 19.1300  17
   7  -3  -4 164.635 12.0213  15
   7  -3  -4 166.238 11.6318  18
   7  -3  -4 166.258 10.8356  16
   7  -3  -4 175.374 10.4026  17
   6  -3  -4 123.129 8.74612  15
   6  -3  -4 113.455 8.72677   7
   6  -3  -4 123.869 7.78996  16
   6  -3  -4 117.958 8.30865  18
   6  -3  -4 121.766 7.44361  17
   6  -3  -4 111.587 9.49614  14
   5  -3  -4 181.433 11.2681  16
   5  -3  -4 167.707 10.6084  10
   5  -3  -4 160.851 13.2377  14
   5  -3  -4 179.619 12.3353  15
   5  -3  -4 178.170 10.8080  17
   5  -3  -4 198.383 13.9405   6
   5  -3  -4 193.816 12.2446   7
   4  -3  -4 230.636 16.4315   6
   4  -3  -4 223.935 14.9840   7
   3  -3  -4 -0.0602 0.73090   2
   3  -3  -4 1.02702 0.95736   3
   3  -3  -4 0.82412 0.76056   1
   3  -3  -4 1.35640 1.18229   7
   3  -3  -4 -1.8751 2.25088   6
   3  -3  -4 0.97475 1.09751   3
   3  -3  -4 0.46879 1.23353   2
  -3   3   4 0.13103 0.87014   1
   2  -3  -4 762.157 52.3376   1
   2  -3  -4 848.205 49.6747   2
   2  -3  -4 755.519 48.3175   7
   2  -3  -4 857.740 51.4399   6
   2  -3  -4 673.727 49.3784   2
   2  -3  -4 684.067 51.0921   3
   2  -3  -4 690.246 52.5315   1
   2  -3  -4 858.349 51.1763   3
  -2   3   4 696.879 52.4511   1
  -2   3   4 804.788 52.4553   1
   1  -3  -4 16.1501 2.75545   6
   1  -3  -4 7.91652 2.31365   1
   1  -3  -4 3.27603 2.15680   2
   1  -3  -4 4.08033 1.16597   1
   1  -3  -4 5.33175 1.92436   3
  -1   3   4 4.43650 1.66224   1
  -1   3   4 3.90845 1.91428   1
   0  -3  -4 104.950 8.12809   2
   0  -3  -4 121.719 8.45442   6
   0  -3  -4 108.277 8.73823   1
   0  -3  -4 120.658 8.40085   3
   0  -3  -4 112.190 8.22546   1
   0   3   4 105.264 8.05719   3
   0   3   4 91.5846 7.59626   2
   0   3   4 105.992 8.31099   1
   0   3   4 98.9470 8.56245   1
  -1  -3  -4 77.5014 6.44379   3
  -1  -3  -4 75.6150 7.00907   1
  -1  -3  -4 73.9548 6.36079   1
  -1  -3  -4 81.1717 6.33892   2
   1   3   4 81.0745 6.33137   3
   1   3   4 64.1775 6.34761   1
   1   3   4 78.9754 6.55713   1
   1   3   4 81.2695 6.04104   2
   2   3   4 0.93344 1.77308   2
   2   3   4 1.75019 1.69847   4
   2   3   4 2.82499 1.94528   3
   3   3   4 135.299 10.0230   4
   3   3   4 126.625 8.66779   8
   3   3   4 127.322 9.70805   2
   3   3   4 153.059 11.0925   3
   4   3   4 0.85164 0.99876   9
   4   3   4 0.86090 0.93007  10
   4   3   4 -0.1594 1.11562  11
   4   3   4 -0.0246 0.66929   8
   4   3   4 1.39078 3.55095   3
   4   3   4 2.76104 2.70959   4
   4   3   4 4.85032 2.73502   2
   5   3   4 107.742 7.28037   8
   5   3   4 110.580 7.09273  10
   5   3   4 122.372 8.18589  11
   5   3   4 109.819 8.14476   9
   6   3   4 1.96402 1.11094  10
   6   3   4 2.54539 1.07994  11
   7   3   4 37.3896 2.47350  10
   7   3   4 30.4040 2.82911  11
   9  -4  -4 7.24123 1.30814  18
   8  -4  -4 -1.4972 1.74136  18
   8  -4  -4 1.07653 1.47695  16
   8  -4  -4 -0.0800 1.23177  17
   7  -4  -4 9.96881 2.85288  14
   7  -4  -4 7.66029 2.55518  15
   7  -4  -4 2.74378 1.71874  18
   7  -4  -4 4.86688 1.28504  17
   7  -4  -4 5.53920 1.16554  16
   6  -4  -4 6.41182 1.35253  13
   6  -4  -4 6.58177 1.31214  16
   6  -4  -4 7.39023 2.05941   7
   6  -4  -4 7.29973 2.46587  14
   6  -4  -4 1.41574 3.75858   6
   6  -4  -4 6.32766 1.43961  18
   6  -4  -4 6.91154 1.17563  17
   6  -4  -4 7.96262 1.75880  15
   5  -4  -4 75.1452 7.87652   6
   5  -4  -4 67.3939 5.31434  15
   5  -4  -4 66.3467 4.12327  17
   5  -4  -4 60.6181 5.07851   7
   5  -4  -4 59.2266 3.80409  10
   5  -4  -4 60.9524 4.70449  13
   5  -4  -4 63.8309 5.76999  14
   5  -4  -4 66.3624 4.42096  16
   4  -4  -4 18.7807 2.17341   7
   4  -4  -4 14.2601 3.48371   6
   3  -4  -4 57.0628 4.43195   2
   3  -4  -4 61.9123 4.75601   3
   3  -4  -4 70.2575 4.96493   2
   3  -4  -4 69.5559 4.83413   3
   3  -4  -4 59.8228 4.54769   7
   3  -4  -4 63.6581 6.94120   6
   2  -4  -4 -0.7813 0.68820   7
   2  -4  -4 -0.0989 1.80181   2
   2  -4  -4 -1.9464 2.97825   6
   2  -4  -4 1.46436 1.49038   3
   1  -4  -4 49.4512 5.12996   2
   1  -4  -4 57.2943 5.83470   6
   1  -4  -4 59.4175 5.19158   3
   0  -4  -4 99.2457 9.11440   1
   0  -4  -4 120.214 8.95774   3
   0  -4  -4 113.240 8.67767   2
   0  -4  -4 117.248 9.44519   6
  -1  -4  -4 3.10889 2.63496   2
  -1  -4  -4 2.45407 2.04966   3
   2   4   4 2.37274 2.01330   4
   3   4   4 13.1623 2.95218   4
   3   4   4 8.43746 2.34951   2
   3   4   4 7.52262 3.06086   3
   3   4   4 11.9073 1.38947   8
   4   4   4 390.778 27.2122   4
   4   4   4 407.988 25.2714   8
   4   4   4 382.682 26.8615   2
   4   4   4 426.106 27.3564   9
   4   4   4 338.528 28.2498   3
   5   4   4 1.55689 1.08592  10
   5   4   4 1.61408 0.67672   8
   5   4   4 0.42330 1.39187  11
   5   4   4 0.41220 1.10733   9
   6   4   4 150.982 10.5594  11
   7   4   4 62.1604 3.69187  10
   7   4   4 52.6609 4.16169  11
   9  -5  -4 1.54304 1.00457  16
   8  -5  -4 21.9178 2.07638  16
   8  -5  -4 25.8471 2.66452  15
   8  -5  -4 18.1201 2.30373  18
   7  -5  -4 3.54683 2.73525  14
   7  -5  -4 1.63076 1.15868  17
   7  -5  -4 1.55832 1.35833  16
   7  -5  -4 3.49655 1.81851  15
   7  -5  -4 1.47748 1.52562  18
   6  -5  -4 -0.4511 2.31692  15
   6  -5  -4 -0.1761 2.42712  14
   6  -5  -4 0.71972 0.98534  17
   6  -5  -4 2.00071 1.29428  13
   6  -5  -4 0.04129 1.19365  16
   6  -5  -4 -0.4942 4.13337   6
   5  -5  -4 28.3727 2.34504  17
   5  -5  -4 31.3706 2.77982  13
   5  -5  -4 28.9305 3.31976  14
   5  -5  -4 27.8434 2.30890  12
   5  -5  -4 27.6396 2.57464  16
   5  -5  -4 32.7685 3.73611  15
   5  -5  -4 32.8455 5.90853   6
   4  -5  -4 195.821 11.8200  10
   4  -5  -4 208.193 15.1347   6
   4  -5  -4 194.239 13.5764  15
   4  -5  -4 208.297 14.4935  14
   4  -5  -4 189.777 12.3364  16
   4  -5  -4 189.769 12.6242  12
   4  -5  -4 192.022 12.7678  13
   3  -5  -4 122.482 8.41535   3
   3  -5  -4 123.501 10.0033   6
   3  -5  -4 107.338 8.32704   2
   2  -5  -4 5140.94 341.417   6
   2  -5  -4 5149.75 342.612   3
   1  -5  -4 427.889 28.0362   3
   1  -5  -4 381.690 27.1364   2
   1  -5  -4 410.225 28.3360   6
   0  -5  -4 184.602 13.7982   2
   0  -5  -4 190.292 14.7300   6
   0  -5  -4 201.110 14.1267   3
  -1  -5  -4 3.03556 2.35662   3
  -1  -5  -4 1.30944 2.32316   2
  -1  -5  -4 10.7882 3.38474   6
   2   5   4 7.08584 2.60560   4
   3   5   4 35.8346 2.80449   8
   3   5   4 37.0925 4.70228   4
   4   5   4 25.7299 2.85038   9
   4   5   4 24.6237 2.08623   8
   5   5   4 1.37668 1.21316   9
   5   5   4 0.82772 1.37719  11
   5   5   4 1.92536 0.67368   8
   6   5   4 -0.7002 0.89651  11
   6   5   4 1.75922 1.11405  10
   8  -6  -4 84.2107 6.37634  15
   8  -6  -4 79.3771 5.63732  16
   8  -6  -4 93.5355 5.49465  17
   7  -6  -4 8.90630 1.69233  13
   7  -6  -4 9.30241 1.33096  16
   7  -6  -4 10.9802 2.37048  14
   7  -6  -4 13.7661 2.83766  15
   7  -6  -4 11.3490 1.18529  17
   6  -6  -4 3.59894 2.69087  14
   6  -6  -4 5.62844 1.04833  17
   6  -6  -4 4.70391 1.50332  13
   6  -6  -4 3.32682 1.32486  16
   6  -6  -4 3.02691 2.59603  15
   6  -6  -4 -1.0491 4.25667   6
   6  -6  -4 4.82432 1.01951  12
   5  -6  -4 62.1145 5.00571  15
   5  -6  -4 62.9269 4.30985  16
   5  -6  -4 64.4109 7.28773   6
   5  -6  -4 56.1756 4.20143  12
   5  -6  -4 53.5962 5.83170  14
   5  -6  -4 60.1945 4.55286  13
   4  -6  -4 125.255 7.79451  10
   4  -6  -4 127.209 9.56675  14
   4  -6  -4 134.730 9.32043  15
   4  -6  -4 133.010 11.2865   6
   4  -6  -4 124.421 8.16571  16
   4  -6  -4 119.627 8.45288  13
   3  -6  -4 7.48433 1.84232   3
   3  -6  -4 7.09005 1.19602  10
   3  -6  -4 5.88198 2.06903  15
   3  -6  -4 5.35147 3.75419   6
   3  -6  -4 4.29870 1.16833   9
   3  -6  -4 8.63999 2.34765   2
   3  -6  -4 5.19272 1.29513  16
   3  -6  -4 8.05201 1.26302  13
   3  -6  -4 5.82649 1.81255  14
   2  -6  -4 27.5189 3.35368  15
   2  -6  -4 32.8885 3.81445   3
   2  -6  -4 20.5454 2.83546   9
   2  -6  -4 28.6010 1.96281   8
   2  -6  -4 25.9061 2.52296  10
   2  -6  -4 30.2114 5.62686   6
   2  -6  -4 22.2586 3.36316   2
   2  -6  -4 29.7899 2.66047  13
   1  -6  -4 109.722 7.86683   3
   1  -6  -4 95.4956 9.38510   6
   1  -6  -4 81.9026 6.74173   9
   1  -6  -4 89.8869 7.61557   2
   1  -6  -4 85.6494 6.65377  15
   0  -6  -4 121.202 9.86434   2
   0  -6  -4 142.972 11.3904   6
   0  -6  -4 120.441 8.20251   8
   0  -6  -4 115.592 9.09613   9
   0  -6  -4 133.136 10.0444   3
  -1  -6  -4 3.23415 3.87075   6
  -1  -6  -4 2.34333 1.20953   8
  -2  -6  -4 98.5692 10.0616   6
   2   6   4 94.0299 7.95149   4
  -3  -6  -4 13.6738 4.91331   6
   3   6   4 15.2956 1.63854   8
   3   6   4 4.97119 3.45553   4
   4   6   4 7.63424 1.11068   8
   4   6   4 8.38871 1.53956   9
   5   6   4 18.3364 2.00342   9
   5   6   4 22.8569 2.43283  11
   5   6   4 18.4698 1.46541   8
   6   6   4 3.66870 0.72581  10
   6   6   4 1.15963 1.04100  11
   8  -7  -4 -0.1987 1.15318  16
   8  -7  -4 -0.3820 1.61961  15
   7  -7  -4 -6.4617 2.57757  15
   7  -7  -4 -1.3786 1.21425  16
   7  -7  -4 3.59783 2.95609  14
   6  -7  -4 36.6648 3.04633  16
   6  -7  -4 32.0898 4.07197  14
   6  -7  -4 35.4073 3.32368  13
   6  -7  -4 33.7218 3.86585  15
   5  -7  -4 9.17243 2.84331  15
   5  -7  -4 9.01319 1.63958  13
   5  -7  -4 7.04111 2.61053  14
   5  -7  -4 7.28072 6.13062   6
   5  -7  -4 8.37036 1.45341  16
   4  -7  -4 62.2913 4.54893  13
   4  -7  -4 77.7113 8.76448   6
   4  -7  -4 66.0605 4.31603  10
   4  -7  -4 61.2309 4.51188  16
   4  -7  -4 62.5625 5.45061  14
   4  -7  -4 64.6686 5.87869  15
   3  -7  -4 108.014 8.98451   2
   3  -7  -4 125.701 9.15834  15
   3  -7  -4 135.135 11.4615   6
   3  -7  -4 119.697 9.51546  14
   3  -7  -4 134.694 9.06915   3
   3  -7  -4 121.133 8.02591  16
   3  -7  -4 121.768 7.73658  10
   3  -7  -4 128.709 8.30011  13
   3  -7  -4 120.326 8.78625   9
   2  -7  -4 365.356 22.6922  16
   2  -7  -4 385.022 25.3650   3
   2  -7  -4 347.365 26.1645  14
   2  -7  -4 358.325 21.8883  10
   2  -7  -4 343.166 24.6897   2
   2  -7  -4 390.428 24.5828  15
   2  -7  -4 324.904 25.2138   9
   2  -7  -4 364.909 23.3991  13
   2  -7  -4 418.986 26.5794   6
   1  -7  -4 4.11465 1.28444   8
   1  -7  -4 4.11939 3.30017   2
   1  -7  -4 6.23484 4.31734   6
   1  -7  -4 -1.9233 2.77544   3
   1  -7  -4 0.78312 1.46740  10
   1  -7  -4 0.09120 1.52303   9
   1  -7  -4 3.05239 2.00334  15
   0  -7  -4 88.7383 8.44044   2
   0  -7  -4 99.1835 9.39831   6
   0  -7  -4 87.9439 7.14402   9
   0  -7  -4 92.4620 8.69205   3
   0  -7  -4 92.0894 6.30720   8
  -1  -7  -4 69.7417 5.08443   8
  -1  -7  -4 64.3213 8.21574   6
  -2  -7  -4 72.8949 5.24019   8
   2   7   4 69.0410 6.78363   4
   3   7   4 8.24605 1.21839   8
   4   7   4 65.5932 4.82658  11
   4   7   4 62.7448 4.40530   8
   5   7   4 7.15014 0.67579   8
   5   7   4 8.76489 1.10288  11
   5   7   4 8.05739 1.30978   9
   8  -8  -4 15.6784 1.71607  16
   8  -8  -4 13.3798 1.91443  15
   7  -8  -4 5.55043 3.00776  14
   7  -8  -4 6.44522 1.29605  16
   7  -8  -4 10.0998 2.75056  15
   6  -8  -4 13.5337 2.39303  14
   6  -8  -4 11.2313 3.13901  15
   6  -8  -4 8.04961 1.77967  13
   6  -8  -4 11.6971 1.30998  16
   5  -8  -4 4.59026 1.20650  13
   5  -8  -4 1.16500 2.66711  14
   5  -8  -4 7.65645 2.22764  15
   5  -8  -4 1.67369 1.22101  16
   4  -8  -4 15.6095 3.23276  15
   4  -8  -4 15.6953 5.83836   6
   4  -8  -4 11.8706 1.59977  10
   4  -8  -4 17.7151 2.75250  14
   4  -8  -4 14.9293 1.91412  13
   3  -8  -4 390.076 27.7651   6
   3  -8  -4 356.646 25.6818   9
   3  -8  -4 364.827 23.1950  16
   3  -8  -4 392.877 26.9125  14
   3  -8  -4 391.359 25.3056  15
   3  -8  -4 354.844 25.3438   3
   3  -8  -4 389.840 23.9991  13
   3  -8  -4 345.906 22.3844  10
   2  -8  -4 33.0262 3.88308  14
   2  -8  -4 35.1522 3.09578  16
   2  -8  -4 42.0589 4.67296   3
   2  -8  -4 36.5318 3.60500   9
   2  -8  -4 27.4318 6.27474   6
   2  -8  -4 38.8202 3.31797  10
   2  -8  -4 40.7683 4.37304  15
   2  -8  -4 38.7733 3.45106  13
   2  -8  -4 32.7588 4.52758   2
   1  -8  -4 47.9210 7.10336   6
   1  -8  -4 58.4018 4.56742   9
   1  -8  -4 51.5549 3.99855  10
   1  -8  -4 44.2467 5.86829   2
   1  -8  -4 58.4240 5.04980  15
   1  -8  -4 51.8903 3.81746   8
   0  -8  -4 406.793 27.4296   9
   0  -8  -4 349.520 27.2197   2
   0  -8  -4 420.468 28.5896   6
  -1  -8  -4 0.11576 1.65173   9
  -1  -8  -4 1.58352 1.26820   8
  -1  -8  -4 -0.5244 5.31912   6
  -2  -8  -4 80.4550 5.71094   8
  -3  -8  -4 9.43616 1.65024   8
   3   8   4 10.3551 1.30852   8
   4   8   4 28.2445 2.44204  11
   4   8   4 29.0617 2.16208   8
   8  -9  -4 21.1817 2.16884  15
   7  -9  -4 1.88428 1.72831  15
   7  -9  -4 1.50076 1.98598  14
   6  -9  -4 52.9685 4.76520  15
   6  -9  -4 53.4028 4.96593  14
   5  -9  -4 16.9720 3.13822  14
   5  -9  -4 18.4884 2.09882  13
   5  -9  -4 19.8404 3.44816  15
   4  -9  -4 0.08151 3.04941  15
   4  -9  -4 4.80660 2.49398  14
   4  -9  -4 3.33099 1.14882  13
   4  -9  -4 3.39620 1.14452  10
   3  -9  -4 79.2125 6.34436  14
   3  -9  -4 72.4708 5.33506  10
   3  -9  -4 89.6171 7.03897  15
   2  -9  -4 25.3365 3.07211  14
   2  -9  -4 30.3409 3.52578  15
   2  -9  -4 28.5783 2.77184  10
   2  -9  -4 28.8348 3.13904   9
   1  -9  -4 42.4000 3.99588   9
   1  -9  -4 33.5350 2.52435   8
   1  -9  -4 44.3369 4.54479  15
   1  -9  -4 48.2207 3.41711  10
   0  -9  -4 -0.9114 1.51533  10
   0  -9  -4 -0.6925 1.55714   9
   0  -9  -4 1.07295 1.17189   8
   0  -9  -4 1.14448 2.38186  15
  -1  -9  -4 37.8747 3.92388   9
  -1  -9  -4 32.0748 3.31858  15
   3   9   4 30.6944 2.28066   8
  -4  -9  -4 26.4223 2.33588   8
   4   9   4 32.7641 2.10920   8
   7 -10  -4 5.04032 2.42177  14
   7 -10  -4 4.83252 1.54175  15
   6 -10  -4 12.8963 2.23392  14
   6 -10  -4 13.3786 2.22361  15
   5 -10  -4 4.72421 1.86422  14
   5 -10  -4 3.90628 2.91612  15
   4 -10  -4 72.6614 6.68036  15
   4 -10  -4 73.3996 6.48901  14
   4 -10  -4 74.0709 4.76581  10
   3 -10  -4 13.3449 1.55853  10
   3 -10  -4 13.0254 3.26812  15
   3 -10  -4 12.4968 1.94183  14
   2 -10  -4 55.5987 4.43367  10
   2 -10  -4 59.6293 4.56881   9
   1 -10  -4 14.2930 2.81405  15
   1 -10  -4 17.2731 2.23748   9
   1 -10  -4 17.6819 2.05163  10
   0 -10  -4 41.0994 3.90453  15
   0 -10  -4 27.0401 2.09033   8
   0 -10  -4 35.0690 3.10623  10
   0 -10  -4 38.6894 3.82771   9
  -1 -10  -4 3.02689 1.71901   9
  -1 -10  -4 5.24542 1.04862   8
  -1 -10  -4 6.18355 1.67798  15
  -2 -10  -4 98.9436 6.77391  15
  -2 -10  -4 86.8939 6.29196   8
  -2 -10  -4 103.590 7.28483   9
  -3 -10  -4 95.2971 6.37064   8
   3  10   4 99.4151 6.39700   8
   6 -11  -4 2.79274 1.62467  14
   6 -11  -4 6.52242 2.21278  15
   5 -11  -4 33.4511 3.23508  15
   5 -11  -4 25.7382 3.04712  14
   4 -11  -4 0.27324 2.82474  15
   4 -11  -4 1.01217 1.48983  14
   3 -11  -4 16.7271 3.25606  15
   3 -11  -4 26.1085 2.31033  10
   2 -11  -4 5.69311 1.42452  10
   2 -11  -4 6.91973 1.97433  15
   1 -11  -4 72.3771 5.33142   9
   1 -11  -4 71.0997 4.97171  10
   0 -11  -4 89.5171 6.68555   9
   0 -11  -4 85.4260 5.83064  10
   0 -11  -4 98.3468 6.84311  15
  -1 -11  -4 85.6591 5.99891   9
  -1 -11  -4 73.5244 5.68374  15
   5 -12  -4 1.36716 1.28055  15
   4 -12  -4 -2.1373 1.04744  14
   4 -12  -4 1.67777 1.64398  15
   3 -12  -4 4.75494 1.75645  15
   2 -12  -4 -0.5403 0.99302  10
   2 -12  -4 0.22177 1.57877  15
   1 -12  -4 -1.3421 0.76727  10
   1 -12  -4 -1.3222 1.38348  15
   0 -12  -4 -0.9335 1.10195  15
   0 -12  -4 0.15348 0.57876   9
   1 -14   5 160.493 11.7097  14
   2 -14   5 1.65039 1.63330  14
   3 -14   5 83.4761 6.31211  14
  -2 -13   5 22.6972 2.37068  15
  -1 -13   5 21.3004 2.09111  15
   0 -13   5 8.70921 1.45669  14
   1 -13   5 177.751 13.1549  14
   2 -13   5 6.12806 1.67367  14
   3 -13   5 5.59917 1.76177  14
   4 -13   5 12.1399 1.87868  14
   3  12  -5 12.1554 1.45809   8
  -3 -12   5 15.5052 1.38984   8
  -1 -12   5 27.2356 3.06209  14
  -1 -12   5 21.4084 2.77723  15
   0 -12   5 49.8529 4.70151  15
   0 -12   5 63.3787 5.18995  14
   1 -12   5 3.31178 2.24362  14
   2 -12   5 12.8000 2.17858  14
   3 -12   5 11.5089 1.39797  13
   3 -12   5 15.9808 2.28019  14
   4 -12   5 2.54420 1.86165  14
   5 -12   5 15.9808 2.18043  14
   5 -12   5 18.6063 2.13360  13
   4  11  -5 17.4706 1.56577   8
  -4 -11   5 14.1342 1.66928   8
  -2 -11   5 1.15758 1.76269  14
  -1 -11   5 37.5398 4.02967  14
   0 -11   5 34.2084 3.88420  15
   0 -11   5 38.2354 3.08911  10
   0 -11   5 43.5556 4.29634  14
   1 -11   5 16.5642 1.66541  10
   1 -11   5 15.1298 2.73465  14
   2 -11   5 3.89174 1.38354  13
   2 -11   5 4.23812 1.05239  10
   2 -11   5 4.41487 1.87555  14
   3 -11   5 201.356 13.4903  12
   3 -11   5 184.823 13.5133  13
   3 -11   5 208.546 12.5444  10
   3 -11   5 242.340 15.6815  14
   4 -11   5 64.3419 4.47918  12
   4 -11   5 57.2462 5.43190  14
   5 -11   5 36.3005 2.97800  12
   5 -11   5 33.2803 4.21446  14
   6 -11   5 108.386 7.20838  12
   5  10  -5 132.603 8.17855   8
  -5 -10   5 117.741 8.26710   8
   4  10  -5 15.7219 1.55017   8
  -4 -10   5 17.7063 1.97222   8
  -2 -10   5 24.9961 3.37555  14
  -2 -10   5 31.6151 3.35543   9
  -1 -10   5 75.3173 6.24521   9
  -1 -10   5 86.6379 6.66098  14
   0 -10   5 37.6894 4.20567  14
   0 -10   5 38.0445 3.05227  10
   0 -10   5 36.4592 3.62476   9
   1 -10   5 41.2624 3.39939  10
   1 -10   5 45.2521 3.80852   9
   1 -10   5 40.2814 4.84155   5
   1 -10   5 49.3000 4.79505  14
   2 -10   5 0.21612 0.99741   9
   2 -10   5 0.61833 1.03890  12
   2 -10   5 0.95115 1.07650  10
   2 -10   5 -0.0395 2.33162  14
   2 -10   5 2.12599 2.66761   5
   2 -10   5 1.05936 1.29324  13
   3 -10   5 50.4480 3.92791  13
   3 -10   5 47.1132 3.29429  10
   3 -10   5 44.4299 3.45931  12
   3 -10   5 54.0877 5.34266  14
   4 -10   5 26.7532 1.95835  10
   4 -10   5 28.2393 2.58547  12
   4 -10   5 23.8367 3.40640  14
   5 -10   5 22.6346 2.81039  14
   5 -10   5 29.2208 2.60160  12
   6 -10   5 36.2045 3.01423  12
   7 -10   5 1.31832 1.06793  13
   7 -10   5 -0.0293 0.67422  12
   6   9  -5 15.7989 1.71513   9
   6   9  -5 16.7885 1.74794  11
   5   9  -5 8.90195 1.09385   8
   4   9  -5 4.65823 1.09857   8
  -3  -9   5 3.54649 1.25574   8
  -2  -9   5 99.5600 6.83288   8
  -1  -9   5 1.97385 1.14327   8
  -1  -9   5 0.15121 1.18385   9
  -1  -9   5 1.07260 2.65525   3
  -1  -9   5 1.83276 2.61006   2
   0  -9   5 110.943 8.65155   2
   0  -9   5 102.733 7.69484   9
   0  -9   5 105.955 7.02552   8
   0  -9   5 109.428 6.72272  10
   0  -9   5 102.576 8.08937   5
   0  -9   5 103.510 8.06577  14
   0  -9   5 109.312 8.95375   3
   1  -9   5 72.7639 5.86467  14
   1  -9   5 66.9801 4.38885  10
   1  -9   5 61.5270 4.74384  13
   1  -9   5 62.6440 5.95207   3
   1  -9   5 68.1533 5.09320   9
   1  -9   5 69.7973 6.28390   2
   1  -9   5 68.1741 5.97389   5
   1  -9   5 65.8062 4.60303  12
   2  -9   5 21.2015 2.13760   9
   2  -9   5 31.5257 3.85909   5
   2  -9   5 22.9101 2.45771  13
   2  -9   5 22.3927 2.92306   3
   2  -9   5 23.8544 3.35667   2
   2  -9   5 22.2135 2.87654  14
   2  -9   5 21.3503 2.10732  12
   2  -9   5 20.4619 2.08252  10
   3  -9   5 2.84320 1.07499  12
   3  -9   5 2.72956 1.36710  13
   3  -9   5 0.84526 1.58513  14
   3  -9   5 2.09005 0.86299  10
   3  -9   5 1.25650 2.71661   5
   4  -9   5 4.89121 1.65930  11
   4  -9   5 4.98909 0.79552  10
   4  -9   5 1.72912 2.28482  14
   4  -9   5 4.16920 1.25142  12
   4  -9   5 4.72414 1.57096  13
   4  -9   5 7.26038 3.22140   5
   5  -9   5 76.3442 5.22580  12
   5  -9   5 70.8524 5.48758  13
   5  -9   5 74.7118 5.81205  11
   5  -9   5 67.6127 6.33808  14
   6  -9   5 40.1872 3.22807  13
   6  -9   5 42.4246 3.26314  12
   6  -9   5 33.5066 3.26685  11
   7  -9   5 2.42163 0.83044  12
   7  -9   5 1.38956 1.18683  13
   7  -9   5 1.55748 1.03037  11
   7   8  -5 6.18266 0.93097   9
   6   8  -5 12.7739 1.71832  11
   6   8  -5 20.0524 1.93243   9
   6   8  -5 16.7555 1.24579   8
   5   8  -5 12.8282 1.86676   9
   5   8  -5 12.4907 1.36996   8
   4   8  -5 0.60394 0.88705   8
  -2  -8   5 2.10129 1.01720   8
  -1  -8   5 132.969 9.70222   5
  -1  -8   5 128.342 10.3970   3
  -1  -8   5 124.932 9.43359   9
  -1  -8   5 133.540 8.65953   8
  -1  -8   5 141.574 10.0407   2
   0  -8   5 30.7382 2.42409   8
   0  -8   5 36.1377 4.26806   3
   0  -8   5 30.7716 2.80022   9
   0  -8   5 36.1301 3.86122   5
   0  -8   5 31.5604 3.77309   2
   0  -8   5 28.6721 2.64451  10
   1  -8   5 47.1674 3.25549   8
   1  -8   5 51.1610 4.88631   2
   1  -8   5 51.8065 4.45964  14
   1  -8   5 47.1138 3.56728  13
   1  -8   5 54.8659 5.14716   5
   1  -8   5 50.6664 4.85300   3
   1  -8   5 41.4955 3.34470  12
   1  -8   5 48.9948 3.35084  10
   1  -8   5 46.6231 3.65655   9
   2  -8   5 3.31391 1.88408  14
   2  -8   5 3.33371 1.92566   2
   2  -8   5 4.92735 1.17432  12
   2  -8   5 5.46264 0.83290  10
   2  -8   5 5.50803 2.03744   3
   2  -8   5 4.33628 2.21903   5
   2  -8   5 5.28590 1.24457  13
   2  -8   5 4.85633 0.88519   9
   3  -8   5 586.598 38.9712   5
   3  -8   5 606.985 42.4349  14
   3  -8   5 580.463 40.2679  11
   3  -8   5 606.434 37.9296  13
   3  -8   5 577.898 37.7838  12
   3  -8   5 594.608 35.2818  10
   4  -8   5 12.4229 1.57889  12
   4  -8   5 13.9014 1.85268  13
   4  -8   5 12.9186 1.91424  11
   4  -8   5 14.3957 1.34527  10
   4  -8   5 11.0155 3.01554   5
   4  -8   5 13.2955 2.40050  14
   5  -8   5 579.863 39.3816  11
   5  -8   5 510.696 41.4392  14
   5  -8   5 617.893 36.9830  12
   5  -8   5 601.900 37.0921  13
   6  -8   5 42.7043 3.84831  11
   6  -8   5 48.9747 3.78647  12
   6  -8   5 50.7843 4.07280  13
   7  -8   5 5.39222 1.63738  11
   7  -8   5 8.67991 1.17744  13
   7  -8   5 8.25545 1.12980  12
   8  -8   5 -0.2396 0.70349  11
   7   7  -5 0.90194 1.23850  11
   6   7  -5 133.020 8.88582   8
   6   7  -5 142.815 9.46216  18
   5   7  -5 5.58770 1.01570   8
   5   7  -5 6.98992 1.47333  18
   5   7  -5 7.46576 1.52015   9
   4   7  -5 709.051 45.4076   8
   3   7  -5 721.801 46.2559   8
  -2  -7   5 2.11526 0.85903   8
  -1  -7   5 429.843 30.0271   3
  -1  -7   5 437.265 28.9285   2
  -1  -7   5 432.645 28.3841   5
   0  -7   5 32.9540 3.53001   5
   0  -7   5 33.8444 3.91854   2
   0  -7   5 35.4307 4.03981   3
   1  -7   5 5.97478 2.27382   3
   1  -7   5 6.21355 2.20627   5
   1  -7   5 7.72770 2.08649   2
   2  -7   5 61.7015 5.13570   5
   2  -7   5 54.7427 4.12973  13
   2  -7   5 59.9119 4.90479   3
   2  -7   5 62.0349 4.41466  11
   2  -7   5 57.0507 3.97013  12
   2  -7   5 60.5008 4.98247  14
   2  -7   5 50.8810 4.14904   9
   2  -7   5 56.4359 3.63527  10
   2  -7   5 57.4783 4.62938   2
   3  -7   5 14.6422 1.94913   3
   3  -7   5 22.9103 2.07482   2
   3  -7   5 21.8927 1.98621  13
   3  -7   5 20.0829 2.19685  14
   3  -7   5 18.2850 1.95196  12
   3  -7   5 23.6668 2.05737  11
   3  -7   5 25.0790 3.30241   5
   3  -7   5 18.5168 1.58332   9
   3  -7   5 19.4483 1.61449  10
   4  -7   5 90.9908 6.29642  12
   4  -7   5 92.0835 7.83192   5
   4  -7   5 104.091 6.74597  18
   4  -7   5 99.4407 6.51485  13
   4  -7   5 91.7979 6.68146  11
   4  -7   5 89.7979 5.62494  10
   4  -7   5 77.8166 7.30882  14
   5  -7   5 -1.0441 1.43773  13
   5  -7   5 0.52749 1.64835  18
   5  -7   5 -0.9295 1.16835  12
   5  -7   5 -0.3979 1.06536  11
   6  -7   5 0.06017 0.89528  12
   6  -7   5 -2.4519 1.47024  13
   6  -7   5 -1.2850 1.54165  11
   6  -7   5 0.85047 1.70461  18
   7  -7   5 -0.1258 1.03927  11
   7  -7   5 -0.1845 0.85837  12
   8  -7   5 10.8457 1.35036  11
   8  -7   5 14.5270 1.51657  12
   7   6  -5 8.44305 1.28618  11
   7   6  -5 7.09469 1.16541  18
   6   6  -5 21.7876 2.29755  10
   6   6  -5 18.3403 2.14317  18
   5   6  -5 32.1730 3.05928  18
   5   6  -5 30.0605 4.71398   4
   5   6  -5 34.5065 2.64016   8
   5   6  -5 32.3630 3.22487   9
   4   6  -5 43.5173 5.31724   2
   4   6  -5 53.5288 3.60535   8
   4   6  -5 43.5557 5.80390   3
   3   6  -5 64.3939 4.46867   8
  -1  -6   5 12.3604 1.95703   5
  -1  -6   5 12.3631 2.71717   3
  -1  -6   5 13.5968 2.38848   2
   0  -6   5 422.732 28.3796   5
   0  -6   5 448.838 28.7390   2
   0  -6   5 433.753 29.7147   3
   1  -6   5 0.53643 1.64288   5
   1  -6   5 1.00766 1.36272   2
   1  -6   5 0.92726 1.56860   3
   2  -6   5 92.0646 6.91614   3
   2  -6   5 93.1208 6.94911   5
   2  -6   5 91.8145 6.60023   2
   3  -6   5 1.29855 0.84756  12
   3  -6   5 0.89123 0.44662   9
   3  -6   5 0.96588 1.24874  18
   3  -6   5 -0.3088 1.12308   3
   3  -6   5 1.83385 1.03997  13
   3  -6   5 0.43547 1.83663   4
   3  -6   5 1.08714 1.05446   2
   3  -6   5 1.55750 1.06404  11
   3  -6   5 2.71713 2.12737   5
   3  -6   5 0.72497 0.59279  10
   4  -6   5 1.32017 0.95790  12
   4  -6   5 0.59470 0.56369  10
   4  -6   5 -0.1145 1.20704  13
   4  -6   5 0.27446 1.38801  18
   4  -6   5 0.64472 0.85897  11
   4  -6   5 -1.3711 1.84339   5
   4  -6   5 1.37756 2.19727   4
   5  -6   5 9.08550 0.86013  10
   5  -6   5 10.5027 1.48893  12
   5  -6   5 8.65255 1.47424  18
   5  -6   5 8.23145 1.61573  13
   5  -6   5 7.31558 3.07223   4
   5  -6   5 7.92669 1.68242  11
   6  -6   5 3.63118 1.24671  11
   6  -6   5 1.63266 1.71553  18
   6  -6   5 4.82047 1.49382  13
   6  -6   5 4.54020 1.41204  12
   7  -6   5 8.58514 1.38362  11
   7  -6   5 7.22262 1.81025  18
   7  -6   5 10.4329 1.29641  12
   8  -6   5 30.1831 2.42696  11
   8  -6   5 25.4047 2.11007  12
   7   5  -5 58.2696 4.40030  18
   7   5  -5 56.9440 3.82128  10
   7   5  -5 50.4316 4.27140  11
   6   5  -5 -0.4371 1.05798   9
   6   5  -5 -0.2340 1.09869  10
   6   5  -5 -0.7677 1.42404  11
   6   5  -5 -0.2972 1.40924  18
   5   5  -5 18.8789 1.73257  10
   5   5  -5 19.4614 1.75803   8
   5   5  -5 19.3492 2.27127   9
   5   5  -5 17.8388 1.93402  18
   5   5  -5 12.4986 3.37506   4
   5   5  -5 15.3327 3.39776   2
   5   5  -5 17.3050 4.04137   3
   4   5  -5 30.6998 4.09360   3
   4   5  -5 29.0320 3.34709   7
   4   5  -5 37.8939 4.25463   2
   4   5  -5 33.4613 2.51597   8
   4   5  -5 28.4633 2.84508   9
   3   5  -5 1.45598 1.35516   7
   3   5  -5 0.16773 1.91350   3
   3   5  -5 2.93623 1.95623   2
   2   5  -5 89.6598 6.55598   2
   2   5  -5 86.5162 6.92265   3
   2   5  -5 84.6368 5.98456   7
  -2  -5   5 90.0982 6.74200   2
  -2  -5   5 87.2833 6.05325   5
  -2  -5   5 78.5489 6.83661   3
   1   5  -5 154.715 9.83476   7
   1   5  -5 135.124 10.9871   1
  -1  -5   5 148.993 10.4440   2
  -1  -5   5 143.804 11.1321   1
  -1  -5   5 153.687 10.0881   5
  -1  -5   5 149.541 11.1496   1
  -1  -5   5 156.049 10.9669   3
   0   5  -5 6.92690 1.84573   1
   0  -5   5 13.7707 2.22443   3
   0  -5   5 11.0095 1.84824   5
   0  -5   5 11.9515 1.94283   2
   0  -5   5 10.5236 1.96478   1
   1  -5   5 290.796 19.4690   3
   1  -5   5 271.812 18.6563   5
   1  -5   5 288.185 18.7788   2
   2  -5   5 410.519 27.2170   4
   2  -5   5 403.805 27.5197   3
   2  -5   5 426.192 26.5960   2
   2  -5   5 384.205 26.5542   5
   3  -5   5 327.278 20.8852   2
   3  -5   5 331.808 21.3101   5
   3  -5   5 287.158 21.6139   3
   3  -5   5 336.176 21.7957   4
   4  -5   5 61.2194 4.48192  18
   4  -5   5 55.6963 5.05001   5
   4  -5   5 62.1621 5.49003   4
   4  -5   5 55.3464 4.21084  13
   4  -5   5 54.3259 3.76810  17
   4  -5   5 58.1104 3.60340  10
   4  -5   5 54.2577 4.10868  12
   4  -5   5 56.8091 4.44345  11
   5  -5   5 13.5036 1.81966  11
   5  -5   5 15.0540 3.32061   4
   5  -5   5 12.9972 1.66603  12
   5  -5   5 14.1484 1.26409  10
   5  -5   5 13.5059 1.97448  18
   5  -5   5 14.7123 1.76298  13
   6  -5   5 17.0817 2.17612  11
   6  -5   5 15.4146 2.26772  18
   6  -5   5 22.8010 2.49711  12
   7  -5   5 59.7413 5.19732  18
   7  -5   5 65.9142 4.99694  11
   7  -5   5 71.1263 4.85327  12
   8  -5   5 1.14356 0.62521  12
   8  -5   5 1.85595 0.99942  18
   8  -5   5 0.14316 0.94528  11
   8   4  -5 36.5379 2.97394  18
   7   4  -5 3.63337 1.18510  18
   7   4  -5 5.16995 1.12279  10
   7   4  -5 2.38795 1.47603  11
   6   4  -5 6.01996 1.60393  18
   6   4  -5 5.60109 1.20375  11
   6   4  -5 7.90790 1.36567   9
   6   4  -5 5.20186 2.20451   7
   6   4  -5 9.95553 1.40867  10
   5   4  -5 3.32264 0.95650   9
   5   4  -5 2.51848 0.90740  10
   5   4  -5 -0.4391 2.73966   4
   5   4  -5 0.56720 1.66325   7
   5   4  -5 0.50943 0.74642   8
   5   4  -5 0.94028 1.14111  18
   5   4  -5 -0.0253 2.27131   3
   5   4  -5 3.10100 2.31206   2
   4   4  -5 552.109 36.8507   3
   4   4  -5 522.607 34.2649   8
   4   4  -5 540.976 35.4297   2
   4   4  -5 530.287 34.5123   7
   3   4  -5 463.080 29.8092   7
   3   4  -5 463.613 31.8192   3
   3   4  -5 464.026 30.6371   2
   2   4  -5 1691.48 105.061   7
   2   4  -5 1748.98 107.641   2
   2   4  -5 1691.31 111.248   3
   2   4  -5 1724.72 113.964   1
   2   4  -5 1602.37 113.846   1
  -2  -4   5 1581.40 113.944   1
  -2  -4   5 1601.15 107.582   2
  -2  -4   5 1586.76 111.197   3
  -2  -4   5 1720.99 113.970   1
  -2  -4   5 1673.76 106.123   5
   1   4  -5 626.952 41.1497   1
   1   4  -5 611.387 38.7933   2
   1   4  -5 581.712 40.0741   3
   1   4  -5 548.006 40.9947   1
  -1  -4   5 644.238 38.7497   2
  -1  -4   5 573.928 38.1491   5
  -1  -4   5 571.596 40.0382   3
  -1  -4   5 618.927 41.0820   1
  -1  -4   5 562.893 41.0723   1
   0   4  -5 10.6871 2.05548   1
   0   4  -5 7.21378 1.77560   1
   0  -4   5 10.0224 1.75547   2
   0  -4   5 11.0360 1.76193   5
   0  -4   5 11.9214 2.00784   3
   0  -4   5 7.96576 1.79975   1
   0  -4   5 12.7083 2.00695   1
  -1   4  -5 966.209 68.2156   1
   1  -4   5 1069.23 65.2436   4
   1  -4   5 1010.71 63.7333   5
   1  -4   5 867.573 68.2051   1
   1  -4   5 1057.03 64.3657   2
   1  -4   5 1047.37 66.5191   3
   1  -4   5 935.682 68.1105   1
   2  -4   5 10.0067 1.70736   5
   2  -4   5 9.55115 1.58695   3
   2  -4   5 10.1423 1.87081   4
   2  -4   5 10.3315 1.54556   2
   3  -4   5 2.16565 1.70600   4
   3  -4   5 4.82327 1.78090   5
   3  -4   5 4.35431 1.23499   2
   3  -4   5 -0.1061 1.45820   3
   4  -4   5 30.7182 2.66170  18
   4  -4   5 30.4828 2.14874  17
   4  -4   5 22.3058 1.83543   9
   4  -4   5 27.8016 2.36834  13
   4  -4   5 19.7309 2.74004   5
   4  -4   5 26.1520 2.58851  11
   4  -4   5 25.9126 3.32362   4
   4  -4   5 25.3894 1.91066  10
   4  -4   5 27.4297 2.31051  12
   5  -4   5 77.6204 5.65895  11
   5  -4   5 74.6443 4.81102  17
   5  -4   5 74.7645 5.09467  12
   5  -4   5 73.3829 4.57914  10
   5  -4   5 66.2309 6.59894   4
   5  -4   5 65.4917 5.25655  13
   5  -4   5 77.2757 5.55928  18
   6  -4   5 99.9732 8.76984   4
   6  -4   5 100.035 6.86362  12
   6  -4   5 107.031 7.51344  11
   6  -4   5 97.1590 6.10958  10
   6  -4   5 101.286 7.38512  18
   7  -4   5 3.22290 1.02420  12
   7  -4   5 3.96380 1.17084  11
   7  -4   5 2.51194 1.27668  18
   8  -4   5 14.9489 1.39348  12
   8  -4   5 12.9751 1.69490  11
   9   3  -5 45.6042 3.35890  18
   8   3  -5 198.567 13.4104  18
   7   3  -5 6.24295 1.68407  18
   7   3  -5 4.93743 1.41597  11
   7   3  -5 5.79374 1.06703  10
   6   3  -5 2.53368 1.24065  11
   6   3  -5 2.05891 2.08563   7
   6   3  -5 4.98382 1.15799  10
   6   3  -5 2.92893 1.42235  18
   6   3  -5 2.92507 0.87463   9
   6   3  -5 2.76748 1.18409  17
   5   3  -5 8.17935 1.14572  16
   5   3  -5 8.20689 1.17076  10
   5   3  -5 6.78705 0.98246  17
   5   3  -5 6.58911 1.32216  18
   5   3  -5 12.6134 2.89896   3
   5   3  -5 8.14606 2.39433   7
   5   3  -5 9.27828 2.69608   4
   5   3  -5 7.55180 0.89808   8
   5   3  -5 6.97992 1.17950   9
   5   3  -5 8.59982 2.24472   2
   4   3  -5 6.15376 1.91040   2
   4   3  -5 4.11446 2.28897   3
   4   3  -5 5.79558 1.65691   7
   3   3  -5 13.7992 2.48460   3
   3   3  -5 13.2776 2.02968   7
   3   3  -5 13.0637 2.26488   1
   3   3  -5 14.9797 2.22477   2
   2   3  -5 0.68634 1.43159   3
   2   3  -5 -0.9368 1.01836   7
   2   3  -5 2.40065 1.62627   2
   2   3  -5 -1.1986 1.54262   1
   2   3  -5 0.01534 1.19371   1
  -2  -3   5 1.05875 1.29470   3
  -2  -3   5 0.15062 1.49002   1
  -2  -3   5 0.92319 1.33577   2
  -2  -3   5 2.95027 1.82995   1
   1   3  -5 31.0416 3.25204   2
   1   3  -5 32.9764 3.32720   3
   1   3  -5 28.2757 3.17758   1
   1   3  -5 27.7135 3.55959   1
  -1  -3   5 28.7143 3.47548   1
  -1  -3   5 31.7506 3.10688   1
  -1  -3   5 29.5704 3.25987   3
  -1  -3   5 29.3612 2.74859   2
   0   3  -5 462.727 31.3822   1
   0   3  -5 417.278 30.6111   3
   0   3  -5 481.408 31.4930   1
   0   3  -5 408.463 29.5907   2
   0  -3   5 469.994 30.6036   3
   0  -3   5 450.936 29.5572   2
   0  -3   5 478.669 31.3761   1
   0  -3   5 414.434 31.4351   1
   0  -3   5 490.409 29.9038   4
  -1   3  -5 -0.9341 1.56204   1
  -1   3  -5 2.01705 1.67075   1
   1  -3   5 -0.1075 1.31158   3
   1  -3   5 1.49626 1.18505   3
   1  -3   5 -0.4383 1.10036   5
   1  -3   5 1.45209 1.11953   4
   1  -3   5 -0.7928 1.23032   1
   1  -3   5 0.35884 1.62297   1
   1  -3   5 0.85380 1.22463   2
   1  -3   5 1.52630 1.33066   2
   2  -3   5 56.2858 4.37447   3
   2  -3   5 48.2354 4.38742   1
   2  -3   5 54.7723 4.18835   5
   2  -3   5 57.1971 4.21773   2
   2  -3   5 47.9240 4.33537   4
   2  -3   5 50.5325 4.60249   1
   3  -3   5 28.8946 2.97407   2
   3  -3   5 32.3795 3.17731   5
   3  -3   5 31.6356 3.44429   3
   3  -3   5 26.2708 3.15799   4
   4  -3   5 74.6674 5.62854   9
   4  -3   5 82.2672 5.09207  17
   4  -3   5 77.4382 5.45221  12
   4  -3   5 81.6063 6.67160   4
   4  -3   5 80.0594 4.95762  10
   4  -3   5 80.5007 5.61470  18
   4  -3   5 75.9013 5.83606  11
   4  -3   5 85.2325 5.71306   2
   4  -3   5 84.0135 6.09536   3
   5  -3   5 10.3402 1.34727  17
   5  -3   5 12.1639 1.57189  12
   5  -3   5 9.24903 2.94326   4
   5  -3   5 9.59350 1.59754  11
   5  -3   5 10.8712 1.05514  10
   5  -3   5 13.6030 1.73834  18
   6  -3   5 2.52313 1.53470  11
   6  -3   5 3.46429 1.41269  12
   6  -3   5 3.53370 2.98742   4
   6  -3   5 3.98810 1.20938  18
   6  -3   5 2.71197 0.80770  10
   7  -3   5 8.47200 1.82847  18
   7  -3   5 6.08986 1.14502  12
   7  -3   5 5.04469 1.65066  11
   8  -3   5 39.6639 3.07133  18
   8   2  -5 0.77537 0.68902  17
   8   2  -5 -0.3656 1.11849  18
   7   2  -5 72.7756 5.36721  18
   7   2  -5 69.6233 4.64636  17
   7   2  -5 76.7587 4.74801  10
   7   2  -5 70.6549 5.58720  11
   6   2  -5 44.2101 3.35737  18
   6   2  -5 38.8693 3.32960   9
   6   2  -5 40.5537 4.40554   7
   6   2  -5 41.4508 2.94763  17
   6   2  -5 46.1096 3.42704  16
   6   2  -5 42.7775 2.98114  10
   6   2  -5 38.3850 4.54627   3
   6   2  -5 33.8648 3.35401  11
   5   2  -5 130.787 8.74332   8
   5   2  -5 131.199 8.64836  16
   5   2  -5 129.496 8.31475  17
   5   2  -5 130.766 9.53660   9
   5   2  -5 148.338 10.2130   3
   5   2  -5 148.830 9.80578   2
   5   2  -5 142.623 9.85749   7
   5   2  -5 131.837 8.33123  10
   5   2  -5 143.448 9.33122  18
   4   2  -5 2.06123 1.75242   3
   4   2  -5 -0.2335 1.32473   7
   4   2  -5 1.91742 1.51818   4
   4   2  -5 2.82619 1.72245   2
   3   2  -5 9.68249 1.61573   7
   3   2  -5 10.0885 1.73053   3
   3   2  -5 9.00564 1.85961   1
   3   2  -5 7.66926 1.74620   2
   3   2  -5 6.15557 1.39098   1
  -3  -2   5 5.60129 1.93939   1
   2   2  -5 0.74117 1.19603   7
   2   2  -5 -0.1976 1.10557   1
   2   2  -5 -0.5462 1.50089   2
   2   2  -5 -0.1723 1.63498   1
   2   2  -5 0.46151 1.25570   3
  -2  -2   5 1.74233 1.78050   1
  -2  -2   5 1.12280 1.20456   1
  -2  -2   5 0.39158 1.19805   3
  -2  -2   5 -0.6356 0.93597   2
   1   2  -5 -0.4240 1.52446   3
   1   2  -5 -0.0730 1.24247   2
   1   2  -5 0.15033 1.33878   1
   1   2  -5 0.28404 1.43816   1
  -1  -2   5 0.39527 1.43849   1
  -1  -2   5 1.45759 1.49811   3
  -1  -2   5 1.45725 1.02253   2
  -1  -2   5 1.42125 1.84872   1
   0   2  -5 18.3955 2.26331   2
   0   2  -5 22.9985 2.65685   1
   0  -2   5 22.0566 2.17721   2
   0  -2   5 17.9151 2.70692   1
   0  -2   5 23.6074 2.42152   3
   0  -2   5 25.0673 2.82878   1
   0  -2   5 20.7048 2.13255   4
  -1   2  -5 10.5628 2.34240   1
  -1   2  -5 7.78005 1.83079   3
  -1   2  -5 8.60541 2.04498   2
  -1   2  -5 8.91858 2.00416   1
   1  -2   5 6.35203 1.78173   1
   1  -2   5 9.19662 1.44887   4
   1  -2   5 6.42725 1.50716   2
   1  -2   5 9.84205 1.67059   3
   1  -2   5 12.1154 1.78744   3
   1  -2   5 7.91576 1.84150   1
   2  -2   5 428.146 25.5783   5
   2  -2   5 351.444 27.2642   1
   2  -2   5 422.921 26.6864   3
   2  -2   5 332.418 27.3877   1
   2  -2   5 418.208 26.2019   4
   2  -2   5 400.234 25.7485   2
   3  -2   5 1104.11 73.4133   3
   3  -2   5 1149.88 72.1172   4
   3  -2   5 1058.75 70.9406   2
   3  -2   5 1068.82 70.2537   5
   4  -2   5 33.9216 2.72555  12
   4  -2   5 32.2513 4.12047   3
   4  -2   5 32.6818 2.88943  18
   4  -2   5 32.4813 2.49974  17
   4  -2   5 32.0461 2.69281  11
   4  -2   5 39.9031 3.30429   2
   4  -2   5 35.3823 2.39230  10
   4  -2   5 30.3788 2.62916   9
   4  -2   5 32.7292 4.05931   4
   5  -2   5 372.476 29.6400   3
   5  -2   5 449.053 29.9800   4
   5  -2   5 452.036 26.2163  10
   5  -2   5 449.550 26.2745  17
   5  -2   5 463.971 29.9748  11
   5  -2   5 431.742 28.6584   2
   5  -2   5 469.040 28.1756  12
   5  -2   5 412.952 30.1675   9
   5  -2   5 449.802 29.1105  18
   6  -2   5 1.71178 1.35115  12
   6  -2   5 2.05344 0.91211  10
   6  -2   5 1.08092 1.04289  11
   6  -2   5 2.88164 1.13696  18
   7  -2   5 83.1616 5.72250  12
   7  -2   5 87.9871 6.20353  11
   7  -2   5 69.8833 5.78521  18
   7  -2   5 83.5959 4.97979  10
   8  -2   5 23.9871 2.04069  11
   8  -2   5 19.0698 1.88462  18
   9   1  -5 3.87848 0.90571  17
   9   1  -5 2.41037 1.56810  18
   8   1  -5 6.86171 1.30559  17
   8   1  -5 9.08011 1.49466  18
   7   1  -5 70.2529 4.61633  17
   7   1  -5 49.7639 6.32156   7
   7   1  -5 76.1521 4.58446  10
   7   1  -5 73.8555 5.53221  18
   7   1  -5 74.1366 5.09550  16
   6   1  -5 543.124 34.2137  18
   6   1  -5 502.659 33.7807   2
   6   1  -5 512.684 32.0255  16
   6   1  -5 509.800 35.5350   9
   6   1  -5 526.118 33.7748   7
   6   1  -5 522.508 30.8628  17
   6   1  -5 500.830 30.8200  10
   5   1  -5 3.73272 0.88564  17
   5   1  -5 2.31973 0.90245  16
   5   1  -5 2.11314 1.79598   3
   5   1  -5 3.21518 1.12703  18
   5   1  -5 1.77848 0.72932  10
   5   1  -5 2.91774 0.72525   9
   5   1  -5 3.23272 1.75308   7
   5   1  -5 5.41667 1.59825   2
   4   1  -5 1102.10 71.3019   2
   4   1  -5 1115.73 73.7149   3
   4   1  -5 1082.78 69.9408   7
   3   1  -5 548.860 32.3312   2
   3   1  -5 528.133 31.6991   7
   3   1  -5 462.655 34.1543   1
   3   1  -5 534.247 33.4104   3
   3   1  -5 505.781 34.2453   1
   3   1  -5 422.552 32.4623   4
  -3  -1   5 493.634 34.2378   1
  -3  -1   5 456.628 34.3126   1
   2   1  -5 93.2609 6.82825   3
   2   1  -5 98.4389 6.67646   2
   2   1  -5 99.3984 7.18131   1
   2   1  -5 90.1932 6.88304   1
   2   1  -5 98.2476 6.59682   7
   2   1  -5 97.8408 7.28249   6
  -2  -1   5 104.138 7.03827   1
  -2  -1   5 82.9014 6.67920   3
  -2  -1   5 76.1098 6.42667   2
  -2  -1   5 90.2517 7.38757   1
   1   1  -5 18.3699 2.19957   6
   1   1  -5 19.2300 2.74031   1
   1   1  -5 19.3906 2.42230   2
  -1  -1   5 19.7534 2.75651   1
  -1  -1   5 17.7727 2.22087   2
  -1  -1   5 19.2565 2.30599   1
  -1  -1   5 19.8486 2.24778   3
   0   1  -5 571.899 38.0595   6
   0   1  -5 549.641 39.5189   1
   0   1  -5 611.229 39.6864   1
   0   1  -5 551.120 37.3746   2
   0   1  -5 580.024 38.5329   3
   0  -1   5 562.127 37.5104   4
   0  -1   5 518.682 39.5610   1
   0  -1   5 618.133 38.4782   3
   0  -1   5 563.479 37.1922   2
   0  -1   5 594.922 39.4633   1
  -1   1  -5 6.88975 2.23152   2
  -1   1  -5 3.31564 1.84061   3
  -1   1  -5 2.77504 2.38955   1
  -1   1  -5 4.73576 1.90900   1
   1  -1   5 6.59436 1.82035   3
   1  -1   5 7.51066 1.29294   4
   1  -1   5 7.29650 1.96923   1
  -2   1  -5 12.5378 2.25496   1
   2  -1   5 19.7051 2.45690   3
   2  -1   5 17.8815 2.12901   4
   2  -1   5 11.2555 2.07152   1
   3  -1   5 120.677 8.84945   5
   3  -1   5 136.343 9.56423   4
   3  -1   5 133.527 9.68031   3
   4  -1   5 -0.5001 0.98555  18
   4  -1   5 1.38179 0.96959  12
   4  -1   5 2.32215 2.07767   4
   4  -1   5 -0.4132 0.81510  10
   4  -1   5 1.14299 0.86001  17
   4  -1   5 1.56465 0.98868  11
   4  -1   5 1.87387 2.20166   3
   5  -1   5 26.3035 2.59844  12
   5  -1   5 22.6217 3.65797   3
   5  -1   5 27.6963 2.08430  10
   5  -1   5 25.8917 2.72750  18
   5  -1   5 25.7603 2.81270  11
   5  -1   5 27.7182 3.93398   4
   5  -1   5 26.4325 2.25833   9
   5  -1   5 28.8080 3.35606   2
   6  -1   5 18.6950 1.70081  10
   6  -1   5 17.4476 2.11490  18
   6  -1   5 23.3511 2.50767  12
   6  -1   5 18.4424 2.18732  11
   7  -1   5 -2.1917 1.48258  11
   7  -1   5 0.32410 0.80993  10
   7  -1   5 1.03022 1.03996  18
   7  -1   5 -0.2244 0.83637  12
   8  -1   5 0.61818 0.88752  11
   9   0  -5 39.6596 3.27249  18
   8   0  -5 182.999 11.7917  17
   8   0  -5 204.959 13.1653  18
   8   0  -5 191.663 12.2466  16
   7   0  -5 362.284 22.4921  16
   7   0  -5 348.284 21.4946  10
   7   0  -5 347.965 21.6356  17
   7   0  -5 381.863 24.0742  18
   6   0  -5 337.135 20.5256  17
   6   0  -5 356.577 23.1137  15
   6   0  -5 339.360 21.3118  16
   6   0  -5 332.541 22.6984   7
   6   0  -5 336.003 20.4277  10
   6   0  -5 348.031 22.7946  18
   5   0  -5 58.5305 3.87564  17
   5   0  -5 68.7627 4.56154   2
   5   0  -5 57.4108 4.04886  16
   5   0  -5 58.3354 4.82010  15
   5   0  -5 56.7004 4.39774  18
   5   0  -5 57.7656 4.24802   9
   5   0  -5 58.6045 3.73218  10
   5   0  -5 59.4024 5.37248   7
   4   0  -5 137.291 9.78099   7
   4   0  -5 144.632 9.62645   2
   3   0  -5 10.0832 1.75955   1
   3   0  -5 10.1338 1.67820   2
   3   0  -5 8.89722 1.50752   3
   3   0  -5 10.6080 2.77929   6
   3   0  -5 9.84890 1.63644   7
  -3   0   5 6.64747 1.56658   1
  -3   0   5 6.90026 1.95347   1
   2   0  -5 10.7598 2.05324   6
   2   0  -5 8.55795 1.78090   3
   2   0  -5 8.79152 2.21955   1
   2   0  -5 9.56755 2.02354   2
  -2   0   5 8.27512 1.59384   1
  -2   0   5 6.15125 1.52832   3
  -2   0   5 7.01947 1.96547   1
   1   0  -5 171.645 11.3378   3
   1   0  -5 173.082 11.9508   1
   1   0  -5 146.804 11.5758   1
   1   0  -5 164.988 11.0612   2
   1   0  -5 159.666 11.1689   6
  -1   0   5 177.266 11.5681   1
  -1   0   5 167.588 11.2339   3
  -1   0   5 143.892 10.7496   2
  -1   0   5 140.914 11.7615   1
   0   0  -5 64.5507 5.53861   1
   0   0  -5 57.1045 6.03701   1
   0   0  -5 62.9350 5.35781   3
   0   0  -5 62.1787 4.95908   6
   0   0  -5 65.5256 5.60180   2
   0   0   5 68.3383 5.83122   1
   0   0   5 64.6092 4.57731   4
   0   0   5 70.4491 5.24038   3
  -1   0  -5 6.93243 2.13393   3
  -1   0  -5 8.47359 1.65193   6
  -1   0  -5 9.09777 2.16078   1
  -1   0  -5 8.84240 2.47886   2
  -1   0  -5 7.77995 2.69401   1
   1   0   5 11.4827 2.26745   1
   1   0   5 12.9072 1.90544   2
   1   0   5 11.0969 1.67046   4
   1   0   5 13.6400 1.97292   3
   1   0   5 13.7762 2.27639   1
   2   0   5 41.1400 4.08565   3
   2   0   5 28.8185 3.91817   1
   2   0   5 32.1005 3.44446   2
   2   0   5 34.4986 3.51317   4
   3   0   5 56.2501 5.53058   3
   3   0   5 55.6691 4.83204   2
   3   0   5 57.0019 4.91694   4
   4   0   5 8.12671 1.23548   9
   4   0   5 5.55438 2.94026   3
   4   0   5 12.4605 1.07589   8
   4   0   5 7.24282 2.22157   2
   4   0   5 9.08112 1.22989  10
   4   0   5 10.9228 1.39499  11
   4   0   5 9.88593 2.58222   4
   4   0   5 10.9493 1.32060  18
   5   0   5 3.11028 1.24084  12
   5   0   5 2.15097 1.32024  11
   5   0   5 5.05709 2.85681   4
   5   0   5 2.23896 1.10413  10
   5   0   5 2.07939 0.92529  18
   5   0   5 2.11702 2.71172   3
   6   0   5 8.76621 1.31082  10
   6   0   5 11.7679 1.62125  12
   6   0   5 5.93865 1.60163  18
   6   0   5 9.26697 1.43660  11
   6   0   5 10.7182 1.30237   9
   7   0   5 1.81485 1.05703  11
   7   0   5 2.14670 0.70027  10
   8   0   5 1.99128 0.84669  11
   9  -1  -5 0.90040 1.63669  18
   8  -1  -5 1.06924 1.75319  18
   8  -1  -5 0.47182 1.14944  17
   8  -1  -5 0.58573 1.51378  16
   7  -1  -5 76.5777 4.64880  10
   7  -1  -5 74.6856 5.32366  16
   7  -1  -5 69.4371 6.55153   7
   7  -1  -5 78.8349 5.78758  18
   7  -1  -5 75.4649 5.03947  17
   6  -1  -5 1.85253 1.94584  15
   6  -1  -5 1.89233 1.28766  18
   6  -1  -5 1.37293 1.08628  16
   6  -1  -5 0.89894 2.09584   7
   6  -1  -5 0.50155 0.58758  10
   6  -1  -5 2.42221 0.75002  17
   5  -1  -5 301.845 20.8703   3
   5  -1  -5 274.818 20.1360   2
   5  -1  -5 318.288 18.5721  17
   5  -1  -5 340.363 20.1333   2
   5  -1  -5 312.916 18.4768  10
   5  -1  -5 309.895 19.2824  16
   5  -1  -5 304.421 20.8293   3
   5  -1  -5 308.797 20.8472  15
   5  -1  -5 331.435 20.5063   7
   5  -1  -5 293.946 22.4509  14
   4  -1  -5 0.40020 0.91798   2
   4  -1  -5 1.33091 1.38379   3
   4  -1  -5 -0.8855 0.96233   2
   4  -1  -5 0.38450 1.31708   7
   4  -1  -5 5.30234 2.94168   6
   4  -1  -5 -0.0387 0.99836   3
   3  -1  -5 228.437 16.2008   1
   3  -1  -5 229.714 15.8145   3
   3  -1  -5 251.615 15.2912   2
   3  -1  -5 213.518 15.7537   3
   3  -1  -5 234.812 15.0613   7
   3  -1  -5 230.406 16.2122   6
  -3   1   5 221.123 16.1327   1
   2  -1  -5 44.2237 3.86361   2
   2  -1  -5 39.2011 3.51517   3
   2  -1  -5 45.2066 4.61034   6
   2  -1  -5 47.2672 3.86057   3
   2  -1  -5 36.9369 3.59184   1
   2  -1  -5 43.1270 4.12140   1
   2  -1  -5 30.7806 3.18684   2
  -2   1   5 43.8977 3.67175   1
  -2   1   5 46.2626 4.18476   1
   1  -1  -5 114.573 8.76966   1
   1  -1  -5 115.824 8.71766   6
   1  -1  -5 121.556 9.30701   1
   1  -1  -5 121.785 8.58755   3
   1  -1  -5 129.409 8.74701   2
  -1   1   5 127.280 9.20427   1
  -1   1   5 116.295 8.45571   3
  -1   1   5 107.268 7.77667   4
   0  -1  -5 15.3907 2.36001   1
   0  -1  -5 19.0068 2.38129   6
   0  -1  -5 20.0113 2.65750   2
   0  -1  -5 18.8537 2.62319   3
   0  -1  -5 14.8033 3.07851   1
   0   1   5 15.3292 2.36322   3
   0   1   5 16.5247 2.81910   1
   0   1   5 16.2275 1.78574   4
   0   1   5 17.1032 2.00676   2
   0   1   5 16.1568 2.49067   1
  -1  -1  -5 83.6940 7.18485   2
  -1  -1  -5 100.115 6.86629   6
  -1  -1  -5 76.3133 7.71873   1
  -1  -1  -5 80.9492 7.20739   1
  -1  -1  -5 90.2334 7.22275   3
   1   1   5 94.7882 6.50845   4
   1   1   5 88.0853 7.27774   1
   1   1   5 81.2392 7.19532   1
   1   1   5 105.676 7.15054   3
   1   1   5 93.0996 6.67556   2
   2   1   5 700.261 43.0326   2
   2   1   5 726.712 44.6377   3
   2   1   5 645.079 43.4431   4
   2   1   5 557.614 45.5367   1
   3   1   5 137.017 10.0824   3
   3   1   5 119.239 9.20662   2
   3   1   5 124.127 9.34007   4
   4   1   5 344.680 23.1518   3
   4   1   5 332.386 21.8630   2
   4   1   5 340.983 22.3784   4
   4   1   5 305.121 19.3888  10
   4   1   5 340.624 20.6862   8
   4   1   5 302.050 22.3892   9
   4   1   5 305.956 22.0416  11
   5   1   5 382.304 26.3525   4
   5   1   5 376.192 22.9059  10
   5   1   5 373.394 24.5103  12
   5   1   5 391.844 26.0962  11
   6   1   5 50.8961 4.12001  12
   6   1   5 55.0603 4.53389  11
   6   1   5 55.6930 4.01278   9
   6   1   5 51.2074 3.67235  10
   7   1   5 28.2842 2.10368  10
   7   1   5 28.4881 2.56508  11
   9  -2  -5 1.25352 1.22645  18
   8  -2  -5 10.7540 1.23850  17
   8  -2  -5 8.00733 1.98704  18
   8  -2  -5 5.64282 1.64985  16
   7  -2  -5 111.369 7.45749  17
   7  -2  -5 126.032 7.95112  16
   7  -2  -5 116.165 9.02049  15
   7  -2  -5 126.431 8.57052  18
   6  -2  -5 139.778 9.65493  18
   6  -2  -5 143.159 9.04684  16
   6  -2  -5 137.691 8.42113  10
   6  -2  -5 143.509 10.9991  14
   6  -2  -5 133.568 10.0790   7
   6  -2  -5 142.428 8.67562  17
   6  -2  -5 139.743 10.0660  15
   5  -2  -5 44.5296 3.12948  17
   5  -2  -5 43.4515 2.85629  10
   5  -2  -5 42.3207 4.60988  14
   5  -2  -5 43.1002 3.31980  16
   5  -2  -5 51.7890 4.26366   7
   5  -2  -5 42.4958 4.14839  15
   5  -2  -5 64.5604 6.19600   6
   4  -2  -5 481.129 31.4750   3
   4  -2  -5 491.187 32.3186   6
   4  -2  -5 477.117 30.1903   7
   4  -2  -5 440.494 30.3919   2
   4  -2  -5 434.726 31.4264   3
   4  -2  -5 490.993 30.3942   2
   3  -2  -5 2.92261 1.47409   3
   3  -2  -5 1.76850 0.96928   2
   3  -2  -5 3.80383 1.42836   2
   3  -2  -5 1.44673 2.92861   6
   3  -2  -5 -0.1324 1.14013   3
   3  -2  -5 2.11716 1.49683   7
   3  -2  -5 2.02410 1.20073   1
  -3   2   5 1.33610 1.18737   1
   2  -2  -5 1094.77 66.7456   6
   2  -2  -5 1016.47 66.7450   3
   2  -2  -5 1047.62 64.7218   2
   2  -2  -5 874.115 68.2944   1
   2  -2  -5 977.099 68.5247   1
  -2   2   5 1004.97 68.3345   1
  -2   2   5 960.805 68.5186   1
   1  -2  -5 231.683 14.8099   6
   1  -2  -5 175.657 14.8472   1
   1  -2  -5 223.193 14.7485   3
   1  -2  -5 203.629 15.3277   1
   1  -2  -5 241.574 14.5045   2
  -1   2   5 193.649 15.2157   1
  -1   2   5 185.269 13.8054   4
  -1   2   5 230.479 15.0691   1
   0  -2  -5 25.6668 3.47958   2
   0  -2  -5 27.9508 3.32738   3
   0  -2  -5 27.9396 3.47519   6
   0  -2  -5 26.1623 3.16884   1
   0  -2  -5 25.2919 3.62380   1
   0   2   5 29.8573 3.30685   3
   0   2   5 21.8011 3.26376   1
   0   2   5 25.7027 2.47168   4
   0   2   5 28.7703 2.96613   2
   0   2   5 26.0330 3.43017   1
  -1  -2  -5 14.5086 2.60805   6
  -1  -2  -5 10.5387 2.37900   3
  -1  -2  -5 13.8902 2.97605   2
  -1  -2  -5 10.0487 2.88704   1
  -1  -2  -5 8.94547 1.94360   1
   1   2   5 13.5371 1.80035   4
   1   2   5 12.3760 2.39898   1
   1   2   5 8.04991 2.23732   1
   1   2   5 13.1124 2.11113   2
   1   2   5 12.5737 2.25405   3
   2   2   5 181.296 12.7414   2
   2   2   5 175.015 12.7430   4
   2   2   5 192.051 13.4078   3
   3   2   5 49.4596 4.50297   2
   3   2   5 39.7979 3.66695   9
   3   2   5 48.6813 4.72640   4
   3   2   5 55.0192 5.40310   3
   3   2   5 48.2308 3.29692   8
   4   2   5 5.80857 1.27276  10
   4   2   5 5.67861 2.74195   2
   4   2   5 6.12614 1.35316   9
   4   2   5 4.93997 3.61905   3
   4   2   5 5.08260 2.66625   4
   4   2   5 5.92752 1.25867  11
   4   2   5 5.12567 0.78279   8
   5   2   5 -0.6619 0.94204  11
   5   2   5 -0.4348 0.39294   8
   5   2   5 -0.6717 1.00655  10
   5   2   5 -1.5715 2.99757   4
   5   2   5 -1.2616 1.20578   9
   5   2   5  0.0000 1.20038  12
   6   2   5 -1.2974 0.78509  12
   6   2   5 -0.9727 1.45519  11
   6   2   5 0.55560 1.07354  10
   6   2   5 -0.7542 0.97015   9
   7   2   5 -0.1282 1.25084  11
   7   2   5 0.18616 0.77609  10
   9  -3  -5 50.8356 4.12752  18
   9  -3  -5 59.4830 3.88223  16
   8  -3  -5 414.848 25.8744  16
   8  -3  -5 416.196 27.6863  18
   7  -3  -5 50.2659 4.52760  15
   7  -3  -5 52.3744 3.67675  17
   7  -3  -5 53.2710 4.00348  16
   7  -3  -5 44.4104 4.27172  18
   6  -3  -5 282.506 20.7812  18
   6  -3  -5 299.967 20.7215   7
   6  -3  -5 333.279 18.8010  17
   6  -3  -5 318.374 21.2235  15
   6  -3  -5 303.244 22.8353  14
   6  -3  -5 331.642 19.5512  16
   5  -3  -5 28.3907 1.91715  10
   5  -3  -5 39.4378 5.54926   6
   5  -3  -5 28.3842 2.52500  16
   5  -3  -5 26.9368 2.58694  13
   5  -3  -5 31.0799 3.29385   7
   5  -3  -5 27.3101 2.93370  15
   5  -3  -5 30.9812 2.29270  17
   5  -3  -5 25.2603 3.15491  14
   4  -3  -5 301.593 21.1108   6
   4  -3  -5 292.495 19.1639   7
   4  -3  -5 312.371 18.9775   2
   4  -3  -5 300.186 19.6558   3
   4  -3  -5 275.331 18.9503   2
   4  -3  -5 277.669 19.6419   3
   3  -3  -5 2.60543 1.30682   7
   3  -3  -5 2.87636 1.77239   2
   3  -3  -5 5.01456 2.62226   6
   3  -3  -5 4.30598 1.60930   3
   2  -3  -5 163.563 11.5762   3
   2  -3  -5 168.659 11.4532   2
   2  -3  -5 168.075 12.3447   6
   2  -3  -5 151.536 10.7159   7
   1  -3  -5 21.7595 3.08218   2
   1  -3  -5 25.0890 3.22694   6
   1  -3  -5 19.2902 2.81686   3
   1  -3  -5 14.3656 2.13127   1
   1  -3  -5 13.2818 2.88888   1
  -1   3   5 15.1596 2.70340   1
   0  -3  -5 0.74254 2.50691   2
   0  -3  -5 0.73654 2.34038   1
   0  -3  -5 -0.2139 1.92532   3
   0  -3  -5 1.01942 2.24979   6
   0   3   5 0.67749 2.15909   1
  -1  -3  -5 18.9924 3.60739   2
  -1  -3  -5 25.2008 3.66969   3
  -1  -3  -5 34.6181 3.96171   6
   1   3   5 23.2489 3.37954   3
   1   3   5 28.8369 3.13540   4
   1   3   5 21.6929 2.85728   2
   2   3   5 45.8560 5.45728   3
   2   3   5 44.4087 4.57537   2
   2   3   5 46.1512 4.42840   4
   3   3   5 -0.1316 1.93917   2
   3   3   5 2.57353 2.38452   4
   3   3   5 0.82030 0.96658   9
   3   3   5 1.02166 0.74526   8
   3   3   5 3.51603 2.81647   3
   4   3   5 20.1666 1.89061  10
   4   3   5 19.0602 1.64339   8
   4   3   5 18.3353 2.37277   9
   4   3   5 13.5675 3.76907   3
   4   3   5 16.8259 1.99336  11
   4   3   5 17.7903 3.71127   2
   4   3   5 18.2786 3.60630   4
   5   3   5 19.1323 1.55298   8
   5   3   5 24.0227 2.49609   9
   5   3   5 20.0555 2.17510  10
   5   3   5 24.5464 2.73651  11
   6   3   5 6.61810 1.11987   9
   6   3   5 6.53376 1.28898  10
   6   3   5 11.7431 1.36538  11
   7   3   5 0.21491 0.71651  11
   7   3   5 0.06831 0.75204  10
   9  -4  -5 11.2259 1.47469  18
   9  -4  -5 15.4870 1.54612  16
   8  -4  -5 18.5092 1.96872  16
   8  -4  -5 18.8884 2.11658  17
   8  -4  -5 18.0301 3.09800  15
   8  -4  -5 15.8555 2.20224  18
   7  -4  -5 8.26245 1.99454  15
   7  -4  -5 4.37383 1.30093  17
   7  -4  -5 2.83749 1.46960  16
   7  -4  -5 5.22903 2.92296  14
   7  -4  -5 3.40934 1.59900  18
   6  -4  -5 50.7517 6.47605   6
   6  -4  -5 48.1246 4.20182  13
   6  -4  -5 48.4704 3.92679  16
   6  -4  -5 55.3100 3.63286  17
   6  -4  -5 56.2850 5.12141  15
   6  -4  -5 52.0577 4.97238  14
   5  -4  -5 33.2217 3.32666  15
   5  -4  -5 42.6734 3.04827  13
   5  -4  -5 37.7734 4.31333  14
   5  -4  -5 32.5273 3.56642   7
   5  -4  -5 33.0929 5.25539   6
   5  -4  -5 33.2683 2.56048  17
   5  -4  -5 32.7121 2.23583  10
   5  -4  -5 34.5361 2.86929  16
   4  -4  -5 1.90907 1.04712  16
   4  -4  -5 5.75565 1.91924  15
   4  -4  -5 2.27055 1.40059   7
   4  -4  -5 1.98508 1.80433  14
   4  -4  -5 4.78684 3.47544   6
   4  -4  -5 5.43363 1.16371  13
   3  -4  -5 82.2864 6.04451   3
   3  -4  -5 76.7450 6.18844   2
   3  -4  -5 70.9871 5.50197   7
   3  -4  -5 89.7584 7.51636   6
   2  -4  -5 102.158 8.57818   6
   2  -4  -5 100.831 7.32530   3
   2  -4  -5 105.127 7.40672   2
   2  -4  -5 75.6755 6.34208   7
   1  -4  -5 0.51591 2.25489   3
   1  -4  -5 0.65808 2.39552   2
   1  -4  -5 0.23456 2.71223   6
   0  -4  -5 32.2775 4.18239   3
   0  -4  -5 29.3342 3.69103   2
   0  -4  -5 33.7610 4.19061   6
  -1  -4  -5 106.442 9.30513   6
   2   4   5 87.1742 6.55940   4
   2   4   5 71.4074 5.15603   8
   3   4   5 29.4816 2.39549   8
   3   4   5 30.2750 4.49932   4
   4   4   5 239.779 18.5203   4
   4   4   5 260.196 16.7401   8
   4   4   5 267.496 18.1991   9
   4   4   5 263.117 17.9195  11
   5   4   5 8.63482 0.96847   8
   5   4   5 8.45447 1.44058   9
   5   4   5 8.31532 1.35477  10
   5   4   5 10.9798 1.38803  11
   6   4   5 51.9694 3.52207  10
   6   4   5 51.1300 3.83863   9
   6   4   5 49.5839 3.89708  11
   9  -5  -5 2.34917 0.99295  16
   8  -5  -5 -0.1811 1.87003  15
   8  -5  -5 -2.2166 1.34034  16
   7  -5  -5 26.4904 3.58627  15
   7  -5  -5 29.4810 3.91672  14
   7  -5  -5 34.2778 2.99724  16
   7  -5  -5 30.5584 2.57321  17
   6  -5  -5 32.1915 3.35610  13
   6  -5  -5 39.8863 5.12075  14
   6  -5  -5 40.1255 2.88664  17
   6  -5  -5 38.4054 4.77073  15
   6  -5  -5 45.0313 6.36252   6
   6  -5  -5 38.5169 3.00817  16
   5  -5  -5 34.8884 5.77868   6
   5  -5  -5 34.9731 2.96466  16
   5  -5  -5 32.7788 2.16945  10
   5  -5  -5 39.4464 4.53708  14
   5  -5  -5 32.3115 4.04595  15
   5  -5  -5 32.1934 3.05791  13
   5  -5  -5 33.4017 2.49948  17
   4  -5  -5 16.7673 4.54372   6
   4  -5  -5 18.2641 1.85086  16
   4  -5  -5 20.0145 2.08954  10
   4  -5  -5 16.8735 2.60692  15
   4  -5  -5 21.8809 2.32317  13
   4  -5  -5 18.1416 2.55081  14
   3  -5  -5 2.76957 1.16933  10
   3  -5  -5 5.52073 3.56157   6
   3  -5  -5 3.81269 1.82325  15
   3  -5  -5 2.33420 1.18538  16
   3  -5  -5 1.22876 1.85232   3
   3  -5  -5 0.90607 1.06202   9
   3  -5  -5 -0.4442 2.05657   2
   3  -5  -5 -0.5482 1.03592  13
   3  -5  -5 2.01019 1.73252  14
   2  -5  -5 3328.41 219.445   3
   2  -5  -5 3251.14 212.561   2
   1  -5  -5 33.8446 4.56887   6
   1  -5  -5 27.4077 3.91598   2
   1  -5  -5 30.7241 4.02826   3
   0  -5  -5 173.234 13.4147   2
   0  -5  -5 185.621 13.9054   3
   0  -5  -5 200.668 14.2557   6
  -1  -5  -5 11.6123 3.78598   6
  -1  -5  -5 9.70261 1.51168   8
  -2  -5  -5 22.3458 4.44866   6
   2   5   5 17.2493 3.66385   4
   3   5   5 8.97022 1.20577   8
   3   5   5 11.9318 3.30113   4
   4   5   5 -0.4429 1.26532   9
   4   5   5 0.35119 0.81576   8
   4   5   5 1.26529 1.34026  11
   5   5   5 14.6302 1.77357  11
   5   5   5 13.4448 1.62933   9
   5   5   5 11.8635 1.09020   8
   6   5   5 1.68692 0.77336  11
   6   5   5 1.48052 0.90278   9
   6   5   5 2.01622 0.70090  10
   9  -6  -5 74.0800 4.84912  16
   8  -6  -5 12.9330 2.19789  15
   8  -6  -5 11.0163 1.65992  16
   7  -6  -5 50.1914 4.83907  14
   7  -6  -5 45.0404 4.47844  15
   7  -6  -5 45.5730 3.33519  17
   7  -6  -5 48.9304 3.76893  16
   6  -6  -5 3.07662 2.76245  15
   6  -6  -5 6.77379 1.11542  17
   6  -6  -5 5.51186 1.56829  13
   6  -6  -5 1.52779 2.67788  14
   6  -6  -5 5.48988 4.98240   6
   6  -6  -5 4.44091 1.46985  16
   5  -6  -5 20.5370 2.50045  15
   5  -6  -5 13.0616 5.24689   6
   5  -6  -5 15.3809 1.31137  10
   5  -6  -5 17.1056 1.88236  16
   5  -6  -5 17.0819 1.96277  13
   5  -6  -5 15.5641 2.95372  14
   4  -6  -5 152.595 10.3091  16
   4  -6  -5 157.841 11.5236  15
   4  -6  -5 169.812 10.6832  13
   4  -6  -5 164.964 13.6079   6
   4  -6  -5 154.158 12.1869  14
   4  -6  -5 166.449 9.91014  10
   3  -6  -5 21.1058 3.03030   3
   3  -6  -5 23.0182 2.51942   9
   3  -6  -5 18.6001 4.83226   6
   3  -6  -5 22.0679 2.39496  13
   3  -6  -5 19.5607 3.10841   2
   3  -6  -5 18.6459 1.96319  10
   3  -6  -5 26.1028 2.43640  16
   3  -6  -5 21.9120 2.77240  15
   3  -6  -5 24.0665 2.70279  14
   2  -6  -5 159.817 12.0458   9
   2  -6  -5 165.811 11.1723  13
   2  -6  -5 177.918 10.5711  10
   2  -6  -5 175.622 12.6456   2
   2  -6  -5 166.353 11.8635  15
   2  -6  -5 159.539 12.5534  14
   2  -6  -5 184.651 12.7014   3
   2  -6  -5 170.491 11.0008   8
   2  -6  -5 193.344 13.8597   6
   1  -6  -5 30.5111 3.56056   9
   1  -6  -5 27.7792 3.43153  15
   1  -6  -5 31.1571 2.79681  10
   1  -6  -5 33.8928 4.49420   3
   1  -6  -5 34.6119 5.21186   6
   1  -6  -5 33.6784 4.55195   2
   1  -6  -5 34.0329 2.68060   8
   0  -6  -5 -0.4718 1.71847   9
   0  -6  -5 0.53916 3.82210   6
   0  -6  -5 0.82650 2.58678   3
   0  -6  -5 -1.7465 3.29041   2
  -1  -6  -5 34.0196 3.01769   8
  -1  -6  -5 44.5617 6.43210   6
  -2  -6  -5 -1.2151 4.21543   6
  -2  -6  -5 0.53690 1.39890   8
   2   6   5 2.40370 2.80054   4
   3   6   5 13.1723 1.60422   8
   4   6   5 1.23034 1.00448   8
   4   6   5 -0.9864 1.29765  11
   4   6   5 0.85229 1.28627   9
   5   6   5 0.85219 0.79018   9
   5   6   5 0.84866 0.35249   8
   5   6   5 0.43519 0.84363  11
   8  -7  -5 2.02960 0.91893  16
   8  -7  -5 0.88209 1.65887  15
   7  -7  -5 1.57232 0.97866  16
   7  -7  -5 1.42486 2.78297  15
   7  -7  -5 2.79974 2.99335  14
   6  -7  -5 8.56255 1.56083  16
   6  -7  -5 5.56746 1.64972  13
   6  -7  -5 8.14591 2.87215  14
   6  -7  -5 9.91420 3.08082  15
   5  -7  -5 0.04413 0.53610  10
   5  -7  -5 -0.3751 1.77477  14
   5  -7  -5 6.18464 6.54322   6
   5  -7  -5 1.20491 1.33819  16
   5  -7  -5 1.30426 2.75517  15
   5  -7  -5 0.48464 1.47106  13
   4  -7  -5 4.39537 2.28537  14
   4  -7  -5 3.97527 1.42055  13
   4  -7  -5 1.05650 1.31074  16
   4  -7  -5 5.06852 2.61113  15
   4  -7  -5 0.38347 4.95574   6
   4  -7  -5 5.37103 1.38178  10
   3  -7  -5 84.5944 6.84948  14
   3  -7  -5 82.6013 6.67725  15
   3  -7  -5 78.3624 6.11741   9
   3  -7  -5 84.0548 5.80947  13
   3  -7  -5 71.1769 6.86541   2
   3  -7  -5 86.1255 6.63845   3
   3  -7  -5 78.3752 5.48111  10
   3  -7  -5 82.8518 5.70033  16
   3  -7  -5 98.7231 9.46617   6
   2  -7  -5 11.8123 3.09923   3
   2  -7  -5 15.4749 2.15422  14
   2  -7  -5 12.5666 2.46497  15
   2  -7  -5 13.2879 3.55725   2
   2  -7  -5 14.0288 1.92748  10
   2  -7  -5 13.4668 1.92413   9
   2  -7  -5 12.9364 1.90560  16
   2  -7  -5 20.4945 5.17142   6
   1  -7  -5 64.5676 8.20776   6
   1  -7  -5 68.7318 4.79707  10
   1  -7  -5 71.6731 4.78366   8
   1  -7  -5 76.0191 5.64850  15
   1  -7  -5 64.3994 7.07172   2
   1  -7  -5 59.8933 5.66190   9
   1  -7  -5 63.6702 7.13117   3
   0  -7  -5 3.56199 3.01147   3
   0  -7  -5 9.90274 4.25148   2
   0  -7  -5 3.24398 4.80395   6
   0  -7  -5 7.58622 2.07938   9
  -1  -7  -5 80.0229 5.70387   8
  -1  -7  -5 84.8556 9.85545   6
  -2  -7  -5 44.2153 3.61095   8
  -3  -7  -5 19.7431 2.43023   8
   3   7   5 22.9454 2.04497   8
   4   7   5 32.7444 2.51836   8
   4   7   5 36.3355 2.82474  11
   5   7   5 4.67979 0.77075  11
   8  -8  -5 7.44091 1.67487  15
   8  -8  -5 6.69013 0.90630  16
   7  -8  -5 3.64230 2.74123  15
   7  -8  -5 3.34394 1.26062  16
   7  -8  -5 4.86176 2.04873  14
   6  -8  -5 18.0103 3.39912  14
   6  -8  -5 26.9117 3.65750  15
   6  -8  -5 25.1341 2.50229  16
   5  -8  -5 47.0171 5.46530  15
   5  -8  -5 38.4138 3.27524  16
   5  -8  -5 50.4711 5.21538  14
   5  -8  -5 47.7309 3.83340  13
   4  -8  -5 1.47329 1.68633  14
   4  -8  -5 1.65465 1.46646  13
   4  -8  -5 0.78298 2.89528  15
   4  -8  -5 8.66734 5.91412   6
   4  -8  -5 -1.3496 1.34507  16
   4  -8  -5 2.19126 1.24780  10
   3  -8  -5 1179.28 84.7687  14
   3  -8  -5 1174.13 81.1070   6
   3  -8  -5 1264.80 79.2019  15
   3  -8  -5 1215.62 73.5866  16
   3  -8  -5 1125.99 71.0173  10
   3  -8  -5 1193.55 81.8921   9
   2  -8  -5 7.05247 3.65649   2
   2  -8  -5 3.22265 5.39143   6
   2  -8  -5 10.1224 1.81847  16
   2  -8  -5 11.5066 1.93379  10
   2  -8  -5 9.50407 1.57441   9
   2  -8  -5 10.9172 2.59113  15
   1  -8  -5 12.8811 1.43804   8
   1  -8  -5 6.95820 1.74358   9
   1  -8  -5 5.38244 5.16739   6
   1  -8  -5 12.7961 1.99205  15
   1  -8  -5 10.3507 1.76923  10
   0  -8  -5 120.238 7.90264   8
   0  -8  -5 108.029 8.82943   9
   0  -8  -5 125.425 8.69395  15
   0  -8  -5 114.540 11.1844   6
  -1  -8  -5 8.35095 1.95713   9
   3   8   5 16.3786 1.66903   8
  -4  -8  -5 4.90612 1.00658   8
   4   8   5 5.17040 0.69176   8
   7  -9  -5 1.16262 2.64428  14
   7  -9  -5 -0.8924 1.72483  15
   6  -9  -5 13.8316 3.23173  14
   6  -9  -5 23.2197 2.20066  16
   6  -9  -5 28.5307 3.32811  15
   5  -9  -5 16.3138 3.13856  14
   5  -9  -5 27.1732 2.98712  15
   5  -9  -5 19.8483 2.24631  16
   4  -9  -5 4.66141 2.47609  14
   4  -9  -5 3.13861 1.36707  16
   4  -9  -5 1.94915 3.06578  15
   4  -9  -5 4.48402 1.45531  10
   3  -9  -5 7.57616 1.50493  16
   3  -9  -5 6.94736 2.28120  15
   3  -9  -5 5.02471 2.20848  14
   3  -9  -5 4.37090 1.67381  10
   2  -9  -5 6.26228 1.65764   9
   2  -9  -5 7.21252 1.58619  16
   2  -9  -5 4.56833 1.52242  10
   2  -9  -5 8.90079 1.96377  15
   1  -9  -5 11.5282 2.02080  15
   1  -9  -5 8.29716 1.75699  10
   1  -9  -5 9.80826 1.81523   9
   0  -9  -5 2.05586 1.09551   8
   0  -9  -5 4.47257 2.30602  15
   0  -9  -5 3.37266 2.06119   9
  -1  -9  -5 3.37144 1.79226   9
  -1  -9  -5 4.32350 1.41838   8
  -1  -9  -5 3.99300 2.15066  15
  -2  -9  -5 -0.9129 1.34043  15
  -2  -9  -5 0.79652 1.17187   8
  -3  -9  -5 -0.7384 1.06763   8
   3   9   5 -0.5123 0.74942   8
   7 -10  -5 0.98519 1.48177  15
   7 -10  -5 0.50384 1.55479  14
   6 -10  -5 5.27591 2.00677  15
   6 -10  -5 5.34444 1.86991  14
   5 -10  -5 -2.3668 1.96259  15
   5 -10  -5 0.19361 1.67488  14
   4 -10  -5 44.2308 4.81164  15
   4 -10  -5 33.8566 3.63739  14
   3 -10  -5 10.2292 2.33393  14
   3 -10  -5 9.14279 1.41601  10
   3 -10  -5 6.51087 2.90594  15
   2 -10  -5 9.31725 2.06493  15
   2 -10  -5 9.26844 1.95396  10
   2 -10  -5 8.31436 1.36699   9
   1 -10  -5 4.61421 1.64510  10
   1 -10  -5 5.50781 2.38789  15
   1 -10  -5 3.61079 1.69104   9
   0 -10  -5 1.56822 1.49918  10
   0 -10  -5 1.50936 1.60997   9
   0 -10  -5 2.56053 2.17699  15
  -1 -10  -5 -1.9548 1.61452   9
  -1 -10  -5 -0.2151 0.71416   8
  -1 -10  -5 0.94512 1.98203  15
  -2 -10  -5 13.4362 1.17431   8
  -2 -10  -5 13.2489 1.63870   9
  -2 -10  -5 16.8155 1.78058  15
   2  10   5 15.4043 1.30531   8
   6 -11  -5 5.73742 1.58884  15
   6 -11  -5 4.91849 1.90586  14
   5 -11  -5 3.79022 1.73445  15
   5 -11  -5 1.43832 1.34919  14
   4 -11  -5 39.8692 3.51681  14
   3 -11  -5 -0.2819 1.22280  10
   3 -11  -5 -1.2488 2.59381  15
   2 -11  -5 4.24076 2.41639  15
   2 -11  -5 0.81344 1.24076  10
   1 -11  -5 10.8010 1.37535   9
   1 -11  -5 11.9259 1.38350  10
   1 -11  -5 11.6113 1.92391  15
   0 -11  -5 73.3879 4.98266  10
   0 -11  -5 78.7336 5.49019   9
   0 -11  -5 69.0184 5.36300  15
  -1 -11  -5 -0.7602 0.77392   9
  -1 -11  -5 0.30947 1.05092  15
   4 -12  -5 3.60280 1.57269  15
   3 -12  -5 4.73160 1.46984  15
   2 -12  -5 1.09857 1.06042  10
   2 -12  -5 0.84899 1.36333  15
   1 -12  -5 2.73873 0.98328  10
   1 -12  -5 1.93337 1.23038  15
   1 -14   6 109.542 8.09251  14
   2 -14   6 10.6444 1.96972  14
  -1 -13   6 1.04200 1.49208  14
   0 -13   6 36.1455 3.33001  14
   1 -13   6 -0.3755 1.53486  14
   2 -13   6 -0.1898 1.60333  14
   3 -13   6 0.80981 1.66233  14
   4 -13   6 2.79805 2.02971  14
  -4 -12   6 0.58328 0.58374   8
  -1 -12   6 29.7370 3.22353  14
  -1 -12   6 19.6458 2.36331  15
   0 -12   6 26.7704 3.07875  14
   1 -12   6 90.6710 7.54460  14
   2 -12   6 19.3575 2.49198  14
   3 -12   6 -0.5981 2.42914  14
   3 -12   6 -0.2527 1.29209  13
   4 -12   6 0.30099 0.97742  13
   4 -12   6 1.14025 1.67076  14
   5 -12   6 8.84931 2.02734  14
   5  11  -6 21.8489 1.54541   8
  -2 -11   6 3.99052 1.82478  14
  -1 -11   6 0.61039 1.97608  14
   0 -11   6 199.212 12.5831  10
   0 -11   6 211.611 15.2632  14
   1 -11   6 1.17717 1.38866  10
   1 -11   6 -1.4702 2.31752  14
   2 -11   6 155.148 11.0179  14
   2 -11   6 134.769 8.59149  10
   2 -11   6 132.292 9.29836  13
   3 -11   6 71.3512 4.67646  10
   3 -11   6 76.9523 6.24687  14
   3 -11   6 71.9485 5.32915  13
   3 -11   6 72.0497 5.12049  12
   4 -11   6 0.64599 2.51995  14
   4 -11   6 3.85019 1.29125  12
   5 -11   6 4.18259 1.27014  12
   5 -11   6 2.25306 2.10033  14
   6 -11   6 6.00444 0.91954  12
   6 -11   6 7.44614 1.39732  13
  -3 -10   6 82.8955 6.58601  14
  -2 -10   6 7.70914 1.31268   8
  -2 -10   6 14.1551 2.19934  14
  -1 -10   6 2.28501 1.97130  14
  -1 -10   6 -1.2602 1.61070   9
   0 -10   6 1.10692 1.50425  14
   0 -10   6 3.12555 1.20998   9
   0 -10   6 2.07185 2.49207   5
   0 -10   6 3.95412 1.44947  10
   1 -10   6 11.5938 1.51806  13
   1 -10   6 9.36391 1.31974  10
   1 -10   6 3.56280 2.63925   5
   1 -10   6 12.6968 2.49029  14
   1 -10   6 10.5983 1.52391   9
   2 -10   6 10.2625 3.10132   5
   2 -10   6 13.2254 2.26583  14
   2 -10   6 9.60287 1.41773  12
   2 -10   6 14.5592 1.41584   9
   2 -10   6 15.4535 1.80297  13
   2 -10   6 14.5712 1.41634  10
   3 -10   6 3.46560 1.53859  13
   3 -10   6 7.06646 1.29024  12
   3 -10   6 4.83217 2.51854  14
   3 -10   6 5.78158 1.07363  10
   4 -10   6 1.91763 1.24496  12
   4 -10   6 -0.2244 2.26027  14
   4 -10   6 -1.6956 1.40084  13
   4 -10   6 -0.9697 0.67707  10
   5 -10   6 27.1739 2.64601  13
   5 -10   6 30.1445 2.73156  12
   5 -10   6 28.8844 3.62009  14
   6 -10   6 -0.2301 1.47156  13
   6 -10   6 0.64822 0.80793  12
   7 -10   6 0.11527 0.85944  12
   6   9  -6 5.31388 0.92772  11
  -3  -9   6 24.6488 2.41346   8
  -2  -9   6 0.54495 1.26563   8
  -1  -9   6 4.73641 2.67271   3
  -1  -9   6 6.28436 1.23408   8
  -1  -9   6 5.41990 1.58676   9
  -1  -9   6 6.64998 3.42693   2
   0  -9   6 25.0881 2.29248  10
   0  -9   6 25.9742 3.42396   5
   0  -9   6 23.7295 2.05451   8
   0  -9   6 22.0019 3.78267   2
   0  -9   6 23.3862 2.81404   9
   0  -9   6 24.8361 3.93337   3
   1  -9   6 96.0833 6.68392  13
   1  -9   6 98.8918 6.28571  10
   1  -9   6 101.119 8.00113   3
   1  -9   6 98.6251 7.85879   5
   1  -9   6 96.5468 7.14276   9
   1  -9   6 93.1487 6.35648   8
   1  -9   6 106.067 7.93840  14
   1  -9   6 100.936 7.82862   2
   2  -9   6 65.1421 4.66030   9
   2  -9   6 63.5664 4.65323  13
   2  -9   6 74.8545 5.92270  14
   2  -9   6 55.2836 4.36891  12
   2  -9   6 58.0500 5.62928   2
   2  -9   6 65.6236 4.19044  10
   2  -9   6 61.0984 5.96406   5
   2  -9   6 56.4496 5.35312   3
   3  -9   6 25.9912 2.90806  13
   3  -9   6 23.6634 3.26585  14
   3  -9   6 30.6505 4.07958   5
   3  -9   6 28.5612 2.57783  12
   3  -9   6 29.3591 2.24741  10
   4  -9   6 57.3192 3.69080  10
   4  -9   6 58.7390 4.56640  13
   4  -9   6 50.1651 5.48243  14
   4  -9   6 58.8713 4.30020  12
   4  -9   6 57.7937 4.83428  11
   5  -9   6 37.4161 3.63722  13
   5  -9   6 36.9768 3.74816  11
   5  -9   6 38.6227 3.28594  12
   6  -9   6 185.820 14.2295  11
   6  -9   6 195.501 13.3412  12
   6  -9   6 239.740 13.6384  13
   7  -9   6 -0.4427 0.96736  13
   7  -9   6 0.25412 0.70012  12
   6   8  -6 -0.6008 0.97614  11
   5   8  -6 4.97011 1.47965  18
   4   8  -6 85.7099 5.87473   8
  -2  -8   6 78.1150 5.37576   8
  -1  -8   6 12.1110 2.45962   5
  -1  -8   6 5.60385 2.65754   3
  -1  -8   6 12.7009 1.35668   8
  -1  -8   6 11.4858 3.04119   2
  -1  -8   6 10.1464 1.63030   9
   0  -8   6 5.30895 2.25935   3
   0  -8   6 5.27898 1.03788  10
   0  -8   6 7.68437 2.51784   2
   0  -8   6 5.82619 0.94682   8
   0  -8   6 3.57725 1.02935   9
   0  -8   6 3.84812 1.94164   5
   1  -8   6 286.569 17.7425   8
   1  -8   6 255.010 17.8394  13
   1  -8   6 253.702 19.1692   9
   1  -8   6 287.053 18.8336   5
   1  -8   6 301.992 19.4990   3
   1  -8   6 271.899 16.6690  10
   1  -8   6 291.610 18.7961   2
   2  -8   6 25.6159 2.03792  10
   2  -8   6 33.7816 3.47190   2
   2  -8   6 23.2025 3.38993   5
   2  -8   6 24.1214 3.12557   3
   2  -8   6 26.7638 2.57933  13
   2  -8   6 26.0777 2.30807   9
   2  -8   6 29.8508 2.99511  14
   2  -8   6 23.6505 2.23648  12
   3  -8   6 42.7129 4.48611  14
   3  -8   6 41.7305 3.28128  12
   3  -8   6 40.4395 2.88430  10
   3  -8   6 40.7355 3.73178  11
   3  -8   6 40.3692 4.80854   5
   3  -8   6 44.3857 3.57421  13
   4  -8   6 20.5262 2.28589  12
   4  -8   6 24.6791 4.35070   5
   4  -8   6 18.7887 2.17559  11
   4  -8   6 16.6996 2.08435  13
   4  -8   6 16.8538 2.55868  14
   4  -8   6 17.1507 1.57630  10
   5  -8   6 97.1984 6.91586  12
   5  -8   6 103.536 7.07903  13
   5  -8   6 106.922 7.47926  11
   6  -8   6 -0.1885 1.58817  13
   6  -8   6 1.33917 1.36032  12
   6  -8   6 1.62977 1.59254  11
   7  -8   6 5.72374 1.13918  11
   7  -8   6 4.19250 1.23112  12
   7   7  -6 105.860 6.58070  18
   7   7  -6 83.9872 6.66169  11
   6   7  -6 203.592 13.7858  18
   5   7  -6 3.87061 1.45193  18
   5   7  -6 2.68772 1.40450   9
   4   7  -6 220.003 14.3235   8
  -2  -7   6 36.1300 2.77167   8
  -1  -7   6 58.0454 6.15108   3
  -1  -7   6 60.0793 4.28645   8
  -1  -7   6 61.9665 5.20706   5
  -1  -7   6 68.1085 5.77770   2
   0  -7   6 304.969 20.4159   5
   0  -7   6 297.392 19.6402   8
   0  -7   6 319.361 21.4536   3
   0  -7   6 304.865 20.6468   2
   1  -7   6 4.09802 1.06074  10
   1  -7   6 4.19604 0.71050   8
   1  -7   6 5.58561 1.84205   5
   1  -7   6 2.37169 1.75428   2
   1  -7   6 2.05047 2.01811   3
   1  -7   6 3.97229 0.99003   9
   2  -7   6 17.6861 2.19481  14
   2  -7   6 14.2917 2.44140   3
   2  -7   6 15.9366 1.63061  13
   2  -7   6 17.1646 3.03244   5
   2  -7   6 15.9267 1.68357  11
   2  -7   6 12.8637 1.62146  12
   2  -7   6 14.1113 1.59928  10
   2  -7   6 14.1698 1.74793   9
   2  -7   6 16.6339 2.31771   2
   3  -7   6 -1.6256 1.95437   5
   3  -7   6 -0.7331 0.72372  10
   3  -7   6 0.92089 1.31150   2
   3  -7   6 0.05353 1.30540   3
   3  -7   6 1.56598 1.63020  14
   3  -7   6 -1.2330 0.57791   9
   3  -7   6 -0.4275 0.92863  12
   3  -7   6 -0.4904 1.13594  11
   3  -7   6 0.93773 1.18061  13
   4  -7   6 5.65960 1.22691  12
   4  -7   6 5.54635 1.15102  11
   4  -7   6 5.63715 0.84709  10
   4  -7   6 5.84652 1.60526  13
   4  -7   6 5.17960 2.67482   5
   5  -7   6 3.18078 1.58757  13
   5  -7   6 3.12391 1.23292  18
   5  -7   6 0.41084 1.54062  11
   5  -7   6 0.82384 1.28710  12
   6  -7   6 0.89781 1.31937  12
   6  -7   6 2.73314 1.15136  11
   6  -7   6 -0.7456 1.42438  13
   7  -7   6 -0.0275 1.42000  11
   7  -7   6 0.45730 1.19279  12
   8  -7   6 7.40856 0.99420  11
   8   6  -6 12.8566 1.29878  18
   7   6  -6 -1.2357 1.19255  11
   7   6  -6 -0.3785 1.38481  18
   6   6  -6 0.30454 1.08895  18
   5   6  -6 2.40593 0.85242   8
   5   6  -6 3.40803 1.55589   9
   5   6  -6 1.90879 0.98655  18
   4   6  -6 58.7314 7.01004   3
   4   6  -6 68.8228 4.63114   8
   3   6  -6 70.8845 4.89054   8
  -1  -6   6 6.01604 1.50637   5
  -1  -6   6 7.77358 2.15407   3
  -1  -6   6 4.95653 1.73399   2
   0  -6   6 2.26742 1.65154   3
   0  -6   6 2.27656 1.38744   5
   0  -6   6 0.69282 1.75633   2
   1  -6   6 0.47714 1.67172   3
   1  -6   6 2.82324 1.73268   2
   1  -6   6 1.61281 1.45226   5
   2  -6   6 46.9568 4.08745   2
   2  -6   6 47.4254 4.37610   3
   2  -6   6 48.7201 4.43120   5
   3  -6   6 80.3612 6.70593   4
   3  -6   6 75.6091 5.90051  11
   3  -6   6 84.2236 6.61440   5
   3  -6   6 85.5310 5.79161   2
   3  -6   6 82.5847 5.63558  13
   3  -6   6 75.2369 6.07462   3
   3  -6   6 72.7563 5.63657   9
   3  -6   6 76.7197 5.45017  12
   3  -6   6 84.9482 5.03366  10
   3  -6   6 89.1431 5.87948  18
   4  -6   6 185.672 12.1599  12
   4  -6   6 179.658 13.5903   4
   4  -6   6 190.352 12.6125  18
   4  -6   6 183.044 12.9872  11
   4  -6   6 185.046 12.2792  13
   4  -6   6 180.333 13.2819   5
   4  -6   6 191.726 11.1889  10
   5  -6   6 131.729 9.48629  11
   5  -6   6 145.019 8.89826  12
   5  -6   6 129.969 7.93409  10
   5  -6   6 126.314 9.28331  18
   5  -6   6 139.564 9.00974  13
   5  -6   6 108.225 10.2459   4
   6  -6   6 15.7322 1.84691  12
   6  -6   6 10.8127 2.03523  18
   6  -6   6 14.1529 1.83549  13
   6  -6   6 12.3343 1.92220  11
   7  -6   6 -0.5410 1.23084  12
   7  -6   6 -0.4802 1.40204  11
   8  -6   6 48.7033 3.66100  12
   8  -6   6 60.0444 3.99780  11
   8   5  -6 4.58790 1.32060  18
   7   5  -6 2.26509 1.39077  11
   7   5  -6 4.00764 1.19033  18
   6   5  -6 3.75279 1.39565   9
   6   5  -6 0.34629 1.33076  11
   6   5  -6 3.05222 1.14904  18
   6   5  -6 4.36728 1.17184  10
   5   5  -6 82.1082 6.21579   9
   5   5  -6 86.0362 5.62550   8
   5   5  -6 89.7500 7.41284   2
   5   5  -6 82.3396 7.56089   3
   5   5  -6 78.9101 5.42973  10
   4   5  -6 17.8153 1.68365   8
   4   5  -6 17.0747 1.95484   9
   4   5  -6 16.8306 3.23807   3
   4   5  -6 15.7310 2.49743   7
   4   5  -6 22.9474 3.34916   2
   3   5  -6 96.1737 8.05253   3
   3   5  -6 99.3390 6.91393   7
   3   5  -6 91.3050 7.46094   2
   2   5  -6 673.238 42.2207   7
   2   5  -6 653.657 44.9725   3
   2   5  -6 661.959 43.4559   2
  -2  -5   6 680.135 42.6583   5
  -2  -5   6 626.844 44.9140   3
  -2  -5   6 677.297 43.5510   2
   1   5  -6 34.9562 3.77187   1
   1   5  -6 30.3709 3.03498   7
  -1  -5   6 34.7545 4.10989   3
  -1  -5   6 41.6072 3.83710   2
  -1  -5   6 37.8749 3.98323   1
  -1  -5   6 40.5128 3.34499   5
   0  -5   6 33.9747 3.49008   2
   0  -5   6 31.5888 3.37466   3
   0  -5   6 29.3505 3.49473   1
   0  -5   6 33.7895 3.28528   5
   1  -5   6 21.1623 2.63672   3
   1  -5   6 25.7940 2.57512   2
   1  -5   6 19.8250 2.44224   5
   2  -5   6 661.126 46.6902   3
   2  -5   6 685.298 45.9813   4
   2  -5   6 707.655 44.9620   5
   2  -5   6 722.662 45.1811   2
   3  -5   6 8.04128 2.07008   5
   3  -5   6 6.91138 1.91518   3
   3  -5   6 8.37954 2.59726   4
   3  -5   6 9.48363 0.98712  10
   3  -5   6 11.4272 1.34471  13
   3  -5   6 9.43478 1.58970   2
   3  -5   6 8.46419 0.95764   9
   3  -5   6 11.3303 1.29462  18
   3  -5   6 9.47901 1.19830  12
   3  -5   6 7.75054 1.30899  11
   4  -5   6 170.469 11.7031  18
   4  -5   6 171.719 11.9483  11
   4  -5   6 173.114 11.3014  13
   4  -5   6 164.599 12.2921   5
   4  -5   6 167.457 10.3420  10
   4  -5   6 167.354 12.5738   4
   4  -5   6 179.090 11.2244  12
   5  -5   6 86.9205 6.39139  11
   5  -5   6 88.2841 6.01357  12
   5  -5   6 82.3273 7.45221   4
   5  -5   6 86.4456 6.36438  18
   5  -5   6 86.6939 5.25718  10
   5  -5   6 76.8680 6.04614  13
   6  -5   6 4.61120 1.45788  12
   6  -5   6 4.56568 1.57788  11
   6  -5   6 2.66101 1.73542  18
   7  -5   6 2.78609 1.63373  18
   7  -5   6 3.00122 0.99397  12
   7  -5   6 1.81002 1.48897  11
   8  -5   6 1.74716 0.91796  11
   8   4  -6 3.40839 1.48006  18
   7   4  -6 111.749 8.03224  18
   6   4  -6 34.7749 2.84082   9
   6   4  -6 32.6700 3.17995  18
   6   4  -6 20.7949 3.34267   7
   6   4  -6 26.1830 3.00827  11
   6   4  -6 36.7885 2.63826  10
   5   4  -6 216.990 14.3703   8
   5   4  -6 236.276 16.2778   3
   5   4  -6 218.220 15.2073   7
   5   4  -6 224.190 15.5852   9
   5   4  -6 221.674 13.5504  10
   4   4  -6 325.678 22.8700   3
   4   4  -6 325.277 20.9376   8
   4   4  -6 331.051 21.9900   2
   4   4  -6 322.155 21.4082   7
   3   4  -6 40.7236 4.44323   3
   3   4  -6 39.4307 3.61847   7
   3   4  -6 37.9370 4.05378   2
   2   4  -6 263.520 16.7594   7
   2   4  -6 278.013 17.4029   2
   2   4  -6 226.479 18.2137   1
   2   4  -6 283.112 18.0369   3
   2   4  -6 250.348 18.4271   1
  -2  -4   6 264.329 18.0081   3
  -2  -4   6 260.657 16.8072   5
  -2  -4   6 263.880 17.2721   2
  -2  -4   6 219.220 18.3842   1
   1   4  -6 27.0371 3.22098   1
   1   4  -6 27.5936 3.30436   2
   1   4  -6 26.4059 3.20823   1
   1   4  -6 32.5390 3.35963   3
  -1  -4   6 29.2520 3.50422   3
  -1  -4   6 27.7205 2.56452   5
  -1  -4   6 31.5215 2.92162   2
  -1  -4   6 25.3984 3.04578   1
  -1  -4   6 25.3170 3.30655   1
   0   4  -6 143.446 10.9791   1
   0   4  -6 155.681 11.1758   1
   0  -4   6 157.028 10.3496   2
   0  -4   6 150.829 10.1503   5
   0  -4   6 164.589 10.7123   3
   0  -4   6 141.925 10.9714   1
   0  -4   6 133.589 11.0594   1
   1  -4   6 119.815 9.46271   1
   1  -4   6 126.432 9.31044   3
   1  -4   6 121.742 8.87630   5
   1  -4   6 135.217 9.10010   4
   1  -4   6 139.108 8.98478   2
   2  -4   6 209.158 13.9787   2
   2  -4   6 209.517 14.5306   3
   2  -4   6 218.783 14.1296   5
   2  -4   6 196.495 14.3308   4
   3  -4   6 47.2879 4.13342   5
   3  -4   6 50.1448 3.85653   2
   3  -4   6 41.3651 4.32720   4
   3  -4   6 42.1208 4.23481   3
   4  -4   6 178.159 12.3595  11
   4  -4   6 187.846 11.8452   2
   4  -4   6 172.928 11.6343  13
   4  -4   6 171.092 12.2697   9
   4  -4   6 185.235 11.6169  12
   4  -4   6 170.011 12.4644   5
   4  -4   6 181.250 10.7218  10
   4  -4   6 168.672 12.3211   3
   4  -4   6 179.100 12.0825  18
   4  -4   6 179.110 12.9534   4
   5  -4   6 -0.4527 2.57934   4
   5  -4   6 0.84063 0.72979  10
   5  -4   6 1.75615 0.94846  11
   5  -4   6 0.90997 1.23550  12
   5  -4   6 1.60642 1.50857  18
   6  -4   6 7.72974 1.63937  11
   6  -4   6 8.66530 1.89197  18
   6  -4   6 7.82614 1.63125  12
   6  -4   6 8.46571 0.88548  10
   7  -4   6 6.15504 1.09311  12
   7  -4   6 4.66688 1.28035  18
   7  -4   6 4.54106 1.18299  11
   8  -4   6 12.5718 1.54654  11
   8  -4   6 12.9953 1.40171  12
   8   3  -6 9.50483 1.43572  18
   7   3  -6 8.40389 1.85145  18
   7   3  -6 11.3093 1.45101  10
   7   3  -6 9.25918 1.27317  17
   6   3  -6 5.87677 1.20986  10
   6   3  -6 0.14716 2.55246   7
   6   3  -6 4.58801 2.53784   2
   6   3  -6 3.06958 0.91223   9
   6   3  -6 3.85041 1.13067  18
   6   3  -6 4.30604 1.00460  17
   6   3  -6 3.90080 1.27471  16
   5   3  -6 5.77946 0.94345  17
   5   3  -6 7.21411 2.67528   3
   5   3  -6 5.74072 2.03801   7
   5   3  -6 5.60222 0.83657   8
   5   3  -6 4.50381 1.11655   9
   5   3  -6 6.54166 1.23110  10
   5   3  -6 5.06419 2.08800   2
   4   3  -6 18.1137 2.73548   2
   4   3  -6 26.4519 2.89655   7
   4   3  -6 21.5788 2.88393   3
   3   3  -6 38.0541 3.84752   2
   3   3  -6 34.0848 3.66359   3
   3   3  -6 35.8046 3.25443   7
   2   3  -6 229.527 16.3941   1
   2   3  -6 244.705 15.0091   7
   2   3  -6 248.213 15.9958   3
   2   3  -6 250.582 15.4141   2
   2   3  -6 195.483 16.1520   1
  -2  -3   6 223.069 15.2669   2
  -2  -3   6 231.891 15.9433   3
  -2  -3   6 224.435 16.3355   1
  -2  -3   6 202.270 16.4202   1
   1   3  -6 37.8866 3.59097   3
   1   3  -6 40.1116 4.19375   1
   1   3  -6 31.5645 3.46189   1
   1   3  -6 40.3952 3.54590   2
  -1  -3   6 39.3086 3.64978   1
  -1  -3   6 39.4102 3.56751   3
  -1  -3   6 32.2539 3.97994   1
  -1  -3   6 35.0999 3.28101   2
   0   3  -6 94.0019 7.16641   1
   0   3  -6 83.0478 6.58256   2
   0  -3   6 93.7191 6.38001   4
   0  -3   6 85.2891 6.84683   1
   0  -3   6 89.3889 6.40804   2
   0  -3   6 87.1128 6.73938   3
   0  -3   6 80.0133 7.02917   1
  -1   3  -6 50.6350 4.87862   1
  -1   3  -6 43.1803 4.70284   1
   1  -3   6 51.3704 4.41061   3
   1  -3   6 50.2765 4.52905   1
   1  -3   6 53.7292 4.16134   4
   1  -3   6 57.8551 4.31441   2
   2  -3   6 3.16617 1.71285   5
   2  -3   6 2.06529 1.61971   2
   2  -3   6 3.57947 1.69485   3
   2  -3   6 0.31633 1.75609   4
   3  -3   6 291.135 19.8404   4
   3  -3   6 262.396 20.0181   3
   3  -3   6 303.241 19.2949   2
   3  -3   6 303.592 19.2988   5
   4  -3   6 27.1426 3.41472   3
   4  -3   6 29.4551 2.40536   9
   4  -3   6 30.0238 2.88125  18
   4  -3   6 32.7993 3.98687   4
   4  -3   6 29.5947 2.73623  13
   4  -3   6 31.3749 2.27744  10
   4  -3   6 32.8696 2.64023  12
   4  -3   6 27.8304 2.78037  11
   4  -3   6 31.4602 3.21813   2
   5  -3   6 6.65941 1.40684  12
   5  -3   6 3.84732 2.68824   4
   5  -3   6 4.79738 1.18195  18
   5  -3   6 4.65356 1.41589  11
   5  -3   6 5.92440 0.91738  10
   6  -3   6 4.43469 1.56475  11
   6  -3   6 3.86556 1.67529  18
   6  -3   6 5.32157 0.85576  10
   6  -3   6 4.97180 1.57566  12
   7  -3   6 26.6613 2.42379  12
   7  -3   6 29.3943 2.63752  11
   7  -3   6 32.3034 3.05294  18
   8  -3   6 128.184 8.91416  11
   9   2  -6 1.60125 1.09317  18
   8   2  -6 8.63491 1.43177  18
   8   2  -6 6.28870 0.94495  17
   7   2  -6 6.05530 1.30897  17
   7   2  -6 8.14190 1.09231  10
   7   2  -6 12.3082 1.73740  16
   7   2  -6 10.4612 1.86946  18
   6   2  -6 75.0127 4.94318  17
   6   2  -6 75.7335 5.19061  16
   6   2  -6 77.2389 5.56666   9
   6   2  -6 73.4993 6.39557   7
   6   2  -6 80.8315 5.75032  18
   6   2  -6 76.8593 6.58903   3
   6   2  -6 75.9534 4.86204  10
   6   2  -6 71.9650 6.10192   2
   5   2  -6 0.14519 2.32094   3
   5   2  -6 1.33193 1.15827  18
   5   2  -6 2.33861 1.76716   2
   5   2  -6 1.39053 0.84574  17
   5   2  -6 1.25598 0.72453  10
   5   2  -6 1.24386 0.83064  16
   5   2  -6 0.23009 0.48409   8
   5   2  -6 2.02952 0.88893   9
   5   2  -6 0.34466 1.70769   7
   4   2  -6 7.43198 1.75501   7
   4   2  -6 10.5863 2.19967   3
   4   2  -6 5.30070 1.79516   2
   3   2  -6 651.507 41.1700   2
   3   2  -6 651.907 42.5639   3
   3   2  -6 647.596 40.2788   7
   3   2  -6 568.502 43.5718   1
   2   2  -6 137.848 10.2252   1
   2   2  -6 146.611 9.64474   2
   2   2  -6 137.147 9.98015   1
   2   2  -6 151.677 9.90458   3
  -2  -2   6 132.718 9.79350   3
  -2  -2   6 126.139 9.37159   2
  -2  -2   6 121.383 10.2576   1
  -2  -2   6 136.741 10.0994   1
   1   2  -6 443.961 29.4710   2
   1   2  -6 423.122 31.0810   1
   1   2  -6 443.241 30.3834   3
   1   2  -6 469.563 31.3205   1
  -1  -2   6 448.334 30.3518   3
  -1  -2   6 483.567 31.1890   1
  -1  -2   6 449.512 29.3402   2
  -1  -2   6 425.920 31.2716   1
   0   2  -6 962.952 64.5288   2
   0   2  -6 984.893 68.2997   1
   0   2  -6 1008.10 68.4025   1
   0   2  -6 1002.55 66.6367   3
   0  -2   6 1012.45 64.3691   2
   0  -2   6 1031.35 65.0252   4
   0  -2   6 1073.96 66.5690   3
   0  -2   6 977.019 68.1897   1
   0  -2   6 882.768 68.2838   1
  -1   2  -6 1482.65 106.149   1
  -1   2  -6 1358.69 105.936   1
   1  -2   6 1502.49 105.898   1
   1  -2   6 1663.12 101.219   4
   1  -2   6 1710.74 103.390   3
   1  -2   6 1666.25 100.055   2
   1  -2   6 1440.33 106.034   1
   2  -2   6 754.846 49.1278   4
   2  -2   6 738.749 50.1021   3
   2  -2   6 738.431 48.4247   2
   3  -2   6 108.395 8.00361   4
   3  -2   6 108.181 7.67803   5
   3  -2   6 95.5128 8.30803   3
   3  -2   6 109.262 7.72764   2
   4  -2   6 4.10546 2.28837   4
   4  -2   6 6.74488 0.99521  10
   4  -2   6 5.01920 0.95031   9
   4  -2   6 5.49366 1.15439  11
   4  -2   6 5.81003 1.30939  18
   4  -2   6 9.45101 2.76112   3
   4  -2   6 5.08077 1.90092   2
   4  -2   6 3.31335 1.12977  12
   5  -2   6 0.59587 0.64946   9
   5  -2   6 0.52713 1.21709  12
   5  -2   6 1.19702 1.22344  11
   5  -2   6 1.39844 1.98701   3
   5  -2   6 -0.8554 1.76996   2
   5  -2   6 6.44131 2.80487   4
   5  -2   6 1.71562 0.87192  10
   5  -2   6 1.89320 0.97422  18
   6  -2   6 5.86551 1.62453  11
   6  -2   6 6.37966 1.35240  18
   6  -2   6 9.75020 1.35247  12
   6  -2   6 7.91875 1.03963  10
   7  -2   6 2.21212 1.05428  11
   7  -2   6 4.20949 0.64987  10
   7  -2   6 2.47055 1.23829  12
   7  -2   6 2.65452 1.07840  18
   9   1  -6 108.904 7.71658  18
   8   1  -6 2.84792 1.20011  17
   8   1  -6 1.79987 1.21611  18
   7   1  -6 111.698 7.86284  18
   7   1  -6 111.370 7.22431  16
   7   1  -6 103.472 6.77347  17
   7   1  -6 107.913 6.72244  10
   6   1  -6 85.0552 5.49378  17
   6   1  -6 97.1488 7.39266   7
   6   1  -6 83.1796 5.35525  10
   6   1  -6 89.6081 6.15957  18
   6   1  -6 84.2009 5.72957  16
   6   1  -6 85.0510 6.08813   9
   6   1  -6 82.4442 6.39713   2
   5   1  -6 101.779 6.93905  16
   5   1  -6 107.244 8.04369   7
   5   1  -6 109.038 7.81606   2
   5   1  -6 106.038 6.69413  17
   5   1  -6 115.867 7.89958  15
   5   1  -6 108.944 6.65127  10
   5   1  -6 110.929 8.23745   3
   5   1  -6 112.819 7.52410  18
   5   1  -6 101.087 7.59879   9
   4   1  -6 376.838 25.8382   3
   4   1  -6 375.591 24.6488   7
   4   1  -6 382.804 24.9703   2
   3   1  -6 443.218 27.5566   7
   3   1  -6 449.062 28.1442   2
   3   1  -6 399.033 29.7893   1
   3   1  -6 418.081 29.0014   3
   2   1  -6 215.456 14.2130   6
   2   1  -6 208.120 13.5952   2
   2   1  -6 212.543 14.6132   1
  -2  -1   6 182.159 13.5245   2
  -2  -1   6 212.776 14.3781   1
  -2  -1   6 180.166 14.0651   3
  -2  -1   6 196.936 14.6164   1
   1   1  -6 109.110 7.61836   6
   1   1  -6 103.424 8.03556   1
   1   1  -6 108.189 7.77214   2
   1   1  -6 102.089 8.34098   1
   1   1  -6 108.437 7.92298   3
  -1  -1   6 98.6745 7.32338   2
  -1  -1   6 97.4901 7.91623   1
  -1  -1   6 110.732 7.75566   3
  -1  -1   6 100.572 8.29446   1
   0   1  -6 7.29894 2.32527   1
   0   1  -6 9.70969 2.87231   1
   0   1  -6 10.3628 2.30679   3
   0   1  -6 11.3042 2.58611   2
   0   1  -6 10.8719 1.47938   6
   0  -1   6 11.6224 2.38932   1
   0  -1   6 13.5664 1.60819   4
   0  -1   6 10.3116 1.98906   1
   0  -1   6 12.8617 1.82510   2
   0  -1   6 12.1211 2.04991   3
  -1   1  -6 3.03784 1.88537   1
  -1   1  -6 -1.4718 2.38432   1
   1  -1   6 2.82250 1.51701   3
   1  -1   6 -0.8109 1.39436   1
   1  -1   6 0.00699 1.05790   4
   1  -1   6 0.92838 1.74222   1
   1  -1   6 -0.0983 1.33730   2
   2  -1   6 131.253 9.40322   4
   2  -1   6 133.516 9.72337   3
   3  -1   6 -0.9432 2.11717   3
   3  -1   6 0.01245 1.28563   5
   3  -1   6 1.65038 1.69643   4
   4  -1   6 21.3086 2.13005   9
   4  -1   6 24.8950 2.29722  18
   4  -1   6 22.7176 2.74601   2
   4  -1   6 21.8014 2.05827  11
   4  -1   6 21.0335 1.51361   8
   4  -1   6 25.2767 3.45896   4
   4  -1   6 24.5688 2.26916  12
   4  -1   6 22.2774 2.08136  10
   4  -1   6 30.6297 3.78805   3
   5  -1   6 92.1780 6.26809  12
   5  -1   6 91.7433 6.64298  11
   5  -1   6 84.4353 6.39671  18
   5  -1   6 84.8868 6.77384   2
   5  -1   6 91.1411 7.72988   4
   5  -1   6 88.1129 6.39456   9
   5  -1   6 91.6908 5.63821  10
   6  -1   6 9.16642 1.11710  10
   6  -1   6 11.8564 1.76908  18
   6  -1   6 14.4871 1.76910  12
   6  -1   6 8.75499 1.72467  11
   7  -1   6 -0.3280 0.75745  12
   7  -1   6 0.71165 1.00841  11
   7  -1   6 0.65465 0.79004  10
   9   0  -6 27.1688 2.99723  18
   8   0  -6 9.63979 1.81422  16
   8   0  -6 11.0887 1.48859  17
   8   0  -6 11.4103 1.67835  18
   7   0  -6 82.7863 6.01714  18
   7   0  -6 77.1010 5.20428  17
   7   0  -6 81.0430 5.51871  16
   7   0  -6 79.5750 4.92021  10
   7   0  -6 67.4318 6.78390   7
   6   0  -6 8.44134 2.33972  15
   6   0  -6 4.22707 1.51120   3
   6   0  -6 4.04005 1.17791  16
   6   0  -6 5.18889 1.13799  18
   6   0  -6 7.82067 2.47938   7
   6   0  -6 3.85260 0.59205   9
   6   0  -6 4.39952 1.11130  17
   6   0  -6 3.32038 1.13028   2
   6   0  -6 4.90274 0.90299  10
   5   0  -6 69.8357 5.81662   7
   5   0  -6 70.6033 4.54846  17
   5   0  -6 68.7562 4.73006  16
   5   0  -6 67.3322 5.03157   9
   5   0  -6 74.5590 5.69818   3
   5   0  -6 69.6527 5.12956  18
   5   0  -6 66.9094 4.42521  10
   5   0  -6 73.5516 5.55542  15
   5   0  -6 77.2182 5.35742   2
   4   0  -6 81.4118 5.70352   2
   4   0  -6 72.7827 6.13327   3
   4   0  -6 76.1875 5.86646   7
   4   0  -6 79.3126 7.04059   6
   3   0  -6 15.2484 2.16982   7
   3   0  -6 10.8121 2.96751   6
   3   0  -6 11.7845 2.01177   3
   3   0  -6 8.92461 2.11123   1
   3   0  -6 10.6678 1.90022   2
   2   0  -6 55.6910 4.61512   3
   2   0  -6 54.1841 4.88936   1
   2   0  -6 43.4634 4.32612   1
   2   0  -6 52.1043 4.98006   6
   2   0  -6 57.0122 4.64848   2
  -2   0   6 49.6372 4.40258   1
  -2   0   6 45.4785 4.85096   1
   1   0  -6 30.4052 3.33863   2
   1   0  -6 25.8769 3.11976   1
   1   0  -6 27.6913 3.03956   3
   1   0  -6 30.3194 3.64195   1
   1   0  -6 27.7547 3.15409   6
  -1   0   6 20.4157 2.58447   2
  -1   0   6 21.1805 2.66548   1
  -1   0   6 22.4630 3.18578   1
  -1   0   6 23.0280 1.76063   4
  -1   0   6 24.9803 2.92179   3
   0   0  -6 105.648 8.92086   1
   0   0  -6 102.974 8.06360   3
   0   0  -6 100.707 8.24581   2
   0   0  -6 98.3169 8.26964   1
   0   0  -6 105.201 7.72551   6
   0   0   6 118.250 7.93945   3
   0   0   6 113.851 7.36954   4
   0   0   6 106.690 8.53840   1
  -1   0  -6 9.52088 2.31167   1
  -1   0  -6 6.32065 1.51008   6
  -1   0  -6 6.43177 2.78777   1
   1   0   6 12.6554 2.04212   2
   1   0   6 9.44178 1.48485   4
   1   0   6 9.48320 2.22375   3
   1   0   6 7.40299 2.10953   1
   1   0   6 8.56568 2.17694   1
   2   0   6 35.0628 3.43083   4
   2   0   6 37.6535 3.84086   2
   2   0   6 33.7310 3.98036   3
   3   0   6 165.617 11.3523   2
   3   0   6 161.550 10.3542   8
   3   0   6 146.523 11.8873   3
   3   0   6 164.574 11.5256   4
   4   0   6 178.851 10.7995  10
   4   0   6 192.522 12.9708   4
   4   0   6 169.124 12.2421  11
   4   0   6 172.586 11.3516   8
   4   0   6 174.317 13.4204   3
   5   0   6 36.9223 3.04394   9
   5   0   6 36.0041 2.99605  10
   5   0   6 41.0894 4.36141   4
   5   0   6 38.1185 3.47801  11
   5   0   6 39.3406 3.33245  12
   6   0   6 104.541 7.39388   9
   6   0   6 104.076 6.66263  10
   6   0   6 110.735 7.29117  12
   6   0   6 103.039 7.73410  11
   7   0   6 125.783 8.44392  12
   7   0   6 129.485 8.98872  11
   7   0   6 128.957 7.76827  10
   9  -1  -6 10.5922 1.54895  18
   8  -1  -6 9.89743 1.41854  16
   8  -1  -6 6.07719 1.35639  17
   8  -1  -6 7.42009 1.51960  18
   7  -1  -6 -0.0744 0.63554  10
   7  -1  -6 0.11822 1.56033  18
   7  -1  -6 1.54503 1.17275  17
   7  -1  -6 4.98370 2.77967   7
   7  -1  -6 -0.9037 1.34195  16
   6  -1  -6 4.72808 2.14187  15
   6  -1  -6 3.37662 1.37079  18
   6  -1  -6 3.26975 2.32890   7
   6  -1  -6 3.35808 1.19117  16
   6  -1  -6 3.85737 0.75449  10
   6  -1  -6 3.31114 1.09462  17
   5  -1  -6 64.7157 4.08535  10
   5  -1  -6 63.7014 5.99208  14
   5  -1  -6 63.8581 5.12678   3
   5  -1  -6 63.0655 4.76146  18
   5  -1  -6 65.8239 4.25810  17
   5  -1  -6 65.8041 4.47459  16
   5  -1  -6 61.0510 5.23312  15
   5  -1  -6 61.7873 4.58490   9
   5  -1  -6 72.2554 4.73328   2
   5  -1  -6 70.2993 5.55135   7
   4  -1  -6 57.8293 4.83752   3
   4  -1  -6 57.7281 4.47844   2
   4  -1  -6 59.7189 6.00725   6
   4  -1  -6 55.2793 4.66458   7
   3  -1  -6 53.6699 5.89661   6
   3  -1  -6 53.5674 4.84011   3
   3  -1  -6 54.5539 4.54979   7
   3  -1  -6 54.7413 4.47582   2
   2  -1  -6 326.338 20.2787   2
   2  -1  -6 302.478 20.9468   6
   2  -1  -6 338.527 20.8595   3
   2  -1  -6 286.856 21.4495   1
  -2   1   6 261.189 21.1602   1
  -2   1   6 298.280 21.4720   1
   1  -1  -6 223.130 16.8757   1
   1  -1  -6 234.952 15.9845   6
   1  -1  -6 247.387 16.2445   3
   1  -1  -6 211.743 16.4184   1
   1  -1  -6 239.670 15.9081   2
  -1   1   6 231.930 16.7768   1
  -1   1   6 225.560 16.0219   3
   0  -1  -6 17.0632 2.63893   1
   0  -1  -6 26.0071 3.47496   2
   0  -1  -6 20.1634 2.61826   6
   0  -1  -6 21.9702 2.80712   3
   0  -1  -6 20.7174 3.54827   1
   0   1   6 23.7093 3.01640   1
   0   1   6 22.0889 2.82680   3
   0   1   6 22.9578 2.13705   4
   0   1   6 20.5248 3.08591   1
   0   1   6 27.7978 2.93954   2
  -1  -1  -6 569.735 39.2142   6
   1   1   6 605.140 38.5512   4
   1   1   6 631.085 38.2912   2
   1   1   6 661.301 39.7334   3
   1   1   6 555.428 40.6170   1
   1   1   6 476.455 40.6520   1
   2   1   6 385.298 27.0941   3
   2   1   6 381.706 26.2498   4
   2   1   6 407.162 26.1007   2
   3   1   6 117.378 8.99775  11
   3   1   6 131.266 8.42876   8
   3   1   6 147.412 9.71741   2
   3   1   6 147.138 9.76494   4
   3   1   6 124.733 9.22440   9
   3   1   6 139.392 10.5460   3
   3   1   6 117.072 7.97620  10
   4   1   6 122.066 10.9784   3
   4   1   6 146.099 10.3403   4
   4   1   6 133.992 8.61553   8
   4   1   6 133.895 8.21802  10
   4   1   6 126.050 9.26293  11
   5   1   6 4.36122 1.45952  11
   5   1   6 2.65818 3.01865   4
   5   1   6 5.18452 1.40790  12
   5   1   6 5.40940 1.35543  10
   6   1   6 0.64952 0.90414  12
   6   1   6 1.21233 0.86140   9
   6   1   6 -0.8889 1.42748  11
   6   1   6 -1.0161 1.03174  10
   7   1   6 19.9734 1.70885  10
   7   1   6 18.4668 1.93214  11
   9  -2  -6 44.8164 3.55806  18
   8  -2  -6 29.9445 2.98829  16
   8  -2  -6 28.0015 3.33057  18
   7  -2  -6 571.950 38.8624  15
   7  -2  -6 525.882 37.9136   7
   7  -2  -6 606.791 34.7874  17
   7  -2  -6 616.211 36.1307  16
   7  -2  -6 578.329 38.5263  18
   6  -2  -6 33.5498 4.01545  15
   6  -2  -6 31.3769 2.71131  18
   6  -2  -6 29.0602 2.56559  16
   6  -2  -6 28.3097 3.74027   7
   6  -2  -6 33.9933 2.62897  17
   6  -2  -6 33.6687 2.14312  10
   5  -2  -6 213.433 14.3255  15
   5  -2  -6 188.325 15.2476  14
   5  -2  -6 199.319 12.4739  10
   5  -2  -6 214.962 15.7432   6
   5  -2  -6 212.832 12.6096  17
   5  -2  -6 216.816 13.1274  16
   5  -2  -6 213.978 14.3007   7
   4  -2  -6 17.7507 2.41593   3
   4  -2  -6 20.6523 2.70913   7
   4  -2  -6 22.4737 2.36484   2
   4  -2  -6 22.5382 3.86706   6
   3  -2  -6 139.080 10.2150   3
   3  -2  -6 153.311 9.93498   2
   3  -2  -6 138.629 9.61155   7
   3  -2  -6 124.999 10.9708   6
   2  -2  -6 4.45402 2.00650   3
   2  -2  -6 7.52759 2.87019   6
   2  -2  -6 3.98974 2.41271   2
   2  -2  -6 4.08332 2.32141   1
   1  -2  -6 31.1669 3.81891   6
   1  -2  -6 31.5905 3.96119   1
   1  -2  -6 26.8042 3.22886   1
   1  -2  -6 32.0873 3.68831   3
   1  -2  -6 38.3522 3.94321   2
  -1   2   6 25.1123 3.57050   1
   0  -2  -6 2.78987 2.38829   3
   0  -2  -6 -2.2415 2.50207   1
   0  -2  -6 -0.0714 2.61428   2
   0  -2  -6 1.67726 1.55960   1
   0  -2  -6 1.09601 2.18893   6
   0   2   6 1.25739 1.87267   3
   0   2   6 -0.7761 2.04266   1
   0   2   6 -0.1431 1.57318   2
   0   2   6 1.85549 1.03580   4
  -1  -2  -6 6.12943 2.25591   1
  -1  -2  -6 12.2670 2.68153   6
   1   2   6 13.7492 2.32852   2
   1   2   6 14.7429 2.51212   3
   1   2   6 16.1278 2.09652   4
   2   2   6 21.2506 3.59895   3
   2   2   6 22.5771 3.03938   4
   2   2   6 20.8599 3.03454   2
   3   2   6 1.99388 1.99912   2
   3   2   6 9.13431 3.52518   3
   3   2   6 2.90855 2.30173   4
   3   2   6 2.67215 1.04529   9
   3   2   6 2.61104 0.94681   8
   3   2   6 1.37654 0.92876  11
   4   2   6 250.233 17.7489   2
   4   2   6 240.343 18.8948   3
   4   2   6 257.635 16.2919   8
   4   2   6 249.794 17.9954   4
   4   2   6 261.133 17.4505  11
   4   2   6 241.934 15.3838  10
   4   2   6 261.574 17.7451   9
   5   2   6 22.5505 2.34980  10
   5   2   6 25.6420 2.82015  11
   5   2   6 25.1580 2.25696  12
   6   2   6 50.5020 3.87760  12
   6   2   6 53.0693 3.92861   9
   6   2   6 52.6478 4.27134  11
   7   2   6 1.68438 0.75360  11
   7   2   6 0.06382 0.70653  10
   9  -3  -6 69.9902 4.54448  16
   9  -3  -6 63.7563 4.80362  18
   8  -3  -6 144.390 10.0141  18
   8  -3  -6 143.286 9.37814  16
   7  -3  -6 47.9043 4.92996  15
   7  -3  -6 40.1642 2.91154  17
   7  -3  -6 42.5185 3.15999  16
   7  -3  -6 31.6883 3.60129  18
   6  -3  -6 19.1449 2.05887  16
   6  -3  -6 19.6434 1.42316  10
   6  -3  -6 25.4561 2.79869  14
   6  -3  -6 22.6983 2.12160  17
   6  -3  -6 22.8361 3.47189   7
   6  -3  -6 19.1816 2.35613  18
   6  -3  -6 19.1544 2.91725  15
   5  -3  -6 43.2952 4.60832  14
   5  -3  -6 39.4096 2.87467  17
   5  -3  -6 38.6945 3.92708   7
   5  -3  -6 37.5986 2.60888  10
   5  -3  -6 40.8927 3.16043  16
   5  -3  -6 40.3350 4.07429  15
   5  -3  -6 37.5411 5.59280   6
   4  -3  -6 34.5093 4.80870   6
   4  -3  -6 35.3407 3.40776   7
   4  -3  -6 39.3127 3.18832   2
   4  -3  -6 35.6002 3.40001   3
   3  -3  -6 0.50985 1.39755   7
   3  -3  -6 -0.9660 2.00037   2
   3  -3  -6 -0.8356 3.34088   6
   3  -3  -6 -0.2604 1.80258   3
   2  -3  -6 40.0017 4.46376   3
   2  -3  -6 44.5375 5.15266   2
   2  -3  -6 41.1000 4.93502   6
   1  -3  -6 6.20609 2.77460   2
   1  -3  -6 3.41715 2.47412   6
   1  -3  -6 3.02560 2.44721   3
   0  -3  -6 10.5765 3.26847   1
   0  -3  -6 20.6143 3.49581   2
   0  -3  -6 20.5173 3.08013   6
   0  -3  -6 18.5709 3.29963   3
   0   3   6 15.2023 1.94955   4
  -1  -3  -6 9.07564 2.64526   6
   1   3   6 7.28823 1.69995   4
   2   3   6 9.69258 1.21035   8
   2   3   6 5.64531 2.71141   2
   2   3   6 5.89536 2.62012   3
   2   3   6 8.65882 2.21589   4
   3   3   6 111.635 8.73082   4
   3   3   6 116.468 7.21754   8
   3   3   6 105.884 7.73479  11
   3   3   6 103.198 9.93028   3
   3   3   6 102.701 7.92170   9
   4   3   6 9.89382 3.33049   4
   4   3   6 7.48580 1.00913   8
   4   3   6 10.1721 1.50348  11
   4   3   6 7.80478 1.44157   9
   5   3   6 115.379 7.49533  10
   5   3   6 117.091 7.99687  12
   5   3   6 123.407 8.55704  11
   6   3   6 2.55396 0.93563   9
   6   3   6 1.53574 1.25997  11
   6   3   6 2.48450 1.10947  10
   7   3   6 36.2437 2.36882  10
   9  -4  -6 3.43249 1.09425  16
   8  -4  -6 40.4279 2.86798  17
   8  -4  -6 38.5063 3.94973  15
   8  -4  -6 39.7772 3.41500  16
   7  -4  -6 12.1742 1.57160  17
   7  -4  -6 7.81179 2.87948  15
   7  -4  -6 12.2392 1.54008  16
   6  -4  -6 12.3048 6.07317   6
   6  -4  -6 3.22581 1.49122  16
   6  -4  -6 3.21249 2.51934  15
   6  -4  -6 6.34071 2.68211  14
   6  -4  -6 7.59549 1.24491  17
   5  -4  -6 107.627 9.97083   6
   5  -4  -6 93.2850 7.04095  13
   5  -4  -6 104.682 6.28882  10
   5  -4  -6 108.244 6.85801  16
   5  -4  -6 96.8570 8.42949  14
   5  -4  -6 110.495 7.84684  15
   5  -4  -6 102.851 6.48212  17
   4  -4  -6 14.3785 1.59410  13
   4  -4  -6 16.3931 1.99599  14
   4  -4  -6 10.8949 1.36247   9
   4  -4  -6 11.0101 1.58524   2
   4  -4  -6 16.1442 2.32150  15
   4  -4  -6 15.4019 1.81990   3
   4  -4  -6 11.6306 1.55653  16
   4  -4  -6 11.4046 3.92372   6
   3  -4  -6 26.8729 3.32168   2
   3  -4  -6 23.0302 4.45957   6
   3  -4  -6 23.8924 3.06325   3
   2  -4  -6 14.5860 3.04596   2
   2  -4  -6 12.6084 2.81166   3
   2  -4  -6 11.8952 3.29519   6
   1  -4  -6 216.488 15.6837   6
   1  -4  -6 211.146 15.4544   3
   1  -4  -6 213.116 15.1927   2
   0  -4  -6 10.2708 2.90915   2
   0  -4  -6 12.6976 3.72847   6
   0  -4  -6 10.8196 2.83658   3
  -1  -4  -6 502.657 33.5467   6
   1   4   6 466.921 32.3551   4
  -2  -4  -6 87.4260 8.42993   6
   2   4   6 99.5799 7.72241   4
   2   4   6 96.8538 6.44036   8
   3   4   6 266.884 19.6075   4
   3   4   6 286.709 18.0198   8
   4   4   6 195.263 12.5675  11
   4   4   6 164.996 11.6327   8
   4   4   6 178.894 12.7662   9
   5   4   6 9.31585 1.38009  12
   5   4   6 7.85849 1.56621  11
   5   4   6 8.10437 1.35458  10
   5   4   6 7.26026 0.68336   8
   6   4   6 0.68356 0.69038   9
   6   4   6 0.38697 0.71933  11
   6   4   6 -2.5667 0.95510  10
   9  -5  -6 10.1934 1.26600  16
   8  -5  -6 81.5605 5.44907  16
   8  -5  -6 79.1420 6.22229  15
   7  -5  -6 104.563 8.65899  14
   7  -5  -6 107.161 6.74457  17
   7  -5  -6 103.191 8.07588  15
   7  -5  -6 114.702 7.29866  16
   6  -5  -6 142.002 10.5701  15
   6  -5  -6 137.824 8.72302  17
   6  -5  -6 148.014 9.26325  16
   6  -5  -6 135.600 10.8819  14
   5  -5  -6 369.413 27.2749   6
   5  -5  -6 362.012 24.2595  13
   5  -5  -6 398.803 23.5401  16
   5  -5  -6 370.059 27.3148  14
   5  -5  -6 377.632 22.4630  10
   5  -5  -6 395.330 25.5259  15
   5  -5  -6 360.144 22.5442  17
   4  -5  -6 0.06621 1.17724  13
   4  -5  -6 0.13092 2.07444  14
   4  -5  -6 -0.5051 1.19653  16
   4  -5  -6 1.26253 1.16131   3
   4  -5  -6 2.74873 5.13645   6
   4  -5  -6 -0.2962 0.45059   9
   4  -5  -6 -1.1411 1.11703  10
   4  -5  -6 -1.4176 2.03703  15
   3  -5  -6 12.2488 1.49056  13
   3  -5  -6 9.64826 2.14941  15
   3  -5  -6 10.9059 1.47669   9
   3  -5  -6 7.40624 2.42500   3
   3  -5  -6 12.0093 2.93289   2
   3  -5  -6 9.97101 2.08641  14
   3  -5  -6 13.1095 4.07216   6
   3  -5  -6 10.2826 1.60015  10
   3  -5  -6 11.0801 1.60606  16
   2  -5  -6 168.464 11.9954  15
   2  -5  -6 149.333 10.7297  10
   2  -5  -6 187.808 13.7628   6
   2  -5  -6 191.524 12.7980   2
   2  -5  -6 181.769 11.2704   8
   2  -5  -6 157.323 12.3450   9
   2  -5  -6 201.233 13.1028   3
   1  -5  -6 22.2125 3.54020   3
   1  -5  -6 27.0559 2.90369  15
   1  -5  -6 21.6326 2.40659   9
   1  -5  -6 30.6332 4.55642   6
   1  -5  -6 30.7300 4.22892   2
   1  -5  -6 26.7829 2.23101   8
   0  -5  -6 3.61843 1.51947   9
   0  -5  -6 6.61480 3.50902   3
   0  -5  -6 2.80891 3.43999   6
   0  -5  -6 2.05569 2.80467   2
  -1  -5  -6 -0.5800 3.47832   6
  -1  -5  -6 2.76015 1.33595   8
   1   5   6 2.91903 2.33210   4
  -2  -5  -6 29.3960 5.59939   6
   2   5   6 18.8278 1.94210   8
   2   5   6 18.9805 3.29697   4
   3   5   6 3.13390 3.19108   4
   3   5   6 5.78406 1.08367   8
   4   5   6 48.7424 3.56951   8
   4   5   6 54.0991 3.95839  11
   5   5   6 9.38607 1.22324  11
   5   5   6 9.42111 1.14483  12
   6   5   6 20.8138 1.73183   9
   9  -6  -6 56.6142 3.81121  16
   8  -6  -6 1.46628 1.89792  15
   8  -6  -6 2.00179 1.07344  17
   8  -6  -6 3.18555 1.42439  16
   7  -6  -6 30.1274 2.46667  17
   7  -6  -6 30.2927 3.00621  16
   7  -6  -6 35.2934 3.73436  15
   7  -6  -6 27.2887 3.41222  14
   6  -6  -6 5.64202 2.93092  15
   6  -6  -6 7.15261 1.65546  16
   6  -6  -6 6.20706 2.90884  14
   5  -6  -6 12.7709 1.59476  16
   5  -6  -6 17.3882 2.39943  14
   5  -6  -6 16.9321 1.94586  13
   5  -6  -6 13.6258 1.51166  10
   5  -6  -6 14.5099 2.97722  15
   5  -6  -6 7.55000 5.39687   6
   4  -6  -6 54.0650 5.00999  15
   4  -6  -6 52.9288 3.91555  16
   4  -6  -6 47.5420 3.99525  13
   4  -6  -6 46.5964 3.67031  10
   4  -6  -6 49.2548 5.14000  14
   4  -6  -6 48.4845 6.92966   6
   3  -6  -6 98.3121 7.59490  15
   3  -6  -6 101.223 6.78107  16
   3  -6  -6 95.8348 7.96756  14
   3  -6  -6 93.1863 8.03762   2
   3  -6  -6 102.994 8.01862   3
   3  -6  -6 97.4586 7.41749   9
   3  -6  -6 117.790 10.0674   6
   3  -6  -6 103.446 6.55603  10
   2  -6  -6 44.6136 4.29202  15
   2  -6  -6 47.0424 4.24297   9
   2  -6  -6 47.4693 3.22667   8
   2  -6  -6 50.3097 5.68344   2
   2  -6  -6 50.2918 6.22134   6
   2  -6  -6 52.7523 5.46390   3
   2  -6  -6 38.9088 3.51529  10
   1  -6  -6 122.103 8.84063  15
   1  -6  -6 124.095 8.18248   8
   1  -6  -6 131.427 10.4611   3
   1  -6  -6 116.956 9.20135   9
   1  -6  -6 117.231 7.88288  10
   1  -6  -6 125.131 10.2194   2
   1  -6  -6 142.216 11.0038   6
   0  -6  -6 3.19188 3.84084   2
   0  -6  -6 4.37567 1.76227   8
   0  -6  -6 1.08432 4.00112   6
   0  -6  -6 3.20985 1.62070   9
   0  -6  -6 5.31331 3.67224   3
  -1  -6  -6 70.1976 8.01660   6
  -2  -6  -6 0.06170 1.45552   8
   3   6   6 8.49709 1.19104  11
   3   6   6 7.13420 1.17650   8
   4   6   6 0.76904 0.71384   8
   4   6   6 0.23054 0.82005  11
   4   6   6 -0.8624 1.23022   9
   5   6   6 47.2497 3.60089  11
   8  -7  -6 -4.0026 2.44911  15
   8  -7  -6 0.16753 0.90854  16
   7  -7  -6 11.8923 2.41804  14
   7  -7  -6 9.80459 3.02044  15
   7  -7  -6 12.1312 1.47408  16
   6  -7  -6 0.87664 1.98782  14
   6  -7  -6 -1.3980 2.10022  15
   6  -7  -6 0.41147 1.47314  16
   5  -7  -6 36.0119 3.85047  15
   5  -7  -6 34.8118 3.12746  16
   5  -7  -6 29.5601 3.76018  14
   5  -7  -6 29.6901 2.22762  10
   4  -7  -6 -0.3809 1.46843  16
   4  -7  -6 0.54402 1.31353  10
   4  -7  -6 0.92782 1.86165  15
   4  -7  -6 -0.4522 2.31099  14
   4  -7  -6 8.30163 6.39291   6
   3  -7  -6 254.354 19.1130  14
   3  -7  -6 276.827 16.5988  16
   3  -7  -6 274.630 18.0572  15
   3  -7  -6 268.839 20.1427   6
   3  -7  -6 273.700 15.9801  10
   3  -7  -6 262.571 18.2785   9
   3  -7  -6 248.494 18.4182   3
   3  -7  -6 230.430 17.9568   2
   2  -7  -6 118.934 9.98650   2
   2  -7  -6 131.478 9.12865  15
   2  -7  -6 137.934 11.5845   6
   2  -7  -6 115.039 8.05232  10
   2  -7  -6 116.293 10.0762   3
   2  -7  -6 127.163 9.17006   9
   2  -7  -6 125.328 8.28483  16
   1  -7  -6 163.667 11.0724   8
   1  -7  -6 158.084 13.0477   2
   1  -7  -6 171.888 12.1796   9
   1  -7  -6 159.710 10.5915  10
   1  -7  -6 181.184 11.8870  15
   1  -7  -6 186.311 14.1075   6
   0  -7  -6 12.8587 2.29182  15
   0  -7  -6 11.1117 4.69981   2
   0  -7  -6 8.83901 2.36571   9
   0  -7  -6 16.4433 2.00786   8
   0  -7  -6 12.6490 4.85528   6
  -1  -7  -6 5.07328 4.77459   6
   4   7   6 0.97672 0.59769   8
   4   7   6 -1.1339 1.10699   9
   8  -8  -6 9.45619 1.04172  16
   8  -8  -6 10.9098 1.79545  15
   7  -8  -6 19.0757 2.08180  16
   7  -8  -6 13.7638 2.48425  14
   7  -8  -6 14.6470 3.09233  15
   6  -8  -6 38.8213 3.41738  16
   6  -8  -6 40.3143 4.20761  15
   6  -8  -6 43.5235 5.08943  14
   5  -8  -6 44.8684 3.58768  16
   5  -8  -6 46.4197 4.38591  15
   5  -8  -6 38.6601 2.64294  10
   5  -8  -6 44.4882 4.95907  14
   4  -8  -6 15.8274 2.89666  14
   4  -8  -6 15.9486 3.30790  15
   4  -8  -6 16.9798 2.13421  16
   4  -8  -6 18.6148 1.90905  10
   3  -8  -6 720.807 44.9494  16
   3  -8  -6 703.994 51.7541  14
   3  -8  -6 720.673 48.3534  15
   3  -8  -6 722.305 43.3722  10
   3  -8  -6 756.426 49.9106   9
   2  -8  -6 -0.8679 1.80627  10
   2  -8  -6 4.77057 1.68900  16
   2  -8  -6 -4.0940 4.85177   6
   2  -8  -6 -1.7578 2.29998  15
   2  -8  -6 0.78894 1.70194   9
   1  -8  -6 2.18902 1.58194  10
   1  -8  -6 0.03436 1.56208   9
   1  -8  -6 1.82099 1.56559  15
   1  -8  -6 0.62454 1.04442   8
   0  -8  -6 1.94362 1.41628   8
   0  -8  -6 4.66977 2.14978  15
   0  -8  -6 -0.0887 1.73146   9
  -1  -8  -6 15.7261 2.38398   9
  -1  -8  -6 20.4849 2.42975  15
  -1  -8  -6 18.1886 2.02005   8
  -2  -8  -6 10.5203 1.96236  15
  -2  -8  -6 10.0965 1.65510   8
   2   8   6 5.61404 1.15709   8
  -3  -8  -6 6.10884 1.46597   8
   3   8   6 5.74328 0.99467   8
  -4  -8  -6 4.84058 1.12487   8
   4   8   6 7.99769 0.71153   8
   7  -9  -6 14.0564 2.16227  15
   7  -9  -6 11.4463 2.13809  14
   6  -9  -6 -3.3184 2.76978  15
   6  -9  -6 -0.2672 1.19656  16
   6  -9  -6 -0.1927 2.61207  14
   5  -9  -6 -0.2347 2.89925  15
   5  -9  -6 0.18173 1.29864  16
   5  -9  -6 1.02504 2.55620  14
   4  -9  -6 0.01952 1.36687  16
   4  -9  -6 0.74719 1.64735  14
   4  -9  -6 -0.7178 1.25325  10
   4  -9  -6 1.27355 2.07810  15
   3  -9  -6 33.6691 2.96271  16
   3  -9  -6 28.1543 3.62701  15
   3  -9  -6 30.6850 2.83104  10
   2  -9  -6 2.28509 1.56222   9
   2  -9  -6 4.84126 2.55273  15
   2  -9  -6 4.09172 1.58377  10
   2  -9  -6 3.74584 1.54320  16
   1  -9  -6 52.4878 4.49431  15
   1  -9  -6 49.3129 4.02562  16
   1  -9  -6 60.1506 4.65489   9
   0  -9  -6 1.22828 1.50336  15
   0  -9  -6 -0.3076 0.78650   8
   0  -9  -6 1.96688 1.72432   9
  -1  -9  -6 10.9202 1.37070   8
  -1  -9  -6 11.7462 2.06433   9
  -1  -9  -6 14.8833 1.81696  15
  -2  -9  -6 3.48704 1.05814   8
   2   9   6 2.42519 0.89756   8
  -3  -9  -6 15.2085 1.48680   8
   3   9   6 19.4058 1.43814   8
   6 -10  -6 1.55701 1.61194  14
   6 -10  -6 1.56574 1.76256  15
   5 -10  -6 1.56274 1.57018  14
   5 -10  -6 3.08662 1.96292  15
   4 -10  -6 -0.6962 1.95539  14
   4 -10  -6 3.37256 2.77635  15
   3 -10  -6 10.1857 1.45966  10
   3 -10  -6 8.80607 2.12478  15
   2 -10  -6 39.1977 3.75585  15
   2 -10  -6 40.0649 3.33738  10
   2 -10  -6 42.3100 3.33053   9
   1 -10  -6 83.1399 6.44272  15
   1 -10  -6 84.8027 6.33099   9
   1 -10  -6 80.5962 5.64799  10
   0 -10  -6 8.83698 1.68334  15
   0 -10  -6 8.44296 1.35242   9
  -1 -10  -6 36.2956 3.37240   9
  -1 -10  -6 48.8732 3.62061  15
   5 -11  -6 0.88130 1.54448  15
   5 -11  -6 -0.9036 1.05073  14
   4 -11  -6 236.396 16.0237  15
   3 -11  -6 4.60632 1.23555  10
   3 -11  -6 6.21588 1.85547  15
   2 -11  -6 31.5171 3.65426  15
   2 -11  -6 36.1971 2.75006  10
   1 -11  -6 15.1884 2.50706  15
   1 -11  -6 19.9201 1.72155   9
   1 -11  -6 21.0255 1.83623  10
   0 -11  -6 0.54236 1.01296   9
   0 -11  -6 -0.5843 1.10188  15
   1 -14   7 75.7561 5.75712  14
   2 -14   7 17.8552 2.06580  14
  -1 -13   7 17.5173 2.03923  14
   0 -13   7 4.26293 1.48577  14
   1 -13   7 103.237 7.90260  14
   2 -13   7 1.59027 1.57623  14
   3 -13   7 4.41182 1.60210  14
   3 -13   7 2.80661 0.80488  13
   4 -13   7 11.9194 1.60722  14
  -2 -12   7 0.93383 1.66174  14
  -1 -12   7 15.1884 2.03058  14
   0 -12   7 168.264 12.4748  14
   1 -12   7 16.4634 2.88740  14
   2 -12   7 126.787 9.05177  13
   2 -12   7 150.414 10.7019  14
   3 -12   7 11.4566 2.15198  14
   3 -12   7 11.9737 1.43202  13
   3 -12   7 13.4045 1.39233  10
   4 -12   7 20.6175 2.41272  14
   5 -12   7 42.8218 3.35992  13
  -3 -11   7 2.96970 1.25010  14
  -2 -11   7 121.688 9.33869  14
  -1 -11   7 -0.2823 1.49229  14
   0 -11   7 632.713 39.7321  10
   0 -11   7 696.741 47.5448  14
   1 -11   7 29.4870 2.96861   9
   1 -11   7 27.9602 3.53969  14
   1 -11   7 29.4201 2.61094  10
   2 -11   7 66.3347 5.86248  14
   2 -11   7 48.9232 4.30240  13
   2 -11   7 57.4707 4.14153   9
   3 -11   7 -1.3122 1.08883  12
   3 -11   7 0.40718 0.94309  10
   3 -11   7 -0.0081 1.74069  14
   3 -11   7 -0.0308 1.01660  13
   4 -11   7 2.20251 0.92448  12
   4 -11   7 1.13275 1.45459  13
   4 -11   7 1.37706 1.61222  14
   5 -11   7 1.03366 0.85038  12
   5 -11   7 2.10077 1.08235  13
   6 -11   7 28.0232 2.26947  13
   6 -11   7 28.1920 2.29922  12
  -2 -10   7 19.3114 1.97776   8
  -1 -10   7 11.9734 1.48142   8
  -1 -10   7 9.29811 1.70764   9
   0 -10   7 3.98612 1.50009  10
   0 -10   7 2.74285 0.88958   8
   0 -10   7 3.87728 2.99949   5
   0 -10   7 2.26295 1.17595   9
   0 -10   7 1.05947 1.59596  14
   1 -10   7 31.6589 4.40144   5
   1 -10   7 34.5073 3.09481  13
   1 -10   7 37.5123 4.52858  14
   1 -10   7 37.1242 2.88216  10
   1 -10   7 37.2167 3.15952   9
   2 -10   7 0.64549 1.18808  10
   2 -10   7 1.91137 1.35020  13
   2 -10   7 -2.2120 2.40607  14
   2 -10   7 -0.8601 1.00623   9
   2 -10   7 -0.7168 0.96220  12
   3 -10   7 10.4390 1.53289  12
   3 -10   7 13.3867 1.85459  13
   3 -10   7 12.5977 1.36353  10
   3 -10   7 13.9121 2.17699  14
   4 -10   7 13.2524 2.57057  14
   4 -10   7 17.0035 1.82257  13
   4 -10   7 13.8253 1.77370  12
   4 -10   7 17.7968 1.47360  10
   5 -10   7 2.97385 0.97002  12
   5 -10   7 1.59807 1.15528  13
   6 -10   7 2.79992 1.08922  13
   6 -10   7 2.89759 0.89142  12
   6   9  -7 24.0203 2.09414  11
   5   9  -7 66.9676 4.93869  18
  -3  -9   7 109.054 7.40709   8
  -2  -9   7 17.9778 2.15968   8
  -1  -9   7 1.11776 3.16163   2
  -1  -9   7 0.16143 1.05362   8
  -1  -9   7 -0.8608 2.95584   3
  -1  -9   7 -0.1053 1.40766   9
   0  -9   7 0.71987 2.19999   5
   0  -9   7 2.04843 0.87404   8
   0  -9   7 1.10846 2.85544   2
   0  -9   7 0.31273 2.70890   3
   0  -9   7 0.95196 1.26952   9
   0  -9   7 2.99641 1.08089  10
   1  -9   7 13.4596 1.63830   9
   1  -9   7 14.3774 1.47440  10
   1  -9   7 15.8417 1.68653  13
   1  -9   7 14.1809 2.46875  14
   1  -9   7 14.2628 3.34046   2
   1  -9   7 17.0490 3.13131   3
   1  -9   7 16.8420 3.17309   5
   1  -9   7 13.5924 1.16939   8
   2  -9   7 237.407 16.1549  14
   2  -9   7 200.462 13.9819  12
   2  -9   7 201.600 15.2936   5
   2  -9   7 208.094 14.8836   2
   2  -9   7 230.282 14.1863  13
   2  -9   7 226.218 13.1421  10
   2  -9   7 207.702 15.0578   9
   3  -9   7 7.23959 1.10304  10
   3  -9   7 3.79514 3.17187   5
   3  -9   7 4.26897 2.23236  14
   3  -9   7 4.94664 1.26057  12
   3  -9   7 7.40840 1.61558  13
   4  -9   7 145.178 9.45604  12
   4  -9   7 128.591 10.7998  14
   4  -9   7 137.773 10.1776  11
   4  -9   7 145.523 9.66093  13
   4  -9   7 148.648 8.61215  10
   5  -9   7 116.750 8.43338  11
   5  -9   7 111.137 7.85411  12
   5  -9   7 127.809 8.24956  13
   6  -9   7 141.605 10.4431  13
   6  -9   7 171.419 10.4653  12
   6  -9   7 162.750 11.1787  11
   7  -9   7 1.18192 0.96806  12
   6   8  -7 13.7954 1.63285  18
   6   8  -7 8.61834 1.53441  11
   5   8  -7 33.9233 3.24418  18
   4   8  -7 412.876 26.5978   8
  -2  -8   7 195.123 12.7365   8
  -1  -8   7 84.6781 6.64584   9
  -1  -8   7 95.5814 6.09806   8
  -1  -8   7 83.1044 7.68579   3
  -1  -8   7 88.5195 7.14745   5
  -1  -8   7 98.2702 7.83055   2
   0  -8   7 337.669 21.5653   2
   0  -8   7 316.528 22.2472   3
   0  -8   7 299.880 18.9908  10
   0  -8   7 312.913 21.9102   9
   0  -8   7 285.974 20.2746  13
   0  -8   7 336.436 20.2950   8
   0  -8   7 327.605 21.2589   5
   1  -8   7 79.3369 6.24318   2
   1  -8   7 68.8489 5.17539  13
   1  -8   7 67.7060 6.58347   5
   1  -8   7 73.7845 6.47376   3
   1  -8   7 74.4789 4.89370   8
   1  -8   7 76.1099 4.75955  10
   1  -8   7 74.7046 5.49751   9
   2  -8   7 247.251 18.5077   3
   2  -8   7 255.921 17.1394  12
   2  -8   7 267.748 17.2467  13
   2  -8   7 267.068 17.9166   2
   2  -8   7 254.478 18.4109   9
   2  -8   7 277.377 16.0291  10
   2  -8   7 270.941 18.3582   5
   2  -8   7 286.347 19.4568  14
   3  -8   7 0.35730 0.88143  10
   3  -8   7 0.26034 1.02435  12
   3  -8   7 -0.4602 1.40241   2
   3  -8   7 0.60557 0.56305   9
   3  -8   7 0.22144 2.66571   5
   3  -8   7 0.96595 1.18755   3
   3  -8   7 0.10622 1.33217  11
   3  -8   7 0.45484 1.81043  14
   3  -8   7 -0.3387 1.34731  13
   4  -8   7 20.5853 3.95396   5
   4  -8   7 17.5698 2.16857  11
   4  -8   7 14.1859 1.47811  10
   4  -8   7 14.9837 2.11871  13
   4  -8   7 14.4587 1.73409  12
   5  -8   7 -0.2411 1.61004  13
   5  -8   7 -0.1944 1.26291  12
   5  -8   7 -0.4712 1.54400  11
   6  -8   7 2.05653 1.16863  11
   6  -8   7 4.46168 1.22046  13
   6  -8   7 3.37462 1.04413  12
   7  -8   7 6.91483 1.03663  12
   7  -8   7 5.57256 1.07521  11
   7   7  -7 184.770 12.3891  18
   6   7  -7 230.727 17.7034  11
   6   7  -7 284.712 17.2733  18
   5   7  -7 1.51441 1.06649  18
   5   7  -7 1.34990 1.40249   9
   4   7  -7 378.748 24.4086   8
   3   7  -7 8.92240 1.36826   8
  -2  -7   7 43.5630 3.30035   8
  -1  -7   7 314.904 21.0309   2
  -1  -7   7 307.397 21.7853   3
  -1  -7   7 301.147 19.9229   8
  -1  -7   7 316.792 20.6402   5
   0  -7   7 79.8192 6.07671   5
   0  -7   7 68.5046 5.56625   9
   0  -7   7 75.1998 5.05868   8
   0  -7   7 80.7344 6.39483   2
   0  -7   7 86.1009 6.76147   3
   1  -7   7 242.773 16.5721   2
   1  -7   7 235.508 16.9087   9
   1  -7   7 238.715 14.6755  10
   1  -7   7 233.896 15.7393  13
   1  -7   7 251.767 15.6456   8
   1  -7   7 252.741 17.2487   3
   1  -7   7 254.202 16.7056   5
   2  -7   7 0.66310 0.80549   9
   2  -7   7 1.39670 1.62866  14
   2  -7   7 1.09281 1.12058  13
   2  -7   7 1.57258 1.08567  11
   2  -7   7 3.32061 2.04993   3
   2  -7   7 0.30998 1.83054   2
   2  -7   7 1.85470 0.82402  12
   2  -7   7 0.76809 1.90374   5
   2  -7   7 1.11265 0.91829  10
   3  -7   7 193.045 14.7969   3
   3  -7   7 223.876 14.3611   2
   3  -7   7 231.191 14.0857  13
   3  -7   7 217.310 15.1560   5
   3  -7   7 209.503 14.8182   9
   3  -7   7 208.566 14.7967  11
   3  -7   7 191.787 15.6626  14
   3  -7   7 231.447 12.9489  10
   3  -7   7 222.510 13.9239  12
   4  -7   7 29.6077 3.22199  13
   4  -7   7 31.9284 3.14606  11
   4  -7   7 16.0927 3.61545   5
   4  -7   7 32.4661 2.81580  12
   4  -7   7 29.6757 2.17643  10
   5  -7   7 12.8298 1.94529  11
   5  -7   7 11.5651 1.74847  12
   5  -7   7 14.7158 2.03321  13
   5  -7   7 13.6922 1.21680  10
   6  -7   7 1.34559 1.32533  12
   6  -7   7 -1.0266 1.44640  11
   6  -7   7 -0.0141 1.44380  13
   7  -7   7 7.13688 1.51029  11
   7  -7   7 10.0008 1.21458  12
   8   6  -7 -0.1022 0.69338  18
   7   6  -7 -1.3028 1.49307  18
   6   6  -7 40.7619 3.76827  18
   5   6  -7 51.6858 4.35843   9
   5   6  -7 51.0978 3.64760   8
   4   6  -7 207.162 13.5131   8
   3   6  -7 115.903 7.71893   8
  -2  -6   7 7.45192 1.62213   5
  -1  -6   7 26.4779 2.96405   5
  -1  -6   7 28.5344 3.64333   3
  -1  -6   7 28.6832 3.44956   2
   0  -6   7 27.6018 3.43759   3
   0  -6   7 30.2151 3.31767   2
   0  -6   7 30.3534 3.23819   5
   1  -6   7 11.9927 2.39915   3
   1  -6   7 9.88211 2.04322   5
   1  -6   7 10.9594 2.15604   2
   2  -6   7 169.547 12.7379  11
   2  -6   7 187.295 11.1718  10
   2  -6   7 190.023 12.5981   2
   2  -6   7 195.429 12.9316   5
   2  -6   7 176.706 12.8391   9
   2  -6   7 191.587 13.1768   3
   2  -6   7 187.593 12.0512  13
   3  -6   7 27.2450 3.53433   5
   3  -6   7 26.2224 2.68347  13
   3  -6   7 26.8237 3.56669   4
   3  -6   7 28.1188 2.13822  10
   3  -6   7 25.6491 2.22903   9
   3  -6   7 27.4219 2.94453   2
   3  -6   7 28.9336 2.69954  11
   3  -6   7 25.7334 2.42528  12
   3  -6   7 28.8424 3.10675   3
   4  -6   7 539.029 40.6697   4
   4  -6   7 608.500 41.2864  11
   4  -6   7 587.944 40.0607   5
   4  -6   7 625.875 38.9204  13
   4  -6   7 612.049 38.7769  12
   4  -6   7 653.971 40.1824  18
   4  -6   7 609.378 36.1543  10
   5  -6   7 184.592 13.2214  11
   5  -6   7 191.133 12.9496  18
   5  -6   7 190.468 12.4330  12
   5  -6   7 193.337 12.5481  13
   5  -6   7 183.115 11.3213  10
   6  -6   7 10.8388 1.75946  11
   6  -6   7 10.5667 1.72761  13
   6  -6   7 8.74312 1.49332  18
   6  -6   7 10.3229 1.69902  12
   7  -6   7 6.09339 1.31404  12
   7  -6   7 5.03609 1.40531  11
   8   5  -7 -0.6587 0.91156  18
   7   5  -7 -1.7614 1.56427  18
   6   5  -7 3.82285 1.40133   9
   6   5  -7 1.85325 1.58395  18
   6   5  -7 2.17533 1.45238  10
   5   5  -7 320.295 22.0060   9
   5   5  -7 271.422 20.8737   7
   5   5  -7 331.745 19.1266  10
   5   5  -7 304.421 22.6822   3
   5   5  -7 348.621 20.3548   8
   5   5  -7 303.851 21.6326   2
   4   5  -7 129.893 8.11635   8
   4   5  -7 125.657 9.54524   2
   4   5  -7 115.991 8.82547   9
   4   5  -7 118.739 8.90196   7
   4   5  -7 123.751 9.87909   3
   3   5  -7 91.0760 6.70568   7
   3   5  -7 94.5019 7.73070   3
   3   5  -7 85.7307 7.31632   2
   2   5  -7 595.650 37.7417   7
  -2  -5   7 583.649 38.0929   5
  -1  -5   7 47.5709 4.05411   5
  -1  -5   7 41.6646 4.65624   3
  -1  -5   7 52.9380 4.48465   2
  -1  -5   7 40.3469 4.59038   1
   0  -5   7 18.4018 2.64488   3
   0  -5   7 24.3781 2.86999   2
   0  -5   7 23.9962 2.75346   5
   1  -5   7 30.7696 3.19441   2
   1  -5   7 23.4532 2.81438   5
   1  -5   7 24.7103 3.00889   3
   2  -5   7 547.279 38.3662   4
   2  -5   7 571.389 39.0115   3
   2  -5   7 603.128 37.7255   2
   2  -5   7 583.139 37.5934   5
   3  -5   7 2.05891 1.06786  11
   3  -5   7 2.96428 1.15114  13
   3  -5   7 4.02679 2.13237   4
   3  -5   7 2.52106 0.72660   9
   3  -5   7 2.75496 1.33212  18
   3  -5   7 1.56564 1.52346   2
   3  -5   7 2.25047 0.85873  10
   3  -5   7 1.58671 1.86306   3
   3  -5   7 4.70847 2.42091   5
   3  -5   7 2.18164 0.96169  12
   4  -5   7 310.806 21.1818   4
   4  -5   7 297.921 18.1853  10
   4  -5   7 303.859 20.7841  11
   4  -5   7 323.213 19.5996  12
   4  -5   7 280.496 20.8436   9
   4  -5   7 328.175 19.7445  13
   4  -5   7 314.722 20.3308  18
   4  -5   7 288.697 19.7578   2
   4  -5   7 283.918 20.6789   5
   5  -5   7 1.04413 0.98423  12
   5  -5   7 -0.0659 1.60081  18
   5  -5   7 0.71608 1.45405  13
   5  -5   7 0.28399 0.89010  10
   5  -5   7 1.76633 1.00994  11
   5  -5   7 2.49051 2.90301   4
   6  -5   7 3.24887 1.70623  18
   6  -5   7 0.60129 1.01503  12
   6  -5   7 1.31689 1.48691  11
   6  -5   7 1.71618 0.52333  10
   7  -5   7 11.4195 1.30831  12
   7  -5   7 9.77262 1.35883  11
   8  -5   7 -1.6525 0.67374  11
   8   4  -7 2.52131 1.10777  18
   7   4  -7 280.979 18.8585  18
   6   4  -7 7.56832 1.42559   9
   6   4  -7 7.98045 1.76783  18
   6   4  -7 6.17501 2.29696   7
   6   4  -7 10.8705 1.35053  10
   5   4  -7 446.818 31.5609   9
   5   4  -7 435.397 29.7854   7
   5   4  -7 482.653 30.5840   2
   5   4  -7 480.778 29.2141   8
   5   4  -7 435.582 27.3258  10
   4   4  -7 371.189 23.2508   8
   4   4  -7 319.980 25.0776   9
   4   4  -7 381.807 24.4617   2
   4   4  -7 389.002 25.4298   3
   4   4  -7 358.460 23.7270   7
   3   4  -7 12.0478 2.75914   3
   3   4  -7 14.9116 2.67480   2
   3   4  -7 13.2746 2.21459   7
   2   4  -7 27.4425 3.16517   2
   2   4  -7 25.6238 2.99769   7
   2   4  -7 28.4655 3.27296   3
  -2  -4   7 18.1816 3.13467   1
  -2  -4   7 29.0628 2.68584   5
   1   4  -7 0.27711 1.85575   2
   1   4  -7 0.37162 1.56118   1
   1   4  -7 -0.0658 1.37745   3
  -1  -4   7 0.82577 1.52895   3
  -1  -4   7 -0.0218 1.68988   1
  -1  -4   7 0.80598 1.65030   1
  -1  -4   7 0.32628 1.62097   2
   0  -4   7 32.3327 3.45794   3
   0  -4   7 32.4709 3.38414   5
   0  -4   7 35.7662 3.59385   2
   0  -4   7 28.3063 3.54171   1
   1  -4   7 324.467 21.8653   5
   1  -4   7 320.466 22.2323   4
   1  -4   7 338.964 22.7814   3
   1  -4   7 341.882 22.0191   2
   2  -4   7 5.09440 1.75976   5
   2  -4   7 5.83591 1.91592   3
   2  -4   7 4.01610 1.71993   4
   2  -4   7 5.79146 1.70067   2
   3  -4   7 296.532 20.1009   3
   3  -4   7 314.164 19.5879   5
   3  -4   7 300.760 19.3130   2
   3  -4   7 273.432 17.3282  10
   3  -4   7 291.544 19.9091   4
   3  -4   7 295.220 18.7088  13
   3  -4   7 291.992 18.6056  12
   3  -4   7 277.260 19.9866   9
   3  -4   7 266.929 19.7760  11
   3  -4   7 295.313 19.3057  18
   4  -4   7 0.13588 0.65375   9
   4  -4   7 0.98515 0.84045  10
   4  -4   7 3.00108 2.45043   4
   4  -4   7 1.75535 1.12969  11
   4  -4   7 -2.4568 1.64642   2
   4  -4   7 1.66134 1.11857  12
   4  -4   7 0.45409 1.87104   3
   4  -4   7 0.17204 1.12158  13
   4  -4   7 3.75349 1.40492  18
   5  -4   7 45.9734 3.61428  11
   5  -4   7 42.3924 3.43391  12
   5  -4   7 46.3757 3.06500  10
   5  -4   7 40.3349 5.14678   4
   5  -4   7 44.8403 3.95595  18
   6  -4   7 8.60556 0.97430  10
   6  -4   7 8.02960 1.65799  12
   6  -4   7 12.2233 1.89782  18
   6  -4   7 6.88998 1.62670  11
   7  -4   7 2.42245 0.88914  12
   7  -4   7 1.79371 1.37399  11
   7  -4   7 1.02548 1.03947  18
   8  -4   7 6.26293 0.87871  11
   9   3  -7 1.56319 1.02608  18
   8   3  -7 10.4372 1.52179  18
   7   3  -7 -0.6455 1.67912  18
   7   3  -7 -0.7296 0.96964  10
   7   3  -7 -0.7829 0.98172  17
   6   3  -7 68.8667 4.48107  10
   6   3  -7 74.3231 5.08261  18
   6   3  -7 63.6778 5.87500   2
   6   3  -7 65.8438 4.45923  17
   6   3  -7 59.4752 5.89883   7
   6   3  -7 66.9961 5.12415   9
   5   3  -7 1.21154 0.71085   8
   5   3  -7 -0.4165 0.83726  10
   5   3  -7 0.45660 1.07408   9
   5   3  -7 2.98544 2.18564   2
   5   3  -7 2.67209 0.87085  17
   5   3  -7 0.08465 1.90227   7
   5   3  -7 -0.3392 1.93535   3
   4   3  -7 78.2810 6.58057   2
   4   3  -7 85.2225 7.02310   3
   4   3  -7 82.2074 6.48426   7
   4   3  -7 80.3030 5.41624   8
   3   3  -7 218.687 15.6938   3
   3   3  -7 223.152 15.1643   2
   3   3  -7 220.557 14.7489   7
   2   3  -7 134.285 8.77820   2
   2   3  -7 129.506 8.95676   3
   2   3  -7 107.788 8.88798   1
   2   3  -7 118.875 9.22335   1
  -2  -3   7 102.122 9.27021   1
   1   3  -7 59.6581 4.85325   2
   1   3  -7 60.5100 5.02608   3
   1   3  -7 59.3848 5.44780   1
   1   3  -7 49.9197 4.84187   1
  -1  -3   7 58.1857 4.95681   1
  -1  -3   7 53.8787 4.54537   2
  -1  -3   7 64.8987 5.13006   3
  -1  -3   7 55.8918 5.39663   1
   0   3  -7 304.492 21.2861   1
   0   3  -7 299.806 21.2178   1
   0  -3   7 287.971 21.0029   1
   0  -3   7 306.327 19.8402   4
   0  -3   7 316.682 20.4909   3
   0  -3   7 314.566 19.8046   2
   0  -3   7 247.618 21.0872   1
   1  -3   7 45.8568 3.99859   2
   1  -3   7 40.6375 4.12591   3
   1  -3   7 34.9573 4.02187   1
   1  -3   7 43.3575 3.61614   4
   2  -3   7 183.723 12.7648   2
   2  -3   7 189.313 12.8520   5
   2  -3   7 186.502 12.9777   4
   2  -3   7 186.251 13.2822   3
   3  -3   7 47.6343 4.32490   5
   3  -3   7 42.9617 3.68961   9
   3  -3   7 49.7255 4.79778   3
   3  -3   7 51.3283 3.30654  10
   3  -3   7 50.5638 4.44192   2
   3  -3   7 55.0715 4.73724   4
   3  -3   7 51.0498 3.81892  18
   3  -3   7 47.7965 3.18710   8
   3  -3   7 46.9062 3.54190  12
   4  -3   7 181.291 14.0971   3
   4  -3   7 201.756 14.1202   4
   4  -3   7 192.614 12.7435  12
   4  -3   7 187.017 13.4601  11
   4  -3   7 203.045 13.3954   2
   4  -3   7 178.880 12.7250  13
   4  -3   7 211.575 11.8232  10
   4  -3   7 192.885 13.5602   9
   4  -3   7 206.475 13.2229  18
   5  -3   7 1.75380 0.48825   9
   5  -3   7 3.82384 0.96382  10
   5  -3   7 2.70884 1.36199  12
   5  -3   7 0.67113 2.62905   4
   5  -3   7 2.54660 0.99849  11
   5  -3   7 2.49455 1.54656  18
   6  -3   7 169.345 11.1440  12
   6  -3   7 169.775 10.2125  10
   6  -3   7 169.422 11.6174  18
   6  -3   7 166.450 11.7753  11
   7  -3   7 46.6100 3.54317  12
   7  -3   7 53.2156 4.01593  11
   7  -3   7 47.0651 3.88143  18
   8  -3   7 111.675 7.74329  11
   9   2  -7 6.76656 1.30241  18
   8   2  -7 33.2188 2.51177  17
   8   2  -7 38.9016 3.22094  18
   7   2  -7 1.81824 0.90763  10
   7   2  -7 1.07147 1.13892  17
   7   2  -7 -0.1698 1.38581  16
   7   2  -7 2.70556 1.27785  18
   6   2  -7 4.07825 2.24875   2
   6   2  -7 6.08793 1.03386   9
   6   2  -7 6.23458 1.27978  16
   6   2  -7 5.70142 1.14052  17
   6   2  -7 6.43377 1.18306  10
   6   2  -7 4.75457 2.36705   7
   6   2  -7 5.44958 1.62978  18
   5   2  -7 56.6492 5.15145   7
   5   2  -7 56.9632 3.82496  10
   5   2  -7 54.9488 3.79423  17
   5   2  -7 63.0273 5.08992   2
   5   2  -7 54.5967 3.97323  16
   5   2  -7 55.2786 4.33740   9
   5   2  -7 57.7411 3.76692   8
   5   2  -7 58.7308 5.42338   3
   4   2  -7 17.8554 2.60054   2
   4   2  -7 20.0899 2.76907   7
   4   2  -7 18.8529 2.77877   3
   3   2  -7 1664.52 105.267   2
   3   2  -7 1587.79 102.964   7
   3   2  -7 1623.23 108.734   3
   2   2  -7 63.2161 4.92671   3
   2   2  -7 68.4777 5.29847   2
   2   2  -7 51.3626 4.84150   1
   2   2  -7 67.5980 5.51196   1
  -2  -2   7 57.0116 5.17447   1
  -2  -2   7 51.1879 5.59898   1
   1   2  -7 83.0299 6.92160   2
   1   2  -7 89.3648 7.17663   1
   1   2  -7 80.0152 7.33774   1
   1   2  -7 91.8589 6.95520   3
  -1  -2   7 94.1809 7.06037   1
  -1  -2   7 93.8971 6.54134   2
  -1  -2   7 83.7278 6.70309   3
  -1  -2   7 82.0543 7.32576   1
   0   2  -7 914.492 62.8278   3
   0   2  -7 932.684 64.6002   1
   0   2  -7 829.890 64.3727   1
   0   2  -7 918.786 60.9238   2
   0  -2   7 1009.55 62.7540   3
   0  -2   7 867.993 64.2859   1
   0  -2   7 1027.80 61.2697   4
   0  -2   7 969.293 60.7039   2
   1  -2   7 456.451 29.0949   3
   1  -2   7 443.158 28.3082   4
   1  -2   7 361.829 29.7066   1
   1  -2   7 442.125 28.0842   2
   2  -2   7 159.739 11.4002   4
   2  -2   7 158.793 11.2753   2
   2  -2   7 168.647 11.8460   3
   3  -2   7 94.7194 6.59413  12
   3  -2   7 100.927 6.41809   8
   3  -2   7 97.7148 6.09546  10
   3  -2   7 99.6807 7.36969   5
   3  -2   7 90.8207 7.00905   9
   3  -2   7 104.603 8.05214   3
   3  -2   7 97.2193 7.41472   2
   3  -2   7 109.658 7.71922   4
   4  -2   7 60.5599 4.91391   2
   4  -2   7 53.9142 4.01798  12
   4  -2   7 56.8079 5.35169   4
   4  -2   7 57.5289 4.05487   9
   4  -2   7 51.5262 4.17195  11
   4  -2   7 49.8036 5.44699   3
   4  -2   7 46.1362 4.13356  18
   4  -2   7 54.2937 3.64657  10
   5  -2   7 0.62391 0.76298   9
   5  -2   7 3.13701 0.99766  10
   5  -2   7 2.35415 1.05980  18
   5  -2   7 0.71182 2.71525   4
   5  -2   7 1.05807 1.23467  11
   5  -2   7 1.38390 1.33766  12
   6  -2   7 10.1603 1.40873  12
   6  -2   7 8.38408 1.14467  10
   6  -2   7 6.17383 1.30164  18
   6  -2   7 8.06118 1.33045  11
   7  -2   7 2.77520 1.37269  11
   7  -2   7 4.26225 1.14291  12
   7  -2   7 4.15347 0.67052  10
   7  -2   7 3.31716 1.28520  18
   9   1  -7 253.394 16.9524  18
   8   1  -7 6.28717 0.88954  10
   8   1  -7 5.38566 1.00139  17
   8   1  -7 5.85759 1.42027  18
   7   1  -7 4.47122 1.37764  18
   7   1  -7 6.92099 1.22549  16
   7   1  -7 5.29871 1.05487  10
   7   1  -7 5.94204 1.02838  17
   6   1  -7 1.25552 0.75688  10
   6   1  -7 1.56993 1.11244  16
   6   1  -7 1.46457 1.04023  17
   6   1  -7 2.30826 2.38116   3
   6   1  -7 0.93511 1.47541  18
   6   1  -7 0.00873 1.63644   2
   6   1  -7 1.17864 0.77911   9
   6   1  -7 0.93766 2.74397   7
   5   1  -7 372.722 27.0962   9
   5   1  -7 406.773 26.3835  15
   5   1  -7 365.970 24.3626  16
   5   1  -7 405.172 26.0848  18
   5   1  -7 394.679 23.5186  17
   5   1  -7 407.275 26.0373   2
   5   1  -7 393.109 25.8386   7
   5   1  -7 399.156 23.4920  10
   4   1  -7 240.156 16.2231   2
   4   1  -7 240.451 16.1026   7
   3   1  -7 394.815 25.5599   2
   3   1  -7 376.583 25.0135   7
   2   1  -7 98.3958 8.04917   1
   2   1  -7 96.8426 7.73700   1
   2   1  -7 106.303 7.86708   6
   2   1  -7 110.407 7.60821   2
   2   1  -7 107.236 7.87525   3
  -2  -1   7 85.0346 8.04337   1
  -2  -1   7 94.8871 7.68451   1
   1   1  -7 39.3123 5.11873   1
   1   1  -7 41.3758 4.43473   1
   1   1  -7 54.8453 4.20833   6
   1   1  -7 50.1157 4.81574   3
   1   1  -7 50.7331 4.90508   2
  -1  -1   7 48.1470 3.98587   2
  -1  -1   7 35.7649 4.99060   1
  -1  -1   7 48.9424 4.36141   3
  -1  -1   7 47.3088 4.46952   1
   0   1  -7 25.4509 3.68416   1
   0   1  -7 27.6390 3.50769   2
   0   1  -7 21.1908 2.89762   3
   0   1  -7 18.1012 2.93031   1
   0  -1   7 15.9106 2.63289   1
   0  -1   7 24.2421 2.88528   3
   0  -1   7 24.1724 2.53461   2
   0  -1   7 19.0578 2.68016   1
   0  -1   7 24.3286 2.19783   4
  -1   1  -7 19.5285 3.08523   1
   1  -1   7 24.1362 3.15530   1
   1  -1   7 33.4429 3.63961   3
   1  -1   7 25.2055 2.79180   4
   1  -1   7 24.0969 2.97763   2
   2  -1   7 156.619 11.5056   2
   2  -1   7 173.480 12.2262   3
   2  -1   7 167.847 11.7321   4
   3  -1   7 58.1507 3.75793   8
   3  -1   7 61.5454 4.88324   2
   3  -1   7 54.9954 5.77514   3
   3  -1   7 55.2715 5.07718   4
   3  -1   7 54.1633 3.76134  10
   3  -1   7 50.4504 4.19998   9
   4  -1   7 3.24517 1.08342  10
   4  -1   7 3.93051 2.90975   3
   4  -1   7 3.11033 1.09553  11
   4  -1   7 3.68223 0.96546   9
   4  -1   7 2.37734 2.08367   2
   4  -1   7 3.13055 0.46462   8
   4  -1   7 0.73084 2.39943   4
   4  -1   7 4.75298 1.21776  12
   5  -1   7 28.3662 2.39165   9
   5  -1   7 23.6577 2.77787  12
   5  -1   7 18.8094 3.71075   4
   5  -1   7 27.5158 2.49161  11
   5  -1   7 26.6310 2.37791  10
   6  -1   7 -0.9587 1.34157  12
   6  -1   7 0.13654 0.96813  11
   6  -1   7 0.32467 0.99186  10
   7  -1   7 0.72461 0.72941  10
   7  -1   7 1.79261 1.00258  12
   7  -1   7 1.45192 0.94526  11
   9   0  -7 18.6688 2.15308  18
   8   0  -7 -0.4769 0.61209  10
   8   0  -7 -0.1342 1.74884  18
   8   0  -7 0.69096 1.19324  17
   8   0  -7 2.57203 1.56599  16
   7   0  -7 2.84721 1.43827  16
   7   0  -7 1.99452 0.91313  17
   7   0  -7 1.47710 0.87572  10
   7   0  -7 2.80386 1.22643  18
   6   0  -7 56.1545 5.65049   7
   6   0  -7 57.9430 4.47871   2
   6   0  -7 55.8419 4.89306   3
   6   0  -7 59.7713 5.39421  15
   6   0  -7 61.8293 4.13511  17
   6   0  -7 63.9466 4.81466  18
   6   0  -7 60.7811 3.94141  10
   6   0  -7 63.5817 4.34531  16
   6   0  -7 61.8355 4.32778   9
   5   0  -7 3.73938 0.76817   9
   5   0  -7 -0.1266 1.94749   3
   5   0  -7 3.10245 1.75809   2
   5   0  -7 2.06977 0.87309  18
   5   0  -7 3.20677 1.06563  16
   5   0  -7 3.55210 1.84057  15
   5   0  -7 3.36630 0.84439  10
   5   0  -7 2.20476 0.97615  17
   5   0  -7 4.06879 1.97008   7
   4   0  -7 138.996 9.80449   7
   4   0  -7 139.340 11.3615   6
   4   0  -7 134.955 10.2002   3
   4   0  -7 147.264 9.87088   2
   3   0  -7 -3.1201 1.94233   2
   3   0  -7 -1.3039 1.81915   7
   3   0  -7 -1.5240 1.74960   3
   3   0  -7 1.63600 2.24567   6
   2   0  -7 235.073 14.5245   2
   2   0  -7 218.318 14.8460   3
   2   0  -7 221.636 14.8742   6
   2   0  -7 205.561 15.3304   1
  -2   0   7 164.693 15.1684   1
   1   0  -7 38.8146 4.08977   2
   1   0  -7 30.1372 3.62408   1
   1   0  -7 39.8590 3.73836   6
   1   0  -7 34.8335 4.31450   3
   1   0  -7 31.4645 4.17488   1
  -1   0   7 30.0444 3.57279   3
  -1   0   7 35.2910 4.36368   1
  -1   0   7 32.5722 3.23382   2
  -1   0   7 35.1997 3.69390   1
   0   0  -7 7.15755 2.49958   3
   0   0  -7 5.01687 1.93135   1
   0   0  -7 5.83041 2.85496   2
   0   0  -7 8.01361 2.97567   1
   0   0  -7 3.44750 1.40936   6
   0   0   7 6.17311 1.11072   4
   0   0   7 8.00924 2.17217   1
   0   0   7 5.83693 1.62286   2
   0   0   7 2.96314 1.67910   1
   0   0   7 7.90363 2.08362   3
  -1   0  -7 1.86378 1.96311   1
   1   0   7 -0.2605 1.96100   3
   1   0   7 -1.4753 1.26572   4
   2   0   7 9.67993 1.91355   4
   2   0   7 12.8840 2.94420   3
   3   0   7 37.9829 3.34070  11
   3   0   7 50.9903 4.55716   4
   3   0   7 40.7399 3.03007  10
   3   0   7 37.7582 4.98503   3
   3   0   7 47.4357 3.04112   8
   4   0   7 97.8271 7.18676   9
   4   0   7 102.379 6.34196  10
   4   0   7 95.6215 7.74502   2
   4   0   7 91.3171 8.48116   3
   4   0   7 104.650 6.55504   8
   4   0   7 99.7541 7.23134  11
   4   0   7 106.049 8.28449   4
   5   0   7 -0.4418 0.88755  11
   5   0   7 -1.2172 1.17429  10
   5   0   7 0.68621 1.01155   9
   5   0   7 1.08115 1.32276  12
   6   0   7 60.5320 4.60787   9
   6   0   7 67.9415 5.12104  11
   6   0   7 70.7376 4.85215  12
   6   0   7 68.8730 4.39494  10
   7   0   7 75.0339 4.40290  10
   7   0   7 66.8746 5.10736  11
   7   0   7 70.0870 4.81457  12
   9  -1  -7 2.85315 1.16092  18
   8  -1  -7 25.3334 2.19118  17
   8  -1  -7 26.6370 2.43599  16
   8  -1  -7 28.2408 3.22760  18
   7  -1  -7 0.26704 1.41106  16
   7  -1  -7 1.87918 1.27146  17
   7  -1  -7 0.96693 1.60773  18
   7  -1  -7 -0.0486 0.65561  10
   6  -1  -7 43.6595 4.85379   7
   6  -1  -7 44.2977 3.01591  10
   6  -1  -7 44.6102 4.60468  15
   6  -1  -7 45.8196 3.58602  16
   6  -1  -7 42.6912 3.83961  18
   6  -1  -7 51.0612 3.38177  17
   5  -1  -7 82.0828 5.99660   9
   5  -1  -7 85.3833 6.49841  15
   5  -1  -7 84.8454 8.99944   6
   5  -1  -7 87.5920 5.69297  16
   5  -1  -7 91.0996 6.82726   7
   5  -1  -7 89.1442 6.15565   2
   5  -1  -7 89.8267 5.44598  17
   5  -1  -7 85.1497 5.29587  10
   5  -1  -7 76.8372 6.02136  18
   5  -1  -7 78.9146 6.59275   3
   4  -1  -7 88.8431 6.60634   2
   4  -1  -7 83.4116 7.04378   3
   4  -1  -7 93.3128 6.76196   7
   4  -1  -7 94.0027 8.58269   6
   3  -1  -7 182.319 12.5168   7
   3  -1  -7 177.594 13.1419   3
   3  -1  -7 197.656 12.7871   2
   3  -1  -7 178.160 13.7254   6
   2  -1  -7 56.8018 6.11353   1
   2  -1  -7 64.6982 5.75923   3
   2  -1  -7 63.2413 5.86563   2
   2  -1  -7 64.7407 6.16902   6
   1  -1  -7 717.470 45.8587   2
   1  -1  -7 657.958 48.5643   1
   1  -1  -7 742.577 47.2326   3
   1  -1  -7 711.248 46.7897   6
  -1   1   7 651.979 48.4309   1
   0  -1  -7 3.77963 1.85767   6
   0  -1  -7 1.67450 1.68180   1
   0  -1  -7 3.28780 2.83316   2
   0  -1  -7 7.38897 3.02874   1
   0  -1  -7 2.45812 2.05136   3
   0   1   7 5.16330 1.86846   2
   0   1   7 5.48505 1.09378   4
   0   1   7 3.72215 2.14300   1
   0   1   7 3.64280 1.72032   3
   1   1   7 613.184 39.3161   2
   1   1   7 580.656 39.4965   4
   1   1   7 598.910 40.7054   3
   2   1   7 386.821 28.3212   3
   2   1   7 407.879 27.4271   4
   2   1   7 429.011 27.3280   2
   3   1   7 11.4954 1.41337  10
   3   1   7 16.6493 2.88818   4
   3   1   7 16.7794 1.42891   8
   3   1   7 13.6174 2.93967   2
   3   1   7 15.2143 1.85819  11
   3   1   7 13.3543 3.78303   3
   3   1   7 15.8744 2.02615   9
   4   1   7 180.599 12.9054   4
   4   1   7 168.235 11.1742   8
   4   1   7 166.996 10.6165  10
   4   1   7 179.293 12.0845  11
   5   1   7 -0.5199 1.28192  12
   5   1   7 0.16694 1.32317  11
   5   1   7 -0.5358 1.08032  10
   5   1   7 1.97596 0.95493   9
   6   1   7 2.29986 1.03872  10
   6   1   7 2.11013 0.79333   9
   6   1   7 1.10556 1.32499  11
   6   1   7 3.10584 1.23380  12
   7   1   7 18.7077 1.74320  11
   7   1   7 20.4236 1.55075  10
   9  -2  -7 88.3981 6.69232  18
   9  -2  -7 103.884 6.31196  16
   8  -2  -7 279.332 16.5293  17
   8  -2  -7 277.305 17.1776  16
   8  -2  -7 262.690 18.3923  18
   7  -2  -7 758.841 44.9801  16
   7  -2  -7 702.954 47.9233  18
   7  -2  -7 727.723 43.0949  10
   7  -2  -7 730.589 43.2945  17
   7  -2  -7 707.207 48.4422  15
   6  -2  -7 1.49592 1.29706  16
   6  -2  -7 1.49736 2.27989  15
   6  -2  -7 2.19825 0.67804  10
   6  -2  -7 5.49707 2.96491   7
   6  -2  -7 2.55187 1.26739  18
   6  -2  -7 2.21417 1.17153  17
   5  -2  -7 775.672 47.3250  16
   5  -2  -7 713.320 52.5009   9
   5  -2  -7 778.617 50.9137  15
   5  -2  -7 757.586 52.2417   6
   5  -2  -7 767.518 51.1792   3
   5  -2  -7 762.912 49.2173   7
   5  -2  -7 761.081 54.6833  14
   5  -2  -7 757.998 45.5531  10
   5  -2  -7 803.098 45.6057  17
   5  -2  -7 776.947 49.4682   2
   4  -2  -7 1.88521 2.02007   7
   4  -2  -7 5.02727 3.23827   6
   4  -2  -7 2.80934 1.88475   3
   4  -2  -7 2.41188 1.58535   2
   3  -2  -7 331.790 21.7829   7
   3  -2  -7 349.738 22.3670   2
   3  -2  -7 322.786 23.3350   6
   3  -2  -7 326.606 22.9685   3
   2  -2  -7 0.16887 2.20603   3
   2  -2  -7 4.98139 2.96825   6
   2  -2  -7 0.74696 2.54236   2
   1  -2  -7 217.617 15.3468   3
   1  -2  -7 207.001 15.2290   6
   1  -2  -7 211.161 15.0507   2
   0  -2  -7 -0.9656 2.86090   2
   0  -2  -7 3.57514 2.34950   6
   0  -2  -7 2.15514 2.09058   3
   0   2   7 2.53936 2.23506   1
  -1  -2  -7 13.6351 2.64892   6
   1   2   7 8.81139 2.29676   3
   1   2   7 9.66057 2.41658   2
   1   2   7 12.2202 1.85015   4
   2   2   7 42.4077 4.73578   2
   2   2   7 39.8290 4.96470   3
   2   2   7 41.2127 4.44548   4
   2   2   7 39.4438 2.93406   8
   3   2   7 34.7508 4.19109   4
   3   2   7 31.0017 2.97967   9
   3   2   7 33.3763 5.09591   3
   3   2   7 31.1184 2.79017  11
   3   2   7 33.1326 2.52118   8
   3   2   7 23.8657 4.02602   2
   4   2   7 25.0926 2.77075  10
   4   2   7 25.5656 3.93930   4
   4   2   7 24.6640 2.04991   8
   4   2   7 28.4660 2.84428   9
   4   2   7 23.6988 2.77270  11
   5   2   7 22.0164 2.66999  11
   5   2   7 20.1964 2.73628   9
   5   2   7 23.0002 2.32184  10
   5   2   7 27.2902 2.52643  12
   6   2   7 -0.3234 0.84221  11
   6   2   7 -1.1080 0.98029  10
   6   2   7 1.22201 0.99803  12
   6   2   7 0.82719 0.67747   9
   7   2   7 12.1439 1.10588  10
   9  -3  -7 22.4807 2.18556  17
   9  -3  -7 23.8781 2.08987  16
   8  -3  -7 7.09151 1.44165  17
   8  -3  -7 4.20844 1.60809  16
   8  -3  -7 4.25192 1.63645  18
   7  -3  -7 0.04113 1.53388  16
   7  -3  -7 2.50985 2.72504  15
   7  -3  -7 -0.2242 1.25522  17
   6  -3  -7 56.6958 4.17103  16
   6  -3  -7 53.7820 5.28869  15
   6  -3  -7 55.2481 3.37993  10
   6  -3  -7 48.4684 5.04855   7
   6  -3  -7 31.2040 6.58822   6
   6  -3  -7 56.0464 6.04295  14
   6  -3  -7 54.7181 3.81792  17
   5  -3  -7 46.1588 4.72730  14
   5  -3  -7 31.3986 4.02733   7
   5  -3  -7 40.5535 2.71289  10
   5  -3  -7 39.5584 3.15668  16
   5  -3  -7 35.2507 2.88991  17
   5  -3  -7 36.0949 4.07223  15
   5  -3  -7 37.0397 5.88876   6
   4  -3  -7 54.2713 4.62876  15
   4  -3  -7 53.1402 4.01647   9
   4  -3  -7 54.3843 4.86889   3
   4  -3  -7 53.7634 5.16629  14
   4  -3  -7 59.3432 4.79540   7
   4  -3  -7 47.4108 3.62457  10
   4  -3  -7 53.9646 3.64059  17
   4  -3  -7 53.5477 3.90656  16
   4  -3  -7 55.3939 6.65864   6
   4  -3  -7 56.8331 4.51703   2
   3  -3  -7 180.393 13.2781   3
   3  -3  -7 181.285 12.3751   7
   3  -3  -7 175.071 13.8796   6
   3  -3  -7 193.359 13.0221   2
   2  -3  -7 31.6800 4.05023   6
   2  -3  -7 30.3602 3.82539   3
   2  -3  -7 30.4441 4.00945   2
   1  -3  -7 -3.3289 2.71448   2
   1  -3  -7 0.67359 2.17512   3
   1  -3  -7 -1.7975 2.32965   6
   0  -3  -7 10.5829 3.46320   2
   0  -3  -7 8.85372 2.60938   6
   0  -3  -7 9.00260 3.20253   3
  -1  -3  -7 7.92239 3.03184   6
   1   3   7 1.84926 1.49691   4
   2   3   7 3.62268 1.14347   8
   2   3   7 4.43007 2.06888   4
   3   3   7 61.9785 4.90705  11
   3   3   7 65.3487 5.10737   9
   3   3   7 60.8781 6.08022   4
   3   3   7 67.7955 4.49066   8
   4   3   7 47.9810 3.51410   8
   4   3   7 60.2470 4.56152   9
   4   3   7 48.7647 3.93225  11
   5   3   7 115.159 7.32541  10
   5   3   7 113.226 7.80137  12
   5   3   7 116.550 8.34669   9
   5   3   7 118.744 8.30769  11
   6   3   7 1.95265 0.71749  10
   6   3   7 0.99360 0.76752   9
   6   3   7 1.90509 0.78097  11
   9  -4  -7 0.87627 1.14610  17
   9  -4  -7 1.70685 1.01221  16
   8  -4  -7 34.9017 2.56126  17
   8  -4  -7 32.6039 3.63993  15
   8  -4  -7 32.5317 3.16672  16
   7  -4  -7 7.15767 1.74289  16
   7  -4  -7 7.29814 1.12784  17
   7  -4  -7 3.76858 2.83693  15
   6  -4  -7 0.69365 2.75935  14
   6  -4  -7 -2.4582 5.07737   6
   6  -4  -7 0.14235 1.05741  16
   6  -4  -7 0.42101 0.43694  10
   6  -4  -7 -0.1993 1.08640  17
   6  -4  -7 -2.4887 2.52846  15
   5  -4  -7 25.3074 3.18363  15
   5  -4  -7 33.2055 5.92429   6
   5  -4  -7 29.3836 2.48141  17
   5  -4  -7 27.9283 2.26133  10
   5  -4  -7 31.4992 3.50998  14
   5  -4  -7 31.5590 2.92844  16
   4  -4  -7 -4.9319 4.56046   6
   4  -4  -7 0.25252 1.62890   2
   4  -4  -7 1.96358 0.86166   9
   4  -4  -7 -1.2528 1.90219  15
   4  -4  -7 -1.1667 2.03991  14
   4  -4  -7 0.66024 1.69212   3
   4  -4  -7 0.29171 1.14559  17
   4  -4  -7 0.90527 1.23755  16
   3  -4  -7 40.9016 3.72281   9
   3  -4  -7 39.5194 4.32578  14
   3  -4  -7 45.5583 5.56035   6
   3  -4  -7 45.5973 3.49002  10
   3  -4  -7 43.2992 3.98919  15
   3  -4  -7 39.4932 3.35271  16
   3  -4  -7 47.3632 4.81065   2
   3  -4  -7 41.4631 4.65438   3
   2  -4  -7 59.6666 6.03590   3
   2  -4  -7 57.4740 6.46398   6
   2  -4  -7 56.1848 4.85144   9
   2  -4  -7 60.3097 6.04578   2
   2  -4  -7 56.3856 4.00296   8
   1  -4  -7 49.6885 3.52666   8
   1  -4  -7 43.4637 5.32234   2
   1  -4  -7 51.6193 5.84061   6
   1  -4  -7 40.4160 5.33434   3
   0  -4  -7 20.2179 2.35505   8
   0  -4  -7 10.0866 3.14495   3
   0  -4  -7 18.5234 4.11972   6
   0  -4  -7 14.4804 3.86855   2
  -1  -4  -7 573.060 39.3011   6
   2   4   7 6.64330 2.47593   4
   2   4   7 7.16131 1.16094   8
   3   4   7 250.370 16.2262   8
   4   4   7 133.353 9.84446  11
   4   4   7 138.349 9.13137   8
   4   4   7 147.455 10.1016   9
   5   4   7 1.67004 0.76342  12
   5   4   7 1.04587 1.16910  11
   5   4   7 -0.6201 1.09947   9
   6   4   7 0.43557 0.53502   9
   6   4   7 -0.0081 0.57972  10
   9  -5  -7 109.077 7.33863  16
   9  -5  -7 120.491 7.08420  17
   8  -5  -7 235.080 14.7445  17
   8  -5  -7 259.527 16.9477  15
   8  -5  -7 240.852 15.3803  16
   7  -5  -7 84.3442 6.56746  15
   7  -5  -7 90.6386 5.88119  16
   7  -5  -7 83.2830 7.08316  14
   7  -5  -7 74.8332 5.25376  17
   6  -5  -7 92.3298 5.88898  17
   6  -5  -7 97.5678 6.45424  16
   6  -5  -7 93.4856 8.13778  14
   6  -5  -7 65.4194 9.47181   6
   6  -5  -7 91.6436 7.12361  15
   5  -5  -7 320.284 22.8681  14
   5  -5  -7 309.820 23.3086   6
   5  -5  -7 327.787 21.3321  15
   5  -5  -7 322.013 19.6376  16
   5  -5  -7 297.462 18.6737  10
   5  -5  -7 295.812 18.7434  17
   4  -5  -7 12.4506 2.13317   2
   4  -5  -7 11.7590 2.47345  15
   4  -5  -7 13.2568 1.57461   9
   4  -5  -7 10.4343 2.09263   3
   4  -5  -7 13.0805 1.51278  16
   4  -5  -7 10.7410 2.51787  14
   4  -5  -7 14.7879 4.84999   6
   3  -5  -7 46.7722 3.55884  10
   3  -5  -7 46.3050 4.29298   9
   3  -5  -7 46.9798 5.49639   2
   3  -5  -7 48.0287 3.80143  16
   3  -5  -7 59.4487 7.04460   6
   3  -5  -7 45.8535 3.96603  15
   3  -5  -7 42.2557 4.65319  14
   3  -5  -7 53.1446 5.34979   3
   2  -5  -7 37.5330 3.32856  10
   2  -5  -7 32.6661 5.13203   2
   2  -5  -7 38.9245 3.71788   9
   2  -5  -7 40.1340 3.84931  15
   2  -5  -7 55.1539 6.41848   6
   2  -5  -7 44.3760 5.44219   3
   2  -5  -7 42.0350 2.98608   8
   1  -5  -7 45.7957 4.12975  10
   1  -5  -7 64.6891 4.19447   8
   1  -5  -7 60.2362 6.67169   2
   1  -5  -7 58.0606 4.80609   9
   1  -5  -7 59.2658 6.90444   6
   1  -5  -7 59.3299 6.75971   3
   1  -5  -7 52.0087 4.56198  15
   0  -5  -7 0.88566 2.91412   3
   0  -5  -7 0.08592 1.62078   9
   0  -5  -7 -0.2192 1.50489  15
   0  -5  -7 4.65259 3.58066   6
   0  -5  -7 0.89612 1.37142   8
   0  -5  -7 4.19494 3.71070   2
  -1  -5  -7 0.21800 3.51405   6
   2   5   7 14.2262 1.70374   8
   3   5   7 -0.0159 0.96136   8
   4   5   7 32.0917 2.36099   8
   5   5   7 1.53906 1.05353   9
   5   5   7 2.80989 0.83337  12
   8  -6  -7 0.54051 0.70865  17
   8  -6  -7 1.77997 1.45729  16
   8  -6  -7 1.79983 1.88676  15
   7  -6  -7 13.2184 3.43432  14
   7  -6  -7 19.0910 2.58620  15
   7  -6  -7 14.4541 2.01730  16
   6  -6  -7 0.08912 2.02039  15
   6  -6  -7 -0.5467 1.99625  14
   6  -6  -7 -0.2426 1.68343  16
   5  -6  -7 8.97873 6.57211   6
   5  -6  -7 0.07628 1.62861  16
   5  -6  -7 -0.3767 1.84351  15
   5  -6  -7 2.06894 1.83886  14
   5  -6  -7 1.18202 0.93175  10
   4  -6  -7 22.0272 2.96246  15
   4  -6  -7 12.2412 1.84775   3
   4  -6  -7 21.6525 1.99656  10
   4  -6  -7 18.5056 2.86859  14
   4  -6  -7 16.9315 2.08878  16
   4  -6  -7 16.2911 6.52088   6
   4  -6  -7 17.1343 1.36597   9
   3  -6  -7 -0.4804 1.60095  10
   3  -6  -7 4.15982 4.57320   6
   3  -6  -7 2.71325 2.10392  15
   3  -6  -7 2.31139 2.03669  14
   3  -6  -7 2.81145 1.70802  16
   3  -6  -7 2.66821 3.32005   2
   3  -6  -7 1.94540 1.41614   9
   3  -6  -7 -0.7454 2.76816   3
   2  -6  -7 213.377 13.4955   8
   2  -6  -7 200.834 14.7797   9
   2  -6  -7 195.498 15.4080   2
   2  -6  -7 209.688 12.8924  10
   2  -6  -7 210.100 14.4148  15
   2  -6  -7 206.838 15.6039   3
   2  -6  -7 231.620 16.4355   6
   1  -6  -7 4.31429 1.44345   8
   1  -6  -7 4.55060 3.03793   3
   1  -6  -7 2.42063 1.81467  15
   1  -6  -7 5.22564 4.30147   6
   1  -6  -7 4.47250 1.64394   9
   1  -6  -7 3.13335 1.56718  10
   1  -6  -7 1.33833 3.73148   2
   0  -6  -7 21.4244 4.65907   3
   0  -6  -7 41.1553 3.59709  15
   0  -6  -7 42.0995 3.07266   8
   0  -6  -7 34.2062 3.90881   9
   0  -6  -7 27.4121 5.52158   2
   0  -6  -7 34.6342 5.47500   6
  -1  -6  -7 0.64460 1.61813   8
  -1  -6  -7 -0.6979 4.17333   6
  -2  -6  -7 14.5292 2.01591   8
   2   6   7 10.2791 1.38858   8
   3   6   7 22.6357 2.02146   8
   4   6   7 11.3290 1.11033   8
   5   6   7 34.9149 2.75167   9
   8  -7  -7 7.09013 1.37218  16
   8  -7  -7 2.18626 1.75889  15
   7  -7  -7 7.20698 2.15448  15
   7  -7  -7 6.96019 3.00347  14
   7  -7  -7 9.14760 1.38299  16
   6  -7  -7 -1.2195 2.84852  15
   6  -7  -7 1.74199 1.68582  16
   6  -7  -7 0.94086 2.01322  14
   5  -7  -7 13.4582 2.95938  14
   5  -7  -7 14.2985 3.09566  15
   5  -7  -7 13.3325 1.70599  16
   5  -7  -7 12.2031 1.27840  10
   4  -7  -7 7.71302 5.61005   6
   4  -7  -7 -0.6779 2.29967  14
   4  -7  -7 -2.2093 1.75574  15
   4  -7  -7 -0.2898 1.65784  16
   4  -7  -7 1.94623 1.47983  10
   3  -7  -7 509.377 32.8317  15
   3  -7  -7 502.353 30.4641  16
   3  -7  -7 504.827 33.7455   9
   3  -7  -7 475.114 29.3512  10
   3  -7  -7 448.731 35.0027  14
   2  -7  -7 96.0911 6.90547  16
   2  -7  -7 100.876 6.82049  10
   2  -7  -7 98.6351 7.65895   9
   2  -7  -7 100.487 7.57447  15
   2  -7  -7 103.783 10.1037   6
   1  -7  -7 15.8986 2.20647   9
   1  -7  -7 21.3582 2.54131  15
   1  -7  -7 25.5303 5.54784   6
   1  -7  -7 17.0938 1.86865   8
   1  -7  -7 15.5161 2.13363  10
   0  -7  -7 74.9584 5.97787  15
   0  -7  -7 53.0333 7.77238   6
   0  -7  -7 81.5075 6.32580   9
   0  -7  -7 79.7294 5.42343   8
  -1  -7  -7 2.18870 1.51955   8
  -1  -7  -7 2.00894 1.77287  15
  -2  -7  -7 5.24154 1.64843   8
   2   7   7 4.19661 1.08532   8
  -3  -7  -7 84.4766 5.72724   8
   3   7   7 82.8517 5.61871   8
  -4  -7  -7 4.38881 1.02463   8
   4   7   7 8.55000 0.77154   8
   8  -8  -7 39.0965 3.35854  15
   7  -8  -7 3.60113 1.37305  16
   7  -8  -7 -1.5432 1.88165  15
   7  -8  -7 3.82946 1.95558  14
   6  -8  -7 113.624 8.16443  15
   6  -8  -7 96.2842 6.76143  16
   5  -8  -7 114.816 9.67001  14
   5  -8  -7 128.529 7.65269  10
   5  -8  -7 134.953 9.24524  15
   4  -8  -7 2.84578 1.70672  16
   4  -8  -7 6.07836 2.80163  15
   4  -8  -7 -0.2134 2.27639  14
   3  -8  -7 543.021 35.2482  15
   3  -8  -7 515.799 32.6617  16
   3  -8  -7 521.481 31.5111  10
   3  -8  -7 517.956 36.1541   9
   2  -8  -7 -0.7996 1.72211   9
   2  -8  -7 -0.4136 1.91119  10
   2  -8  -7 -0.3430 1.63506  15
   2  -8  -7 0.89670 1.75900  16
   1  -8  -7 1.92522 1.71723  10
   1  -8  -7 2.96326 2.05320   9
   1  -8  -7 3.05330 0.82093   8
   1  -8  -7 2.62418 1.59058  15
   0  -8  -7 -1.1915 1.37261  15
   0  -8  -7 -0.7809 1.21738   8
   0  -8  -7 0.38735 1.76302   9
  -1  -8  -7 0.70964 1.28377  15
  -1  -8  -7 0.62319 1.20156   8
  -1  -8  -7 2.92724 1.79249   9
  -2  -8  -7 0.56653 1.19377   8
   2   8   7 1.00958 0.90569   8
  -3  -8  -7 0.93218 1.06922   8
   3   8   7 0.97866 0.50491   8
   7  -9  -7 2.38206 1.64405  15
   6  -9  -7 -1.8595 2.57629  15
   6  -9  -7 -0.0659 1.65606  14
   6  -9  -7 -0.6682 1.16473  16
   5  -9  -7 -0.7070 2.38977  14
   5  -9  -7 -0.1134 0.97013  16
   5  -9  -7 4.95705 2.83094  15
   4  -9  -7 18.7323 3.10070  15
   4  -9  -7 11.9752 1.57762  16
   4  -9  -7 14.8054 2.07806  14
   3  -9  -7 33.8464 2.92055  10
   3  -9  -7 30.5221 3.05656  16
   3  -9  -7 35.6276 4.31681  15
   2  -9  -7 15.2547 1.79329   9
   2  -9  -7 15.6246 2.05039  16
   2  -9  -7 19.1809 2.85538  15
   1  -9  -7 0.88753 1.54346   9
   1  -9  -7 3.54574 1.64067  10
   1  -9  -7 2.40023 1.56355  15
   1  -9  -7 3.72200 1.14939  16
   0  -9  -7 2.66531 1.98336  15
   0  -9  -7 0.54768 1.38672  16
   0  -9  -7 1.14539 1.73201   9
   0  -9  -7 0.48528 0.56739   8
  -1  -9  -7 -1.9410 1.68517   9
  -1  -9  -7 0.70144 0.70061   8
  -2  -9  -7 2.92723 0.89252   8
  -2  -9  -7 1.33061 1.10973   9
   2   9   7 2.01192 0.61400   8
   6 -10  -7 -0.0505 1.55657  15
   6 -10  -7 -2.1954 1.30878  14
   5 -10  -7 1.10515 1.75025  15
   5 -10  -7 1.91925 1.33954  14
   4 -10  -7 47.4566 4.01341  15
   4 -10  -7 43.5865 2.99420  10
   3 -10  -7 3.35608 1.21267  10
   3 -10  -7 2.74863 2.48706  15
   2 -10  -7 1.28228 1.01149  10
   2 -10  -7 1.82233 0.83404   9
   2 -10  -7 1.18236 1.59719  15
   1 -10  -7 42.7687 3.83903  15
   1 -10  -7 51.5562 3.77963   9
   1 -10  -7 47.1279 3.38955  10
   0 -10  -7 12.6396 1.60414  15
   0 -10  -7 11.1883 1.61288   9
  -1 -10  -7 31.3751 2.90969   9
   5 -11  -7 10.9209 1.55868  15
   4 -11  -7 236.362 16.0209  15
   3 -11  -7 45.4502 3.68835  15
   2 -11  -7 4.75450 1.16267  10
   2 -11  -7 4.73284 1.39492  15
   1 -11  -7 36.4944 2.75386  10
   1 -14   8 9.08007 1.46323  14
  -1 -13   8 0.21995 1.70629  14
   0 -13   8 22.3254 2.61561  14
   1 -13   8 14.3302 1.99759  14
   2 -13   8 0.25999 1.60631  14
   3 -13   8 7.46461 1.60170  14
   3 -13   8 6.58773 0.91688  13
   4 -13   8 6.33429 0.87314  13
  -2 -12   8 25.6553 2.64642  14
  -1 -12   8 2.99687 1.54818  14
   0 -12   8 77.3083 6.25087  14
   1 -12   8 66.3041 4.53472  10
   1 -12   8 68.3570 5.01551   9
   1 -12   8 67.0827 5.70985  14
   2 -12   8 79.5641 6.06634  14
   2 -12   8 65.8045 4.96557  13
   2 -12   8 74.7183 4.69593  10
   3 -12   8 18.8150 2.02603  13
   3 -12   8 25.3547 1.85225  10
   3 -12   8 19.4164 2.50231  14
   4 -12   8 3.71797 1.89621  14
   4 -12   8 3.16701 1.04103  13
   5 -12   8 11.6977 1.42096  13
  -3 -11   8 2.21947 1.25207  14
  -2 -11   8 9.24966 2.21463  14
  -1 -11   8 71.5804 5.84333  14
  -1 -11   8 68.2916 4.80988   8
  -1 -11   8 73.6941 5.68117   9
   0 -11   8 461.485 33.2531  14
   1 -11   8 2.40514 1.30616   9
   1 -11   8 2.91246 1.22780  10
   1 -11   8 0.92467 1.79238  14
   2 -11   8 2.04767 1.02471  13
   2 -11   8 1.27037 2.59262  14
   2 -11   8 2.00204 0.70074   9
   3 -11   8 2.20189 1.50931  13
   3 -11   8 2.24509 0.99798  10
   3 -11   8 2.62272 1.13215  12
   3 -11   8 1.91828 1.71735  14
   4 -11   8 0.89075 1.91319  14
   4 -11   8 -0.0430 1.43681  13
   4 -11   8 -0.0795 1.14926  12
   5 -11   8 -0.5799 0.74973  12
   5 -11   8 0.13909 1.37932  13
   6 -11   8 -0.3135 0.66595  13
  -2 -10   8 4.91674 1.39918   8
  -2 -10   8 6.30738 1.96461   9
  -1 -10   8 2.56639 0.95306   8
  -1 -10   8 1.13993 1.36802   9
   0 -10   8 3.28679 1.24817   9
   0 -10   8 1.88332 0.95520   8
   0 -10   8 2.45047 2.33570  14
   0 -10   8 2.91337 1.28089  10
   0 -10   8 2.08559 2.57191   5
   1 -10   8 -0.7033 2.37270  14
   1 -10   8 -0.8340 0.99065   9
   1 -10   8 -0.2476 1.08732  10
   1 -10   8 -0.2665 1.26040  13
   2 -10   8 0.97238 1.41242  13
   2 -10   8 -0.7634 1.23181  10
   2 -10   8 1.01081 2.36771  14
   2 -10   8 -0.3634 1.00077   9
   3 -10   8 19.4614 2.02222  10
   3 -10   8 20.1355 2.88371  14
   3 -10   8 20.4431 2.14692  12
   3 -10   8 18.3701 2.17801  13
   4 -10   8 1.07499 0.72269  10
   4 -10   8 -1.3827 1.50179  13
   4 -10   8 -0.4684 1.77938  14
   4 -10   8 -0.0824 0.88322  12
   5 -10   8 28.1651 2.68979  12
   5 -10   8 32.5486 3.12766  13
   6 -10   8 0.20906 0.87011  13
   6 -10   8 1.08541 0.76021  12
   6   9  -8 4.28310 0.87403  18
   5   9  -8 25.6156 2.34596  18
  -3  -9   8 1.33029 1.13257   8
  -2  -9   8 16.7173 2.04012   8
  -1  -9   8 132.307 9.67743   9
  -1  -9   8 124.957 10.6235   2
  -1  -9   8 109.953 10.6721   3
  -1  -9   8 147.210 8.81094   8
   0  -9   8 196.138 14.4176   2
   0  -9   8 184.679 14.8416   3
   0  -9   8 199.819 14.1368   9
   0  -9   8 200.057 12.2524  10
   0  -9   8 187.698 14.1354   5
   0  -9   8 219.664 12.9870   8
   1  -9   8 182.537 12.1372  14
   1  -9   8 123.582 11.7771   3
   1  -9   8 153.640 11.6963   5
   1  -9   8 159.443 10.4608  13
   1  -9   8 161.213 9.71698  10
   1  -9   8 145.208 10.1046   8
   1  -9   8 162.260 11.5454   2
   1  -9   8 169.959 11.2032   9
   2  -9   8 33.4023 2.99130  13
   2  -9   8 25.5336 3.28503  14
   2  -9   8 29.0198 2.65498   9
   2  -9   8 31.5448 2.60570  10
   2  -9   8 27.1850 2.50121  12
   2  -9   8 31.7432 4.78935   5
   3  -9   8 2.93361 0.91184  10
   3  -9   8 3.79540 2.10368  14
   3  -9   8 6.23048 3.34954   5
   3  -9   8 3.38828 1.23421  12
   3  -9   8 5.74771 1.65470  13
   4  -9   8 3.83983 0.97121  10
   4  -9   8 4.52945 1.20471  11
   4  -9   8 3.17537 1.03013  12
   4  -9   8 4.40589 1.71714  13
   5  -9   8 1.44271 1.53349  11
   5  -9   8 3.59762 1.24041  13
   5  -9   8 1.40617 1.37727  12
   6  -9   8 9.63225 1.29383  11
   6  -9   8 5.94430 1.22201  13
   6  -9   8 11.5848 1.26631  12
   7  -9   8 4.29647 0.70579  12
   7   8  -8 37.7980 2.79199  18
   6   8  -8 3.05020 1.52068  18
   5   8  -8 38.9433 3.63292  18
   4   8  -8 92.6196 6.33588   8
  -3  -8   8 2.85838 1.14030   8
  -2  -8   8 33.5791 2.67379   8
  -1  -8   8 77.4236 7.41886   3
  -1  -8   8 96.3708 5.90905   8
  -1  -8   8 80.4872 6.43220   9
  -1  -8   8 84.7208 7.66218   2
  -1  -8   8 87.7401 7.06368   5
   0  -8   8 4.65985 2.73183   2
   0  -8   8 5.81894 2.23329   5
   0  -8   8 3.95851 1.09946  13
   0  -8   8 6.06839 1.13143  10
   0  -8   8 5.95363 0.99794   8
   0  -8   8 8.92224 2.94988   3
   0  -8   8 5.57401 1.15585   9
   1  -8   8 40.4480 4.43649   2
   1  -8   8 32.9405 4.21783   3
   1  -8   8 34.6144 3.22497   9
   1  -8   8 39.3765 4.52413   5
   1  -8   8 33.3316 2.96812  10
   1  -8   8 38.4934 3.11221  13
   1  -8   8 39.6569 2.63587   8
   2  -8   8 99.2266 8.01184  14
   2  -8   8 101.206 7.71047   2
   2  -8   8 101.943 8.22303   5
   2  -8   8 95.8251 6.71981  12
   2  -8   8 86.6266 7.79878   3
   2  -8   8 105.214 7.24584   9
   2  -8   8 106.420 6.95428  13
   2  -8   8 100.860 6.28383  10
   3  -8   8 52.1854 3.48196  10
   3  -8   8 52.2681 4.15253   2
   3  -8   8 46.2384 5.56967   5
   3  -8   8 42.9061 4.74239  14
   3  -8   8 49.5151 4.25979  11
   3  -8   8 49.3414 3.83224  12
   3  -8   8 51.0993 4.14539  13
   3  -8   8 51.9687 3.68905   9
   4  -8   8 -0.6669 1.23703  12
   4  -8   8 -0.9163 1.65481  13
   4  -8   8 -0.1937 0.83764  10
   4  -8   8 0.93130 1.51155  11
   5  -8   8 5.84797 1.29227  11
   5  -8   8 6.16387 1.76615  13
   5  -8   8 6.47919 1.47918  12
   6  -8   8 24.2757 2.31634  11
   6  -8   8 22.4721 2.16447  12
   6  -8   8 24.2964 2.23528  13
   7  -8   8 -0.2236 0.78025  11
   7  -8   8 -1.3681 0.94987  12
   7   7  -8 114.183 7.85332  18
   6   7  -8 37.9453 3.57164  18
   5   7  -8 13.1461 1.85272   9
   4   7  -8 6.94350 1.23412   8
   3   7  -8 31.1468 2.64340   8
  -2  -7   8 22.5130 2.18246   8
  -1  -7   8 66.8704 6.12045   2
  -1  -7   8 73.6204 4.93942   8
  -1  -7   8 63.2439 6.63222   3
  -1  -7   8 68.8259 5.51126   9
  -1  -7   8 83.6936 6.05887   5
   0  -7   8 28.1681 2.44632  10
   0  -7   8 32.4038 3.73136   2
   0  -7   8 35.6584 2.44406   8
   0  -7   8 28.0766 3.60214   3
   0  -7   8 34.8407 4.14897   5
   0  -7   8 30.3726 2.56245  13
   0  -7   8 29.8743 2.77993   9
   1  -7   8 21.1778 1.64212   8
   1  -7   8 20.1699 1.93343  10
   1  -7   8 19.4354 3.25789   3
   1  -7   8 19.2925 2.07451   9
   1  -7   8 22.1005 2.96746   2
   1  -7   8 16.3258 2.79827   5
   1  -7   8 22.1288 2.22015  13
   2  -7   8 21.0861 2.02080  10
   2  -7   8 21.1358 2.36523  13
   2  -7   8 19.6907 3.62108   5
   2  -7   8 18.0546 2.98823   3
   2  -7   8 16.9078 1.89892  11
   2  -7   8 18.8659 2.08224  12
   2  -7   8 22.8858 2.98347   2
   2  -7   8 19.5199 2.04861   9
   2  -7   8 19.2490 2.34534  14
   3  -7   8 4.59312 2.02199   2
   3  -7   8 6.10730 1.85076   3
   3  -7   8 3.51807 1.28298  11
   3  -7   8 6.03791 1.54271  13
   3  -7   8 6.72258 1.22568  12
   3  -7   8 4.28727 0.83746   9
   3  -7   8 5.34492 1.07608  10
   3  -7   8 6.20201 2.77548   5
   4  -7   8 6.34508 3.17176   5
   4  -7   8 6.03387 1.04169  10
   4  -7   8 7.06407 1.16151  12
   4  -7   8 6.41004 1.19669  11
   4  -7   8 3.57597 1.72631  13
   5  -7   8 18.7074 2.32540  13
   5  -7   8 21.7578 2.74291  11
   5  -7   8 19.8193 1.60082  10
   5  -7   8 19.3196 2.09039  12
   6  -7   8 1.75927 1.39168  11
   6  -7   8 2.41656 1.34217  13
   6  -7   8 1.42656 1.29236  12
   7  -7   8 67.1351 5.13967  11
   7  -7   8 77.0458 4.98895  12
   8   6  -8 1.81741 1.13047  18
   7   6  -8 11.4267 1.89467  18
   6   6  -8 27.2915 3.30434   9
   6   6  -8 27.6259 3.25005  18
   5   6  -8 30.7026 3.23767   9
   5   6  -8 30.2692 2.42373   8
   4   6  -8 3.10734 1.26941   8
   3   6  -8 5.79972 1.15239   8
  -2  -6   8 68.0829 5.36821   5
  -1  -6   8 31.3636 4.01191   3
  -1  -6   8 35.2423 3.96654   2
  -1  -6   8 35.7980 3.44978   5
   0  -6   8 223.820 15.0632   2
   0  -6   8 209.001 15.5966   3
   0  -6   8 220.336 14.8242   5
   1  -6   8 64.6562 5.10957   9
   1  -6   8 69.5816 4.54405   8
   1  -6   8 78.7944 5.76433   2
   1  -6   8 62.5964 4.73657  13
   1  -6   8 73.1828 5.76534   5
   1  -6   8 67.1186 6.05022   3
   2  -6   8 16.1034 1.63245  13
   2  -6   8 13.4356 1.55865  11
   2  -6   8 16.8883 1.60595  12
   2  -6   8 15.3385 1.87357   9
   2  -6   8 15.3906 1.45917  10
   2  -6   8 13.0471 1.11782   8
   2  -6   8 15.7688 2.45068   2
   2  -6   8 14.4170 2.69624   3
   2  -6   8 15.4551 2.62631   5
   3  -6   8 7.41325 1.36282  11
   3  -6   8 9.46093 1.20448  10
   3  -6   8 8.50493 2.02591   2
   3  -6   8 10.8742 1.62898  13
   3  -6   8 9.25543 1.12649   9
   3  -6   8 7.51636 1.28477  12
   3  -6   8 6.67985 2.62566   5
   3  -6   8 8.20026 2.74841   4
   3  -6   8 9.36590 2.20902   3
   4  -6   8 311.818 19.5268  12
   4  -6   8 303.033 18.1129  10
   4  -6   8 265.582 20.6650   5
   4  -6   8 275.185 21.0734   4
   4  -6   8 310.087 20.7624  11
   4  -6   8 328.579 19.6771  13
   5  -6   8 221.575 15.6591  12
   5  -6   8 247.377 14.4788  10
   5  -6   8 249.048 15.8707  13
   5  -6   8 246.799 16.7396  11
   6  -6   8 1.68375 1.38473  12
   6  -6   8 1.55366 1.40894  11
   7  -6   8 14.9551 1.73992  11
   7  -6   8 19.5704 2.03945  12
   8   5  -8 41.0548 3.22921  18
   7   5  -8 25.9630 3.11755  18
   6   5  -8 66.6040 4.64436  10
   6   5  -8 67.0503 5.04864   9
   6   5  -8 71.5860 5.25270  18
   6   5  -8 58.4825 4.26858   8
   5   5  -8 279.088 20.3637   7
   5   5  -8 329.198 19.7089   8
   5   5  -8 323.331 21.3623   9
   5   5  -8 308.428 18.5089  10
   5   5  -8 290.319 21.0563   2
   5   5  -8 289.496 22.0269   3
   4   5  -8 32.2107 4.29103   2
   4   5  -8 38.3334 4.82564   3
   4   5  -8 41.8141 2.91079   8
   4   5  -8 44.1585 3.98464   7
   4   5  -8 33.9256 3.35047   9
   3   5  -8 46.0343 4.75529   3
   3   5  -8 43.7409 4.17641   7
   3   5  -8 45.2250 4.52707   2
   3   5  -8 38.7568 3.19805   8
   2   5  -8 43.2162 4.03096   7
  -2  -5   8 45.5426 3.92038   5
  -1  -5   8 5.18331 1.94056   3
  -1  -5   8 5.87247 1.63943   5
  -1  -5   8 4.66781 2.10099   2
   0  -5   8 38.6425 4.12565   2
   0  -5   8 34.5461 3.68947   5
   0  -5   8 41.3933 4.42126   3
   1  -5   8 -0.4715 1.80954   2
   1  -5   8 1.85318 1.58471   3
   1  -5   8 2.03552 1.63908   5
   2  -5   8 43.3268 2.83772   8
   2  -5   8 42.7842 4.32645   3
   2  -5   8 45.6206 4.32704   4
   2  -5   8 37.2261 2.97958  10
   2  -5   8 40.5977 3.39339   9
   2  -5   8 48.3395 4.71184   5
   2  -5   8 45.7086 4.26016   2
   2  -5   8 38.9042 3.18068  12
   3  -5   8 38.0416 3.34010  11
   3  -5   8 37.8269 4.33299   3
   3  -5   8 43.3951 4.52231   4
   3  -5   8 40.4393 3.17483   9
   3  -5   8 38.6219 3.13444  12
   3  -5   8 42.5892 3.38129  13
   3  -5   8 44.6291 4.03403   2
   3  -5   8 38.4603 2.90500  10
   3  -5   8 40.4164 4.88202   5
   4  -5   8 -0.2455 1.19796  12
   4  -5   8 -0.5935 1.28038  13
   4  -5   8 2.14702 0.97840  10
   4  -5   8 1.07560 0.90374  11
   4  -5   8 1.20262 1.91545   4
   4  -5   8 -0.3735 0.60365   9
   4  -5   8 0.37821 1.46561  18
   4  -5   8 0.57408 1.49088   3
   4  -5   8 -1.3641 1.46817   2
   5  -5   8 58.4061 4.84006  11
   5  -5   8 58.1018 3.91608  10
   5  -5   8 55.5122 4.59927  13
   5  -5   8 66.4697 4.91165  18
   5  -5   8 62.5139 4.65663  12
   6  -5   8 14.8042 1.91500  11
   6  -5   8 15.7635 1.66963  12
   6  -5   8 14.8673 1.23232  10
   7  -5   8 -0.6586 1.18890  11
   7  -5   8 0.43768 0.83398  12
   8   4  -8 41.2195 3.38650  18
   7   4  -8 213.937 14.5182  18
   6   4  -8 53.9802 4.00666  10
   6   4  -8 51.4063 4.42635   9
   6   4  -8 48.8394 5.16058   7
   6   4  -8 59.9361 4.59586  18
   5   4  -8 73.1160 5.55196   9
   5   4  -8 70.3455 4.74319  10
   5   4  -8 68.9828 6.06990   7
   5   4  -8 70.6421 7.01769   3
   5   4  -8 70.2028 4.81872   8
   5   4  -8 73.4076 6.62424   2
   4   4  -8 72.4770 5.73263   7
   4   4  -8 65.3090 5.26454   9
   4   4  -8 65.0048 6.23755   2
   4   4  -8 70.1343 6.64889   3
   4   4  -8 71.4365 4.71327   8
   3   4  -8 35.4616 4.52791   3
   3   4  -8 40.4370 3.70107   7
   3   4  -8 33.9094 3.98398   2
   2   4  -8 6.39425 2.00727   7
   2   4  -8 2.92254 2.11067   3
   2   4  -8 3.35592 2.20109   2
   1   4  -8 1.31140 1.56391   1
  -1  -4   8 2.06631 1.84715   2
  -1  -4   8 2.30794 2.07350   3
  -1  -4   8 0.53908 1.93588   1
   0  -4   8 26.4827 3.05065   2
   0  -4   8 24.6034 3.25646   3
   1  -4   8 135.318 9.46923   2
   1  -4   8 131.555 9.76883   3
   1  -4   8 130.234 9.34718   5
   1  -4   8 126.711 9.35731   4
   2  -4   8 2.96396 1.93998   2
   2  -4   8 4.10775 0.70304   8
   2  -4   8 3.11994 2.08144   3
   2  -4   8 4.62734 1.92033   5
   2  -4   8 3.62518 1.80967   4
   3  -4   8 9.34096 1.51327  18
   3  -4   8 7.75173 1.23128  12
   3  -4   8 7.45724 1.12630   9
   3  -4   8 4.78661 2.05161   5
   3  -4   8 8.04219 2.42736   4
   3  -4   8 7.40051 1.30232  13
   3  -4   8 5.94671 2.63849   3
   3  -4   8 7.94765 1.14937  10
   3  -4   8 6.85499 2.08971   2
   3  -4   8 6.34367 1.18802  11
   4  -4   8 73.6978 5.00021  18
   4  -4   8 69.2526 4.36001  10
   4  -4   8 69.0672 5.43878   2
   4  -4   8 67.2329 4.95745   9
   4  -4   8 49.8447 5.66107   3
   4  -4   8 65.1587 4.94780  13
   4  -4   8 62.3637 5.13587  11
   4  -4   8 76.0133 4.93303  12
   4  -4   8 74.6325 6.37865   4
   5  -4   8 -0.4545 1.26698  11
   5  -4   8 1.58621 1.36396  12
   5  -4   8 0.51810 0.92451  10
   5  -4   8 -0.3351 1.50175  18
   6  -4   8 10.0504 1.03254  10
   6  -4   8 7.41460 1.39367  18
   6  -4   8 8.66827 1.62037  12
   6  -4   8 8.50804 1.30956  11
   7  -4   8 41.0745 3.15759  11
   7  -4   8 39.1074 3.00141  12
   9   3  -8 0.40941 0.88441  18
   8   3  -8 7.21911 1.43956  18
   7   3  -8 10.0477 1.18784   9
   7   3  -8 9.19803 1.15321  17
   7   3  -8 10.1292 1.32651  10
   7   3  -8 9.82062 2.04629  18
   6   3  -8 2.36039 0.94658   9
   6   3  -8 4.88548 2.91505   7
   6   3  -8 3.74029 1.10639  10
   6   3  -8 4.05913 1.25056  18
   6   3  -8 2.22545 1.10068  17
   5   3  -8 12.6284 3.00025   2
   5   3  -8 17.5378 1.57683   8
   5   3  -8 19.2842 2.14027   9
   5   3  -8 19.3395 1.88733  17
   5   3  -8 23.2090 3.13227   7
   5   3  -8 14.4731 3.22131   3
   5   3  -8 20.8246 1.81412  10
   4   3  -8 2.24954 2.00312   3
   4   3  -8 0.37011 0.96662   9
   4   3  -8 -1.9646 1.99241   7
   4   3  -8 0.89085 0.73377   8
   4   3  -8 1.23783 0.87307  17
   4   3  -8 1.90585 1.86283   2
   3   3  -8 35.6636 4.13171   2
   3   3  -8 31.6367 3.82545   7
   3   3  -8 32.8875 4.13112   3
   2   3  -8 32.8966 3.63248   3
   2   3  -8 30.5954 3.50169   2
   2   3  -8 26.7245 3.49847   1
  -2  -3   8 22.8994 3.69738   1
   1   3  -8 1.38433 2.14609   2
  -1  -3   8 0.87288 1.72874   1
  -1  -3   8 1.53186 1.69486   3
  -1  -3   8 0.29373 1.69504   2
  -1  -3   8 1.56257 1.64483   1
   0   3  -8 411.649 33.8803   1
   0  -3   8 514.093 32.9939   3
   0  -3   8 518.040 32.0528   4
   0  -3   8 522.956 31.9059   2
   0  -3   8 447.768 33.7737   1
   1  -3   8 525.090 36.7640   3
   1  -3   8 549.357 35.5850   2
   1  -3   8 549.037 35.8942   4
   2  -3   8 242.195 17.0152   4
   2  -3   8 256.473 17.5270   3
   2  -3   8 248.411 16.7787   5
   2  -3   8 244.966 16.8181   2
   3  -3   8 245.782 15.0287  10
   3  -3   8 258.880 17.4439   4
   3  -3   8 233.259 17.1106  11
   3  -3   8 246.208 16.7104  18
   3  -3   8 258.239 15.9861   8
   3  -3   8 241.503 17.3377   9
   3  -3   8 244.328 16.1254  12
   3  -3   8 274.332 17.0309   2
   3  -3   8 249.376 17.0879   5
   3  -3   8 252.420 17.7618   3
   4  -3   8 518.222 32.7559   2
   4  -3   8 488.742 32.8574  18
   4  -3   8 507.994 33.8113  11
   4  -3   8 439.073 33.9789   3
   4  -3   8 470.567 33.5659   4
   4  -3   8 531.642 29.6898  10
   4  -3   8 463.407 31.7659  12
   4  -3   8 541.717 34.2415   9
   5  -3   8 11.5556 1.31865  10
   5  -3   8 10.5815 1.20097   9
   5  -3   8 10.7085 1.61568  11
   5  -3   8 9.73068 1.77878  18
   5  -3   8 11.5101 1.75045  12
   6  -3   8 3.71301 1.05250  11
   6  -3   8 3.40659 1.44927  12
   6  -3   8 4.09303 0.88541  10
   6  -3   8 3.65393 1.50579  18
   7  -3   8 0.59617 1.06383  12
   7  -3   8 0.44436 0.88568  11
   9   2  -8 5.37774 1.18435  18
   8   2  -8 3.86891 0.90427  17
   8   2  -8 4.91411 1.83892  18
   7   2  -8 17.0318 1.71624  17
   7   2  -8 14.2777 2.29639  18
   7   2  -8 14.4773 1.54663   9
   7   2  -8 15.3427 1.72336  10
   7   2  -8 15.8118 1.85296  16
   6   2  -8 190.608 11.3174  17
   6   2  -8 193.609 12.9746   9
   6   2  -8 197.466 12.6132  18
   6   2  -8 176.704 12.9804   2
   6   2  -8 162.098 13.6656   3
   6   2  -8 173.841 11.6952  16
   6   2  -8 188.125 11.2653  10
   5   2  -8 92.0491 5.77017  10
   5   2  -8 94.3002 5.80404  17
   5   2  -8 87.9173 5.93719   8
   5   2  -8 86.2405 6.69419   9
   5   2  -8 88.8588 7.25530   7
   5   2  -8 103.913 7.48518   2
   4   2  -8 25.6436 3.15206   2
   4   2  -8 21.1645 1.80131   8
   4   2  -8 20.8841 2.80547   7
   3   2  -8 1077.76 69.2695   2
   3   2  -8 1049.42 67.7859   7
   2   2  -8 40.0727 4.27578   1
   2   2  -8 50.9805 4.90786   3
   2   2  -8 45.8713 4.21004   2
  -2  -2   8 28.4994 4.24803   1
   1   2  -8 63.9718 6.00602   1
   1   2  -8 85.7083 6.34402   2
   1   2  -8 74.1896 6.57707   1
   1   2  -8 72.4128 6.44703   3
  -1  -2   8 57.3402 5.87518   1
  -1  -2   8 76.5272 5.98288   3
  -1  -2   8 58.7534 5.49048   2
   0  -2   8 436.685 28.1472   3
   0  -2   8 344.970 28.7573   1
   0  -2   8 440.942 27.2242   4
   0  -2   8 417.048 27.1615   2
   1  -2   8 83.5636 6.27884   2
   1  -2   8 77.1823 5.84295   4
   1  -2   8 73.6685 6.31284   3
   2  -2   8 76.6463 6.29991   3
   2  -2   8 71.0111 5.90358   4
   2  -2   8 77.0990 6.06449   2
   3  -2   8 19.1639 2.73572   5
   3  -2   8 21.6154 3.66813   3
   3  -2   8 19.7094 2.04965   9
   3  -2   8 23.9187 1.92879  10
   3  -2   8 26.7931 3.27728   4
   3  -2   8 20.3618 2.25295  18
   3  -2   8 20.7229 2.92083   2
   3  -2   8 23.6196 2.16215  12
   3  -2   8 19.0714 2.09421  11
   3  -2   8 23.4984 1.71233   8
   4  -2   8 4.79593 1.37076  18
   4  -2   8 1.96734 2.51816   4
   4  -2   8 7.94132 1.18306  10
   4  -2   8 6.60952 1.36288  12
   4  -2   8 6.46328 2.51259   2
   4  -2   8 6.84604 1.09173   9
   4  -2   8 5.21210 2.94793   3
   4  -2   8 3.55006 1.17781  11
   5  -2   8 0.19839 1.25815  11
   5  -2   8 1.67871 0.87077  10
   5  -2   8 0.52967 1.32596  18
   5  -2   8 0.98079 0.72716   9
   5  -2   8 1.53998 1.00658  12
   6  -2   8 2.24006 0.80655  10
   6  -2   8 1.29990 1.31295  12
   6  -2   8 1.77270 0.97547  11
   7  -2   8 10.9849 1.35053  11
   7  -2   8 8.77352 1.21151  12
   9   1  -8 31.4647 2.37047  17
   9   1  -8 40.6500 3.33630  18
   8   1  -8 37.4299 2.59450  10
   8   1  -8 37.9068 2.98773  17
   8   1  -8 36.8211 3.25407  16
   8   1  -8 43.2380 3.83044  18
   7   1  -8 4.46517 1.29600  17
   7   1  -8 7.71572 1.60213  16
   7   1  -8 6.29785 1.11721  10
   7   1  -8 9.05830 1.91544  18
   6   1  -8 21.1018 3.40320   3
   6   1  -8 29.1764 2.52921   9
   6   1  -8 29.1965 2.49602  17
   6   1  -8 28.7529 2.60614  16
   6   1  -8 31.7320 2.40694  10
   6   1  -8 26.3859 3.27173   2
   6   1  -8 19.9962 3.57277   7
   6   1  -8 30.3767 3.17129  18
   5   1  -8 48.3833 3.91480   9
   5   1  -8 48.6791 3.46323  10
   5   1  -8 50.8675 5.00679   3
   5   1  -8 50.3380 3.46889  17
   5   1  -8 44.5167 3.52498  16
   5   1  -8 48.3126 4.00610  18
   5   1  -8 58.7283 5.00198   7
   5   1  -8 52.6181 4.82319   2
   5   1  -8 55.5131 4.65469  15
   4   1  -8 109.823 9.18913   3
   4   1  -8 129.031 8.86137   2
   4   1  -8 120.395 7.81349   8
   4   1  -8 119.044 8.87110   7
   3   1  -8 8.34035 2.51577   3
   3   1  -8 10.7891 2.49381   2
   3   1  -8 6.62253 2.46286   7
   3   1  -8 16.4578 3.49916   6
   2   1  -8 83.2002 7.09750   3
   2   1  -8 86.0450 7.09125   6
   2   1  -8 77.2597 7.24603   1
   2   1  -8 88.6972 7.00432   2
   1   1  -8 5.75260 2.78127   2
   1   1  -8 2.47825 2.49282   3
   1   1  -8 5.22262 1.94206   6
   1   1  -8 6.42618 2.81147   1
   1   1  -8 3.02609 1.86950   1
  -1  -1   8 5.44056 2.00592   3
  -1  -1   8 4.75890 1.70563   2
  -1  -1   8 2.27874 2.37781   1
   0   1  -8 22.3612 3.56533   2
   0   1  -8 13.8584 2.69653   1
   0  -1   8 16.9432 2.44773   2
   0  -1   8 20.1001 2.75841   3
   0  -1   8 14.5448 2.50732   1
   0  -1   8 17.6465 1.95102   4
   1  -1   8 8.36217 2.04330   2
   1  -1   8 9.35678 2.14778   3
   1  -1   8 8.42430 1.73469   4
   2  -1   8 2.58994 1.95353   2
   2  -1   8 4.56278 1.96538   4
   2  -1   8 3.77341 2.61100   3
   3  -1   8 0.19275 0.77026   9
   3  -1   8 -2.2298 1.91300   2
   3  -1   8 -1.8956 1.90911   4
   3  -1   8 -0.0351 0.69365   8
   3  -1   8 -0.1164 0.85090  10
   3  -1   8 -5.4420 2.79147   3
   4  -1   8 9.57901 1.46760  12
   4  -1   8 5.89961 3.26553   3
   4  -1   8 10.3884 2.87895   4
   4  -1   8 8.30807 0.73807   8
   4  -1   8 8.31761 1.27663   9
   4  -1   8 9.06571 2.48939   2
   4  -1   8 8.09841 1.15259  10
   4  -1   8 11.7198 1.41007  11
   5  -1   8 9.89271 1.23216   9
   5  -1   8 12.8020 1.44604  12
   5  -1   8 9.06355 1.28845  11
   5  -1   8 7.67081 1.20100  10
   6  -1   8 22.1948 2.10957  12
   6  -1   8 21.4764 1.85631  10
   6  -1   8 22.7854 2.51888  11
   7  -1   8 25.2671 2.22899  11
   7  -1   8 29.8841 1.84774  10
   9   0  -8 1.48863 1.11933  18
   8   0  -8 5.70922 0.74174  10
   8   0  -8 4.18820 1.66104  16
   8   0  -8 5.37412 1.80667  18
   8   0  -8 4.96146 1.35824  17
   7   0  -8 -0.1000 1.24190  17
   7   0  -8 -1.3232 1.58920  18
   7   0  -8 0.11760 1.43522  16
   7   0  -8 -2.0186 0.92510  10
   6   0  -8 3.48107 1.99608   3
   6   0  -8 0.99348 0.87586  10
   6   0  -8 -0.5827 1.41779  18
   6   0  -8 -1.0437 1.57797  15
   6   0  -8 0.58173 1.14017  16
   6   0  -8 -1.1659 1.36681   2
   6   0  -8 -0.0743 0.58727   9
   6   0  -8 -0.6140 2.99047   7
   6   0  -8 -0.8133 1.09784  17
   5   0  -8 4.67349 1.96340  15
   5   0  -8 5.38471 1.05848   9
   5   0  -8 5.93670 1.16044  17
   5   0  -8 6.33145 1.22146  16
   5   0  -8 5.40383 1.96021   2
   5   0  -8 4.78858 1.29625  18
   5   0  -8 5.60619 0.89460  10
   5   0  -8 5.08399 2.72151   7
   5   0  -8 4.28050 2.43495   3
   4   0  -8 18.7047 2.67817   7
   4   0  -8 23.1904 4.64875   6
   4   0  -8 18.7414 2.90080   3
   4   0  -8 22.1689 2.70454   2
   4   0  -8 16.2960 2.23713   9
   3   0  -8 11.8858 2.34322   7
   3   0  -8 8.13026 2.53512   3
   3   0  -8 17.9878 3.54303   6
   3   0  -8 15.2167 2.65691   2
   2   0  -8 83.2674 7.04020   6
   2   0  -8 80.4808 6.69588   3
   2   0  -8 79.4974 6.96433   2
   1   0  -8 -1.7969 2.44272   3
   1   0  -8 0.06143 1.77870   6
   1   0  -8 -3.8066 2.53092   1
   1   0  -8 2.11618 2.76279   2
  -1   0   8 -1.0407 2.18471   1
   0   0  -8 139.795 10.8870   3
   0   0  -8 140.905 11.0489   2
   0   0   8 148.985 10.6100   3
   0   0   8 144.914 10.1934   2
   1   0   8 41.3108 4.32849   2
   1   0   8 47.3449 3.86775   4
   1   0   8 50.2771 5.05490   3
   2   0   8 97.0959 8.31991   3
   2   0   8 98.9349 6.72215   8
   2   0   8 109.560 7.71890   4
   3   0   8 23.4199 2.10769  10
   3   0   8 14.1885 3.95443   3
   3   0   8 20.4145 3.15564   4
   3   0   8 24.3816 1.89075   8
   3   0   8 22.5637 2.22197   9
   3   0   8 17.7346 3.00832   2
   4   0   8 2.29394 1.04743  10
   4   0   8 2.66661 2.55190   2
   4   0   8 1.96414 0.62867   8
   4   0   8 1.53831 1.11941   9
   4   0   8 -0.4912 1.09546  11
   4   0   8 -0.2814 2.62189   4
   5   0   8 23.2158 2.57417  12
   5   0   8 22.4818 2.12793  10
   5   0   8 20.0426 2.11065   9
   5   0   8 22.0998 2.53011  11
   6   0   8 4.37027 1.03258  11
   6   0   8 4.56525 1.01208  10
   6   0   8 6.15563 1.03674  12
   7   0   8 46.7923 2.93325  10
   9  -1  -8 0.26179 1.00514  18
   8  -1  -8 -2.0102 1.70256  18
   8  -1  -8 -0.0653 1.13737  16
   8  -1  -8 0.34056 0.87436  17
   7  -1  -8 2.44910 1.61822  18
   7  -1  -8 4.83104 2.75548  15
   7  -1  -8 2.81209 1.31332  17
   7  -1  -8 4.71829 1.59089  16
   7  -1  -8 2.39387 0.72445  10
   6  -1  -8 23.8695 4.04646   7
   6  -1  -8 20.0137 2.96464  15
   6  -1  -8 22.6275 2.26452  17
   6  -1  -8 17.5569 2.03845  16
   6  -1  -8 22.0536 1.84729  10
   6  -1  -8 20.9877 2.19679  18
   5  -1  -8 0.80020 0.77878   9
   5  -1  -8 -0.3244 2.09969   7
   5  -1  -8 -1.6942 3.95039   6
   5  -1  -8 3.35059 2.39128   3
   5  -1  -8 1.05753 1.18498  16
   5  -1  -8 2.06850 1.60176   2
   5  -1  -8 1.77825 1.90109  15
   5  -1  -8 1.66239 1.11223  17
   5  -1  -8 2.10397 0.91307  10
   4  -1  -8 1017.29 64.6495  10
   4  -1  -8 1029.26 73.0230   3
   4  -1  -8 1006.08 74.6342   9
   4  -1  -8 1091.09 64.5926  17
   4  -1  -8 1128.62 73.3180   6
   4  -1  -8 1183.04 70.6812   2
   4  -1  -8 1165.03 69.4392   7
   3  -1  -8 17.6220 3.16621   2
   3  -1  -8 17.8618 2.89968   7
   3  -1  -8 17.6481 3.39664   6
   3  -1  -8 15.4886 2.91848   3
   2  -1  -8 2.34505 2.08331   3
   2  -1  -8 2.03248 2.73008   2
   2  -1  -8 3.54793 2.73903   6
   1  -1  -8 233.196 19.2505   1
   1  -1  -8 261.253 18.1450   6
   1  -1  -8 270.194 18.2271   2
   1  -1  -8 273.512 18.4651   3
   0  -1  -8 62.7082 6.77931   2
   0  -1  -8 66.1265 6.21356   3
   0  -1  -8 69.0423 5.75705   6
   1   1   8 28.7244 3.09915   4
   1   1   8 25.8523 3.74068   3
   2   1   8 16.5728 2.11644   9
   2   1   8 23.8880 3.03324   4
   2   1   8 18.0844 1.65412   8
   2   1   8 18.4250 3.71743   3
   3   1   8 28.6482 2.15353   8
   3   1   8 15.5230 3.74972   3
   3   1   8 24.6218 3.45038   4
   4   1   8 5.21757 1.25407  10
   4   1   8 6.39370 3.05981   4
   4   1   8 6.59159 1.38953   9
   4   1   8 6.82226 0.87265   8
   4   1   8 6.76496 1.07820  11
   5   1   8 64.5035 4.52496  12
   5   1   8 56.9625 4.13029  10
   5   1   8 61.7029 4.70260  11
   5   1   8 58.5585 4.56759   9
   6   1   8 2.83788 1.08233  12
   6   1   8 2.43612 0.70601  10
   6   1   8 1.21189 1.08841  11
   9  -2  -8 13.7137 1.81695  16
   9  -2  -8 9.09490 1.22544  18
   8  -2  -8 98.9900 6.50006  16
   8  -2  -8 93.0566 7.00286  18
   8  -2  -8 100.606 6.22251  17
   7  -2  -8 65.7010 5.20212  16
   7  -2  -8 68.3810 6.44409  15
   7  -2  -8 77.4314 4.82302  17
   7  -2  -8 63.1871 5.28730  18
   7  -2  -8 70.3218 4.29526  10
   6  -2  -8 0.43637 1.63469  15
   6  -2  -8 1.95002 1.25818  17
   6  -2  -8 0.50503 0.71680  10
   6  -2  -8 2.11421 2.60991   7
   6  -2  -8 -0.5155 1.39148  16
   5  -2  -8 51.7674 3.59849  10
   5  -2  -8 60.9111 6.86417   6
   5  -2  -8 55.5469 3.73076  17
   5  -2  -8 55.3158 5.51200   7
   5  -2  -8 53.7525 4.10178   2
   5  -2  -8 51.1389 4.83230  15
   5  -2  -8 49.7048 3.79113   9
   5  -2  -8 48.7310 3.93994  16
   5  -2  -8 55.9334 5.73933  14
   5  -2  -8 47.9010 4.56354   3
   4  -2  -8 19.4074 2.81612  14
   4  -2  -8 20.3792 2.20172  16
   4  -2  -8 16.4036 3.01043   7
   4  -2  -8 16.4919 2.81041   3
   4  -2  -8 18.5421 2.19874   9
   4  -2  -8 21.8560 2.03437  17
   4  -2  -8 18.5529 1.92630  10
   4  -2  -8 20.4629 2.90098   2
   4  -2  -8 20.1254 2.41160  15
   4  -2  -8 26.6573 5.14458   6
   3  -2  -8 -0.2206 2.88534   6
   3  -2  -8 0.30825 2.33198   3
   3  -2  -8 1.79396 2.52857   2
   3  -2  -8 1.78194 2.18242   7
   2  -2  -8 26.7728 3.79752   6
   2  -2  -8 30.8278 4.09414   2
   2  -2  -8 27.0208 3.77950   3
   1  -2  -8 405.847 27.8945   6
   1  -2  -8 396.743 27.4261   2
   1  -2  -8 409.477 28.1400   3
   0  -2  -8 72.3746 7.15365   3
   0  -2  -8 74.3919 7.36671   2
   0  -2  -8 75.2094 6.72679   6
   2   2   8 -0.0160 0.83479   8
   2   2   8 3.47178 2.32969   4
   2   2   8 -1.8468 2.37157   3
   3   2   8 0.27378 2.53359   4
   3   2   8 5.78883 1.51062   9
   3   2   8 2.19593 0.87581   8
   3   2   8 1.20710 3.08593   3
   4   2   8 7.39150 1.40216  10
   4   2   8 6.69412 0.85030   8
   4   2   8 6.13269 1.39379  11
   5   2   8 0.80260 0.89653  12
   5   2   8 0.16930 1.24878   9
   5   2   8 0.98847 1.17483  10
   5   2   8 0.64293 1.18740  11
   6   2   8 19.3470 1.57924   9
   6   2   8 24.0896 1.97600  12
   6   2   8 21.3714 2.07916  11
   6   2   8 24.7169 1.87005  10
   9  -3  -8 9.32744 1.33178  16
   9  -3  -8 6.98679 1.35945  17
   8  -3  -8 31.0737 2.82550  17
   8  -3  -8 33.1389 3.10147  16
   7  -3  -8 5.79934 2.81144  15
   7  -3  -8 -0.9356 1.60794  16
   7  -3  -8 -1.2972 1.32524  17
   6  -3  -8 -3.4379 4.98806   6
   6  -3  -8 1.05232 1.57573  16
   6  -3  -8 1.73504 2.47797  15
   6  -3  -8 0.45178 1.26611  17
   6  -3  -8 2.30218 0.74215  10
   6  -3  -8 1.73999 3.02229   7
   5  -3  -8 3.24067 2.53203  14
   5  -3  -8 2.66351 1.47924  15
   5  -3  -8 1.44427 4.49710   6
   5  -3  -8 1.77202 0.91490  10
   5  -3  -8 1.92606 1.18308  17
   5  -3  -8 2.13163 2.10711   7
   5  -3  -8 2.44546 1.41711  16
   4  -3  -8 -0.0866 1.04064  17
   4  -3  -8 -1.1994 3.65566   6
   4  -3  -8 -0.2439 1.66375   7
   4  -3  -8 1.28853 0.98663  10
   4  -3  -8 1.47340 2.31341   2
   4  -3  -8 -2.5056 2.18257   3
   4  -3  -8 -1.6419 1.70293  15
   4  -3  -8 1.11523 1.26153  16
   4  -3  -8 1.04799 0.93282   9
   4  -3  -8 1.17995 2.12202  14
   3  -3  -8 6.65217 0.83598   8
   3  -3  -8 7.83811 1.45555  10
   3  -3  -8 11.1538 3.55980   6
   3  -3  -8 6.76227 2.17271   7
   3  -3  -8 5.44517 1.51098   9
   3  -3  -8 5.82991 1.40582  16
   3  -3  -8 5.84261 3.18945   2
   3  -3  -8 9.25399 2.72499   3
   3  -3  -8 5.99487 2.07743  14
   2  -3  -8 7.68945 3.09898   3
   2  -3  -8 9.00650 3.70575   6
   2  -3  -8 3.21004 3.14655   2
   2  -3  -8 8.09276 1.16333   8
   1  -3  -8 4.50800 3.24542   3
   1  -3  -8 4.80169 3.38055   2
   1  -3  -8 2.63496 3.12320   6
   0  -3  -8 112.444 8.79879   6
   0  -3  -8 116.034 9.54766   2
   0  -3  -8 101.423 9.17604   3
   0  -3  -8 105.860 7.45287   8
   2   3   8 231.534 15.0642   8
   3   3   8 59.7295 4.63972   9
   3   3   8 53.7216 3.95323   8
   4   3   8 -0.4666 0.78235   8
   5   3   8 47.5914 3.62902  12
   5   3   8 54.5539 4.00516   9
   5   3   8 51.6179 3.60469  10
   6   3   8 33.7250 2.36467  10
   9  -4  -8 0.26664 0.99863  16
   9  -4  -8 -0.8393 0.75797  17
   8  -4  -8 1.91324 2.03267  15
   8  -4  -8 3.41954 1.18842  16
   8  -4  -8 4.18030 1.05150  17
   7  -4  -8 -1.6790 0.85735  17
   7  -4  -8 0.48027 1.17239  16
   7  -4  -8 3.10392 2.77576  15
   6  -4  -8 24.0653 6.38628   6
   6  -4  -8 28.8375 3.34615  14
   6  -4  -8 26.9783 2.55723  17
   6  -4  -8 26.9439 3.55244  15
   6  -4  -8 28.5236 1.98874  10
   6  -4  -8 24.4712 2.68951  16
   5  -4  -8 51.8186 5.04365  15
   5  -4  -8 53.3235 5.77106  14
   5  -4  -8 50.0610 3.59110  10
   5  -4  -8 53.2752 7.15287   6
   5  -4  -8 50.6159 3.72819  17
   5  -4  -8 55.9742 4.22947  16
   4  -4  -8 50.6394 4.46077  15
   4  -4  -8 54.7030 5.09276  14
   4  -4  -8 45.1677 3.32913  17
   4  -4  -8 47.4692 3.77151   9
   4  -4  -8 43.9962 4.58927   2
   4  -4  -8 35.7114 4.76943   3
   4  -4  -8 43.5571 3.34044  10
   4  -4  -8 51.5679 3.82340  16
   4  -4  -8 50.2280 6.42241   6
   3  -4  -8 17.1997 3.38686   3
   3  -4  -8 23.8272 5.22556   6
   3  -4  -8 15.2475 1.24191   8
   3  -4  -8 18.2811 2.11131  10
   3  -4  -8 15.6310 3.43662   2
   3  -4  -8 16.6901 2.24709  15
   3  -4  -8 20.6706 2.53364  14
   3  -4  -8 16.1033 2.00081   9
   3  -4  -8 15.5522 1.93794  16
   2  -4  -8 65.6403 6.66709   3
   2  -4  -8 65.2231 4.89059  10
   2  -4  -8 80.6984 4.85024   8
   2  -4  -8 71.9697 5.75487   9
   2  -4  -8 73.6364 7.47054   6
   2  -4  -8 58.1806 5.31424  15
   2  -4  -8 68.9244 7.07045   2
   1  -4  -8 35.2490 4.94262   6
   1  -4  -8 19.9954 2.65173   9
   1  -4  -8 23.5101 4.45435   2
   1  -4  -8 26.3812 2.49126   8
   1  -4  -8 23.1889 3.88010   3
   0  -4  -8 91.1644 8.53818   6
   0  -4  -8 88.0293 6.16479   8
  -1  -4  -8 103.549 7.17583   8
   2   4   8 6.32274 1.17994   8
   3   4   8 3.34960 1.01200   8
   4   4   8 6.77624 0.85993   8
   5   4   8 19.1082 1.89690  12
   5   4   8 20.0238 2.06409   9
   9  -5  -8 125.463 8.00069  16
   8  -5  -8 214.346 13.6596  15
   8  -5  -8 182.452 11.9518  17
   7  -5  -8 25.6831 2.94999  16
   7  -5  -8 25.1143 2.28754  17
   7  -5  -8 19.6632 3.43273  15
   6  -5  -8 13.8807 3.23193  14
   6  -5  -8 11.7854 3.07256  15
   6  -5  -8 10.6794 1.52119  17
   6  -5  -8 13.1183 1.75126  16
   6  -5  -8 13.5424 1.05058  10
   5  -5  -8 19.7438 2.05778  10
   5  -5  -8 17.1711 5.99029   6
   5  -5  -8 22.7700 3.28288  14
   5  -5  -8 20.0584 2.06189  17
   5  -5  -8 17.6020 2.41176  16
   5  -5  -8 20.7170 3.05511  15
   4  -5  -8 2.90713 4.73928   6
   4  -5  -8 3.85521 1.71452  14
   4  -5  -8 1.50140 1.98788   3
   4  -5  -8 0.99612 1.61092  16
   4  -5  -8 2.19954 1.57615  15
   4  -5  -8 3.06114 0.96546   9
   4  -5  -8 2.76282 2.27672   2
   3  -5  -8 10.5609 2.19181  15
   3  -5  -8 11.0867 1.96676  10
   3  -5  -8 11.4170 1.81637   9
   3  -5  -8 10.7932 2.28442  14
   3  -5  -8 14.4771 3.22430   3
   3  -5  -8 8.46069 3.39585   2
   3  -5  -8 13.0410 1.61055  16
   3  -5  -8 9.57645 4.44208   6
   2  -5  -8 59.8767 4.72593   9
   2  -5  -8 48.5956 6.41284   3
   2  -5  -8 52.3722 4.65132  15
   2  -5  -8 57.9085 3.91798   8
   2  -5  -8 39.6468 5.78009   2
   2  -5  -8 65.1449 7.34451   6
   2  -5  -8 56.3375 4.20293  10
   1  -5  -8 22.9783 2.75774   9
   1  -5  -8 26.3242 2.26081   8
   1  -5  -8 23.3720 2.85790  15
   1  -5  -8 15.9613 4.57279   3
   1  -5  -8 22.7650 4.60915   6
   1  -5  -8 24.1793 2.42060  10
   1  -5  -8 22.3587 4.75627   2
   0  -5  -8 24.0277 5.20390   6
   0  -5  -8 23.9569 2.46955   8
  -1  -5  -8 43.8763 3.80412   8
  -2  -5  -8 33.0360 3.27125   8
   2   5   8 36.8553 2.84603   8
   3   5   8 24.6723 2.10954   8
   4   5   8 0.68778 0.70050   8
   5   5   8 3.66689 0.87160   9
   8  -6  -8 7.62251 2.05964  15
   8  -6  -8 5.41841 1.19534  16
   7  -6  -8 3.71703 2.83961  15
   7  -6  -8 2.48573 1.21651  16
   6  -6  -8 42.2012 3.58597  16
   6  -6  -8 43.7406 5.43933  14
   6  -6  -8 50.0694 5.23358  15
   5  -6  -8 0.92230 2.68759  14
   5  -6  -8 0.10175 1.81943  16
   5  -6  -8 -0.7725 1.81021  15
   5  -6  -8 -1.0634 0.96276  10
   4  -6  -8 7.32987 2.61410  14
   4  -6  -8 11.2447 1.20327   9
   4  -6  -8 17.6316 6.41550   6
   4  -6  -8 12.3284 2.09847  16
   4  -6  -8 14.5535 2.66116  15
   3  -6  -8 -2.6605 1.80950  16
   3  -6  -8 3.12901 4.67122   6
   3  -6  -8 3.51407 3.12748   2
   3  -6  -8 -0.3668 1.98034  14
   3  -6  -8 -0.8527 1.42538  10
   3  -6  -8 1.60852 2.09521  15
   3  -6  -8 -1.0279 1.46608   9
   2  -6  -8 29.0606 3.40641  15
   2  -6  -8 30.6617 5.55980   6
   2  -6  -8 27.6027 2.96841  10
   2  -6  -8 23.3406 2.81226   9
   2  -6  -8 29.5379 2.13063   8
   2  -6  -8 18.2614 4.24099   3
   2  -6  -8 22.3571 4.66403   2
   1  -6  -8 -0.3987 1.62386   9
   1  -6  -8 0.44098 1.75248  15
   1  -6  -8 2.90233 4.40988   2
   1  -6  -8 -0.5694 1.35545   8
   1  -6  -8 4.39446 4.13973   6
   1  -6  -8 -0.6199 1.65398  10
   0  -6  -8 138.161 12.8120   6
   0  -6  -8 145.127 9.72850   8
   0  -6  -8 150.590 10.8320   9
  -1  -6  -8 90.8484 6.36708   8
  -2  -6  -8 172.821 12.5318   8
   2   6   8 208.710 12.5126   8
  -3  -6  -8 9.51223 1.74767   8
   3   6   8 9.46199 1.18612   8
   4   6   8 114.166 7.89216   9
   4   6   8 108.289 7.17228   8
   8  -7  -8 10.8098 1.22933  16
   8  -7  -8 8.51871 1.96936  15
   7  -7  -8 40.3704 3.44838  16
   7  -7  -8 38.9128 4.60061  15
   6  -7  -8 11.5166 3.14058  15
   6  -7  -8 19.6073 2.03721  16
   6  -7  -8 19.5907 2.66092  14
   5  -7  -8 40.9565 4.74413  15
   5  -7  -8 29.4022 3.88103  14
   5  -7  -8 35.0383 2.65230  10
   5  -7  -8 31.7272 3.49479  16
   4  -7  -8 3.82350 2.43945  14
   4  -7  -8 2.71104 2.57494  15
   4  -7  -8 0.22938 1.80419  16
   3  -7  -8 108.106 8.25543   9
   3  -7  -8 112.041 8.59046  15
   3  -7  -8 114.347 7.36397  10
   3  -7  -8 118.145 7.79868  16
   2  -7  -8 0.54124 1.54309   9
   2  -7  -8 3.00765 2.14404  15
   2  -7  -8 2.17377 5.40569   6
   2  -7  -8 0.97183 1.93368  16
   2  -7  -8 1.55667 1.64468  10
   1  -7  -8 0.16462 1.71556   9
   1  -7  -8 1.65630 1.65993  10
   1  -7  -8 1.32166 1.39233  15
   1  -7  -8 1.47060 1.07435   8
   0  -7  -8 110.484 7.87222   8
   0  -7  -8 125.004 8.91311   9
  -1  -7  -8 2.06100 1.40235   8
  -2  -7  -8 15.1308 1.97110   8
   2   7   8 18.6010 1.56864   8
  -3  -7  -8 5.26438 1.35870   8
   3   7   8 6.23326 0.90405   8
   7  -8  -8 15.9781 1.74933  16
   7  -8  -8 17.0496 2.27260  15
   6  -8  -8 34.8326 2.99502  16
   6  -8  -8 29.3703 3.57916  15
   6  -8  -8 23.8940 3.32517  14
   5  -8  -8 15.5403 2.22589  16
   5  -8  -8 16.4197 1.49271  10
   5  -8  -8 16.0355 2.92677  14
   5  -8  -8 15.8956 2.47031  15
   4  -8  -8 36.6880 4.34034  14
   4  -8  -8 38.1685 3.85346  15
   4  -8  -8 40.2911 3.63299  16
   3  -8  -8 118.266 8.35953  16
   3  -8  -8 125.048 7.97399  10
   3  -8  -8 124.363 9.30003  15
   3  -8  -8 128.707 8.82737   9
   2  -8  -8 9.45479 1.98073  15
   2  -8  -8 15.2811 2.16406  16
   2  -8  -8 12.4060 1.92349  10
   2  -8  -8 10.7214 1.76713   9
   1  -8  -8 -0.1327 0.52856   8
   1  -8  -8 -1.7678 1.58919  10
   1  -8  -8 0.01212 2.01056  15
   1  -8  -8 -1.7545 2.06574   9
   1  -8  -8 0.12218 1.66641  16
   0  -8  -8 8.55631 1.97297   9
   0  -8  -8 6.18457 1.03098   8
   0  -8  -8 7.56685 1.61435  15
  -1  -8  -8 3.06445 1.81599   9
  -1  -8  -8 3.07519 1.03353   8
  -2  -8  -8 6.44861 1.14435   8
   2   8   8 5.28506 0.79213   8
  -3  -8  -8 24.1471 1.98817   8
   3   8   8 28.3757 1.87731   8
   7  -9  -8 1.78565 1.43131  15
   6  -9  -8 9.97547 1.23666  16
   6  -9  -8 11.2024 1.93398  15
   5  -9  -8 0.23282 0.99997  16
   5  -9  -8 0.74645 2.07484  14
   5  -9  -8 1.65387 1.73175  15
   4  -9  -8 -0.3935 1.09043  10
   4  -9  -8 1.69040 1.80544  15
   4  -9  -8 -0.2153 1.10237  16
   3  -9  -8 2.42620 1.63669  16
   3  -9  -8 1.15480 2.44121  15
   3  -9  -8 3.39657 1.40147  10
   2  -9  -8 4.62310 1.23933   9
   2  -9  -8 6.41163 1.67307  15
   2  -9  -8 2.43801 1.58380  10
   2  -9  -8 2.19365 1.20902  16
   1  -9  -8 1.63378 1.03433  16
   1  -9  -8 -0.4302 1.54060  10
   1  -9  -8 -0.0150 1.38620  15
   1  -9  -8 0.93278 1.40736   9
   0  -9  -8 0.75760 1.11360   9
   0  -9  -8 0.45652 0.92072  16
  -1  -9  -8 2.89117 0.81204  16
  -1  -9  -8 3.75050 1.14852   9
  -1  -9  -8 2.72757 0.51714   8
   5 -10  -8 17.6867 2.22111  15
   4 -10  -8 232.490 13.6235  10
   4 -10  -8 222.508 15.4291  15
   3 -10  -8 48.4720 3.94192  15
   2 -10  -8 7.71338 1.45518  10
   2 -10  -8 7.00477 2.05358  15
   1 -10  -8 5.74203 1.10282   9
   1 -10  -8 5.77155 1.32490  15
   1 -10  -8 5.25366 1.42971  10
   0 -10  -8 1.40719 0.91659   9
  -2 -13   9 14.8329 1.83481  14
  -1 -13   9 0.72111 1.81568  14
   0 -13   9 4.09834 1.58677  14
   1 -13   9 0.73202 1.54286  14
   1 -13   9 0.49961 0.98240  10
   2 -13   9 14.4073 2.06462  14
   2 -13   9 17.7947 1.47151  10
   3 -13   9 11.6574 1.97083  14
   3 -13   9 11.3680 1.24615  13
  -3 -12   9 80.7689 4.93536   8
  -3 -12   9 66.5482 5.60301  14
  -2 -12   9 7.91900 0.93151   8
  -2 -12   9 8.60519 1.59108  14
  -1 -12   9 80.5148 6.38740  14
   0 -12   9 73.3093 6.39030  14
   1 -12   9 168.922 13.2208  14
   1 -12   9 188.289 10.9849  10
   1 -12   9 178.483 12.4654   9
   2 -12   9 100.380 6.93015  13
   2 -12   9 94.8466 7.90455  14
   2 -12   9 109.447 6.40128  10
   3 -12   9 39.9251 3.38215  13
   3 -12   9 49.6154 4.45687  14
   3 -12   9 49.4421 3.04609  10
   4 -12   9 0.45134 0.86272  13
  -3 -11   9 61.8715 4.98221  14
  -2 -11   9 13.8709 2.48318  14
  -2 -11   9 14.0330 1.53762   8
  -1 -11   9 5.70639 2.38394  14
  -1 -11   9 5.95533 1.00658   8
  -1 -11   9 7.74440 1.59240   9
   0 -11   9 -0.2731 1.71715  14
   0 -11   9 -0.1117 1.58716  10
   0 -11   9 1.22974 1.59529   9
   1 -11   9 1.74880 1.27928   9
   1 -11   9 3.90595 1.33255  10
   1 -11   9 3.00494 1.85232  14
   1 -11   9 4.73037 1.31548  13
   2 -11   9 6.37974 1.44195  10
   2 -11   9 5.17808 1.17729  13
   2 -11   9 3.38131 2.50830  14
   3 -11   9 38.6770 3.97560  14
   3 -11   9 33.8976 2.38253  10
   3 -11   9 31.7403 2.80461  13
   3 -11   9 30.4189 2.65220  12
   4 -11   9 2.83678 1.09635  12
   4 -11   9 3.39864 1.09730  13
   5 -11   9 34.7514 2.64309  13
   5 -11   9 30.6822 2.35662  12
   5  10  -9 1.48168 0.81431  18
   4  10  -9 7.19470 1.01368   8
  -2 -10   9 42.8211 3.24592   8
  -2 -10   9 42.7174 4.07421   9
  -1 -10   9 0.88925 1.41627   9
  -1 -10   9 2.77621 1.12476   8
   0 -10   9 58.2006 4.43749  10
   0 -10   9 61.6328 4.32296   8
   0 -10   9 71.0968 5.31831   9
   0 -10   9 64.5621 5.48796  14
   1 -10   9 1.25358 2.36493  14
   1 -10   9 0.11497 1.41846  10
   1 -10   9 -0.2296 1.27117   9
   1 -10   9 0.21944 1.30518  13
   2 -10   9 -2.3471 2.20164  14
   2 -10   9 1.77398 0.90203   9
   2 -10   9 1.59692 1.11513  10
   2 -10   9 2.08642 1.48877  13
   3 -10   9 6.05513 1.24608  10
   3 -10   9 5.16638 1.21362  12
   3 -10   9 6.89111 1.66569  13
   3 -10   9 4.30275 2.10773  14
   4 -10   9 21.3681 2.14855  12
   4 -10   9 29.2174 3.01749  13
   4 -10   9 28.6811 1.94346  10
   5 -10   9 41.3450 3.48507  13
   5 -10   9 49.2932 3.44520  12
   6 -10   9 7.94518 1.20220  13
   6 -10   9 7.14287 1.05992  12
   6   9  -9 2.34722 0.91445  18
   5   9  -9 -1.1766 1.48223  18
  -4  -9   9 -0.0547 1.13250   8
  -3  -9   9 55.1812 4.06857   8
  -2  -9   9 -0.5154 0.98531   8
  -1  -9   9 539.199 37.3241   9
   0  -9   9 58.4282 6.17661   5
   0  -9   9 68.3520 4.69647  10
   0  -9   9 72.1363 5.34667   9
   0  -9   9 69.9310 4.94198  13
   0  -9   9 70.2706 4.73594   8
   1  -9   9 443.865 30.5043   5
   1  -9   9 444.949 27.2298  10
   1  -9   9 447.809 29.1726  13
   1  -9   9 481.976 32.7599  14
   1  -9   9 450.556 31.3927   9
   2  -9   9 24.1954 4.12171   5
   2  -9   9 21.9726 2.08030  10
   2  -9   9 20.7248 2.28691   9
   2  -9   9 18.9944 2.18471  13
   2  -9   9 19.8962 2.76570  14
   3  -9   9 29.0465 2.40310  10
   3  -9   9 25.7452 3.45690  14
   3  -9   9 35.2676 3.17571  13
   3  -9   9 21.8666 2.22850  12
   4  -9   9 10.9475 1.95781  13
   4  -9   9 10.0920 1.61467  12
   4  -9   9 10.6716 1.25705  10
   5  -9   9 60.9191 4.54043  13
   5  -9   9 52.8172 4.20196  12
   6  -9   9 3.91425 0.94612  13
   6  -9   9 4.41936 1.17350  12
   7   8  -9 133.053 9.02013  18
   6   8  -9 38.6087 3.50469  18
   5   8  -9 84.4495 6.03424   8
   5   8  -9 96.1261 6.88920   9
   4   8  -9 0.55278 1.12585   8
  -2  -8   9 1.04759 1.18435   8
  -1  -8   9 475.586 31.1870   5
  -1  -8   9 438.271 31.7034   2
  -1  -8   9 521.550 30.2494   8
  -1  -8   9 442.480 32.6335   9
   0  -8   9 203.156 14.0989   5
   0  -8   9 188.425 14.0320   9
   0  -8   9 187.764 14.8038   3
   0  -8   9 201.619 12.2087  10
   0  -8   9 189.798 13.0174  13
   0  -8   9 198.680 14.3510   2
   0  -8   9 223.956 12.9724   8
   1  -8   9 12.9168 1.29201   8
   1  -8   9 12.2816 3.03556   2
   1  -8   9 13.1889 1.63689   9
   1  -8   9 11.8534 1.41074  10
   1  -8   9 8.00018 2.82966   3
   1  -8   9 13.3503 1.67558  13
   1  -8   9 15.5028 3.05135   5
   2  -8   9 99.4728 7.20494  12
   2  -8   9 94.0359 8.40769   3
   2  -8   9 109.694 8.49736  14
   2  -8   9 118.764 7.52044  13
   2  -8   9 110.314 8.91983   5
   2  -8   9 113.300 7.77608   9
   2  -8   9 113.599 6.86109  10
   2  -8   9 99.6884 8.12084   2
   3  -8   9 -0.0774 3.07247   5
   3  -8   9 2.21257 1.39639  11
   3  -8   9 -0.0614 0.69843   9
   3  -8   9 -0.3114 1.11008  10
   3  -8   9 -3.2455 1.55844  13
   3  -8   9 0.09585 1.13007  12
   4  -8   9 115.492 8.04661  12
   4  -8   9 121.265 8.14303  13
   4  -8   9 115.473 8.59639  11
   4  -8   9 122.832 7.33878  10
   5  -8   9 15.4913 1.86133  11
   5  -8   9 11.3609 1.69806  12
   5  -8   9 12.7688 2.02267  13
   6  -8   9 13.9143 1.42140  12
   6  -8   9 13.8284 1.43269  13
   6  -8   9 11.9805 1.41905  11
   7   7  -9 16.3856 1.94286  18
   6   7  -9 0.92140 1.68324  18
   6   7  -9 -0.2949 0.66885   8
   5   7  -9 9.72822 1.24363   8
   5   7  -9 7.98000 1.72035   9
   4   7  -9 91.2527 6.24996   8
   3   7  -9 0.16395 1.35094   8
  -2  -7   9 49.1363 3.59666   8
  -1  -7   9 173.327 11.2986   5
  -1  -7   9 145.218 11.5766   2
  -1  -7   9 159.643 10.2145   8
  -1  -7   9 142.034 11.9708   3
   0  -7   9 88.0200 5.41062   8
   0  -7   9 80.9536 7.25880   3
   0  -7   9 85.5341 6.65266   5
   0  -7   9 75.9624 5.96359   9
   0  -7   9 76.2469 5.20535  10
   0  -7   9 85.7438 6.98028   2
   0  -7   9 76.0005 5.51683  13
   1  -7   9 65.5780 5.33382   9
   1  -7   9 71.1096 5.01588  13
   1  -7   9 70.8687 4.69221   8
   1  -7   9 72.0239 6.18504   2
   1  -7   9 76.0553 6.27571   5
   1  -7   9 71.6926 4.60781  10
   1  -7   9 65.9005 6.06533   3
   2  -7   9 7.49677 2.72039   2
   2  -7   9 7.16525 1.12765  10
   2  -7   9 7.57646 1.33846  11
   2  -7   9 8.07239 2.60613   3
   2  -7   9 6.04048 1.08077   9
   2  -7   9 11.0466 2.84499   5
   2  -7   9 10.0831 1.55840  13
   2  -7   9 8.46067 1.75678  14
   2  -7   9 8.84052 1.19069  12
   3  -7   9 53.6238 4.03175   9
   3  -7   9 57.4243 6.25666   5
   3  -7   9 51.1844 4.51512   2
   3  -7   9 50.1807 4.03311  13
   3  -7   9 53.9778 4.00172  12
   3  -7   9 54.3900 3.71551  10
   3  -7   9 52.4114 4.27127  11
   4  -7   9 0.83455 0.97177  11
   4  -7   9 0.35329 1.32007  12
   4  -7   9 -0.1335 1.64966  13
   4  -7   9 1.50312 0.99394  10
   5  -7   9 78.1946 6.06550  11
   5  -7   9 76.7910 5.96173  13
   5  -7   9 82.6800 5.02041  10
   5  -7   9 84.0325 5.77024  12
   6  -7   9 0.21918 0.80900  13
   6  -7   9 0.23023 0.83631  12
   6  -7   9 0.59217 0.88887  11
   7  -7   9 138.519 9.60227  11
   7  -7   9 140.491 9.05186  12
   7   6  -9 31.4597 3.28916  18
   6   6  -9 37.1035 2.79548   8
   6   6  -9 49.3380 3.95817  18
   5   6  -9 19.7589 2.16039   9
   5   6  -9 17.5255 1.75824   8
   4   6  -9 1.59801 1.05020   8
   3   6  -9 21.7261 2.29454   8
  -2  -6   9 156.527 10.9535   5
  -1  -6   9 56.6482 5.95560   3
  -1  -6   9 64.0616 5.35281   5
  -1  -6   9 60.7835 4.22023   8
  -1  -6   9 56.0824 5.30674   2
   0  -6   9 357.130 22.0078   8
   0  -6   9 308.348 23.7350   9
   0  -6   9 364.043 23.1745   2
   0  -6   9 370.144 22.9965   5
   0  -6   9 319.521 23.8303   3
   1  -6   9 407.375 29.3504   3
   1  -6   9 448.699 28.3253   5
   1  -6   9 401.450 25.5218  10
   1  -6   9 401.828 29.4569   9
   1  -6   9 437.332 27.2989   8
   1  -6   9 470.262 28.4937   2
   2  -6   9 0.63665 2.05886   3
   2  -6   9 1.91350 2.12781   5
   2  -6   9 0.65883 0.94517  11
   2  -6   9 0.03553 0.87445  12
   2  -6   9 0.12692 1.10553  10
   2  -6   9 2.85535 0.51369   8
   2  -6   9 -0.5262 0.83415   9
   2  -6   9 0.50456 2.40407   2
   2  -6   9 1.37782 1.17038  13
   3  -6   9 85.7465 7.33684   5
   3  -6   9 95.4901 6.14437  13
   3  -6   9 82.5323 5.37337  10
   3  -6   9 78.9483 6.20610  11
   3  -6   9 74.9920 7.22570   4
   3  -6   9 71.9493 6.78980   3
   3  -6   9 90.6511 6.76822   2
   3  -6   9 89.1009 6.12397   9
   3  -6   9 85.2567 5.86653  12
   4  -6   9 84.3628 5.97164  11
   4  -6   9 77.4494 5.10672  10
   4  -6   9 82.5536 5.88673  13
   4  -6   9 72.3156 5.47677  12
   4  -6   9 80.1949 7.18072   4
   5  -6   9 116.427 8.71592  12
   5  -6   9 139.172 8.01405  10
   5  -6   9 136.406 9.37880  11
   5  -6   9 132.025 8.95210  13
   6  -6   9 1.62576 0.94053  12
   6  -6   9 1.22925 0.94362  11
   7  -6   9 36.3222 2.58750  12
   7  -6   9 33.0939 2.67034  11
   8   5  -9 199.981 13.4462  18
   7   5  -9 80.6660 6.16081  18
   6   5  -9 162.622 11.3655   9
   6   5  -9 177.857 10.9429  18
   6   5  -9 138.441 10.1492   8
   5   5  -9 667.814 39.6202   8
   5   5  -9 642.915 42.7679   9
   5   5  -9 605.945 37.0557  10
   5   5  -9 548.701 40.0576   7
   4   5  -9 5.75752 2.91090   2
   4   5  -9 2.30629 1.85912   7
   4   5  -9 -0.0738 2.30677   3
   4   5  -9 3.26092 1.29383   9
   4   5  -9 3.61016 1.05650   8
   3   5  -9 112.846 8.44203   7
   3   5  -9 114.597 7.66841   8
   2   5  -9 121.416 8.81342   7
  -2  -5   9 118.733 8.65704   5
  -1  -5   9 20.1555 2.76866   5
  -1  -5   9 18.2098 3.19507   3
  -1  -5   9 16.2193 2.90068   2
   0  -5   9 48.6281 4.77866   3
   0  -5   9 44.4771 4.79899   2
   0  -5   9 48.8447 4.48328   5
   1  -5   9 91.8062 7.35632   9
   1  -5   9 106.256 7.85018   2
   1  -5   9 93.6321 7.87499   3
   1  -5   9 109.065 6.70169   8
   1  -5   9 107.134 7.83356   5
   2  -5   9 23.0251 2.34552   9
   2  -5   9 29.6884 3.33997   2
   2  -5   9 22.9345 2.18214  12
   2  -5   9 25.9201 3.23076   4
   2  -5   9 29.2283 3.51576   3
   2  -5   9 25.8239 1.81953   8
   2  -5   9 23.4653 2.28708  10
   2  -5   9 20.8787 3.13558   5
   3  -5   9 16.7556 3.15558   4
   3  -5   9 20.9915 2.06511  13
   3  -5   9 17.9244 1.79505  12
   3  -5   9 16.2953 2.13749   9
   3  -5   9 23.6437 3.35008   3
   3  -5   9 20.9046 2.08702  10
   3  -5   9 21.0620 3.07771   2
   3  -5   9 10.0366 2.75215   5
   3  -5   9 17.6755 2.23147  11
   4  -5   9 98.7980 6.16774  10
   4  -5   9 99.0107 6.94914  13
   4  -5   9 99.5939 6.82985  12
   4  -5   9 91.3408 8.12778   4
   4  -5   9 100.203 7.19165  11
   4  -5   9 98.0110 6.94429   9
   5  -5   9 -2.1083 1.33900  11
   5  -5   9 -0.9696 1.00632  12
   5  -5   9 0.38757 1.35651  13
   5  -5   9 -2.0610 1.00769  10
   6  -5   9 27.4469 2.75640  11
   6  -5   9 25.9202 2.39911  12
   6  -5   9 27.1831 1.81146  10
   7  -5   9 0.03066 0.67389  11
   7  -5   9 4.27663 0.77173  12
   8   4  -9 88.7840 6.55545  18
   7   4  -9 56.5415 4.88848  18
   6   4  -9 -1.0715 1.19005  18
   6   4  -9 -1.5118 1.14011  10
   6   4  -9 0.43118 1.28741   9
   5   4  -9 16.0739 2.99366   7
   5   4  -9 20.3320 2.13218  10
   5   4  -9 17.9437 1.72840  17
   5   4  -9 18.5979 2.13600   9
   5   4  -9 20.0244 3.71214   2
   5   4  -9 14.3724 3.68207   3
   5   4  -9 20.9965 1.81077   8
   4   4  -9 31.8642 4.42015   3
   4   4  -9 34.5074 3.99897   7
   4   4  -9 34.7251 2.64356  17
   4   4  -9 33.3408 3.28886   9
   4   4  -9 31.4674 4.19305   2
   4   4  -9 41.5751 2.76091   8
   3   4  -9 47.5718 5.22637   2
   3   4  -9 50.2169 4.85007   7
   3   4  -9 45.8350 4.85981   3
   2   4  -9 43.0657 4.58412   2
   2   4  -9 31.8625 3.82433   3
  -1  -4   9 1.54764 1.78909   3
  -1  -4   9 -0.6387 1.88131   2
   0  -4   9 123.806 9.00630   2
   0  -4   9 117.902 9.34374   3
   1  -4   9 16.2080 2.52735   5
   1  -4   9 12.2878 2.40885   3
   1  -4   9 13.0204 2.64735   2
   1  -4   9 16.1197 2.26381   4
   2  -4   9 18.5465 2.07714  12
   2  -4   9 26.4391 3.24753   2
   2  -4   9 27.6298 3.17505   4
   2  -4   9 22.4075 2.52810   9
   2  -4   9 25.3275 3.27837   5
   2  -4   9 23.1265 2.19586  10
   2  -4   9 29.2002 3.50181   3
   2  -4   9 24.2320 1.85353   8
   3  -4   9 197.703 14.6586   5
   3  -4   9 211.967 13.6281  13
   3  -4   9 208.225 14.3570   2
   3  -4   9 207.721 15.0858   3
   3  -4   9 211.890 12.5976  10
   3  -4   9 204.996 13.4837  12
   3  -4   9 207.554 14.4858   9
   3  -4   9 194.812 14.2866  11
   3  -4   9 221.278 14.8595   4
   4  -4   9 0.53052 1.26231  13
   4  -4   9 4.99651 2.74555   4
   4  -4   9 1.61859 1.27803  12
   4  -4   9 4.17766 2.21777   2
   4  -4   9 1.22353 0.98338   9
   4  -4   9 2.10007 0.93541  10
   4  -4   9 2.48511 1.20446  11
   5  -4   9 17.6665 1.99142  12
   5  -4   9 15.9832 1.70713  11
   5  -4   9 16.7267 1.83498  10
   6  -4   9 61.4630 3.68598  10
   6  -4   9 56.3120 4.19673  12
   6  -4   9 56.1179 4.36449  11
   7  -4   9 66.3848 3.97041  12
   7  -4   9 49.5598 4.10749  11
   9   3  -9 23.3974 2.14440  18
   8   3  -9 3.37580 1.75695  18
   7   3  -9 109.136 7.16909  17
   7   3  -9 123.992 8.15278  18
   7   3  -9 117.288 8.09373   9
   7   3  -9 106.802 7.14820  10
   6   3  -9 2.42597 2.50939   7
   6   3  -9 8.99343 1.35057  17
   6   3  -9 7.07813 1.20334   9
   6   3  -9 10.6716 1.36726  10
   6   3  -9 7.28503 1.92505  18
   5   3  -9 94.0643 6.12003  10
   5   3  -9 98.0123 6.35226   8
   5   3  -9 98.3218 7.93212   2
   5   3  -9 93.7488 7.67075   7
   5   3  -9 93.8512 7.05015   9
   5   3  -9 96.8802 6.11276  17
   4   3  -9 4.02223 1.03477  10
   4   3  -9 5.17787 2.19947   7
   4   3  -9 3.52811 2.59819   3
   4   3  -9 1.37541 2.57441   2
   4   3  -9 5.86547 1.12188   8
   4   3  -9 3.44993 1.14890   9
   4   3  -9 5.21255 1.06996  17
   3   3  -9 123.875 9.43414   2
   3   3  -9 129.566 9.24020   7
   2   3  -9 2.90134 2.46072   2
  -1  -3   9 9.32244 1.96609   2
  -1  -3   9 11.6430 2.58012   3
   0  -3   9 2.01521 1.15641   4
   0  -3   9 3.22653 2.15201   3
   0  -3   9 4.12713 2.13401   2
   1  -3   9 597.991 39.0153   4
   1  -3   9 583.041 38.7257   2
   1  -3   9 583.341 40.0472   3
   2  -3   9 4.64346 0.98750  12
   2  -3   9 3.19522 2.27357   2
   2  -3   9 4.59023 0.90094   8
   2  -3   9 3.20940 1.15176   9
   2  -3   9 4.60710 1.10222  10
   2  -3   9 5.09999 2.44960   5
   2  -3   9 5.93155 2.58667   3
   2  -3   9 4.95187 2.16113   4
   3  -3   9 1036.99 69.6763   4
   3  -3   9 1032.02 67.0253  12
   3  -3   9 1027.72 67.1440   8
   3  -3   9 1086.20 71.1545   3
   3  -3   9 1078.41 68.6895   2
   3  -3   9 1017.82 72.4079   9
   3  -3   9 1099.97 62.7303  10
   4  -3   9 140.648 9.21859  12
   4  -3   9 146.444 8.46798  10
   4  -3   9 127.617 9.96793   2
   4  -3   9 138.979 9.40880  18
   4  -3   9 137.881 9.70417   9
   4  -3   9 133.952 9.67033  11
   4  -3   9 128.305 10.2056   4
   5  -3   9 27.6767 2.75986  12
   5  -3   9 23.3071 1.87923   9
   5  -3   9 24.1663 2.61984  11
   5  -3   9 22.8426 2.20077  10
   6  -3   9 1.73396 0.95959  12
   6  -3   9 1.95435 0.83153  10
   6  -3   9 1.26692 0.91872  11
   7  -3   9 8.53414 1.00424  11
   7  -3   9 8.20748 1.13145  12
   8   2  -9 113.947 6.80668  10
   8   2  -9 108.697 7.77542  18
   8   2  -9 106.905 6.91393  17
   7   2  -9 48.7323 4.05370  18
   7   2  -9 49.0364 3.53977  10
   7   2  -9 49.1166 3.56701  17
   7   2  -9 47.9263 3.62830   9
   6   2  -9 799.510 46.0892  10
   6   2  -9 807.188 51.0877  18
   6   2  -9 769.088 53.1683   9
   6   2  -9 689.273 49.9983   7
   6   2  -9 793.407 46.0774  17
   6   2  -9 765.733 50.9129   2
   5   2  -9 333.937 22.6349   9
   5   2  -9 331.289 20.8541   8
   5   2  -9 317.782 19.6054  17
   5   2  -9 323.653 19.6245  10
   5   2  -9 330.841 22.0997   2
   5   2  -9 325.149 21.9649   7
   5   2  -9 315.183 22.9168   3
   4   2  -9 134.468 8.96318   7
   4   2  -9 132.204 9.38343   3
   4   2  -9 121.506 7.75583   8
   4   2  -9 131.732 9.20902   2
   4   2  -9 108.447 8.48705   9
   4   2  -9 104.472 7.35379  10
   4   2  -9 116.190 7.37011  17
   3   2  -9 462.340 31.9066   3
   3   2  -9 478.030 30.2666   7
   3   2  -9 448.485 30.8181   2
   2   2  -9 75.1539 6.48854   3
   2   2  -9 70.7719 6.49526   2
   1   2  -9 9.82156 3.01291   3
   1   2  -9 4.44933 2.81907   2
  -1  -2   9 5.93370 2.12020   2
  -1  -2   9 9.20028 2.39437   3
   0  -2   9 187.567 12.8551   2
   0  -2   9 182.744 13.2278   3
   0  -2   9 181.624 12.5197   4
   1  -2   9 47.3546 4.18378   4
   1  -2   9 46.3864 4.67492   2
   1  -2   9 47.7602 4.73605   3
   2  -2   9 63.4231 5.96248   3
   2  -2   9 54.9093 4.38615   9
   2  -2   9 62.9044 3.97861   8
   2  -2   9 56.1554 5.01346   4
   2  -2   9 53.1239 3.84402  10
   2  -2   9 63.9742 5.35106   2
   3  -2   9 22.8063 2.32092  12
   3  -2   9 21.9720 2.03355  10
   3  -2   9 21.8656 3.18793   2
   3  -2   9 26.0049 4.09195   3
   3  -2   9 19.2089 3.20047   4
   3  -2   9 24.1503 1.78914   8
   3  -2   9 19.8290 2.38457   9
   4  -2   9 -0.2370 1.10947  11
   4  -2   9 -1.0142 1.06296   9
   4  -2   9 1.89307 2.48603   4
   4  -2   9 -0.3663 1.20454  12
   4  -2   9 0.14553 0.92963  10
   5  -2   9 14.5830 1.46786   9
   5  -2   9 10.6932 1.30669  10
   5  -2   9 10.6774 1.60026  11
   5  -2   9 12.3699 1.71814  12
   6  -2   9 16.2178 1.74730  12
   6  -2   9 14.7400 1.40996  10
   6  -2   9 13.7481 1.69097  11
   7  -2   9 4.67607 0.73099  11
   7  -2   9 3.01555 0.83385  12
   9   1  -9 1.23850 0.65839  17
   9   1  -9 1.88876 1.12958  18
   8   1  -9 99.4915 5.86848  10
   8   1  -9 89.5425 6.33885  16
   8   1  -9 96.6235 7.00048  18
   8   1  -9 91.7557 5.97805  17
   7   1  -9 11.0175 1.28823  17
   7   1  -9 9.45968 1.72451  16
   7   1  -9 9.78368 1.17971  10
   7   1  -9 9.75287 2.03020  18
   6   1  -9 33.9610 3.06942   9
   6   1  -9 47.0195 5.19622   7
   6   1  -9 39.3177 2.99769  17
   6   1  -9 32.7463 3.87361   2
   6   1  -9 34.1415 3.57016  18
   6   1  -9 33.0446 3.00985  16
   6   1  -9 37.5157 2.84266  10
   5   1  -9 2.59704 2.07462  15
   5   1  -9 1.62167 2.53574   3
   5   1  -9 2.30746 1.12882  17
   5   1  -9 3.46578 0.94994  10
   5   1  -9 3.10126 1.10295   9
   5   1  -9 3.52513 1.03605  16
   5   1  -9 1.67041 1.35925  18
   5   1  -9 1.47186 2.88286   7
   5   1  -9 1.99116 2.22753   2
   4   1  -9 11.4849 1.11667   8
   4   1  -9 8.32145 1.30507   9
   4   1  -9 9.76975 1.30383  17
   4   1  -9 7.38417 2.29689   7
   4   1  -9 10.4168 1.20704  10
   4   1  -9 10.9499 2.73783   2
   4   1  -9 11.5506 2.98446   3
   3   1  -9 107.172 9.21423   3
   3   1  -9 124.207 9.00782   2
   3   1  -9 116.723 8.87238   7
   2   1  -9 79.3708 7.14923   2
   2   1  -9 80.6084 7.29377   3
   2   1  -9 86.7898 7.08705   6
   1   1  -9 277.847 18.4399   2
   1   1  -9 250.363 18.6791   3
   0  -1   9 82.8960 6.58634   2
   0  -1   9 82.0508 6.94276   3
   1  -1   9 67.4952 6.18448   3
   1  -1   9 67.1663 5.66149   2
   1  -1   9 61.6630 5.11647   4
   2  -1   9 15.2625 2.37513   4
   2  -1   9 15.0812 1.87720   9
   2  -1   9 14.7896 2.80210   2
   2  -1   9 15.4960 1.62668   8
   2  -1   9 17.0719 1.72171  10
   2  -1   9 18.0108 3.51003   3
   3  -1   9 41.4516 4.62622   2
   3  -1   9 42.8664 3.46770   9
   3  -1   9 43.6649 3.26938  10
   3  -1   9 44.4477 4.56820   4
   3  -1   9 45.0111 3.07134   8
   3  -1   9 36.8928 5.13395   3
   4  -1   9 3.41728 2.58329   4
   4  -1   9 1.25110 1.12161   9
   4  -1   9 0.60943 1.05722  11
   4  -1   9 1.89040 1.04195  10
   4  -1   9 0.53666 1.25287  12
   5  -1   9 7.12755 1.38445  11
   5  -1   9 5.93736 1.14770  10
   5  -1   9 8.91545 1.54845  12
   5  -1   9 6.93085 1.11234   9
   6  -1   9 42.8337 2.73923  10
   6  -1   9 36.5611 3.07274  11
   6  -1   9 40.3633 3.00497  12
   9   0  -9 23.7359 2.23812  18
   8   0  -9 9.99314 1.88747  16
   8   0  -9 14.0045 1.45033  17
   8   0  -9 13.7389 1.19614  10
   8   0  -9 11.2442 2.01148  18
   7   0  -9 12.9604 2.01686  18
   7   0  -9 16.0577 1.95364  16
   7   0  -9 10.4394 1.65805  17
   7   0  -9 13.8877 1.36823  10
   6   0  -9 4.94413 2.88120   7
   6   0  -9 7.39303 1.45431  16
   6   0  -9 8.13228 1.22890  10
   6   0  -9 12.9879 2.61072  15
   6   0  -9 8.52032 1.02535   9
   6   0  -9 11.5258 1.95347   2
   6   0  -9 7.94928 1.66475  18
   6   0  -9 5.80177 1.43189  17
   6   0  -9 6.90431 2.36614   3
   5   0  -9 77.2706 6.48681   7
   5   0  -9 78.9432 5.90905  15
   5   0  -9 65.9555 5.35552  18
   5   0  -9 75.2442 4.87289  17
   5   0  -9 79.7052 6.10563   2
   5   0  -9 69.9830 6.61665   3
   5   0  -9 69.4519 5.04679  16
   5   0  -9 75.8060 4.83907  10
   5   0  -9 72.8641 5.42576   9
   4   0  -9 3.64369 0.93058  10
   4   0  -9 2.59787 1.08469  16
   4   0  -9 2.46391 1.09205  17
   4   0  -9 2.34405 0.73621   8
   4   0  -9 -0.0790 4.17256   6
   4   0  -9 -1.5438 1.96345   7
   4   0  -9 1.85846 2.50351   3
   4   0  -9 1.36151 2.53865   2
   4   0  -9 1.06170 0.94123   9
   3   0  -9 86.4288 7.42071   2
   3   0  -9 84.8665 7.67066   6
   3   0  -9 84.7792 7.52874   3
   3   0  -9 94.2687 7.08690   7
   2   0  -9 123.842 9.89093   6
   2   0  -9 132.585 9.93495   2
   2   0  -9 122.010 10.0330   3
   1   0  -9 219.758 15.6153   2
   1   0  -9 216.592 15.3318   6
   1   0  -9 215.064 15.8933   3
   1   0   9 103.594 7.99767   2
   1   0   9 103.415 8.66068   3
   2   0   9 326.096 22.1652   2
   2   0   9 350.507 21.0140   8
   2   0   9 336.077 22.2399   4
   2   0   9 294.657 22.6311   9
   3   0   9 17.4968 1.80913  10
   3   0   9 18.2120 3.10568   4
   3   0   9 9.49480 3.24159   3
   3   0   9 18.7093 1.55472   8
   3   0   9 18.1809 2.30171   9
   3   0   9 16.0102 3.20817   2
   4   0   9 1.36970 0.56080   8
   4   0   9 1.37203 1.08570  10
   4   0   9 0.82446 0.98266   9
   4   0   9 1.45174 1.29353  12
   5   0   9 90.7876 6.58321   9
   5   0   9 89.9092 6.65455  11
   5   0   9 93.3388 5.86536  10
   5   0   9 93.8070 6.39392  12
   6   0   9 9.86675 1.10850  12
   6   0   9 7.42074 1.03527  10
   6   0   9 6.74705 1.08551  11
   9  -1  -9 0.14622 1.22195  18
   9  -1  -9 0.54657 1.05198  16
   9  -1  -9 1.09897 0.83139  17
   8  -1  -9 5.37320 1.68722  16
   8  -1  -9 1.83021 1.17308  18
   8  -1  -9 2.77718 0.95287  17
   7  -1  -9 12.3893 1.69255  17
   7  -1  -9 11.8237 1.13964  10
   7  -1  -9 11.1659 1.87345  16
   7  -1  -9 7.38539 1.72016  18
   6  -1  -9 357.895 23.7158  15
   6  -1  -9 352.080 21.8874  16
   6  -1  -9 376.064 21.1148  17
   6  -1  -9 320.414 23.3107  18
   6  -1  -9 358.826 20.9518  10
   6  -1  -9 324.255 23.4827   7
   5  -1  -9 83.0330 7.41542   7
   5  -1  -9 82.7277 7.05779   3
   5  -1  -9 80.8853 8.72278   6
   5  -1  -9 82.4062 5.77139  16
   5  -1  -9 83.6443 6.51895   2
   5  -1  -9 80.7954 6.55851  15
   5  -1  -9 84.2860 6.13460   9
   5  -1  -9 89.3879 5.38345  10
   5  -1  -9 85.9387 5.53727  17
   4  -1  -9 1216.05 80.0051  10
   4  -1  -9 1441.83 85.8410   7
   4  -1  -9 1447.16 87.5193   2
   4  -1  -9 1329.08 92.3946   9
   4  -1  -9 1285.46 88.9940  15
   4  -1  -9 1395.63 79.9364  17
   4  -1  -9 1462.31 90.4922   6
   4  -1  -9 1329.10 85.6605   8
   4  -1  -9 1286.13 82.8897  16
   4  -1  -9 1279.20 90.3356   3
   3  -1  -9 148.644 10.5623   2
   3  -1  -9 127.803 10.4067   3
   3  -1  -9 138.817 9.00065   8
   3  -1  -9 143.132 10.2709   7
   3  -1  -9 131.442 10.9236   6
   2  -1  -9 268.001 19.6375   3
   2  -1  -9 285.506 19.2753   2
   2  -1  -9 272.092 19.4396   6
   1  -1  -9 314.371 21.8279   2
   1  -1  -9 309.239 21.8789   6
   1  -1  -9 319.063 22.3286   3
   1   1   9 3.01036 0.91658   8
   2   1   9 18.8423 1.81517   8
   2   1   9 14.0043 3.43617   3
   2   1   9 15.2673 2.90972   4
   3   1   9 4.40996 1.30706   9
   3   1   9 3.39790 3.81281   3
   3   1   9 4.53141 2.51514   4
   3   1   9 6.41819 2.92864   2
   3   1   9 4.08607 0.85915   8
   4   1   9 82.4048 5.69182   8
   4   1   9 86.2251 5.64456  10
   4   1   9 92.4518 6.43742   9
   5   1   9 -0.6297 1.11413  10
   5   1   9 -0.0442 0.86232   9
   5   1   9 -1.4600 1.18168  12
   6   1   9 7.82206 1.05892  10
   6   1   9 10.3320 1.16207  12
   9  -2  -9 4.56494 0.96550  17
   9  -2  -9 4.34018 1.13726  16
   8  -2  -9 6.72039 1.14280  17
   8  -2  -9 3.11100 1.68977  16
   7  -2  -9 3.30883 2.07036  15
   7  -2  -9 3.44346 1.42978  17
   7  -2  -9 2.66567 1.73397  16
   7  -2  -9 4.55078 0.73358  10
   6  -2  -9 3.11135 2.39778  15
   6  -2  -9 4.67720 1.64211  16
   6  -2  -9 -3.2998 2.61616   7
   6  -2  -9 2.71076 0.93615  10
   6  -2  -9 1.62590 1.38667  17
   5  -2  -9 -3.5352 5.35829   6
   5  -2  -9 3.65131 2.13364  15
   5  -2  -9 3.30850 0.90094  10
   5  -2  -9 3.80166 0.92269   9
   5  -2  -9 3.76563 1.33947  17
   5  -2  -9 0.45093 1.79683   2
   5  -2  -9 3.91476 1.45775  16
   5  -2  -9 8.51807 3.06644   7
   5  -2  -9 2.27568 2.16834   3
   4  -2  -9 3.15904 2.70676   2
   4  -2  -9 3.22309 1.69997  15
   4  -2  -9 7.97205 2.75213   3
   4  -2  -9 3.02493 1.23969  17
   4  -2  -9 2.77119 1.34360  16
   4  -2  -9 3.81060 2.35299  14
   4  -2  -9 3.15076 0.97053  10
   4  -2  -9 2.67711 1.26456   9
   4  -2  -9 2.59938 2.67245   7
   4  -2  -9 7.54256 3.99276   6
   3  -2  -9 1.17704 1.24010  16
   3  -2  -9 2.22760 1.28742   9
   3  -2  -9 2.51705 0.95636  10
   3  -2  -9 2.43785 2.05382  14
   3  -2  -9 2.18965 0.86876   8
   3  -2  -9 -2.6094 2.45626   7
   3  -2  -9 3.01520 2.87721   3
   3  -2  -9 0.11456 3.06630   6
   3  -2  -9 6.93731 3.43278   2
   2  -2  -9 5.03893 1.35051   8
   2  -2  -9 4.30645 3.37002   6
   2  -2  -9 7.35479 3.47650   2
   2  -2  -9 3.16188 2.57662   3
   1  -2  -9 117.354 9.56769   3
   1  -2  -9 108.604 8.86865   6
   1  -2  -9 107.119 9.53103   2
   2   2   9 13.8379 1.58121   8
   3   2   9 39.3127 2.89789   8
   4   2   9 0.52489 1.23457  10
   4   2   9 1.40746 0.66805   8
   4   2   9 0.14821 1.15181   9
   5   2   9 14.6272 1.70887  12
   5   2   9 19.2825 1.91531  10
   5   2   9 17.6109 1.89091   9
   6   2   9 35.1767 2.67335  12
   6   2   9 39.0052 2.52448  10
   9  -3  -9 9.62589 1.11505  17
   9  -3  -9 7.42765 1.62364  16
   8  -3  -9 0.26491 1.17157  16
   8  -3  -9 2.40669 1.01102  17
   7  -3  -9 35.5478 3.06343  16
   7  -3  -9 31.1654 3.88870  15
   7  -3  -9 38.3323 3.10255  17
   6  -3  -9 24.5075 3.20021  15
   6  -3  -9 24.5211 1.94229  10
   6  -3  -9 9.77253 5.78202   6
   6  -3  -9 26.0756 2.57232  17
   6  -3  -9 17.8721 2.45380  16
   5  -3  -9 65.5404 8.48448   6
   5  -3  -9 65.1775 5.12443   2
   5  -3  -9 72.1302 4.66187  10
   5  -3  -9 71.4985 4.80227  17
   5  -3  -9 75.8765 5.14744  16
   5  -3  -9 69.7185 6.79421  14
   5  -3  -9 63.2423 6.08061   7
   5  -3  -9 69.7510 5.84086  15
   5  -3  -9 68.7846 4.95490   9
   4  -3  -9 13.8229 4.55269   6
   4  -3  -9 11.1539 3.18990   3
   4  -3  -9 8.85616 2.40903   7
   4  -3  -9 18.0314 2.71339  14
   4  -3  -9 13.5869 3.08424   2
   4  -3  -9 12.7161 1.78314  16
   4  -3  -9 13.3755 2.17441  15
   4  -3  -9 13.3636 1.72785   9
   4  -3  -9 9.95687 1.44943  10
   4  -3  -9 11.9606 1.53948  17
   3  -3  -9 2.00617 1.39400  16
   3  -3  -9 -4.1465 4.20344   6
   3  -3  -9 0.41125 2.87363   3
   3  -3  -9 -1.9148 1.91089  14
   3  -3  -9 0.29163 0.82402   8
   3  -3  -9 -0.2426 1.51332  15
   3  -3  -9 6.37964 2.43018   7
   3  -3  -9 -1.7253 1.21820   9
   3  -3  -9 2.57678 3.57523   2
   2  -3  -9 54.7733 3.79541   8
   2  -3  -9 44.3490 4.42740   9
   2  -3  -9 56.3142 6.22184   6
   2  -3  -9 47.3259 3.96665  10
   2  -3  -9 60.0494 6.32128   2
   2  -3  -9 52.7059 6.24778   3
   1  -3  -9 4.51803 3.19849   2
   1  -3  -9 4.12212 1.65349   9
   1  -3  -9 5.28303 1.63487   8
   1  -3  -9 2.95347 2.81672   6
   1  -3  -9 5.18664 2.93810   3
   0  -3  -9 150.931 10.1346   8
   2   3   9 185.591 12.1351   8
   3   3   9 195.778 12.7377   8
   4   3   9 31.5807 2.74555   9
   4   3   9 22.8093 1.87793   8
   5   3   9 21.8012 2.04402   9
   5   3   9 18.3511 1.72168  10
   5   3   9 25.1093 2.07487  12
   9  -4  -9 6.33900 1.09558  16
   9  -4  -9 3.79592 1.13277  17
   8  -4  -9 121.042 7.92283  16
   7  -4  -9 32.1289 2.80710  17
   7  -4  -9 27.3707 3.70079  15
   7  -4  -9 31.8394 3.29956  16
   6  -4  -9 145.286 10.4925  15
   6  -4  -9 146.403 8.83588  17
   6  -4  -9 133.428 8.51676  10
   6  -4  -9 139.573 9.40309  16
   5  -4  -9 232.804 16.3802  15
   5  -4  -9 240.755 14.5239  10
   5  -4  -9 240.608 14.5812  17
   5  -4  -9 244.751 15.1995  16
   5  -4  -9 238.205 18.6805   6
   5  -4  -9 236.914 17.8488  14
   4  -4  -9 67.5236 4.86529  16
   4  -4  -9 67.7124 4.97763   9
   4  -4  -9 72.6332 6.04223  14
   4  -4  -9 61.7986 5.32344  15
   4  -4  -9 60.7139 7.46074   6
   4  -4  -9 44.8773 5.90280   3
   4  -4  -9 60.7251 4.27747  10
   4  -4  -9 63.6050 5.81852   2
   4  -4  -9 61.1440 4.28590  17
   3  -4  -9 3.72293 1.81350  15
   3  -4  -9 9.60493 1.96040  10
   3  -4  -9 6.95962 3.37821   3
   3  -4  -9 5.26060 3.47979   2
   3  -4  -9 6.39416 0.80266   8
   3  -4  -9 6.42286 1.69646  16
   3  -4  -9 6.14408 2.09373  14
   3  -4  -9 8.07111 1.74072   9
   3  -4  -9 8.71728 4.10303   6
   2  -4  -9 382.031 23.6755   8
   2  -4  -9 382.803 26.2045   6
   2  -4  -9 339.443 25.6690   9
   2  -4  -9 376.673 22.2820  10
   2  -4  -9 369.947 26.2076   3
   2  -4  -9 357.577 25.3906   2
   1  -4  -9 8.48079 3.47950   6
   1  -4  -9 9.90504 1.79548   8
   1  -4  -9 11.2743 3.68163   2
   1  -4  -9 13.4723 4.20059   3
   1  -4  -9 10.4166 1.93945   9
   0  -4  -9 90.1543 6.29439   8
  -1  -4  -9 36.8008 3.49729   8
   2   4   9 20.8277 2.01353   8
   3   4   9 12.6155 1.49954   8
   4   4   9 0.94126 1.16987   9
   4   4   9 0.68373 0.58819   8
   5   4   9 13.7050 1.41801  12
   5   4   9 12.4531 1.49150   9
   8  -5  -9 136.888 8.32892  16
   8  -5  -9 120.396 7.85884  17
   7  -5  -9 0.86545 1.25653  16
   7  -5  -9 1.27724 0.82885  17
   7  -5  -9 -1.2340 1.88470  15
   6  -5  -9 39.4222 3.07386  17
   6  -5  -9 40.0538 3.91752  16
   6  -5  -9 38.5190 4.42737  14
   6  -5  -9 41.7350 2.70668  10
   6  -5  -9 41.7910 4.98917  15
   5  -5  -9 5.81577 1.30415  10
   5  -5  -9 7.87152 1.57565  16
   5  -5  -9 5.68907 2.05147  14
   5  -5  -9 1.76844 2.43314  15
   4  -5  -9 1.98504 1.86080  16
   4  -5  -9 0.97862 2.31595   2
   4  -5  -9 -0.4851 2.38030  14
   4  -5  -9 0.53662 1.14700   9
   4  -5  -9 1.04882 1.27600  10
   4  -5  -9 3.22530 2.15209  15
   4  -5  -9 -2.8393 4.75619   6
   3  -5  -9 0.56503 1.86745  10
   3  -5  -9 1.99818 3.09920   3
   3  -5  -9 0.05651 1.82002  16
   3  -5  -9 -0.1703 3.77239   2
   3  -5  -9 2.33500 1.86789  15
   3  -5  -9 1.01591 4.32543   6
   3  -5  -9 1.38177 1.32343   9
   2  -5  -9 0.19604 1.91744  10
   2  -5  -9 6.42947 3.85575   2
   2  -5  -9 0.12903 3.53795   3
   2  -5  -9 1.36690 1.87873   9
   2  -5  -9 -0.6021 1.67168  15
   2  -5  -9 -0.7740 1.00090   8
   2  -5  -9 3.18649 4.91483   6
   1  -5  -9 16.2124 4.25488   2
   1  -5  -9 27.7576 3.33414   9
   1  -5  -9 18.9014 4.48020   6
   1  -5  -9 22.2798 2.31776   8
   1  -5  -9 10.6634 3.82453   3
   0  -5  -9 3.20680 1.79486   8
  -1  -5  -9 132.725 8.98976   8
  -2  -5  -9 -0.6534 1.58063   8
   2   5   9 0.95384 1.00606   8
   3   5   9 14.1710 1.49853   8
   4   5   9 2.97200 0.84518   9
   4   5   9 1.42493 0.48009   8
   8  -6  -9 15.9033 2.15318  15
   8  -6  -9 8.95560 1.73775  16
   7  -6  -9 45.1700 3.88401  16
   6  -6  -9 74.0831 5.61757  16
   6  -6  -9 83.2885 6.57498  15
   6  -6  -9 70.1894 6.40814  14
   5  -6  -9 44.1949 4.03535  16
   5  -6  -9 43.9400 3.19943  10
   5  -6  -9 37.2834 4.75425  15
   4  -6  -9 11.9384 2.05514  15
   4  -6  -9 11.1299 2.68195  14
   4  -6  -9 15.0403 2.30810  16
   4  -6  -9 12.3436 1.34523   9
   3  -6  -9 2.36323 1.56768   9
   3  -6  -9 1.84617 1.93639  10
   3  -6  -9 5.63638 4.90438   6
   3  -6  -9 -1.1265 2.05281  15
   3  -6  -9 2.95450 2.02989  16
   2  -6  -9 3.01716 1.43836  16
   2  -6  -9 3.43562 4.41492   6
   2  -6  -9 2.35483 2.06811  10
   2  -6  -9 5.41505 0.91380   8
   2  -6  -9 3.64457 2.01579   9
   2  -6  -9 3.93436 1.95623  15
   1  -6  -9 2.91526 1.77491  10
   1  -6  -9 3.22661 1.11554   8
   1  -6  -9 -2.1814 4.24814   6
   1  -6  -9 2.23499 1.86502   9
   0  -6  -9 23.5010 2.76612   9
   0  -6  -9 21.7412 2.25431   8
  -1  -6  -9 10.2064 1.74873   8
  -2  -6  -9 116.005 8.05851   8
   2   6   9 121.591 7.91661   8
  -3  -6  -9 76.2061 5.65539   8
   3   6   9 89.7412 5.55013   8
   4   6   9 45.0303 3.33764  12
   4   6   9 54.0629 3.77184   9
   8  -7  -9 15.6239 1.96336  15
   8  -7  -9 14.3605 1.46663  16
   7  -7  -9 38.8633 4.20432  15
   7  -7  -9 36.8999 3.29720  16
   6  -7  -9 79.3601 6.01260  15
   6  -7  -9 61.2060 4.79122  16
   5  -7  -9 16.6137 2.40330  15
   5  -7  -9 11.3716 2.31480  16
   5  -7  -9 16.5207 2.96631  14
   5  -7  -9 19.8117 1.99779  10
   4  -7  -9 113.284 8.89894  14
   4  -7  -9 111.419 8.19366  15
   3  -7  -9 -2.5847 2.14835  15
   3  -7  -9 1.06570 1.39560   9
   3  -7  -9 2.86322 1.45630  16
   3  -7  -9 0.21532 1.54542  10
   2  -7  -9 52.2181 3.96433  10
   2  -7  -9 45.8192 4.48934  15
   2  -7  -9 44.3969 4.22925   9
   2  -7  -9 46.0955 3.67158  16
   1  -7  -9 4.73246 2.26667   9
   1  -7  -9 3.58876 0.96557   8
   1  -7  -9 3.57387 1.72878  10
   0  -7  -9 123.970 8.69797   8
   0  -7  -9 140.959 9.86082   9
  -1  -7  -9 -1.4524 1.13252   8
  -2  -7  -9 15.2022 1.70737   8
   2   7   9 14.5344 1.53008   8
  -3  -7  -9 2.58287 0.75421   8
   3   7   9 2.88835 0.59665   8
   7  -8  -9 32.9942 2.81749  15
   7  -8  -9 24.7173 2.23095  16
   6  -8  -9 49.8092 3.76716  16
   6  -8  -9 43.2599 4.02162  15
   5  -8  -9 9.05704 2.55219  14
   5  -8  -9 10.6647 2.08392  16
   5  -8  -9 14.3063 1.37406  10
   5  -8  -9 10.3264 2.65180  15
   4  -8  -9 8.07727 2.60227  15
   4  -8  -9 9.96810 2.07892  16
   4  -8  -9 9.48302 1.52106  10
   3  -8  -9 9.23203 2.01342  16
   3  -8  -9 7.81275 2.38749  15
   3  -8  -9 6.84540 1.65483  10
   3  -8  -9 8.51299 1.25504   9
   2  -8  -9 10.0715 1.58554   9
   2  -8  -9 9.06127 2.22718  15
   2  -8  -9 7.94351 1.80826  10
   2  -8  -9 7.55298 1.94126  16
   1  -8  -9 11.4273 1.88193  10
   1  -8  -9 11.9139 1.93238   9
   1  -8  -9 8.30131 1.87639  16
   0  -8  -9 16.5943 1.43528   8
   0  -8  -9 21.6107 2.35942   9
  -1  -8  -9 4.62471 1.71889   9
  -1  -8  -9 4.97134 0.85410   8
  -2  -8  -9 0.76885 0.65271   8
   2   8   9 -0.0594 0.71188   8
   6  -9  -9 19.0148 1.81944  16
   6  -9  -9 13.5939 2.01424  15
   5  -9  -9 8.87550 1.27134  16
   5  -9  -9 6.52229 1.68598  15
   4  -9  -9 44.3305 3.40938  16
   4  -9  -9 43.8825 2.97227  10
   4  -9  -9 37.4072 3.65041  15
   3  -9  -9 -0.0622 1.48881  16
   3  -9  -9 -1.5086 1.48327  15
   2  -9  -9 11.7002 2.16694  15
   2  -9  -9 9.80317 1.69167  10
   2  -9  -9 6.45376 1.26551  16
   2  -9  -9 9.90559 1.30496   9
   1  -9  -9 5.01379 1.58395  10
   1  -9  -9 2.95337 1.36646  16
   1  -9  -9 5.39981 1.51308   9
   0  -9  -9 6.07441 1.28711  16
   0  -9  -9 5.21724 1.38832   9
  -1  -9  -9 2.43633 1.20843   9
   5 -10  -9 7.10804 1.32593  15
   3 -10  -9 18.4374 2.37856  15
   3 -10  -9 21.5630 1.71267  10
  -2 -13  10 3.91343 1.53872  14
  -1 -13  10 9.70741 1.58243  14
   0 -13  10 3.77156 1.48536  14
   0 -13  10 2.83123 0.89339   9
   0 -13  10 4.15895 1.13537  10
   1 -13  10 0.33856 0.95856  10
   1 -13  10 1.09448 1.45582  14
   2 -13  10 1.18380 0.79788  10
   2 -13  10 0.24399 1.20624  14
  -3 -12  10 11.1389 1.43174  14
  -3 -12  10 8.61421 1.04522   8
  -2 -12  10 10.0509 1.67986  14
  -2 -12  10 7.01850 0.81432   8
  -1 -12  10 16.3476 2.63361  14
   0 -12  10 79.3611 6.69944  14
   0 -12  10 88.8255 6.23535   9
   0 -12  10 83.9800 5.56532  10
   1 -12  10 49.7306 3.42105  10
   1 -12  10 47.1784 3.52491   9
   1 -12  10 40.4005 4.17009  14
   2 -12  10 42.2985 3.47415  13
   2 -12  10 46.4020 3.11339  10
   2 -12  10 45.4564 4.44238  14
   3 -12  10 36.5189 3.02877  13
   3 -12  10 31.8672 3.50986  14
   3 -12  10 36.8661 2.38877  10
   4 -12  10 9.70443 1.38655  13
   5  11 -10 125.722 8.12103   8
   4  11 -10 2.38737 0.85781  18
  -4 -11  10 3.87868 1.05621  14
  -4 -11  10 3.01766 1.00245   8
  -3 -11  10 41.6375 3.16083   8
  -3 -11  10 45.4437 3.84574  14
  -2 -11  10 0.05857 1.06931   8
  -1 -11  10 9.70685 1.99285  14
  -1 -11  10 11.2955 1.25540   8
  -1 -11  10 11.2787 1.84634   9
   0 -11  10 50.7721 3.83472  10
   0 -11  10 50.9401 4.66062  14
   0 -11  10 50.5728 4.25642   9
   1 -11  10 -0.2193 0.98006   9
   1 -11  10 -3.0331 1.60435  14
   1 -11  10 1.04142 0.90803  13
   1 -11  10 -2.3295 1.23081  10
   2 -11  10 1.26896 1.58820  14
   2 -11  10 1.55740 1.12750  10
   2 -11  10 0.55759 1.01543  13
   3 -11  10 7.59630 0.99729  10
   3 -11  10 6.30047 1.28160  13
   3 -11  10 7.62149 1.89600  14
   4 -11  10 3.15875 1.42095  13
   4 -11  10 5.36080 1.04719  12
   5 -11  10 1.77241 0.88107  13
   5  10 -10 1.63913 1.26176  18
   5  10 -10 1.18328 0.77008   8
   4  10 -10 6.36330 1.17477   8
  -4 -10  10 6.46688 1.27343   8
  -3 -10  10 4.48722 1.20201   8
  -2 -10  10 26.1524 2.62899   9
  -2 -10  10 23.4842 2.21641   8
  -1 -10  10 -0.7719 1.36724   9
  -1 -10  10 0.51503 1.01872   8
   0 -10  10 -1.0220 0.77867   8
   0 -10  10 -1.7529 1.28967  10
   0 -10  10 1.48434 2.41728  14
   0 -10  10 1.44822 1.29134   9
   1 -10  10 0.95096 1.10581   9
   1 -10  10 0.60570 1.35095  13
   1 -10  10 -1.9046 2.24695  14
   1 -10  10 1.10676 1.25472  10
   2 -10  10 36.0013 3.32503  13
   2 -10  10 34.4762 2.95013   9
   2 -10  10 34.9632 2.77129  10
   2 -10  10 30.8995 3.57222  14
   3 -10  10 6.17304 1.21887  10
   3 -10  10 4.46569 1.12727  12
   3 -10  10 4.68202 1.81345  14
   3 -10  10 2.08722 1.58065  13
   4 -10  10 9.43142 0.90867  10
   4 -10  10 3.84329 1.25128  13
   4 -10  10 6.81618 1.01875  12
   5 -10  10 6.11749 1.15391  13
   5 -10  10 4.70999 1.13722  12
   6   9 -10 6.14795 1.10610  18
   5   9 -10 2.23732 0.86847   8
   5   9 -10 -0.3149 1.58822  18
   4   9 -10 3.54207 1.22117   8
  -4  -9  10 6.11287 1.08149   8
  -3  -9  10 2.35618 1.18262   8
  -2  -9  10 1.36207 1.09011   8
  -1  -9  10 567.907 39.8312   9
  -1  -9  10 582.491 36.8720   8
   0  -9  10 57.8751 3.99751   8
   0  -9  10 65.1850 4.91819   9
   0  -9  10 42.4925 5.71768   5
   0  -9  10 56.4172 4.28479  10
   0  -9  10 55.4635 4.31311  13
   1  -9  10 139.486 9.31818  13
   1  -9  10 135.670 8.71163  10
   1  -9  10 158.489 9.99259   9
   1  -9  10 127.725 10.3889  14
   1  -9  10 117.253 10.6585   5
   2  -9  10 -2.1129 1.47472  13
   2  -9  10 0.95841 1.35824  14
   2  -9  10 -0.6003 0.97864   9
   2  -9  10 0.48314 1.10251  10
   3  -9  10 -0.4680 1.62892  13
   3  -9  10 -0.5684 1.15673  12
   3  -9  10 -0.4689 1.19646  10
   4  -9  10 6.23832 1.76013  13
   4  -9  10 8.62609 1.14864  10
   4  -9  10 5.82336 1.40688  12
   5  -9  10 4.32179 1.26095  12
   5  -9  10 5.91103 1.58891  13
   6  -9  10 0.91740 0.66331  12
   6  -9  10 1.66087 0.94038  13
   7   8 -10 54.7161 4.09064  18
   6   8 -10 55.3387 3.62307   8
   5   8 -10 5.85225 1.30679   8
   5   8 -10 5.62419 1.62427   9
   4   8 -10 22.4535 2.22574   8
  -3  -8  10 3.63241 1.20370   8
  -2  -8  10 99.7539 6.74650   8
  -1  -8  10 22.0073 3.35097   5
  -1  -8  10 37.7083 2.72671   8
  -1  -8  10 28.7098 3.16460   9
  -1  -8  10 36.0480 4.89719   2
   0  -8  10 106.063 7.27823  13
   0  -8  10 121.564 7.14732   8
   0  -8  10 102.242 6.82477  10
   0  -8  10 85.1125 8.94635   3
   0  -8  10 107.981 8.51915   5
   0  -8  10 106.993 7.85922   9
   1  -8  10 4.40140 0.81103   8
   1  -8  10 5.12978 1.46370   9
   1  -8  10 8.28207 2.83000   3
   1  -8  10 -0.5913 2.86121   2
   1  -8  10 6.35459 1.47418  13
   1  -8  10 3.37237 1.20476  10
   1  -8  10 7.27762 2.84788   5
   2  -8  10 -0.6250 1.45813  13
   2  -8  10 -0.1384 1.01590  12
   2  -8  10 1.06198 1.31490  10
   2  -8  10 -0.1480 1.14975   9
   2  -8  10 -1.0903 2.86578   5
   2  -8  10 -1.6721 1.61017  14
   3  -8  10 17.4989 2.22663  13
   3  -8  10 20.7113 2.45444  11
   3  -8  10 14.2439 1.79284   9
   3  -8  10 15.6307 1.77964  12
   3  -8  10 18.2121 1.77535  10
   4  -8  10 1.49893 1.32399  12
   4  -8  10 3.13134 0.87311  10
   4  -8  10 1.59604 1.39694  11
   4  -8  10 2.12699 1.78447  13
   5  -8  10 11.5089 1.26439  12
   5  -8  10 6.61041 1.47274  11
   5  -8  10 6.68718 1.72321  13
   6  -8  10 6.74305 1.21675  12
   6  -8  10 8.97157 0.96711  13
   6  -8  10 6.81896 0.98132  11
   7   7 -10 0.81486 1.15217  18
   6   7 -10 0.89606 1.24298  18
   6   7 -10 0.78142 1.32302   9
   6   7 -10 2.30444 0.64013   8
   5   7 -10 13.6849 1.63363   8
   5   7 -10 15.7271 2.02837   9
   4   7 -10 14.7589 1.68415   8
   3   7 -10 36.0629 2.97459   8
  -2  -7  10 22.8734 2.33858   8
  -1  -7  10 44.3710 5.94280   3
  -1  -7  10 48.9217 3.82977  13
  -1  -7  10 58.0408 3.90433   8
  -1  -7  10 58.1876 5.06884   5
   0  -7  10 25.3214 4.12994   2
   0  -7  10 39.5502 4.74718   3
   0  -7  10 33.9986 3.18862   9
   0  -7  10 42.3254 4.33805   5
   0  -7  10 34.1779 2.92762  13
   0  -7  10 38.9957 2.76474   8
   0  -7  10 33.8646 2.81048  10
   1  -7  10 1.51393 2.36345   5
   1  -7  10 2.96662 1.24733  13
   1  -7  10 6.20931 2.76414   2
   1  -7  10 -1.9266 1.95178   3
   1  -7  10 0.92710 1.02005  10
   1  -7  10 2.87481 1.05840   9
   1  -7  10 1.47899 0.77080   8
   2  -7  10 -0.8583 1.22635  10
   2  -7  10 0.86194 1.40535  13
   2  -7  10 1.42702 2.56048   5
   2  -7  10 -0.3705 2.79841   2
   2  -7  10 0.60239 0.98658  12
   2  -7  10 -0.0157 0.91718   9
   2  -7  10 2.08447 2.31997   3
   2  -7  10 -0.0483 1.07205  11
   3  -7  10 0.64798 0.85871   9
   3  -7  10 -0.5990 1.19865  11
   3  -7  10 -0.7805 0.98716  10
   3  -7  10 0.48124 1.60057  13
   3  -7  10 -1.4970 2.66763   5
   3  -7  10 -0.5960 1.12692  12
   4  -7  10 5.97325 1.49028  12
   4  -7  10 6.94812 1.44147  11
   4  -7  10 5.29232 1.79743  13
   4  -7  10 8.48274 1.25567  10
   5  -7  10 8.14238 1.72842  13
   5  -7  10 11.7875 1.25496  10
   5  -7  10 6.52780 1.49127  11
   5  -7  10 9.43966 1.54480  12
   6  -7  10 19.9977 1.88335  12
   6  -7  10 19.9870 1.84866  11
   8   6 -10 15.5100 1.61866  18
   7   6 -10 0.70302 1.21535  18
   6   6 -10 10.9220 1.12342   8
   6   6 -10 12.7406 1.74385  18
   5   6 -10 2.56362 1.19631   8
   5   6 -10 1.71805 1.44198   9
   4   6 -10 0.02152 1.07047   8
   3   6 -10 6.98622 1.32098   8
  -2  -6  10 221.148 15.0884   5
  -1  -6  10 -0.0682 2.44040   2
  -1  -6  10 0.89629 2.18582   5
  -1  -6  10 -0.1036 1.07807   8
  -1  -6  10 -1.0980 2.09780   3
   0  -6  10 106.854 8.12080   2
   0  -6  10 103.558 6.61181   8
   0  -6  10 108.447 7.86576   5
   0  -6  10 85.6913 8.04476   3
   0  -6  10 93.8232 7.25463   9
   1  -6  10 202.574 12.4825   8
   1  -6  10 192.534 13.7217   2
   1  -6  10 190.860 11.8054  10
   1  -6  10 187.874 13.5469   9
   1  -6  10 203.463 13.7482   5
   1  -6  10 177.827 14.0875   3
   2  -6  10 9.94531 1.46246   9
   2  -6  10 9.74923 2.77687   5
   2  -6  10 8.85213 1.53972  13
   2  -6  10 12.0450 1.48473  10
   2  -6  10 8.76045 0.92739   8
   2  -6  10 8.88274 1.27777  12
   2  -6  10 13.2085 2.84420   2
   2  -6  10 2.60903 2.83574   3
   3  -6  10 25.6270 4.09474   5
   3  -6  10 25.3168 3.00871  13
   3  -6  10 22.8683 3.78357   4
   3  -6  10 23.5108 2.58341  11
   3  -6  10 27.8841 2.26416  10
   3  -6  10 23.1656 2.21799  12
   3  -6  10 25.6218 3.40431   2
   4  -6  10 15.5543 1.81537  12
   4  -6  10 13.7032 1.38299  10
   4  -6  10 10.0847 1.95609  13
   4  -6  10 14.8048 1.73476  11
   5  -6  10 5.28001 1.35994  11
   5  -6  10 5.76500 0.97637  10
   5  -6  10 3.15840 1.39847  12
   5  -6  10 6.03097 1.54219  13
   6  -6  10 0.11254 1.15517  12
   6  -6  10 -0.7008 0.76332  11
   7   5 -10 17.1321 2.24948   9
   7   5 -10 18.9107 2.10220  18
   6   5 -10 20.0167 1.63083   8
   6   5 -10 31.0953 2.83277   9
   5   5 -10 347.923 21.8620   8
   5   5 -10 330.240 23.6663   9
   4   5 -10 -1.6560 2.00973   7
   4   5 -10 1.58001 1.36370   9
   4   5 -10 -0.0083 1.25408   8
   4   5 -10 1.68207 2.41434   3
   4   5 -10 1.10261 2.66314   2
   3   5 -10 75.9050 6.23493   7
   3   5 -10 77.2584 5.32660   8
   2   5 -10 64.7790 5.92303   7
  -2  -5  10 67.3654 5.61368   5
  -1  -5  10 42.5691 4.62949   2
  -1  -5  10 37.5956 3.06481   8
  -1  -5  10 36.2095 4.53053   3
  -1  -5  10 45.9303 4.22501   5
   0  -5  10 25.9926 3.49362   2
   0  -5  10 23.6294 2.09399   8
   0  -5  10 16.9098 3.01771   3
   0  -5  10 20.9239 3.01022   5
   1  -5  10 -0.4751 1.01135   9
   1  -5  10 0.02670 2.01113   5
   1  -5  10 -1.6898 2.38591   3
   1  -5  10 2.27155 2.48268   2
   1  -5  10 -0.2331 0.93342  10
   1  -5  10 2.50698 0.92599   8
   2  -5  10 3.76174 1.24167   9
   2  -5  10 -1.4191 2.58820   2
   2  -5  10 0.69249 0.70391   8
   2  -5  10 0.84195 2.28130   5
   2  -5  10 1.98884 2.58378   3
   2  -5  10 3.24116 2.20944   4
   2  -5  10 0.52011 0.95498  10
   2  -5  10 1.43420 0.93574  12
   3  -5  10 11.6335 1.47199   9
   3  -5  10 10.8198 2.69926   2
   3  -5  10 8.00056 2.68814   5
   3  -5  10 13.8533 1.82654  13
   3  -5  10 11.9333 1.55934  12
   3  -5  10 11.2502 1.32997  10
   3  -5  10 6.33200 2.72707   4
   3  -5  10 5.89960 2.94059   3
   4  -5  10 -1.2588 0.75436   9
   4  -5  10 -1.4473 0.94882  10
   4  -5  10 -1.0540 1.28768  12
   4  -5  10 -0.4533 1.38299  13
   4  -5  10 -0.2694 1.19176  11
   5  -5  10 1.08389 1.37166  12
   5  -5  10 4.05665 0.88322  10
   5  -5  10 3.00097 1.31914  11
   6  -5  10 3.22182 0.84464  11
   6  -5  10 4.15466 0.97497  12
   7  -5  10 3.35484 0.66520  12
   8   4 -10 1.76921 1.28345  18
   8   4 -10 4.82614 0.97890  10
   7   4 -10 18.3116 2.24472   9
   7   4 -10 25.1307 2.17851  10
   7   4 -10 18.6884 2.23120  18
   6   4 -10 4.03353 1.21048   9
   6   4 -10 1.90134 1.89955  18
   6   4 -10 5.00065 1.33898  10
   6   4 -10 6.13241 1.23094  17
   5   4 -10 16.1950 1.68171  10
   5   4 -10 12.7493 1.58148  17
   5   4 -10 10.3146 2.92809   7
   5   4 -10 13.2012 1.48459   8
   5   4 -10 15.8578 1.87471   9
   5   4 -10 17.1037 3.73662   2
   4   4 -10 10.6911 3.46143   2
   4   4 -10 12.5660 1.43906  17
   4   4 -10 16.0420 1.96245   9
   4   4 -10 12.8517 1.58673   8
   4   4 -10 12.0907 3.15403   7
   3   4 -10 1.13136 1.03816   8
   3   4 -10 0.71731 2.05550   7
   3   4 -10 -1.8791 2.62653   2
  -1  -4  10 8.57777 2.22409   2
  -1  -4  10 10.8854 2.74344   3
   0  -4  10 6.60616 2.03906   2
   0  -4  10 6.15604 2.55664   3
   1  -4  10 91.3289 5.88028  10
   1  -4  10 79.7192 6.60058   9
   1  -4  10 96.3819 6.07796   8
   1  -4  10 94.3442 7.26374   5
   1  -4  10 89.1592 7.68343   3
   1  -4  10 93.6397 6.97639   4
   1  -4  10 91.5435 7.39411   2
   2  -4  10 7.11446 2.57562   5
   2  -4  10 8.58328 1.46405   9
   2  -4  10 7.90700 1.04280   8
   2  -4  10 10.3926 1.38324  10
   2  -4  10 4.39381 2.69883   2
   2  -4  10 10.5624 1.25382  12
   2  -4  10 9.45849 2.94000   3
   2  -4  10 11.0679 2.40983   4
   3  -4  10 10.4946 1.35862   9
   3  -4  10 10.5474 1.31512  10
   3  -4  10 12.0992 3.18167   5
   3  -4  10 13.0267 3.17080   3
   3  -4  10 8.61205 3.12046   2
   3  -4  10 10.7875 2.82252   4
   3  -4  10 14.0772 1.69764  13
   3  -4  10 11.9063 1.49485  12
   4  -4  10 146.901 8.73217  10
   4  -4  10 130.913 9.44455  13
   4  -4  10 149.935 9.45689  12
   4  -4  10 132.457 9.90169  11
   4  -4  10 142.740 9.93003   9
   5  -4  10 48.3388 3.67681  12
   5  -4  10 42.0840 3.66699  11
   5  -4  10 43.8168 3.03787  10
   6  -4  10 58.5881 4.60188  11
   6  -4  10 63.9572 3.85453  10
   9   3 -10 8.66688 1.17814  18
   8   3 -10 3.35418 0.76253  17
   8   3 -10 4.96621 1.81343  18
   8   3 -10 6.71349 1.01743  10
   7   3 -10 5.88631 2.04761  18
   7   3 -10 6.59196 1.29840  10
   7   3 -10 6.19525 1.38347  17
   7   3 -10 7.00196 1.13724   9
   6   3 -10 0.92465 1.79850  18
   6   3 -10 -0.3423 1.19473  10
   6   3 -10 0.93122 1.20539  17
   6   3 -10 0.09704 1.07705   9
   5   3 -10 6.47549 3.07986   2
   5   3 -10 8.70363 1.41033  17
   5   3 -10 12.2029 3.60878   3
   5   3 -10 8.22912 2.87653   7
   5   3 -10 8.74606 1.08483   8
   5   3 -10 7.33353 1.45924   9
   5   3 -10 10.5666 1.38067  10
   4   3 -10 3.32481 1.11417  17
   4   3 -10 3.52079 1.08136  10
   4   3 -10 4.61677 1.47182   9
   4   3 -10 5.47819 3.23350   3
   4   3 -10 2.22201 0.95066   8
   4   3 -10 3.39004 2.79332   7
   4   3 -10 4.53594 3.00738   2
   3   3 -10 30.1822 4.55684   3
   3   3 -10 30.8398 3.88992   7
   3   3 -10 44.8912 4.63782   2
   3   3 -10 34.2098 2.69560   8
   2   3 -10 0.38836 2.61917   2
   2   3 -10 2.62737 2.93432   3
   0  -3  10 5.82431 2.13018   3
   0  -3  10 6.80826 2.54311   2
   1  -3  10 235.015 14.8448   8
   1  -3  10 219.040 16.5487   3
   1  -3  10 218.118 16.1016   9
   1  -3  10 229.904 15.7646   4
   1  -3  10 247.882 16.0433   2
   2  -3  10 1.97155 1.00556   9
   2  -3  10 1.17146 0.94428  12
   2  -3  10 1.35197 2.18576   3
   2  -3  10 -0.7470 1.71514   4
   2  -3  10 2.70159 2.52616   2
   2  -3  10 0.57134 0.91054  10
   2  -3  10 -0.0385 0.82822   8
   2  -3  10 2.02669 2.04574   5
   3  -3  10 347.542 22.3130  12
   3  -3  10 345.794 24.4545   3
   3  -3  10 322.599 23.7495   4
   3  -3  10 369.203 20.8589  10
   3  -3  10 330.530 23.3736   2
   3  -3  10 332.131 22.1717   8
   3  -3  10 371.956 24.0734   9
   4  -3  10 3.85506 1.08140  10
   4  -3  10 6.66847 1.45454  12
   4  -3  10 5.11291 1.17484   9
   5  -3  10 1.23480 1.30412  12
   5  -3  10 1.83776 0.86649  11
   5  -3  10 3.08932 1.14000  10
   6  -3  10 -0.2335 0.62721  10
   6  -3  10 -2.1117 0.75406  12
   6  -3  10 -2.2519 0.68624  11
   9   2 -10 47.3255 3.52335  18
   8   2 -10 96.3257 5.98950  10
   8   2 -10 93.7570 6.85249  18
   8   2 -10 97.8291 6.13994  17
   7   2 -10 20.2329 2.62231  18
   7   2 -10 22.5181 1.99845   9
   7   2 -10 21.7376 2.00948  17
   7   2 -10 22.3234 2.13273  10
   6   2 -10 471.837 35.9110   7
   6   2 -10 564.222 36.3863  18
   6   2 -10 563.715 32.8029  10
   6   2 -10 566.355 37.8012   9
   6   2 -10 558.381 32.7986  17
   5   2 -10 204.177 14.1822   7
   5   2 -10 195.166 14.3700   2
   5   2 -10 203.008 12.8355   8
   5   2 -10 204.732 14.0162   9
   5   2 -10 201.232 12.2059  17
   5   2 -10 195.465 12.1656  10
   5   2 -10 186.186 14.7787   3
   4   2 -10 1.19952 1.03170  10
   4   2 -10 2.15668 2.86817   2
   4   2 -10 1.65357 2.33357   7
   4   2 -10 4.57788 2.68448   3
   4   2 -10 1.34191 1.42162   9
   4   2 -10 1.35532 1.02325   8
   3   2 -10 91.3896 7.81836   3
   3   2 -10 76.0785 7.34109   2
   3   2 -10 86.8597 7.03537   7
   3   2 -10 83.2308 5.75242   8
   2   2 -10 14.2241 3.14808   3
   2   2 -10 21.5521 3.66094   2
   0  -2  10 9.05314 2.76637   3
   0  -2  10 16.2958 2.74388   2
   1  -2  10 20.5460 2.53630   4
   1  -2  10 20.6918 3.07959   2
   1  -2  10 19.3686 1.88028   8
   1  -2  10 12.2517 3.14374   3
   2  -2  10 0.47896 1.10568  10
   2  -2  10 0.25235 1.58803   4
   2  -2  10 -1.0702 2.38918   2
   2  -2  10 2.72764 2.44716   3
   2  -2  10 0.83503 0.92385   9
   2  -2  10 1.16004 0.90437   8
   3  -2  10 4.62920 1.25473  12
   3  -2  10 1.89973 2.32697   4
   3  -2  10 7.65207 3.33223   3
   3  -2  10 2.66666 1.06865   9
   3  -2  10 2.20361 0.85802   8
   3  -2  10 2.55378 1.06328  10
   3  -2  10 3.26067 2.63895   2
   4  -2  10 -0.6795 0.92864   9
   4  -2  10 1.64724 1.24678  12
   4  -2  10 0.87686 1.04380  10
   5  -2  10 11.1021 1.71986  12
   5  -2  10 14.9195 1.53912   9
   5  -2  10 16.2207 1.62445  10
   6  -2  10 -0.6626 0.78227  12
   6  -2  10 -0.9376 0.83420  10
   9   1 -10 0.72151 0.91235  18
   9   1 -10 0.70329 0.62758  17
   8   1 -10 41.8638 2.82469  10
   8   1 -10 39.0553 3.22871  16
   8   1 -10 41.8430 3.76150  18
   8   1 -10 39.8996 2.92572  17
   7   1 -10 2.12528 1.42143  16
   7   1 -10 3.74213 1.75396  18
   7   1 -10 0.76714 1.34882  17
   7   1 -10 3.44904 1.00670  10
   6   1 -10 8.88799 1.25158  17
   6   1 -10 8.11910 1.28158   9
   6   1 -10 5.07445 3.25553   7
   6   1 -10 7.98405 1.45044  10
   6   1 -10 8.05122 1.49906  16
   6   1 -10 7.46333 1.82074  18
   5   1 -10 1.66902 0.90089  17
   5   1 -10 1.08539 2.73090   3
   5   1 -10 3.34901 3.16910   7
   5   1 -10 1.00477 1.14043  16
   5   1 -10 2.12241 0.42982   8
   5   1 -10 -0.9736 2.50574   2
   5   1 -10 0.65633 0.96456  18
   5   1 -10 2.08038 1.23055   9
   5   1 -10 2.74359 1.24108  10
   4   1 -10 4.58056 1.31182  10
   4   1 -10 3.46758 1.41005   9
   4   1 -10 7.05633 3.03842   7
   4   1 -10 4.05450 2.82758   2
   4   1 -10 4.02665 0.97079   8
   4   1 -10 2.33098 2.99639   3
   3   1 -10 2.05987 2.40188   7
   3   1 -10 -1.8624 2.33796   3
   3   1 -10 4.82421 3.08655   2
   3   1 -10 4.64828 1.01187   8
   2   1 -10 72.5045 6.41776   3
   2   1 -10 61.3943 6.67164   2
   2   1 -10 62.4235 6.11876   6
   1   1 -10 15.3545 3.59992   3
   1   1 -10 13.7611 3.29405   2
   1  -1  10 16.3905 1.61166   8
   1  -1  10 17.5811 2.95906   2
   1  -1  10 15.3874 3.33181   3
   2  -1  10 2.33548 1.68348   4
   2  -1  10 2.67223 0.97360   9
   2  -1  10 2.94583 2.04706   2
   2  -1  10 4.11336 0.86077   8
   2  -1  10 -0.7123 2.55495   3
   3  -1  10 65.3388 4.81735   9
   3  -1  10 62.5164 4.27963   8
   3  -1  10 55.4185 5.86169   2
   3  -1  10 55.9926 5.65750   4
   3  -1  10 67.5016 4.28857  10
   4  -1  10 0.21532 1.06079  10
   4  -1  10 -0.3700 0.95328   9
   4  -1  10 -0.0811 1.24831  12
   5  -1  10 4.28098 0.91214   9
   5  -1  10 4.98330 1.11945  10
   5  -1  10 2.83379 0.97047  12
   6  -1  10 37.7750 2.53241  10
   6  -1  10 36.8070 2.77783  12
   9   0 -10 6.02787 0.96847  18
   9   0 -10 5.08456 0.86679  17
   8   0 -10 17.0151 2.03867  18
   8   0 -10 16.7643 1.94310  16
   8   0 -10 17.8777 1.42576  10
   8   0 -10 20.2099 1.84103  17
   7   0 -10 0.12130 1.52763  16
   7   0 -10 -1.5159 1.03659  18
   7   0 -10 -1.1342 1.28474  17
   7   0 -10 -0.2458 1.01678  10
   6   0 -10 0.16773 0.81704   9
   6   0 -10 0.74058 2.39827  15
   6   0 -10 0.88767 1.37359  17
   6   0 -10 0.61591 1.37102  18
   6   0 -10 -0.2167 1.12816  10
   6   0 -10 0.19430 1.34391  16
   6   0 -10 5.01550 3.15299   7
   5   0 -10 12.7281 1.63467  17
   5   0 -10 11.4266 1.52025   9
   5   0 -10 13.2002 2.27113  15
   5   0 -10 10.2461 1.59915  16
   5   0 -10 13.3183 3.07517   3
   5   0 -10 12.4396 1.55720  10
   5   0 -10 12.9939 3.02737   2
   5   0 -10 9.61710 3.14554   7
   4   0 -10 59.2959 6.68110   6
   4   0 -10 52.6620 5.83836   3
   4   0 -10 57.1195 3.70790   8
   4   0 -10 49.8081 4.29037   9
   4   0 -10 50.6179 3.89655  16
   4   0 -10 51.4777 3.76807  10
   4   0 -10 60.1615 5.54033   7
   4   0 -10 56.8439 5.99171   2
   3   0 -10 9.34632 3.38315   3
   3   0 -10 13.3103 1.48660   8
   3   0 -10 14.2979 3.32002   6
   3   0 -10 9.37763 2.76969   7
   3   0 -10 14.4282 3.59209   2
   3   0 -10 11.2131 1.95228   9
   2   0 -10 39.9678 4.68535   6
   2   0 -10 42.8095 5.18646   2
   2   0 -10 37.3595 5.01818   3
   1   0 -10 3.62086 3.30504   3
   1   0 -10 7.08511 3.61321   2
   1   0  10 9.93017 1.17616   8
   1   0  10 4.46677 2.61701   3
   2   0  10 197.142 12.2467   8
   2   0  10 175.789 13.5486   2
   2   0  10 185.847 13.2757   9
   3   0  10 21.0896 2.19497  10
   3   0  10 21.4833 2.39459   9
   3   0  10 20.8783 1.85817   8
   4   0  10 12.9197 1.50443  12
   4   0  10 14.8738 1.60740  10
   4   0  10 13.6875 1.73427   9
   5   0  10 5.46985 0.93216   9
   5   0  10 7.78847 1.37591  12
   5   0  10 8.39702 1.19411  10
   6   0  10 5.33034 0.84554  10
   6   0  10 4.36403 0.74910  12
   9  -1 -10 26.1431 2.14221  17
   9  -1 -10 30.9377 2.48577  16
   8  -1 -10 27.0192 2.22928  17
   8  -1 -10 25.2692 2.81861  16
   7  -1 -10 238.086 14.4131  10
   7  -1 -10 231.828 15.2199  16
   7  -1 -10 248.770 14.6906  17
   6  -1 -10 166.649 13.7383   7
   6  -1 -10 181.206 12.1202  16
   6  -1 -10 200.976 11.6260  10
   6  -1 -10 190.734 13.3910  15
   6  -1 -10 201.119 11.8028  17
   5  -1 -10 9.14751 2.72029   2
   5  -1 -10 13.9231 3.81219   7
   5  -1 -10 12.4668 1.49195  10
   5  -1 -10 8.05628 3.04627   3
   5  -1 -10 8.90642 1.59399  17
   5  -1 -10 12.2926 2.28167  15
   5  -1 -10 8.78142 1.64938  16
   5  -1 -10 8.30636 1.29853   9
   4  -1 -10 159.731 12.1412   3
   4  -1 -10 165.395 12.9541   6
   4  -1 -10 151.988 11.3656   9
   4  -1 -10 168.632 11.9230   7
   4  -1 -10 155.032 9.87327  10
   4  -1 -10 163.855 9.88013  17
   4  -1 -10 152.643 10.2155  16
   4  -1 -10 162.267 10.2378   8
   4  -1 -10 156.246 11.7364   2
   3  -1 -10 91.0660 5.76885   8
   3  -1 -10 84.3316 7.42055   3
   3  -1 -10 81.5480 6.48713   9
   3  -1 -10 99.0100 7.93763   2
   3  -1 -10 76.2204 5.49550  10
   3  -1 -10 91.0680 8.03269   6
   3  -1 -10 89.1297 7.54624   7
   3  -1 -10 82.7638 5.74460  16
   2  -1 -10 91.4437 8.43291   2
   2  -1 -10 86.5853 8.29907   3
   2  -1 -10 93.0728 6.26360   8
   2  -1 -10 89.5925 8.18502   6
   1  -1 -10 66.7682 7.26501   2
   1  -1 -10 62.2438 6.46467   3
   1  -1 -10 63.5484 4.74737   8
   1   1  10 12.7221 1.53441   8
   2   1  10 48.0188 4.31966   9
   2   1  10 49.7710 3.52635   8
   3   1  10 43.3792 3.22449   8
   3   1  10 45.5585 3.79818   9
   4   1  10 6.13772 0.76458   8
   4   1  10 6.79678 1.30230   9
   4   1  10 6.74314 1.35142  10
   4   1  10 8.45183 1.47674  12
   5   1  10 1.27720 0.76798  12
   5   1  10 -0.3571 0.78099   9
   5   1  10 -0.7430 1.04330  10
   6   1  10 0.97769 0.50901  12
   6   1  10 1.35925 0.65578  10
   9  -2 -10 1.53187 1.17491  17
   9  -2 -10 2.32974 1.43580  16
   8  -2 -10 8.12998 1.39503  16
   8  -2 -10 4.42972 1.45003  17
   7  -2 -10 1.24733 2.69258  15
   7  -2 -10 0.50630 1.02563  17
   7  -2 -10 0.15856 0.86140  10
   7  -2 -10 0.40585 1.20916  16
   6  -2 -10 14.1263 2.77258  15
   6  -2 -10 11.8277 1.86367  17
   6  -2 -10 14.1304 2.14496  16
   6  -2 -10 15.5503 1.53345  10
   6  -2 -10 12.6855 3.63745   7
   5  -2 -10 4.92595 1.64954  16
   5  -2 -10 4.50397 0.98002   9
   5  -2 -10 4.48557 1.30011  10
   5  -2 -10 4.45764 2.39790   2
   5  -2 -10 6.08169 1.49749  17
   5  -2 -10 7.75465 3.58022   7
   5  -2 -10 3.62079 2.14371  15
   5  -2 -10 -1.6516 4.61864   6
   5  -2 -10 2.33389 2.40947   3
   4  -2 -10 6.85105 3.28650   7
   4  -2 -10 7.77175 3.02595   2
   4  -2 -10 9.92352 1.92138  15
   4  -2 -10 9.83330 1.59553  17
   4  -2 -10 10.4026 3.26193   3
   4  -2 -10 10.7638 1.71330   9
   4  -2 -10 8.59354 4.27525   6
   4  -2 -10 10.9255 1.72131  16
   4  -2 -10 10.4055 1.54847  10
   3  -2 -10 11.3025 1.70802  16
   3  -2 -10 8.38021 1.40804  10
   3  -2 -10 8.87900 3.28565   7
   3  -2 -10 15.9997 2.08899   9
   3  -2 -10 17.2469 3.76992   3
   3  -2 -10 16.1663 3.96299   6
   3  -2 -10 12.9398 1.49470   8
   3  -2 -10 19.9234 4.02342   2
   2  -2 -10 1.48602 3.51178   6
   2  -2 -10 4.13484 1.62501   9
   2  -2 -10 2.45992 1.42712   8
   2  -2 -10 7.00331 3.59897   3
   2  -2 -10 -1.9677 3.64420   2
   1  -2 -10 -1.4117 3.29917   3
   1  -2 -10 -0.4189 1.32020   8
   1  -2 -10 1.92322 3.83081   2
   0  -2 -10 -0.9723 1.42895   8
   1   2  10 16.6996 1.77052   8
   2   2  10 1.64250 1.00932   8
   3   2  10 32.6345 3.19966   9
   3   2  10 32.2089 2.46323   8
   4   2  10 0.74597 0.52694   8
   4   2  10 -0.7712 1.12261  12
   4   2  10 0.69201 1.15509   9
   5   2  10 12.5001 1.42746  12
   5   2  10 13.5994 1.34576  10
   5   2  10 17.0657 1.73491   9
   9  -3 -10 -0.4523 1.28691  16
   9  -3 -10 -0.3258 1.09609  17
   8  -3 -10 1.17387 1.40923  17
   8  -3 -10 1.90358 1.74716  16
   7  -3 -10 8.20767 2.06634  16
   7  -3 -10 12.5502 1.04353  10
   7  -3 -10 12.0802 1.46827  17
   7  -3 -10 10.8512 2.92737  15
   6  -3 -10 4.35468 2.51057  15
   6  -3 -10 3.12480 1.13966  17
   6  -3 -10 2.01192 1.02109  10
   6  -3 -10 4.01033 1.41610  16
   5  -3 -10 12.0274 1.65346  10
   5  -3 -10 14.7326 1.86440  17
   5  -3 -10 12.2797 1.25332   9
   5  -3 -10 15.7414 2.17048  16
   5  -3 -10 12.6252 2.05198  15
   5  -3 -10 11.8427 2.26542   2
   5  -3 -10 8.70630 5.32882   6
   4  -3 -10 -1.7370 1.39415   9
   4  -3 -10 1.82956 2.83513   7
   4  -3 -10 0.62489 1.59950  16
   4  -3 -10 1.53440 1.30071  17
   4  -3 -10 2.85263 3.22017   2
   4  -3 -10 -0.5641 2.14431  15
   4  -3 -10 1.94082 1.08680  10
   4  -3 -10 0.00530 3.18471   3
   4  -3 -10 5.27794 4.45687   6
   3  -3 -10 24.6187 4.73760   6
   3  -3 -10 28.4834 2.86513  16
   3  -3 -10 23.8113 4.40754   2
   3  -3 -10 24.0395 2.00315   8
   3  -3 -10 22.0037 4.38052   3
   3  -3 -10 29.4342 3.06931   9
   3  -3 -10 22.9410 3.71519   7
   2  -3 -10 30.3096 3.25119  10
   2  -3 -10 29.7946 4.01317   9
   2  -3 -10 32.7718 5.33207   6
   2  -3 -10 34.3532 5.24274   2
   2  -3 -10 25.7596 4.82842   3
   2  -3 -10 35.2351 2.78930   8
   1  -3 -10 147.665 12.3332   2
   1  -3 -10 142.668 11.5025   9
   1  -3 -10 177.158 10.5026   8
   0  -3 -10 24.7401 2.57585   8
   2   3  10 16.5162 1.78938   8
   3   3  10 37.7959 3.24726   9
   3   3  10 29.2861 2.44987   8
   4   3  10 1.26169 0.78323  12
   4   3  10 0.71053 0.52309   8
   4   3  10 -0.1987 0.81375   9
   5   3  10 13.7090 1.44815  12
   5   3  10 13.4315 1.49322   9
   5   3  10 10.0921 1.21239  10
   9  -4 -10 36.9478 2.65274  16
   8  -4 -10 28.7068 3.23996  15
   8  -4 -10 28.1074 2.24260  17
   8  -4 -10 26.5433 2.53835  16
   7  -4 -10 41.6522 3.26711  16
   7  -4 -10 38.5030 2.88703  17
   7  -4 -10 36.6831 3.88193  15
   6  -4 -10 166.187 11.5146  15
   6  -4 -10 152.290 9.62507  10
   6  -4 -10 157.707 9.87722  17
   6  -4 -10 159.960 10.4943  16
   5  -4 -10 245.587 14.1675  10
   5  -4 -10 228.371 16.0565  15
   5  -4 -10 227.065 14.1691  17
   5  -4 -10 207.644 18.0785   6
   5  -4 -10 239.602 14.9353  16
   4  -4 -10 73.0641 5.12990  10
   4  -4 -10 69.9854 5.08218  17
   4  -4 -10 75.5006 9.50597   6
   4  -4 -10 76.2709 6.71331  14
   4  -4 -10 76.0277 5.98974  15
   4  -4 -10 75.2745 5.69943   9
   4  -4 -10 77.7793 5.61053  16
   4  -4 -10 70.3212 6.71998   2
   3  -4 -10 -0.4134 3.24415   3
   3  -4 -10 0.15759 0.63696   8
   3  -4 -10 0.20215 1.19594  16
   3  -4 -10 -3.1178 3.86481   6
   3  -4 -10 -3.5627 3.23796   2
   3  -4 -10 0.71648 1.39887   9
   2  -4 -10 12.4007 3.71537   3
   2  -4 -10 20.3631 1.88958   8
   2  -4 -10 21.3079 2.36254  10
   2  -4 -10 19.8607 2.35423   9
   2  -4 -10 16.6756 4.69563   2
   2  -4 -10 18.4656 4.50486   6
   1  -4 -10 22.5329 5.27184   2
   1  -4 -10 17.4309 4.94996   3
   1  -4 -10 30.1765 2.53319   8
   1  -4 -10 28.2512 3.61591   9
   0  -4 -10 9.00958 1.71055   8
  -1  -4 -10 42.5678 3.55981   8
   2   4  10 1.42026 1.04182   8
   3   4  10 0.03900 0.90107   9
   3   4  10 0.12648 0.79331   8
   4   4  10 1.90008 0.70729  12
   4   4  10 0.86327 1.07180   9
   8  -5 -10 14.9104 1.71825  16
   8  -5 -10 15.8061 2.32014  15
   8  -5 -10 15.4736 1.40587  17
   7  -5 -10 1.98962 1.32542  16
   7  -5 -10 4.40796 1.94591  15
   7  -5 -10 3.47646 1.21018  17
   6  -5 -10 5.65532 2.10720  16
   6  -5 -10 5.29093 1.21783  17
   6  -5 -10 4.43474 0.87165  10
   6  -5 -10 4.41148 2.67795  15
   5  -5 -10 0.95438 1.34085  10
   5  -5 -10 1.63273 2.29640  15
   5  -5 -10 2.75350 2.09383  16
   4  -5 -10 11.1450 2.35341  15
   4  -5 -10 10.6981 1.70231  10
   4  -5 -10 8.35682 2.63872  14
   4  -5 -10 12.8890 1.52056   9
   4  -5 -10 10.4914 2.26426  16
   3  -5 -10 1.07983 1.71560   9
   3  -5 -10 2.99286 4.29785   6
   3  -5 -10 -0.7411 1.84991  15
   3  -5 -10 -1.5891 1.94827  16
   2  -5 -10 21.7144 4.95266   6
   2  -5 -10 26.4644 2.17205   8
   2  -5 -10 30.6512 3.88775   9
   2  -5 -10 23.8061 2.59291  10
   1  -5 -10 52.3698 4.94134   9
   1  -5 -10 52.6201 3.86021   8
   0  -5 -10 7.70318 1.60520   8
  -1  -5 -10 24.8417 2.55959   8
  -2  -5 -10 4.17549 1.55575   8
   2   5  10 4.20867 1.09416   8
  -3  -5 -10 7.43645 1.62321   8
   3   5  10 14.0639 1.24062   8
   4   5  10 1.03167 0.56449  12
   4   5  10 -0.2731 0.91766   9
   8  -6 -10 -0.6134 1.39751  16
   8  -6 -10 1.08963 1.59222  15
   7  -6 -10 -1.3708 1.27209  16
   7  -6 -10 -1.4107 1.65480  15
   6  -6 -10 -1.3033 2.03004  16
   6  -6 -10 0.78000 1.81434  15
   5  -6 -10 1.07499 1.23317  10
   5  -6 -10 -1.5975 2.35207  15
   5  -6 -10 -1.0101 2.05931  16
   4  -6 -10 6.65375 2.20014  16
   4  -6 -10 6.61480 2.37583  15
   4  -6 -10 7.46451 1.15646   9
   4  -6 -10 6.13653 1.36603  10
   3  -6 -10 0.03159 1.55758   9
   3  -6 -10 0.88132 1.44729  16
   3  -6 -10 -2.3826 1.96052  15
   2  -6 -10 3.36932 2.02543  16
   2  -6 -10 0.82641 1.71189   9
   2  -6 -10 2.23418 0.71153   8
   2  -6 -10 3.78817 1.78429  10
   1  -6 -10 45.8169 3.47492   8
   1  -6 -10 54.5777 4.70705   9
   0  -6 -10 55.5769 4.83014   9
   0  -6 -10 45.3277 3.63074   8
  -1  -6 -10 25.7432 2.42522   8
  -2  -6 -10 35.4802 3.03782   8
   2   6  10 40.5191 2.86238   8
  -3  -6 -10 1.56519 1.09785   8
   3   6  10 0.74421 0.57241   8
   7  -7 -10 10.3562 1.81398  16
   7  -7 -10 14.6227 1.94343  15
   6  -7 -10 4.17042 1.78788  15
   6  -7 -10 4.20647 1.43987  16
   5  -7 -10 -1.5451 1.52508  15
   5  -7 -10 -0.6651 1.96581  16
   5  -7 -10 -0.7284 0.99809  10
   4  -7 -10 11.9216 1.95198  15
   4  -7 -10 10.2620 1.80965  16
   4  -7 -10 9.85900 1.71591  10
   3  -7 -10 -0.3676 1.21107   9
   3  -7 -10 0.56371 2.09036  15
   3  -7 -10 -0.1402 1.99961  16
   2  -7 -10 4.20124 1.75393  10
   2  -7 -10 6.42333 1.49201  16
   2  -7 -10 4.89003 1.59954   9
   1  -7 -10 -0.1483 0.59390   8
   1  -7 -10 1.08382 1.81357   9
   1  -7 -10 1.51269 1.79532  10
   0  -7 -10 12.0411 2.12148   9
   0  -7 -10 11.4317 1.30269   8
  -1  -7 -10 6.48624 1.15535   8
  -1  -7 -10 5.11824 1.90603   9
  -2  -7 -10 18.7537 1.63719   8
   2   7  10 17.7060 1.43283   8
   7  -8 -10 0.75061 1.26079  15
   6  -8 -10 14.4932 1.66653  16
   6  -8 -10 12.0239 1.84949  15
   5  -8 -10 5.80840 1.36697  16
   5  -8 -10 6.00879 2.17331  15
   5  -8 -10 7.32540 0.81295  10
   4  -8 -10 4.72238 1.15113  10
   4  -8 -10 4.16811 1.63360  15
   4  -8 -10 5.34971 1.41473  16
   3  -8 -10 1.70737 1.41848  15
   3  -8 -10 1.55077 0.74059   9
   3  -8 -10 1.44110 1.27114  16
   2  -8 -10 -1.4204 1.04147   9
   2  -8 -10 -0.9422 1.61975  10
   2  -8 -10 -0.3585 1.67390  16
   1  -8 -10 6.69177 1.25983  16
   1  -8 -10 2.40122 1.67710  10
   1  -8 -10 5.45562 1.17143   9
   0  -8 -10 3.71739 1.07830  16
   0  -8 -10 3.90284 1.58907   9
  -1  -8 -10 4.61931 0.58825   8
  -1  -8 -10 3.48564 1.48264   9
  -1  -8 -10 3.71581 1.19170  16
   5  -9 -10 -0.8156 1.19879  15
   5  -9 -10 -0.4560 0.82294  16
   4  -9 -10 1.68121 0.91497  10
   4  -9 -10 2.80956 1.35672  16
   4  -9 -10 -1.1585 1.17419  15
   3  -9 -10 2.20458 1.39370  16
   3  -9 -10 1.10230 1.29611  15
   3  -9 -10 1.52614 1.08723  10
   2  -9 -10 2.47462 1.29433  16
   2  -9 -10 3.53721 0.66599   9
   1  -9 -10 34.5662 2.76465  16
   1  -9 -10 45.9028 3.21924   9
   0  -9 -10 27.0611 2.36293   9
  -2 -13  11 10.3690 1.28392   9
  -1 -13  11 6.32215 1.15426   9
  -1 -13  11 6.19028 1.34274  14
   0 -13  11 47.6871 3.65096   9
   0 -13  11 54.8293 4.26237  14
   0 -13  11 56.0627 3.54105  10
   1 -13  11 29.1123 2.03420  10
   1 -13  11 20.4450 2.46086  14
   2 -13  11 8.07143 0.89382  10
   2 -13  11 11.5185 1.70682  14
   3  12 -11 -0.3018 0.58572   8
  -3 -12  11 1.06343 1.51657  14
  -3 -12  11 0.01640 0.51028   8
  -2 -12  11 79.8689 6.32618  14
  -2 -12  11 84.0324 6.05126   9
  -1 -12  11 3.63459 1.32491   9
  -1 -12  11 5.45916 2.15575  14
   0 -12  11 11.1653 1.44318   9
   0 -12  11 8.34915 1.86609  14
   0 -12  11 13.7053 1.57853  10
   1 -12  11 6.10812 1.01163  10
   1 -12  11 6.02267 0.88322   9
   1 -12  11 6.83652 1.66586  14
   2 -12  11 23.4075 2.15840  13
   2 -12  11 32.7841 2.30386  10
   2 -12  11 23.6516 2.69359  14
   3 -12  11 4.24158 0.70788  10
   3 -12  11 4.15031 0.92589  13
   4 -12  11 4.72089 1.08792  13
   4  11 -11 5.44391 1.04224  18
   4  11 -11 6.08109 1.02940   8
  -4 -11  11 8.62106 1.09327   8
  -4 -11  11 5.75887 1.23217  14
   3  11 -11 9.90526 1.44557   8
  -3 -11  11 12.5162 1.41380   8
  -2 -11  11 0.83229 0.81106   8
  -1 -11  11 5.01361 1.19191   9
  -1 -11  11 4.67391 0.85287   8
  -1 -11  11 2.84561 2.32342  14
   0 -11  11 31.3315 2.84400  10
   0 -11  11 32.7544 3.08356   9
   0 -11  11 25.7137 3.34810  14
   1 -11  11 36.2079 3.17174   9
   1 -11  11 30.7518 2.79933  13
   1 -11  11 44.1758 4.17247  14
   1 -11  11 37.3050 2.95641  10
   2 -11  11 0.04549 1.93747  14
   2 -11  11 0.86169 1.08237  10
   2 -11  11 -1.2035 1.35179  13
   3 -11  11 13.8716 1.58583  13
   3 -11  11 15.4065 1.57966  10
   4 -11  11 21.6733 2.37027  13
   5  10 -11 9.06305 1.27246  18
   5  10 -11 11.5544 1.12579   8
  -5 -10  11 10.8492 1.33670   8
   4  10 -11 8.47556 1.25309   8
  -4 -10  11 8.16747 1.31345   8
  -3 -10  11 0.79106 1.06721   8
  -2 -10  11 -0.5168 0.97667   8
  -2 -10  11 1.39588 1.08428   9
  -1 -10  11 -0.1167 0.94868   8
  -1 -10  11 -0.0686 1.39264   9
   0 -10  11 134.258 8.72029   9
   0 -10  11 105.827 7.68786   8
   0 -10  11 120.896 9.13479  14
   1 -10  11 78.8880 6.71918  14
   1 -10  11 80.0796 5.70728  13
   1 -10  11 80.8380 5.92657   9
   1 -10  11 76.1182 5.26203  10
   2 -10  11 141.546 10.8315  14
   2 -10  11 151.093 8.89970  10
   2 -10  11 148.272 9.70016  13
   2 -10  11 134.345 10.0501   9
   3 -10  11 -0.5512 0.90175  10
   3 -10  11 0.87114 1.11508  13
   4 -10  11 101.221 5.88797  10
   4 -10  11 96.0120 6.46862  12
   4 -10  11 93.2163 6.62197  13
   5 -10  11 28.4035 2.24290  12
   5 -10  11 30.2538 2.59021  13
   6   9 -11 80.3955 6.01091  18
   6   9 -11 92.5546 6.36872   9
   5   9 -11 15.3848 1.53685   8
   4   9 -11 147.544 9.86902   8
  -4  -9  11 150.821 9.90405   8
  -3  -9  11 28.8208 2.51391   8
  -2  -9  11 22.7797 2.17945   8
  -1  -9  11 145.876 10.4710   9
  -1  -9  11 138.254 9.33399   8
   0  -9  11 194.104 12.2369  10
   0  -9  11 218.880 14.1107   9
   0  -9  11 182.627 12.7745   8
   0  -9  11 196.107 12.9730  13
   1  -9  11 6.20124 1.43364  10
   1  -9  11 5.32886 1.61403  13
   1  -9  11 6.39079 2.13786  14
   1  -9  11 8.61601 1.62907   9
   2  -9  11 56.4085 4.47450  13
   2  -9  11 57.8265 4.29433   9
   2  -9  11 59.2864 3.89029  10
   2  -9  11 46.1006 4.52847  14
   3  -9  11 37.6726 3.25799  13
   3  -9  11 34.3812 2.88200  12
   3  -9  11 47.1766 2.92128  10
   4  -9  11 15.2062 1.61634  12
   4  -9  11 14.8226 2.06696  13
   4  -9  11 17.9597 1.56500  10
   5  -9  11 12.4445 1.38799  13
   5  -9  11 11.4140 1.22978  12
   7   8 -11 -0.9879 0.81330  18
   6   8 -11 93.6836 6.63198  18
   5   8 -11 -1.3085 1.44610   9
   5   8 -11 -1.4181 1.05364   8
   4   8 -11 7.55653 1.42669   8
   3   8 -11 5.52514 1.43612   8
  -3  -8  11 6.38661 1.31392   8
  -2  -8  11 1.85248 1.09021   8
  -1  -8  11 112.632 7.02176   8
  -1  -8  11 93.1124 7.70851   9
   0  -8  11 2.40975 2.57095   5
   0  -8  11 -3.3145 2.60835   2
   0  -8  11 0.04772 1.25320  10
   0  -8  11 -1.7892 1.24032   9
   0  -8  11 -0.9567 1.01422   8
   0  -8  11 -2.9991 1.20680  13
   1  -8  11 49.3267 3.83190  13
   1  -8  11 44.0088 3.12645   8
   1  -8  11 48.7402 4.15344   9
   1  -8  11 35.0193 4.86180   5
   1  -8  11 44.7103 3.42184  10
   2  -8  11 27.8424 2.69459   9
   2  -8  11 30.1238 2.54919  10
   2  -8  11 27.0755 3.13585  13
   3  -8  11 32.9365 2.97598  12
   3  -8  11 38.6541 2.96391  10
   3  -8  11 38.6615 3.15068  13
   3  -8  11 34.7146 2.77817   9
   4  -8  11 6.52684 0.95677  10
   4  -8  11 5.81423 1.33895  13
   4  -8  11 4.64410 1.36469  12
   5  -8  11 22.9507 2.13838  12
   5  -8  11 17.9605 1.98254  13
   6  -8  11 21.3539 1.86351  12
   7   7 -11 20.4535 2.12861  18
   6   7 -11 2.49269 1.77103  18
   6   7 -11 3.44319 1.37510   9
   6   7 -11 2.38074 0.59690   8
   5   7 -11 18.9843 1.91013   8
   5   7 -11 22.1833 2.39775   9
   4   7 -11 39.7122 3.15876   8
   3   7 -11 27.2803 2.55987   8
  -2  -7  11 116.630 7.88780   8
  -1  -7  11 37.3673 3.03541   8
  -1  -7  11 36.4330 4.34965   5
   0  -7  11 159.541 10.3527  13
   0  -7  11 169.845 11.6224   5
   0  -7  11 161.331 10.1997   8
   0  -7  11 127.247 11.9505   3
   0  -7  11 159.079 11.8559   2
   0  -7  11 154.362 11.1435   9
   1  -7  11 -0.1881 1.27651  13
   1  -7  11 0.13473 1.36120   9
   1  -7  11 0.17312 0.78230   8
   1  -7  11 -2.3898 2.80046   2
   1  -7  11 -0.3873 1.07911  10
   1  -7  11 0.14697 3.17645   5
   1  -7  11 2.88698 2.18382   3
   2  -7  11 83.2366 5.23804  10
   2  -7  11 69.6142 5.47404  12
   2  -7  11 69.7530 7.19295   5
   2  -7  11 86.1092 5.86028  13
   2  -7  11 85.2068 6.04388   9
   3  -7  11 0.54426 1.07747  10
   3  -7  11 0.67806 1.06021   9
   3  -7  11 0.93774 1.66682  13
   3  -7  11 0.85386 1.16033  12
   4  -7  11 158.769 10.0006  13
   4  -7  11 150.459 8.98973  10
   4  -7  11 137.261 10.2303  11
   4  -7  11 143.879 9.67797  12
   5  -7  11 14.5710 1.56414  13
   5  -7  11 13.2246 1.42468  12
   5  -7  11 13.6655 1.28626  10
   6  -7  11 83.1239 5.52983  12
   8   6 -11 -0.2717 0.89984  18
   7   6 -11 30.4962 3.36296  18
   7   6 -11 29.2172 2.57752  10
   7   6 -11 32.0424 2.86274   9
   6   6 -11 23.3550 1.78716   8
   6   6 -11 25.2463 2.56500  10
   6   6 -11 28.7734 2.93964   9
   6   6 -11 27.5787 3.33249  18
   5   6 -11 61.7902 5.33458   9
   5   6 -11 66.6138 4.58264   8
   4   6 -11 108.970 7.37109   8
   3   6 -11 18.3357 2.09751   8
   2   6 -11 804.703 53.7794   7
  -2  -6  11 850.007 54.3484   5
  -2  -6  11 854.908 53.5707   8
  -1  -6  11 258.166 16.8020   8
  -1  -6  11 260.046 17.7943   5
   0  -6  11 140.949 10.3132   5
   0  -6  11 142.655 9.00911   8
   0  -6  11 133.376 10.5164   2
   0  -6  11 127.463 9.90846   9
   1  -6  11 2.95302 0.90197   8
   1  -6  11 4.38525 1.15013  10
   1  -6  11 -0.8860 2.53295   3
   1  -6  11 -4.4082 2.83330   2
   1  -6  11 3.46394 2.51201   5
   1  -6  11 2.07663 1.40655   9
   2  -6  11 1.31397 1.06321   9
   2  -6  11 -1.0178 2.50024   5
   2  -6  11 1.39064 1.09283  10
   2  -6  11 0.25466 1.38430  13
   2  -6  11 3.48485 2.75140   2
   2  -6  11 1.05745 0.46064   8
   2  -6  11 2.21951 1.01441  12
   3  -6  11 21.3409 2.41842  10
   3  -6  11 20.0492 2.33013  13
   3  -6  11 21.0278 2.38601  12
   3  -6  11 19.6075 3.97264   5
   3  -6  11 21.8689 2.37197   9
   4  -6  11 42.3568 3.37253  13
   4  -6  11 43.5882 3.46414  12
   4  -6  11 39.2599 2.96059  10
   5  -6  11 20.6804 2.29810  11
   5  -6  11 22.7437 2.06953  12
   5  -6  11 25.0830 1.93981  10
   5  -6  11 21.9345 2.06504  13
   6  -6  11 4.62278 0.89075  12
   8   5 -11 171.666 12.2854  18
   8   5 -11 192.589 11.0439  10
   7   5 -11 19.1445 2.15425   9
   7   5 -11 15.3561 1.76349  10
   7   5 -11 16.2490 1.99637  18
   6   5 -11 1.09405 0.45990   8
   6   5 -11 2.81481 1.96136  18
   6   5 -11 1.26536 1.60195   9
   6   5 -11 1.51699 1.41016  10
   5   5 -11 0.48570 2.56609   7
   5   5 -11 0.90027 1.17293   8
   5   5 -11 1.35661 1.44436   9
   4   5 -11 -2.6837 2.18603   7
   4   5 -11 -0.3493 1.69241   9
   4   5 -11 -0.3840 1.30963   8
   3   5 -11 8.24586 1.39178   8
   3   5 -11 7.13153 2.44995   7
   2   5 -11 38.2932 4.68821   7
  -2  -5  11 40.8043 4.17768   5
  -1  -5  11 -2.7004 2.24314   5
  -1  -5  11 1.08917 0.96911   8
   0  -5  11 51.8376 3.62933   8
   0  -5  11 48.6316 5.50725   2
   0  -5  11 45.9143 4.13644   9
   0  -5  11 60.6235 5.55019   5
   1  -5  11 64.8554 4.41121  10
   1  -5  11 56.7945 6.32789   3
   1  -5  11 65.5229 5.96787   2
   1  -5  11 64.9103 6.11060   5
   1  -5  11 62.3438 5.08395   9
   1  -5  11 72.4724 4.56325   8
   2  -5  11 1.92850 2.26273   4
   2  -5  11 -1.3330 1.03288   9
   2  -5  11 -0.4012 0.69107   8
   2  -5  11 -0.6630 2.71141   2
   2  -5  11 -0.7759 2.19330   5
   2  -5  11 0.38440 0.97334  12
   2  -5  11 -0.4751 1.27522  10
   2  -5  11 -2.3529 2.47546   3
   3  -5  11 22.0842 2.51156  12
   3  -5  11 27.8740 3.90853   4
   3  -5  11 22.9690 2.23520  10
   3  -5  11 24.1012 2.62361   9
   3  -5  11 23.8408 2.86730  13
   4  -5  11 -0.9650 0.99926  10
   4  -5  11 -0.3595 1.37326  13
   4  -5  11 -0.8916 0.76175   9
   4  -5  11 -0.8201 1.26151  12
   5  -5  11 6.77956 1.14080  12
   5  -5  11 6.29626 1.08784  10
   6  -5  11 36.8945 2.74539  12
   8   4 -11 43.6435 2.98027  10
   8   4 -11 42.3978 3.47864  18
   7   4 -11 16.7834 2.09802  18
   7   4 -11 18.1232 1.94268   9
   7   4 -11 19.9009 1.88374  10
   6   4 -11 24.8227 2.27664  17
   6   4 -11 20.6511 2.66287  18
   6   4 -11 23.7931 3.08602   9
   6   4 -11 21.6163 2.48893  10
   5   4 -11 56.4121 4.94291   9
   5   4 -11 54.8373 4.19348  10
   5   4 -11 53.7536 3.88894  17
   5   4 -11 56.0423 6.17529   7
   5   4 -11 52.7280 3.85475   8
   4   4 -11 14.2082 1.71206   8
   4   4 -11 11.0729 3.27734   3
   4   4 -11 14.3536 3.55608   7
   4   4 -11 15.9618 2.09104   9
   4   4 -11 13.1468 1.58118  17
   4   4 -11 10.4624 3.82330   2
   3   4 -11 2.67381 1.15394   8
   3   4 -11 2.15149 2.90726   7
  -1  -4  11 3.29221 1.02836   8
   0  -4  11 139.461 11.5094   3
   0  -4  11 155.372 9.83713   8
   1  -4  11 11.8432 3.09077   2
   1  -4  11 6.56364 1.23132  10
   1  -4  11 5.62726 2.49187   3
   1  -4  11 5.30826 2.42106   5
   1  -4  11 7.20515 1.03445   8
   1  -4  11 5.89195 1.48871   9
   2  -4  11 41.7331 3.22868  10
   2  -4  11 37.6392 4.74869   3
   2  -4  11 41.7494 3.11326  12
   2  -4  11 24.7019 4.05153   5
   2  -4  11 39.2288 4.29683   4
   2  -4  11 41.8480 2.94082   8
   2  -4  11 43.1038 4.89284   2
   2  -4  11 40.4877 3.65177   9
   3  -4  11 51.7578 5.90278   4
   3  -4  11 64.1822 4.50999  12
   3  -4  11 66.9328 4.87058   9
   3  -4  11 70.6210 4.83898  13
   3  -4  11 66.6760 4.32625  10
   3  -4  11 48.8651 6.07688   5
   4  -4  11 457.823 26.6493  10
   4  -4  11 422.511 28.5968  13
   4  -4  11 456.600 28.5689  12
   4  -4  11 442.549 30.6712   9
   5  -4  11 0.80457 1.26572  12
   5  -4  11 0.84228 0.88863  10
   6  -4  11 202.452 14.3755  12
   6  -4  11 242.861 13.3226  10
   8   3 -11 5.67369 1.18260  10
   8   3 -11 3.20067 1.72745  18
   8   3 -11 3.25804 1.01194  17
   7   3 -11 14.5990 1.67513  17
   7   3 -11 14.1396 1.62808  10
   7   3 -11 13.3388 1.71979   9
   7   3 -11 12.5461 2.26750  18
   6   3 -11 53.9806 4.76232   9
   6   3 -11 60.2209 4.94136  18
   6   3 -11 55.8151 4.07729  17
   6   3 -11 57.2636 4.04785  10
   5   3 -11 37.0154 2.87928   8
   5   3 -11 38.1178 3.63276   9
   5   3 -11 31.4388 4.56289   7
   5   3 -11 41.4091 3.14365  17
   5   3 -11 41.3569 3.15626  10
   5   3 -11 34.6577 4.49602   2
   4   3 -11 96.8932 8.68838   2
   4   3 -11 97.9775 6.48876  10
   4   3 -11 109.327 6.77531   8
   4   3 -11 96.0746 7.66397   9
   4   3 -11 102.894 8.21241   7
   4   3 -11 96.1857 9.17095   3
   3   3 -11 240.742 17.2961   2
   3   3 -11 246.597 18.1242   3
   3   3 -11 220.691 17.2088   9
   3   3 -11 257.415 15.9100   8
   3   3 -11 265.344 17.2019   7
   2   3 -11 68.1466 4.83373   8
   0  -3  11 387.214 23.7533   8
   0  -3  11 345.207 25.7802   3
   1  -3  11 2.98767 2.91252   3
   1  -3  11 5.76944 1.01455  12
   1  -3  11 5.40317 2.85622   2
   1  -3  11 8.29055 1.09769   8
   1  -3  11 7.07490 1.47949   9
   2  -3  11 2.49376 1.98474   4
   2  -3  11 0.60414 2.78863   5
   2  -3  11 1.68671 3.04039   3
   2  -3  11 -0.5962 1.07992   9
   2  -3  11 1.42195 1.00496  12
   2  -3  11 7.47887 3.02725   2
   2  -3  11 0.85786 0.92924   8
   2  -3  11 0.82077 1.05194  10
   3  -3  11 1.49103 1.31344   9
   3  -3  11 2.35005 0.61053   8
   3  -3  11 -2.1206 2.30288   4
   3  -3  11 3.08024 1.19285  12
   3  -3  11 2.07223 1.22088  13
   3  -3  11 4.25007 1.12820  10
   4  -3  11 1.21079 1.36531  12
   4  -3  11 0.84998 1.10899  10
   4  -3  11 -0.6716 1.08318   9
   5  -3  11 9.19792 1.15323  10
   5  -3  11 8.78659 1.47481  12
   6  -3  11 0.24480 0.60550  10
   6  -3  11 1.67164 0.78757  12
   9   2 -11 183.433 12.3070  18
   8   2 -11 100.414 7.15067  18
   8   2 -11 94.3348 6.28388  17
   8   2 -11 101.595 6.10792  10
   7   2 -11 18.1678 1.94702  10
   7   2 -11 15.6475 1.86355  17
   7   2 -11 19.4503 2.09897  18
   7   2 -11 19.0080 1.80183   9
   6   2 -11 300.001 20.5648  18
   6   2 -11 313.939 21.3688   9
   6   2 -11 301.844 18.5429  10
   6   2 -11 310.976 18.6074  17
   5   2 -11 1.84218 1.52218   9
   5   2 -11 3.68749 0.80795   8
   5   2 -11 3.45296 3.62309   7
   5   2 -11 3.04872 1.18564  10
   5   2 -11 3.04876 1.36446  17
   5   2 -11 2.30400 3.10451   2
   5   2 -11 0.12612 3.20835   3
   4   2 -11 0.78529 3.32713   2
   4   2 -11 0.74182 1.08957   8
   4   2 -11 2.16532 2.79519   3
   4   2 -11 -1.7074 1.50227   9
   4   2 -11 5.00300 3.28581   7
   4   2 -11 -1.8229 1.33845  10
   3   2 -11 60.7008 6.03604   7
   3   2 -11 65.5078 6.92035   3
   3   2 -11 66.2841 6.69718   2
   3   2 -11 50.7152 4.97898   9
   3   2 -11 67.7212 4.36962   8
   2   2 -11 17.3733 1.96912   8
   2   2 -11 16.9793 3.39059   2
   2   2 -11 15.6461 3.95752   3
   0  -2  11 138.012 9.09389   8
   1  -2  11 63.5510 5.25067   9
   1  -2  11 63.0434 6.78356   3
   1  -2  11 75.5187 4.80740   8
   2  -2  11 194.691 12.1413  10
   2  -2  11 194.588 12.8746  12
   2  -2  11 192.127 14.9539   3
   2  -2  11 209.227 12.8528   8
   2  -2  11 195.145 13.9196   9
   3  -2  11 31.2423 2.32612   8
   3  -2  11 28.4759 2.91331   9
   3  -2  11 31.7226 2.65994  10
   3  -2  11 34.9143 2.91751  12
   4  -2  11 22.0177 2.40681  12
   4  -2  11 20.8265 2.11994  10
   4  -2  11 19.6316 2.38704   9
   5  -2  11 0.59230 1.18507  12
   5  -2  11 0.71361 0.97907  10
   5  -2  11 -0.6374 0.60247   9
   6  -2  11 5.41154 0.84071  12
   6  -2  11 5.94514 0.78927  10
   9   1 -11 -0.0314 0.83345  17
   8   1 -11 5.13687 0.90459  10
   8   1 -11 4.11258 1.01030  17
   8   1 -11 2.93244 1.15546  18
   7   1 -11 1.80363 1.16371  18
   7   1 -11 1.41970 1.24139  10
   7   1 -11 2.30239 1.03292  17
   6   1 -11 169.557 9.98622  10
   6   1 -11 140.056 10.2973  16
   6   1 -11 166.944 11.3304   9
   6   1 -11 170.124 9.95896  17
   6   1 -11 153.203 11.0756  18
   5   1 -11 21.6516 2.12138   9
   5   1 -11 20.6898 2.03009  17
   5   1 -11 16.8729 1.98789  18
   5   1 -11 20.7494 3.62735   2
   5   1 -11 21.7327 2.22766  10
   5   1 -11 17.5450 1.33365   8
   5   1 -11 13.9222 3.69845   3
   5   1 -11 16.3567 3.65004   7
   4   1 -11 41.9242 3.85093   9
   4   1 -11 47.9898 5.60946   2
   4   1 -11 38.4734 3.30790  10
   4   1 -11 41.0490 5.16678   3
   4   1 -11 47.0681 5.19388   7
   4   1 -11 46.8055 3.20544   8
   3   1 -11 -0.0678 1.46778  10
   3   1 -11 -0.2528 1.72453   9
   3   1 -11 1.55855 3.37072   2
   3   1 -11 -3.4025 2.51215   7
   3   1 -11 0.80866 1.25647   8
   3   1 -11 -0.9287 3.31258   3
   2   1 -11 95.5681 8.52837   2
   2   1 -11 85.8991 8.49290   3
   2   1 -11 91.1627 6.31003   8
   0  -1  11 77.1976 5.34723   8
   1  -1  11 111.776 7.42394   8
   2  -1  11 253.891 15.2266   8
   2  -1  11 230.993 16.4731   9
   2  -1  11 210.587 17.4408   3
   3  -1  11 331.754 20.9255   9
   3  -1  11 300.304 18.1470  10
   3  -1  11 290.619 19.3506  12
   3  -1  11 279.223 19.2740   8
   4  -1  11 3.55267 1.28446  12
   4  -1  11 4.02313 1.22451  10
   4  -1  11 3.42814 1.09669   9
   5  -1  11 28.8626 2.38396  10
   5  -1  11 28.1676 2.45327  12
   5  -1  11 33.2354 2.38524   9
   6  -1  11 30.0859 2.22393  12
   6  -1  11 29.8860 2.01548  10
   9   0 -11 2.42466 0.78398  17
   8   0 -11 7.91860 0.83852  10
   8   0 -11 5.41639 1.20070  18
   8   0 -11 8.29193 1.27598  16
   8   0 -11 7.62734 1.47513  17
   7   0 -11 47.7242 3.60017  17
   7   0 -11 40.1514 3.84705  18
   7   0 -11 42.0203 3.67635  16
   7   0 -11 46.5298 3.11940  10
   6   0 -11 25.8962 2.83578  16
   6   0 -11 26.2426 2.40140  10
   6   0 -11 25.3689 2.54568   9
   6   0 -11 27.0818 2.40277  17
   5   0 -11 101.918 7.90344  15
   5   0 -11 102.882 7.18323  16
   5   0 -11 119.062 7.02933  17
   5   0 -11 90.7821 8.78877   3
   5   0 -11 108.935 6.87637  10
   5   0 -11 113.544 7.89195   9
   5   0 -11 109.853 8.93950   7
   5   0 -11 104.919 8.48994   2
   4   0 -11 161.741 11.7032   9
   4   0 -11 164.809 10.0933  10
   4   0 -11 152.937 10.4066  16
   4   0 -11 170.625 12.3104   2
   4   0 -11 165.107 10.5693   8
   4   0 -11 151.267 12.5679   3
   4   0 -11 175.961 12.1623   7
   3   0 -11 104.878 7.35984  16
   3   0 -11 102.756 7.17797  10
   3   0 -11 113.500 9.40370   3
   3   0 -11 119.385 9.11484   7
   3   0 -11 123.152 7.56572   8
   3   0 -11 108.480 8.36675   9
   3   0 -11 125.200 9.71966   2
   3   0 -11 117.008 9.49715   6
   2   0 -11 3.14726 1.27423   8
   2   0 -11 3.94554 1.47479  16
   2   0 -11 1.80090 1.60164   9
   2   0 -11 2.13303 2.79190   3
   2   0 -11 3.18416 3.87542   2
   1   0 -11 120.813 8.16744   8
   1   0  11 43.1741 3.19664   8
   2   0  11 107.458 8.17033   9
   2   0  11 116.411 7.45692   8
   3   0  11 10.9422 1.65952   9
   3   0  11 17.2553 1.39853   8
   4   0  11 -0.0483 1.20469  12
   4   0  11 -0.7530 1.03491   9
   4   0  11 -0.6702 1.12550  10
   5   0  11 -1.1775 0.77415   9
   5   0  11 -0.3047 1.01483  10
   5   0  11 0.32013 0.77720  12
   9  -1 -11 96.9027 6.01263  17
   8  -1 -11 1.02823 1.33440  17
   8  -1 -11 1.14715 1.60968  16
   7  -1 -11 347.305 22.2561  16
   7  -1 -11 361.738 21.2444  10
   6  -1 -11 158.414 9.59207  17
   6  -1 -11 153.229 10.4745   9
   6  -1 -11 154.843 9.33014  10
   6  -1 -11 148.321 9.92331  16
   6  -1 -11 137.649 10.8715  15
   5  -1 -11 0.93172 1.48826  17
   5  -1 -11 0.82258 1.52093  16
   5  -1 -11 0.19588 1.95220  15
   5  -1 -11 0.39835 1.18943   9
   5  -1 -11 -3.8759 2.75197   2
   5  -1 -11 1.64698 2.99417   7
   5  -1 -11 0.92453 1.13452  10
   4  -1 -11 91.3293 6.27086  16
   4  -1 -11 93.1722 6.01826  10
   4  -1 -11 89.5450 6.03189   8
   4  -1 -11 97.2036 7.98016   7
   4  -1 -11 78.9038 8.12395   3
   4  -1 -11 97.9655 7.08714   9
   4  -1 -11 87.6875 9.01040   6
   4  -1 -11 95.9561 8.05424   2
   3  -1 -11 -0.0690 3.88666   6
   3  -1 -11 3.48047 1.89063   9
   3  -1 -11 -5.0716 3.29129   3
   3  -1 -11 0.13267 1.12760  10
   3  -1 -11 5.83178 3.54324   7
   3  -1 -11 1.88684 1.34281  16
   3  -1 -11 1.40568 3.66236   2
   3  -1 -11 3.67444 1.19490   8
   2  -1 -11 0.89577 2.02203   9
   2  -1 -11 1.23127 1.48306   8
   2  -1 -11 1.80416 3.59763   3
   2  -1 -11 4.75165 4.03900   2
   1  -1 -11 60.7068 4.46529   8
   1   1  11 63.7225 4.55388   8
   2   1  11 87.9314 6.82956   9
   2   1  11 95.1151 6.24372   8
   3   1  11 6.04611 1.65001   9
   3   1  11 4.56463 1.02657   8
   4   1  11 37.4416 3.10901  12
   4   1  11 38.7327 3.22210   9
   4   1  11 34.8080 2.88511  10
   5   1  11 0.32783 0.69182   9
   5   1  11 0.58264 0.68323  12
   5   1  11 -0.0869 0.66982  10
   9  -2 -11 -0.0459 0.84440  16
   9  -2 -11 1.31339 1.03862  17
   8  -2 -11 9.38928 1.44212  16
   8  -2 -11 10.5021 1.30539  17
   7  -2 -11 11.2269 2.06329  16
   7  -2 -11 8.96372 2.81581  15
   7  -2 -11 10.6808 1.13955  10
   7  -2 -11 8.56698 1.71147  17
   6  -2 -11 57.8063 4.32858  17
   6  -2 -11 56.0844 4.59965  16
   6  -2 -11 50.8995 5.30196  15
   6  -2 -11 59.3392 3.88244  10
   5  -2 -11 1.90456 1.67516  16
   5  -2 -11 1.19355 1.07680   9
   5  -2 -11 -0.0769 1.50976  17
   5  -2 -11 1.25800 3.13884   7
   5  -2 -11 1.86377 2.08737  15
   5  -2 -11 2.73467 1.44526  10
   5  -2 -11 1.78522 4.72282   6
   4  -2 -11 140.169 12.1932   6
   4  -2 -11 134.595 11.0589   7
   4  -2 -11 155.256 9.48748  16
   4  -2 -11 141.537 8.97580  17
   4  -2 -11 145.553 11.0489   2
   4  -2 -11 133.439 11.2583   3
   4  -2 -11 143.709 9.13308  10
   4  -2 -11 149.113 10.4823   9
   3  -2 -11 -0.0060 1.36068  10
   3  -2 -11 -1.0927 1.43150  16
   3  -2 -11 -1.3256 1.82988   9
   3  -2 -11 7.05082 3.98139   2
   3  -2 -11 -2.2846 2.51888   7
   3  -2 -11 -0.3784 1.05612   8
   3  -2 -11 2.79990 3.58767   6
   3  -2 -11 -0.2279 3.39896   3
   2  -2 -11 71.6105 4.78019   8
   2  -2 -11 59.4990 7.54253   2
   2  -2 -11 60.9142 5.78173   9
   2  -2 -11 60.9825 6.76625   3
   1  -2 -11 -2.4711 1.30995   8
   0  -2 -11 39.5479 3.36785   8
   1   2  11 55.0722 3.97805   8
   2   2  11 25.5785 2.19374   8
   3   2  11 17.6360 1.89721   9
   3   2  11 14.7295 1.49589   8
   4   2  11 40.6864 3.08436   9
   4   2  11 31.1090 2.69228  12
   5   2  11 58.3961 3.78898  10
   5   2  11 53.1973 3.96272  12
   5   2  11 64.0365 4.18614   9
   8  -3 -11 2.30534 1.05365  17
   8  -3 -11 2.66089 1.74996  16
   7  -3 -11 30.6378 3.18921  16
   7  -3 -11 24.0137 3.34627  15
   7  -3 -11 26.0753 1.83039  10
   7  -3 -11 26.1481 2.68005  17
   6  -3 -11 -0.9513 2.29829  15
   6  -3 -11 0.40878 1.56242  17
   6  -3 -11 -2.7852 1.89638  16
   6  -3 -11 -1.2278 1.15143  10
   5  -3 -11 292.027 17.7773  17
   5  -3 -11 302.456 17.6998  10
   5  -3 -11 285.950 19.9077  15
   5  -3 -11 275.439 20.1981   9
   5  -3 -11 306.618 18.5566  16
   4  -3 -11 1.62992 1.56197   9
   4  -3 -11 4.63894 3.19518   2
   4  -3 -11 3.69874 4.42944   6
   4  -3 -11 3.99451 1.50612  17
   4  -3 -11 3.33405 1.50236  10
   4  -3 -11 2.61248 1.79497  16
   3  -3 -11 51.3718 4.06969  10
   3  -3 -11 46.5489 6.37725   6
   3  -3 -11 51.7328 6.78748   3
   3  -3 -11 58.1473 3.91289   8
   3  -3 -11 63.7559 5.18582   9
   3  -3 -11 62.8867 4.56056  16
   3  -3 -11 53.0025 6.68388   2
   2  -3 -11 101.376 8.12745   9
   2  -3 -11 112.817 7.00566   8
   2  -3 -11 81.3375 9.50785   3
   2  -3 -11 99.8415 9.49006   2
   1  -3 -11 419.505 26.0172   8
   1  -3 -11 386.082 28.1798   9
   0  -3 -11 70.6325 5.29669   8
  -1  -3 -11 149.219 10.2861   8
   1   3  11 156.538 10.1241   8
   2   3  11 2.78818 1.03636   8
   3   3  11 28.5310 2.72753   9
   3   3  11 21.7114 1.97253   8
   4   3  11 -1.8217 0.96948   9
   4   3  11 -0.0636 0.70293  12
   8  -4 -11 29.1379 2.37961  16
   8  -4 -11 24.2122 2.06743  17
   7  -4 -11 110.423 7.33662  17
   7  -4 -11 120.671 8.76907  15
   7  -4 -11 123.505 7.78783  16
   6  -4 -11 8.57844 1.30257  17
   6  -4 -11 9.00229 1.96174  15
   6  -4 -11 9.28340 1.22367  10
   6  -4 -11 9.67926 2.22820  16
   5  -4 -11 199.755 12.1566  17
   5  -4 -11 219.287 12.1936  10
   5  -4 -11 165.347 13.5589  15
   5  -4 -11 205.563 12.7093  16
   4  -4 -11 34.5995 3.58103  16
   4  -4 -11 31.3744 3.72251  15
   4  -4 -11 31.7643 2.73534  17
   4  -4 -11 34.6336 3.25155   9
   4  -4 -11 22.7103 5.60998   6
   4  -4 -11 31.0646 2.89548  10
   3  -4 -11 1.86294 0.55423   8
   3  -4 -11 2.20558 1.88818   9
   3  -4 -11 0.93429 5.25387   6
   3  -4 -11 1.38909 1.50252  10
   3  -4 -11 0.84247 1.87482  16
   2  -4 -11 4.62823 1.09173   8
   2  -4 -11 6.59144 1.81691   9
   1  -4 -11 0.97978 1.94130   9
   1  -4 -11 2.56213 1.60931   8
   0  -4 -11 40.9811 3.38676   8
  -1  -4 -11 0.96154 1.52107   8
   1   4  11 -1.3756 1.02178   8
  -2  -4 -11 22.8324 2.48700   8
   2   4  11 25.4050 2.09718   8
   3   4  11 10.1947 1.12570   8
   3   4  11 13.3686 1.60218   9
   4   4  11 6.34249 0.84524  12
   4   4  11 8.31320 1.06889   9
   8  -5 -11 0.83087 1.08510  16
   7  -5 -11 5.07618 1.40718  16
   7  -5 -11 6.36320 2.43050  15
   7  -5 -11 4.35616 0.87082  17
   6  -5 -11 25.1401 2.83210  15
   6  -5 -11 29.1419 2.14474  10
   6  -5 -11 31.2528 3.41056  16
   5  -5 -11 36.7661 2.79672  10
   5  -5 -11 36.6181 3.19390  16
   5  -5 -11 29.8149 3.38522  15
   4  -5 -11 35.6840 3.70038  16
   4  -5 -11 30.0454 2.93148  10
   4  -5 -11 35.6908 3.21247   9
   4  -5 -11 34.2617 3.73659  15
   3  -5 -11 1.02087 1.79075   9
   3  -5 -11 1.28421 1.99109  16
   2  -5 -11 41.6132 4.02557   9
   2  -5 -11 36.1319 2.83986   8
   2  -5 -11 46.2067 3.75516  16
   1  -5 -11 0.24440 1.88869   9
   1  -5 -11 -0.7404 1.35477   8
   0  -5 -11 15.1583 1.82556   8
   0  -5 -11 13.9295 2.53593   9
  -1  -5 -11 11.8601 1.73301   8
   1   5  11 9.83083 1.39146   8
  -2  -5 -11 43.5935 3.38127   8
   2   5  11 43.6798 3.15135   8
  -3  -5 -11 -0.4033 0.75152   8
   3   5  11 0.07447 0.51327   8
   3   5  11 1.87810 0.79098   9
   7  -6 -11 12.8116 1.92627  15
   7  -6 -11 11.8418 1.96445  16
   6  -6 -11 10.8111 2.54740  15
   6  -6 -11 14.6546 1.87411  16
   5  -6 -11 18.1880 2.76469  15
   5  -6 -11 21.7857 1.99536  10
   5  -6 -11 22.8720 2.47820  16
   4  -6 -11 3.29012 1.93745  15
   4  -6 -11 1.84192 0.84674   9
   4  -6 -11 2.65309 1.50169  16
   4  -6 -11 -0.3556 1.25403  10
   3  -6 -11 225.111 15.8507   9
   3  -6 -11 225.347 14.4385  16
   2  -6 -11 38.0739 4.17233   9
   2  -6 -11 38.5679 3.20252  16
   1  -6 -11 142.297 9.63001   9
   1  -6 -11 119.488 8.44892   8
   0  -6 -11 9.55892 2.09817   9
   0  -6 -11 7.08010 1.25043   8
  -1  -6 -11 26.3289 2.36153   8
   1   6  11 29.8821 2.31057   8
  -2  -6 -11 15.4163 1.60069   8
   2   6  11 22.6946 1.53780   8
   7  -7 -11 78.8436 4.64863  16
   7  -7 -11 59.6478 4.95142  15
   6  -7 -11 57.5061 4.00935  16
   6  -7 -11 52.5514 4.27247  15
   5  -7 -11 40.8687 2.70478  10
   5  -7 -11 37.8007 3.48438  16
   5  -7 -11 29.8033 3.19490  15
   4  -7 -11 5.72170 1.47245  16
   4  -7 -11 3.99604 1.92971  15
   4  -7 -11 5.85381 1.29610  10
   3  -7 -11 6.23027 1.47103  10
   3  -7 -11 6.69557 1.20137   9
   3  -7 -11 6.02554 1.99197  16
   2  -7 -11 2.11334 1.38521   9
   2  -7 -11 2.03314 1.30325  16
   1  -7 -11 -1.4056 1.67618  16
   1  -7 -11 -1.2171 1.61674   9
   0  -7 -11 6.43833 1.77074   9
   0  -7 -11 6.58252 0.87294   8
  -1  -7 -11 1.36133 0.84225   8
  -1  -7 -11 -2.7910 1.49601   9
   1   7  11 0.20732 0.60554   8
   2   7  11 19.8167 1.50830   8
   6  -8 -11 0.97605 1.27964  16
   5  -8 -11 19.4163 2.13242  15
   4  -8 -11 6.34687 1.07956  10
   4  -8 -11 6.30563 1.31853  16
   4  -8 -11 2.72750 1.23053  15
   3  -8 -11 18.7026 2.04414  10
   3  -8 -11 15.7228 1.86687  16
   2  -8 -11 1.51024 1.11776  16
   2  -8 -11 1.85094 1.05904   9
   1  -8 -11 7.55691 1.22839  16
   1  -8 -11 12.5850 1.46008   9
   0  -8 -11 0.01595 1.14441  16
   0  -8 -11 1.43652 1.13924   9
   4  -9 -11 2.05242 0.59525  10
   4  -9 -11 1.15044 1.17298  16
   3  -9 -11 8.15519 1.08267  16
   3  -9 -11 12.0548 1.18574  10
   2  -9 -11 14.1982 1.56594  10
  -1 -13  12 0.54176 0.79176   9
  -1 -13  12 0.48695 1.07492  14
   0 -13  12 11.0202 1.22983  10
   1 -13  12 14.6995 1.44396  10
   1 -13  12 14.4954 1.91845  14
  -3 -12  12 -0.1907 1.07057  14
  -3 -12  12 0.88506 1.32119   9
  -2 -12  12 43.2332 3.31267   9
  -2 -12  12 30.1975 3.21386  14
  -1 -12  12 13.8803 1.64597   9
  -1 -12  12 10.7536 1.73563  14
   0 -12  12 14.7372 1.97865  14
   0 -12  12 17.1752 1.64801  10
   0 -12  12 17.3861 1.89138   9
   1 -12  12 25.9438 2.77963  14
   1 -12  12 30.2854 2.37093  10
   2 -12  12 0.51283 0.86432  10
   2 -12  12 0.97622 1.45710  14
   2 -12  12 0.25291 1.10734  13
   3 -12  12 0.86796 0.70659  13
   4  11 -12 4.87730 0.72966   8
  -4 -11  12 3.08197 0.87419   8
  -4 -11  12 3.55889 1.54513  14
   3  11 -12 22.6720 1.93810   8
  -3 -11  12 17.7841 1.71974   8
  -2 -11  12 5.23992 1.63281   9
  -2 -11  12 7.40239 1.07955   8
  -1 -11  12 0.36111 1.49045  14
  -1 -11  12 0.57285 0.59449   8
  -1 -11  12 3.86665 1.46643   9
   0 -11  12 43.9599 3.45409  10
   0 -11  12 48.1930 4.56884  14
   0 -11  12 43.3616 3.80009   9
   1 -11  12 1.42407 1.28535  10
   1 -11  12 1.83179 0.99589   9
   1 -11  12 1.16121 1.37868  14
   1 -11  12 0.65847 1.24068  13
   2 -11  12 14.8790 2.03487  14
   2 -11  12 15.8047 1.85864  13
   2 -11  12 19.2877 1.83886  10
   3 -11  12 -0.0475 0.89294  13
   3 -11  12 0.91221 0.81092  10
   4 -11  12 9.29560 1.08383  13
   5  10 -12 29.0768 2.35627  18
   5  10 -12 24.6022 1.94925   8
  -5 -10  12 28.1923 2.05447   8
   4  10 -12 1.25435 0.74387   8
  -4 -10  12 -0.5937 1.01963   8
   3  10 -12 -0.6247 1.21166   8
  -3 -10  12 1.52858 1.07842   8
  -2 -10  12 10.5604 1.32284   8
  -2 -10  12 11.2834 1.85766   9
  -1 -10  12 0.96828 1.42464   9
  -1 -10  12 0.18942 0.73022   8
   0 -10  12 38.3966 3.11127  13
   0 -10  12 35.2813 2.68482   8
   0 -10  12 49.0896 3.36925  10
   0 -10  12 52.0632 4.08716   9
   0 -10  12 51.4086 4.49376  14
   1 -10  12 34.6328 3.20197   9
   1 -10  12 27.6404 2.69000  13
   1 -10  12 33.7907 3.75986  14
   1 -10  12 34.4864 2.83178  10
   2 -10  12 71.4702 4.70905  10
   2 -10  12 66.7592 5.02613  13
   2 -10  12 73.3962 5.13795   9
   3 -10  12 -0.5465 1.01010  13
   3 -10  12 0.60706 1.11301  10
   4 -10  12 20.7616 2.40403  13
   6   9 -12 118.701 7.80671   9
   6   9 -12 98.4033 7.39728  18
   5   9 -12 13.1854 1.92038   9
   5   9 -12 14.0742 1.39803   8
   4   9 -12 61.9193 4.85892   8
  -4  -9  12 77.2610 4.93113   8
   3   9 -12 2.23042 1.33775   8
  -3  -9  12 3.46157 1.25849   8
  -2  -9  12 5.71362 1.26846   8
  -1  -9  12 120.740 8.60008   9
  -1  -9  12 110.726 7.63778   8
   0  -9  12 22.6555 2.49860  13
   0  -9  12 16.6015 1.99287  10
   0  -9  12 20.6402 2.20332   9
   0  -9  12 19.5070 1.70807   8
   1  -9  12 80.3891 5.82384  13
   1  -9  12 81.4590 6.54787  14
   1  -9  12 77.6039 6.02490   9
   1  -9  12 79.3445 5.33927  10
   2  -9  12 19.1737 2.14177  10
   2  -9  12 17.8026 2.17746  13
   2  -9  12 17.4251 2.17362   9
   3  -9  12 50.4659 3.34593  10
   3  -9  12 45.4183 3.72818  13
   4  -9  12 28.4494 2.49176  12
   4  -9  12 32.3953 2.25825  10
   4  -9  12 32.1624 3.03067  13
   5  -9  12 0.76701 0.79196  12
   5  -9  12 1.26746 0.74506  13
   6   8 -12 28.9038 2.60562   9
   6   8 -12 28.3467 3.13762  18
   5   8 -12 -0.0700 1.50708   9
   5   8 -12 0.62739 0.89729   8
   4   8 -12 14.5296 1.75583   8
   3   8 -12 20.0518 2.15171   8
  -3  -8  12 17.5775 2.02350   8
  -2  -8  12 0.13188 1.10232   8
  -1  -8  12 162.845 10.3122   8
  -1  -8  12 140.313 11.5589   5
  -1  -8  12 158.202 10.3690  13
  -1  -8  12 157.739 11.3424   9
   0  -8  12 6.38294 2.83055   5
   0  -8  12 8.67252 1.54841  10
   0  -8  12 6.13232 1.57583   9
   0  -8  12 7.81361 1.23631   8
   0  -8  12 9.42930 1.60082  13
   1  -8  12 0.90903 1.25996   9
   1  -8  12 0.83158 1.28784  10
   1  -8  12 0.54545 1.04097  13
   1  -8  12 0.55614 0.62344   8
   1  -8  12 0.00560 1.65403  14
   2  -8  12 14.1245 1.70624  10
   2  -8  12 18.9482 2.20396  13
   2  -8  12 17.4827 1.89902   9
   3  -8  12 0.66710 0.66648   9
   3  -8  12 -0.7677 0.73479  12
   3  -8  12 -0.7238 1.27825  10
   3  -8  12 -1.1930 1.60239  13
   4  -8  12 1.15729 1.11627  12
   4  -8  12 2.28921 1.11843  13
   4  -8  12 2.09227 0.97282  10
   5  -8  12 13.5343 1.58769  13
   5  -8  12 14.4716 1.66028  12
   7   7 -12 2.24087 1.23523  18
   7   7 -12 4.60934 1.17875  10
   7   7 -12 4.28794 1.06353   9
   6   7 -12 -1.6307 1.28436   9
   6   7 -12 -1.0391 1.26004  18
   5   7 -12 12.9248 1.63436   8
   5   7 -12 18.5913 2.16488   9
   4   7 -12 3.76217 1.30891   8
   3   7 -12 12.8937 1.73595   8
  -2  -7  12 71.7289 5.05008   8
  -1  -7  12 37.6891 2.71785   8
  -1  -7  12 22.5378 3.64412   5
   0  -7  12 98.0105 7.53398   9
   0  -7  12 102.895 6.78630   8
   0  -7  12 101.938 7.01227  13
   1  -7  12 33.5017 3.19327   9
   1  -7  12 31.6133 3.15648  13
   1  -7  12 38.2472 4.66519   5
   1  -7  12 31.5637 2.37079   8
   1  -7  12 28.9087 3.04846  10
   2  -7  12 1.27941 1.11792   9
   2  -7  12 -0.4336 1.41316  10
   2  -7  12 0.54234 1.55320  13
   3  -7  12 5.55357 1.29176  12
   3  -7  12 5.78739 1.76586  13
   3  -7  12 4.79104 0.99369   9
   3  -7  12 4.67957 1.18183  10
   4  -7  12 30.5951 2.60555  12
   4  -7  12 26.5420 2.57399  13
   4  -7  12 26.4591 2.15260  10
   5  -7  12 8.29422 1.09186  13
   5  -7  12 7.51426 0.81455  10
   5  -7  12 7.46771 1.02933  12
   7   6 -12 66.5651 4.64271  10
   7   6 -12 72.2468 5.24326   9
   7   6 -12 70.6436 5.46490  18
   6   6 -12 8.78756 1.62732  10
   6   6 -12 10.6227 1.65066   9
   6   6 -12 6.10272 2.04718  18
   5   6 -12 4.10413 1.65912   9
   5   6 -12 6.23392 1.37576   8
   4   6 -12 60.1565 4.39633   8
   3   6 -12 17.5866 1.98466   8
   2   6 -12 743.239 52.0111   7
  -2  -6  12 810.488 52.5022   5
  -2  -6  12 858.152 51.6339   8
  -1  -6  12 39.7025 4.69706   5
  -1  -6  12 38.5379 3.04117   8
   0  -6  12 87.8827 5.73693   8
   0  -6  12 83.1236 7.76883   2
   0  -6  12 89.0341 7.39492   5
   0  -6  12 78.6140 6.45262   9
   1  -6  12 1.51586 1.44131  10
   1  -6  12 3.35154 1.54612   9
   1  -6  12 1.37372 0.89896   8
   1  -6  12 -2.5724 2.48637   5
   1  -6  12 -0.4305 3.18092   2
   2  -6  12 -0.2257 1.42277  13
   2  -6  12 -1.0371 0.96818  12
   2  -6  12 -1.4493 2.52391   5
   2  -6  12 -1.1457 1.12249  10
   2  -6  12 1.22371 1.16029   9
   3  -6  12 1.07923 1.54974  13
   3  -6  12 -1.0273 1.11561  10
   3  -6  12 -0.9072 0.87962   9
   3  -6  12 0.66354 1.20292  12
   4  -6  12 1.62361 1.22944  12
   4  -6  12 2.73635 0.97806  10
   4  -6  12 3.94174 1.45128  13
   5  -6  12 12.2746 1.26908  10
   5  -6  12 11.8225 1.27839  12
   6  -6  12 3.79715 0.65941  12
   8   5 -12 95.4402 6.69702  18
   8   5 -12 93.8242 5.85735  10
   7   5 -12 22.1193 2.55006  18
   7   5 -12 24.3093 2.30554  10
   7   5 -12 21.9730 2.38128   9
   6   5 -12 34.9211 3.10652  10
   6   5 -12 36.3701 3.78665   9
   6   5 -12 35.8148 3.84362  18
   5   5 -12 1.21535 1.52853   9
   5   5 -12 1.50727 1.16546   8
   4   5 -12 23.1911 2.56061   9
   4   5 -12 12.3009 3.28859   7
   4   5 -12 23.7174 2.33539  17
   4   5 -12 28.4543 2.51907   8
   3   5 -12 11.7593 1.62952   8
   3   5 -12 7.28737 2.91494   7
   2   5 -12 28.0540 4.49614   7
  -2  -5  12 30.1762 3.64982   5
  -1  -5  12 53.0127 3.91761   8
  -1  -5  12 48.2282 5.08012   5
   0  -5  12 4.15245 2.47733   3
   0  -5  12 9.85557 1.23871   8
   0  -5  12 7.88516 1.48338   9
   0  -5  12 4.45434 3.20647   2
   0  -5  12 5.57221 2.59799   5
   1  -5  12 23.0367 4.07853   2
   1  -5  12 14.1027 3.33684   5
   1  -5  12 15.8327 3.30368   3
   1  -5  12 22.6214 2.32428  10
   1  -5  12 26.3479 2.08307   8
   1  -5  12 24.9592 2.71078   9
   2  -5  12 2.03956 1.04547  12
   2  -5  12 2.02203 1.18602  10
   2  -5  12 0.89002 1.41569   9
   2  -5  12 2.50097 0.62895   8
   2  -5  12 1.70324 2.50833   5
   3  -5  12 0.16265 1.21505   9
   3  -5  12 1.45004 1.14685  10
   3  -5  12 1.11279 1.16722  12
   3  -5  12 0.37677 1.47378  13
   4  -5  12 41.0268 3.26307  12
   4  -5  12 44.2783 3.24313   9
   4  -5  12 41.9575 3.56896  13
   4  -5  12 46.1616 3.26553  10
   5  -5  12 7.96360 1.09209  10
   5  -5  12 9.84950 1.19333  12
   6  -5  12 9.29868 1.11305  12
   8   4 -12 12.6707 1.42312  10
   8   4 -12 8.87554 1.45942  18
   7   4 -12 17.2314 1.73995  10
   7   4 -12 12.2256 1.43385   9
   7   4 -12 13.9477 2.25694  18
   6   4 -12 -1.5100 1.56942   9
   6   4 -12 -1.7080 1.87428  18
   6   4 -12 -0.9979 1.37730  10
   6   4 -12 -0.7146 1.23494  17
   5   4 -12 7.58205 1.98579   9
   5   4 -12 7.90892 1.52690  10
   5   4 -12 5.55887 1.46824  17
   5   4 -12 5.26955 1.01551   8
   4   4 -12 17.0489 2.04405   9
   4   4 -12 20.2527 4.41911   2
   4   4 -12 14.4652 3.34082   7
   4   4 -12 14.2495 1.75100  17
   4   4 -12 15.7681 1.83888   8
   4   4 -12 9.42256 3.67499   3
   3   4 -12 1.82246 2.88921   7
   3   4 -12 5.08447 1.58597   8
   2   4 -12 30.4519 2.81017   8
  -1  -4  12 26.5915 2.34992   8
   0  -4  12 33.3971 4.70925   2
   0  -4  12 31.3692 2.63123   8
   0  -4  12 26.2934 3.89460   3
   1  -4  12 47.7742 6.15919   3
   1  -4  12 57.1872 5.64089   5
   1  -4  12 57.6933 4.69045   9
   1  -4  12 56.5454 6.10412   2
   1  -4  12 63.9720 4.19523   8
   2  -4  12 38.9187 2.82175   8
   2  -4  12 36.4641 4.67928   5
   2  -4  12 36.5822 4.91550   2
   2  -4  12 37.7778 3.06657  10
   2  -4  12 39.7233 3.14302  12
   2  -4  12 42.1765 3.45640   9
   3  -4  12 0.58038 1.03693   9
   3  -4  12 0.32957 1.32528  13
   3  -4  12 -0.0562 1.11864  10
   3  -4  12 1.65624 1.18158  12
   4  -4  12 19.3971 2.32409  12
   4  -4  12 18.2306 2.21040  13
   4  -4  12 21.4385 2.10413   9
   4  -4  12 19.3773 1.98561  10
   5  -4  12 11.3108 1.26337  10
   5  -4  12 9.92748 1.49152  12
   6  -4  12 49.9958 3.52478  12
   8   3 -12 -2.0107 1.01398  18
   8   3 -12 0.06804 1.08746  10
   8   3 -12 0.42722 0.64325  17
   7   3 -12 24.2117 2.29524   9
   7   3 -12 26.9625 2.68872  18
   7   3 -12 25.4921 2.44327  10
   7   3 -12 23.9909 2.44959  17
   6   3 -12 67.5027 4.76340  17
   6   3 -12 65.2235 5.15770  18
   6   3 -12 67.9333 4.71850  10
   6   3 -12 71.4820 5.53036   9
   5   3 -12 11.1065 1.74278  17
   5   3 -12 12.0253 1.80220   9
   5   3 -12 14.6235 1.96261  10
   5   3 -12 11.2838 1.37725   8
   5   3 -12 2.99185 3.31523   7
   4   3 -12 64.3039 4.44440   8
   4   3 -12 61.2520 5.13576   9
   4   3 -12 62.0020 7.23517   3
   4   3 -12 54.1342 6.12124   7
   4   3 -12 59.6684 6.34753   2
   3   3 -12 272.768 22.1565   3
   3   3 -12 297.618 21.7520   2
   3   3 -12 333.041 19.9879   8
   3   3 -12 319.658 21.1904   7
   2   3 -12 15.7830 1.86103   8
   0  -3  12 208.446 13.5760   8
   1  -3  12 11.6535 3.25604   3
   1  -3  12 24.6595 1.96765   8
   1  -3  12 25.0126 4.08357   2
   1  -3  12 21.7428 2.31697   9
   1  -3  12 20.5096 2.06671  12
   2  -3  12 0.09533 1.16356  10
   2  -3  12 -2.0920 3.24003   2
   2  -3  12 2.05831 1.07368  12
   2  -3  12 0.99598 0.97763   8
   2  -3  12 2.55097 1.50403   9
   2  -3  12 2.55408 2.55826   5
   3  -3  12 0.01234 0.80930  12
   3  -3  12 -0.1609 0.84551  13
   3  -3  12 -0.2755 1.08022   9
   3  -3  12 -0.5796 1.10306  10
   4  -3  12 4.30568 1.11459   9
   4  -3  12 4.55385 1.22733  10
   4  -3  12 7.86720 1.16237  12
   5  -3  12 0.21930 0.79089  12
   5  -3  12 -2.1517 0.84982  10
   6  -3  12 0.81672 0.56886  12
   8   2 -12 46.2955 3.00695  10
   8   2 -12 40.4061 3.38158  18
   7   2 -12 3.99055 0.74424   9
   7   2 -12 3.23241 1.70832  18
   7   2 -12 4.34771 1.53469  10
   7   2 -12 3.53511 1.09793  17
   6   2 -12 90.1352 6.35733   9
   6   2 -12 79.3473 5.62968  10
   6   2 -12 82.6896 6.36810  18
   6   2 -12 86.5583 5.78273  17
   5   2 -12 1.24498 1.43173  17
   5   2 -12 1.96466 1.58534  10
   5   2 -12 3.33893 3.22070   7
   5   2 -12 2.00766 1.35623   9
   5   2 -12 1.55124 0.78165   8
   4   2 -12 8.40117 1.67574   9
   4   2 -12 6.30911 3.87245   3
   4   2 -12 7.50684 3.31185   7
   4   2 -12 10.2742 1.45465   8
   4   2 -12 5.11081 3.69855   2
   4   2 -12 6.84169 1.47774  10
   3   2 -12 12.7829 1.75845   8
   3   2 -12 14.3910 3.67259   7
   3   2 -12 10.1788 2.16923   9
   3   2 -12 9.55085 4.19017   3
   3   2 -12 9.70704 4.01824   2
   2   2 -12 86.7941 6.02844   8
   0  -2  12 9.45167 1.46332   8
   1  -2  12 41.6413 3.17807  12
   1  -2  12 44.2627 3.09015   8
   1  -2  12 41.4029 3.64592   9
   1  -2  12 29.7481 4.95816   3
   2  -2  12 3.27767 1.16271  12
   2  -2  12 3.32253 1.61635   9
   2  -2  12 3.54752 1.10374   8
   2  -2  12 5.45007 2.93475   5
   3  -2  12 8.00735 1.46516  12
   3  -2  12 7.86847 1.42040   9
   3  -2  12 9.25304 1.47411  13
   3  -2  12 12.9668 1.53149  10
   3  -2  12 10.7048 1.03792   8
   4  -2  12 5.89501 1.02904  12
   4  -2  12 3.59530 1.18552  10
   4  -2  12 4.28077 1.17949   9
   5  -2  12 27.2495 2.02157  10
   5  -2  12 23.6723 2.11529  12
   8   1 -12 10.3425 1.60743  18
   8   1 -12 13.8989 1.33637  10
   8   1 -12 10.9168 1.58179  17
   7   1 -12 3.72419 1.50464  17
   7   1 -12 2.16600 1.02798  18
   7   1 -12 3.81553 1.15357  10
   6   1 -12 37.6261 3.45823   9
   6   1 -12 39.0446 3.44408  17
   6   1 -12 40.5138 3.16487  10
   5   1 -12 61.4119 4.42952  17
   5   1 -12 61.0614 5.04278   9
   5   1 -12 43.9018 5.98789   7
   5   1 -12 63.0357 4.50445  10
   4   1 -12 4.68203 3.73582   2
   4   1 -12 4.68902 3.78858   3
   4   1 -12 5.32267 1.20295   8
   4   1 -12 5.56632 1.79656   9
   4   1 -12 5.78823 4.00867   7
   4   1 -12 3.77591 1.34198  10
   3   1 -12 27.0865 2.43405   8
   3   1 -12 20.7327 4.07133   7
   3   1 -12 22.8552 2.55425   9
   3   1 -12 20.2037 4.11145   3
   3   1 -12 20.1524 4.10211   2
   2   1 -12 1.74663 3.38861   3
   2   1 -12 16.8354 1.79033   8
   1   1 -12 11.3056 1.72764   8
   0  -1  12 22.3668 2.06240   8
   1  -1  12 1.89624 0.97150   8
   2  -1  12 247.913 16.5408   9
   2  -1  12 223.502 15.2162   8
   3  -1  12 178.013 10.9367  12
   3  -1  12 173.346 10.2993  10
   3  -1  12 143.176 10.6572   8
   3  -1  12 170.411 11.8049   9
   4  -1  12 4.69693 1.26547  12
   4  -1  12 4.79809 1.22418  10
   4  -1  12 4.53822 1.04500   9
   5  -1  12 28.9279 2.39423  12
   5  -1  12 34.0348 2.33685  10
   9   0 -12 4.22747 0.76015  17
   8   0 -12 12.0870 1.39762  17
   8   0 -12 12.2574 1.11586  10
   7   0 -12 102.990 6.55714  17
   7   0 -12 106.539 6.41939  10
   7   0 -12 96.2273 6.87007  16
   6   0 -12 7.34844 1.31183   9
   6   0 -12 7.24689 1.78214  17
   6   0 -12 10.5634 1.83247  16
   6   0 -12 7.92707 1.67102  10
   5   0 -12 21.1060 2.11091  17
   5   0 -12 11.3601 4.01651   7
   5   0 -12 16.0758 2.05944  10
   5   0 -12 15.8815 1.89208   9
   5   0 -12 18.1047 2.09426  16
   4   0 -12 1.73125 0.97980   8
   4   0 -12 3.37449 2.88412   3
   4   0 -12 -0.1622 1.63864  16
   4   0 -12 1.66816 3.56257   2
   4   0 -12 -1.5132 3.17959   7
   4   0 -12 5.53530 1.36607  10
   4   0 -12 2.32078 1.77189   9
   3   0 -12 0.48978 1.06136   8
   3   0 -12 0.34265 1.25593  16
   3   0 -12 3.31190 3.74416   3
   3   0 -12 1.93250 3.80663   2
   3   0 -12 1.80182 1.93975   9
   3   0 -12 0.37465 1.20476  10
   3   0 -12 -0.5170 3.12691   7
   2   0 -12 0.55060 3.19668   3
   2   0 -12 2.27671 1.25752  16
   2   0 -12 2.44306 1.73474   9
   2   0 -12 2.99464 1.33026   8
   2   0 -12 0.01407 3.34087   2
   1   0 -12 1.57195 1.43247   8
   1   0  12 5.93299 1.14750   8
   2   0  12 105.038 7.48276   9
   2   0  12 97.2221 6.72005   8
   3   0  12 7.79633 1.68487   9
   3   0  12 6.82893 1.12618  12
   3   0  12 6.11450 0.96933   8
   4   0  12 2.39880 0.86116  12
   4   0  12 2.54240 1.14819  10
   4   0  12 2.04788 1.02861   9
   5   0  12 1.34272 0.70150  12
   5   0  12 1.51030 0.63645  10
   8  -1 -12 0.78360 0.99814  17
   8  -1 -12 2.93706 1.51113  16
   7  -1 -12 259.858 15.0036  17
   7  -1 -12 236.915 15.4803  16
   7  -1 -12 236.928 14.6952  10
   6  -1 -12 68.5863 5.06159  16
   6  -1 -12 64.2777 4.64712  17
   6  -1 -12 67.2077 4.82893   9
   6  -1 -12 72.3254 4.76117  10
   6  -1 -12 64.8289 5.71004  15
   5  -1 -12 -0.0311 1.27608  10
   5  -1 -12 1.98756 3.38675   7
   5  -1 -12 1.56453 1.64575  17
   5  -1 -12 1.80253 1.67548  16
   5  -1 -12 0.69015 1.41110   9
   4  -1 -12 0.82970 3.59911   3
   4  -1 -12 -0.6319 1.50368  10
   4  -1 -12 1.78749 3.16398   7
   4  -1 -12 1.75764 1.52330  16
   4  -1 -12 1.35729 0.84803   8
   4  -1 -12 3.53111 1.80264   9
   4  -1 -12 -2.5928 3.43743   2
   4  -1 -12 -2.8076 3.86378   6
   3  -1 -12 3.59701 3.87778   3
   3  -1 -12 3.30196 3.16391   7
   3  -1 -12 9.10150 1.60516  16
   3  -1 -12 6.79154 1.39098   8
   3  -1 -12 7.26188 1.44716  10
   3  -1 -12 6.55625 4.04360   2
   3  -1 -12 8.21315 1.84038   9
   2  -1 -12 10.2543 4.69178   2
   2  -1 -12 5.41417 1.37108   8
   2  -1 -12 -0.9951 3.19329   3
   2  -1 -12 5.26173 1.85235   9
   1  -1 -12 6.67881 1.58986   8
   0  -1 -12 2.06521 1.53574   8
   1   1  12 3.78909 1.13447   8
   2   1  12 -0.7673 0.92868   8
   2   1  12 0.57490 1.29491   9
   3   1  12 2.55930 1.29013   9
   3   1  12 0.61209 0.67072   8
   4   1  12 4.90212 1.08549   9
   4   1  12 3.79085 1.15287  12
   4   1  12 4.97797 0.89387  10
   5   1  12 1.58755 0.83054  10
   5   1  12 0.67675 0.56089  12
   8  -2 -12 2.04377 1.13095  16
   8  -2 -12 3.47357 1.04406  17
   7  -2 -12 31.0077 3.09916  16
   7  -2 -12 26.3710 2.14263  10
   7  -2 -12 24.9233 2.36992  17
   6  -2 -12 17.1007 1.83485  17
   6  -2 -12 17.7880 1.99827  16
   6  -2 -12 13.8490 2.16301  15
   6  -2 -12 19.0190 2.00076  10
   5  -2 -12 14.9556 2.11267  16
   5  -2 -12 10.9476 1.56316  17
   5  -2 -12 10.8700 1.54943   9
   5  -2 -12 10.8789 1.60193  10
   4  -2 -12 7.84408 4.41402   6
   4  -2 -12 5.11714 1.79588  16
   4  -2 -12 5.79667 1.69412  17
   4  -2 -12 6.13370 1.67610  10
   4  -2 -12 6.56078 1.56658   9
   4  -2 -12 0.69444 3.08380   7
   3  -2 -12 -2.0830 4.05987   2
   3  -2 -12 3.74661 1.66372   9
   3  -2 -12 2.28938 3.06739   7
   3  -2 -12 1.65389 1.15679   8
   3  -2 -12 0.89980 1.56940  16
   3  -2 -12 -1.4747 3.70539   3
   3  -2 -12 0.68994 1.27708  10
   2  -2 -12 0.03759 4.03110   3
   2  -2 -12 4.71225 1.52624   8
   2  -2 -12 0.39403 4.45835   2
   2  -2 -12 5.36350 1.85074   9
   1  -2 -12 4.11537 1.49500   8
   0  -2 -12 31.5732 2.91744   8
   1   2  12 42.3167 3.22564   8
   2   2  12 42.2294 3.12536   8
   3   2  12 31.3898 2.35309   8
   3   2  12 35.5850 2.83472   9
   4   2  12 6.90105 1.14110   9
   4   2  12 5.20972 0.90227  12
   8  -3 -12 3.96849 1.06066  17
   8  -3 -12 7.72952 1.29587  16
   7  -3 -12 20.9888 2.11815  17
   7  -3 -12 25.8115 2.99187  16
   7  -3 -12 25.0088 2.64260  15
   7  -3 -12 24.3981 1.67014  10
   6  -3 -12 1.76343 1.04449  10
   6  -3 -12 1.96317 1.62429  17
   6  -3 -12 3.36259 1.45836  16
   6  -3 -12 3.22446 1.59258  15
   5  -3 -12 211.548 13.8375  17
   5  -3 -12 234.708 14.5948  16
   5  -3 -12 241.923 13.9592  10
   5  -3 -12 221.015 15.7614   9
   4  -3 -12 1.06606 1.31909  10
   4  -3 -12 0.95026 1.81819  16
   4  -3 -12 0.38921 1.61422   9
   4  -3 -12 2.63065 1.52206  17
   3  -3 -12 1.12034 1.32041  10
   3  -3 -12 3.53855 1.83256  16
   3  -3 -12 3.22549 1.65591   9
   3  -3 -12 2.95765 0.99883   8
   2  -3 -12 58.8014 5.19098   9
   2  -3 -12 58.0069 4.24356   8
   1  -3 -12 42.9614 3.41806   8
   1  -3 -12 44.0570 4.64794   9
   0  -3 -12 21.4890 2.38016   8
  -1  -3 -12 10.0798 1.83704   8
   1   3  12 10.9004 1.43356   8
   2   3  12 51.6770 3.67048   8
   3   3  12 1.49459 0.83760   9
   3   3  12 1.40324 0.71678   8
   4   3  12 6.90303 0.82005  12
   4   3  12 6.80927 0.98836   9
   8  -4 -12 45.9488 3.50535  16
   8  -4 -12 45.7400 3.14355  17
   7  -4 -12 68.3053 5.43905  15
   7  -4 -12 72.0048 4.69655  17
   7  -4 -12 78.2890 5.09972  16
   6  -4 -12 47.9453 3.26752  10
   6  -4 -12 48.7991 4.18143  16
   6  -4 -12 44.9088 3.46712  17
   6  -4 -12 43.2338 4.42094  15
   5  -4 -12 49.2571 4.22313  16
   5  -4 -12 48.2314 3.71721  10
   5  -4 -12 41.7448 3.46213  17
   4  -4 -12 16.2855 1.98647   9
   4  -4 -12 19.3865 2.47152  16
   4  -4 -12 18.2179 1.91224  10
   4  -4 -12 13.5355 1.93172  17
   3  -4 -12 -0.3235 1.89998   9
   3  -4 -12 0.65303 1.94256  16
   3  -4 -12 2.98280 1.38451  10
   2  -4 -12 5.28308 1.84007   9
   2  -4 -12 4.91424 1.19657   8
   2  -4 -12 1.80795 1.87959  16
   1  -4 -12 2.65236 1.28238   8
   1  -4 -12 2.97887 2.01692   9
   0  -4 -12 0.40578 1.32991   8
  -1  -4 -12 -0.4332 1.40205   8
   1   4  12 0.92605 1.03997   8
  -2  -4 -12 15.9731 1.99968   8
   2   4  12 19.3428 1.66575   8
  -3  -4 -12 1.83495 1.17846   8
   3   4  12 3.67984 0.72175  12
   3   4  12 2.28368 0.55188   8
   3   4  12 0.70878 1.03750   9
   8  -5 -12 2.32613 0.85767  16
   7  -5 -12 2.66873 1.97384  15
   7  -5 -12 2.66437 1.31866  16
   6  -5 -12 1.60475 1.49851  15
   6  -5 -12 3.23018 0.87702  10
   6  -5 -12 0.96396 1.39763  16
   5  -5 -12 3.10233 1.42322  10
   5  -5 -12 2.52084 2.13123  15
   5  -5 -12 4.46284 2.09682  16
   4  -5 -12 -0.2279 1.10370   9
   4  -5 -12 -0.6500 1.34321  10
   4  -5 -12 1.69583 1.44329  16
   3  -5 -12 0.65234 1.42769  10
   3  -5 -12 1.25763 1.96249  16
   3  -5 -12 1.14535 1.39440   9
   2  -5 -12 0.00026 1.95504  16
   2  -5 -12 0.02276 0.72651   8
   2  -5 -12 0.91716 1.73096   9
   1  -5 -12 3.22357 1.99809   9
   1  -5 -12 3.30462 1.27200   8
   0  -5 -12 11.4191 2.19311   9
   0  -5 -12 9.09441 1.44630   8
  -1  -5 -12 1.69765 1.18851   8
   1   5  12 1.38498 0.72973   8
  -2  -5 -12 -0.0640 1.04023   8
   2   5  12 0.21271 0.73913   8
   7  -6 -12 4.93231 1.19647  16
   7  -6 -12 3.74078 1.77266  15
   6  -6 -12 59.9898 4.52607  15
   5  -6 -12 -1.6628 1.87371  16
   5  -6 -12 0.13907 0.97298  10
   4  -6 -12 0.14007 1.34268  16
   4  -6 -12 0.07510 1.54002  10
   3  -6 -12 57.4186 4.11193  16
   3  -6 -12 58.6332 4.39114   9
   3  -6 -12 49.4753 4.06579  10
   2  -6 -12 6.92330 1.92309  16
   2  -6 -12 5.90193 1.65788   9
   1  -6 -12 12.6673 2.05340  16
   1  -6 -12 13.6463 1.23253   8
   1  -6 -12 13.2679 1.72217   9
   0  -6 -12 2.80661 1.83491   9
   0  -6 -12 4.50164 0.90440   8
  -1  -6 -12 0.60464 0.81058   8
   1   6  12 0.95017 0.62637   8
  -2  -6 -12 2.34373 0.75051   8
   2   6  12 2.91728 0.59500   8
   6  -7 -12 8.29518 1.29019  16
   6  -7 -12 5.47828 1.22097  15
   5  -7 -12 19.5192 2.21856  16
   5  -7 -12 24.5013 1.81223  10
   4  -7 -12 8.46280 1.30898  10
   4  -7 -12 9.72673 1.48313  16
   3  -7 -12 -0.1361 1.21889  16
   3  -7 -12 1.66921 0.81970   9
   3  -7 -12 0.25341 0.95132  10
   2  -7 -12 22.4604 2.17183  16
   2  -7 -12 28.1223 2.71994   9
   2  -7 -12 22.7792 2.13339  10
   1  -7 -12 0.73171 0.98041   9
   1  -7 -12 2.49310 1.14605  16
   0  -7 -12 1.98527 0.95854   9
   0  -7 -12 1.74020 0.95978  16
  -1  -7 -12 2.25969 0.85005  16
   5  -8 -12 0.57110 0.87268  16
   4  -8 -12 3.35531 0.95926  10
   4  -8 -12 1.66358 1.36986  16
   3  -8 -12 -0.1590 1.01450  10
   3  -8 -12 1.43824 0.97133  16
   2  -8 -12 0.59760 0.63007   9
   2  -8 -12 1.64150 0.91799  16
   2  -8 -12 1.23358 0.81794  10
   1  -8 -12 -0.3845 0.86730   9
   1  -8 -12 -0.2426 0.79748  16
  -2 -12  13 -0.4234 0.84447   9
  -2 -12  13 -1.5477 1.16630  14
  -1 -12  13 -1.2927 1.05860   9
  -1 -12  13 0.37749 1.25716  14
   0 -12  13 3.25528 1.21239  10
   0 -12  13 5.00528 0.98988   9
   0 -12  13 3.11709 1.75415  14
   1 -12  13 0.85400 1.05164  14
   1 -12  13 0.36098 0.99621  10
   2 -12  13 10.6194 1.19810  13
   4  11 -13 2.25707 0.80218   8
  -4 -11  13 2.43912 0.72637   8
  -4 -11  13 4.54067 1.45586  14
   3  11 -13 1.24354 0.73773   8
  -3 -11  13 1.32461 0.72810   8
  -2 -11  13 4.39658 0.83547   8
  -2 -11  13 4.35281 1.17401   9
  -2 -11  13 5.84175 1.49729  14
  -1 -11  13 9.13127 2.15871  14
  -1 -11  13 10.4605 1.68490   9
   0 -11  13 19.7744 1.94174  10
   0 -11  13 17.0083 2.10255  14
   0 -11  13 17.2260 1.83874   9
   1 -11  13 25.0530 2.34243  13
   1 -11  13 27.9896 2.20071  10
   1 -11  13 30.3052 2.42962   9
   1 -11  13 32.0094 3.13985  14
   2 -11  13 4.60285 1.08222  10
   2 -11  13 2.43403 0.97645  13
   3 -11  13 71.4464 4.92464  13
   3 -11  13 72.8198 4.43366  10
   5  10 -13 2.19060 0.62790   8
   5  10 -13 2.18071 0.99670  18
  -5 -10  13 3.77896 0.93209   8
   4  10 -13 17.7671 1.75033   8
  -4 -10  13 19.1971 1.77181   8
   3  10 -13 73.9769 5.29315   8
  -3 -10  13 77.6960 5.20192   8
  -2 -10  13 0.55675 0.87945   8
  -2 -10  13 -0.8148 1.44720   9
  -1 -10  13 44.3653 3.20481   8
  -1 -10  13 48.6480 4.14141   9
   0 -10  13 13.7936 2.32066  14
   0 -10  13 15.9797 1.74457  13
   0 -10  13 14.3409 1.79307   9
   0 -10  13 11.6142 1.72850  10
   1 -10  13 16.9503 2.02987  13
   1 -10  13 15.8661 2.20478  14
   1 -10  13 20.6721 2.41588   9
   1 -10  13 20.6485 2.18583  10
   2 -10  13 1.02576 1.14449  10
   2 -10  13 4.78730 1.15061  13
   3 -10  13 35.3693 3.07826  13
   3 -10  13 32.5500 2.37918  10
   4 -10  13 7.33510 1.06773  13
   6   9 -13 44.0386 3.29726  18
   5   9 -13 24.3684 1.96652   8
   5   9 -13 24.7293 2.50172   9
  -5  -9  13 26.8243 2.04886   8
   4   9 -13 6.69227 1.32583   8
  -4  -9  13 5.66851 1.30390   8
   3   9 -13 34.3336 3.05210   8
  -3  -9  13 40.1459 2.98023   8
  -2  -9  13 13.6465 1.58297   8
  -1  -9  13 28.7819 3.31405   9
  -1  -9  13 29.4159 2.31224   8
   0  -9  13 16.6388 1.96658  10
   0  -9  13 16.8718 1.58788   8
   0  -9  13 20.9352 2.46118  13
   0  -9  13 20.0679 2.17024   9
   1  -9  13 25.1782 2.75615  13
   1  -9  13 19.7771 2.44548  14
   1  -9  13 22.9081 2.54556   9
   1  -9  13 22.8860 2.42755  10
   2  -9  13 34.5773 2.77095  10
   2  -9  13 31.2621 2.78280   9
   2  -9  13 35.8203 3.27574  13
   3  -9  13 1.84963 1.01829  10
   3  -9  13 -1.8247 1.42279  13
   4  -9  13 43.9762 2.50690  10
   4  -9  13 35.1648 2.71806  12
   4  -9  13 35.2016 2.96027  13
   6   8 -13 3.91974 1.25439  18
   6   8 -13 5.28075 1.35841   9
   5   8 -13 22.5000 1.94039   8
   5   8 -13 25.3112 3.04610   9
   4   8 -13 42.2896 3.30299   8
   3   8 -13 -0.0737 1.30511   8
  -3  -8  13 -1.0358 1.16421   8
  -2  -8  13 6.22492 1.28575   8
  -1  -8  13 2.37885 1.33686   8
  -1  -8  13 2.05279 1.62046   9
  -1  -8  13 0.21178 1.23780  13
   0  -8  13 15.8062 1.64935   8
   0  -8  13 15.5203 2.04136   9
   0  -8  13 19.9434 2.02349  13
   1  -8  13 33.1442 2.91588  10
   1  -8  13 32.2131 2.91720  13
   1  -8  13 35.4805 3.28674   9
   2  -8  13 -0.0433 1.55974  13
   2  -8  13 1.29679 1.02298   9
   2  -8  13 3.08874 1.29431  10
   3  -8  13 92.8857 5.88262  10
   4  -8  13 12.1840 1.41474  13
   4  -8  13 13.0308 1.38071  10
   4  -8  13 10.0177 1.28502  12
   5  -8  13 80.0134 5.24646  12
   7   7 -13 5.19868 1.15175  18
   7   7 -13 8.56775 1.00782   9
   6   7 -13 1.58998 1.78860  18
   6   7 -13 1.21128 1.41401   9
   5   7 -13 31.0320 2.47525   8
   5   7 -13 25.6625 3.37339   9
   4   7 -13 53.9634 4.01558   8
   3   7 -13 23.5761 2.50787   8
  -3  -7  13 26.5324 2.37216   8
  -2  -7  13 1.48213 1.44222   8
  -1  -7  13 272.952 19.8111   5
  -1  -7  13 285.956 20.2119   9
  -1  -7  13 298.909 18.6195   8
   0  -7  13 33.8926 3.85506   9
   0  -7  13 34.2644 3.17571  13
   0  -7  13 33.1047 2.68470   8
   1  -7  13 186.936 11.8931  13
   1  -7  13 192.141 12.7170   9
   1  -7  13 160.550 11.5207   8
   2  -7  13 11.6750 1.63664   9
   2  -7  13 6.84911 1.39857  10
   2  -7  13 8.53662 1.78149  13
   3  -7  13 44.5021 3.60839  12
   3  -7  13 53.8401 3.73602   9
   3  -7  13 51.2037 4.08682  13
   3  -7  13 45.2938 3.43020  10
   4  -7  13 3.39056 0.89901  10
   4  -7  13 3.84183 0.82922  12
   4  -7  13 4.07830 1.06934  13
   5  -7  13 23.3262 2.01452  12
   7   6 -13 208.042 13.7651   9
   7   6 -13 204.940 12.0378  10
   7   6 -13 178.922 13.2780  18
   6   6 -13 38.2447 3.45475   9
   6   6 -13 33.1110 3.19525  18
   5   6 -13 39.9493 3.77959   9
   5   6 -13 32.4285 2.65422   8
   4   6 -13 21.2739 2.45033   8
   3   6 -13 29.5466 2.78585   8
  -2  -6  13 42.7395 3.35718   8
  -1  -6  13 9.97393 2.85139   5
  -1  -6  13 3.94071 1.17739   8
   0  -6  13 15.8532 2.16726   9
   0  -6  13 13.3485 3.87287   5
   0  -6  13 12.3583 1.60148   8
   0  -6  13 11.4907 4.52645   2
   1  -6  13 7.11161 1.42778  10
   1  -6  13 10.3794 3.23304   5
   1  -6  13 9.46196 1.15800   8
   1  -6  13 9.77604 1.57202   9
   2  -6  13 14.2089 1.58424  13
   2  -6  13 8.32612 1.46034  10
   2  -6  13 11.5169 1.53708   9
   3  -6  13 -1.1336 0.83293   9
   3  -6  13 -1.8627 1.43779  13
   3  -6  13 -1.4769 1.11418  10
   3  -6  13 0.26984 1.12448  12
   4  -6  13 78.7198 5.05838  10
   4  -6  13 82.8585 5.52694  12
   4  -6  13 78.4592 5.62485  13
   5  -6  13 8.77764 0.99686  12
   5  -6  13 6.62150 0.79307  10
   8   5 -13 -1.0729 0.84507  18
   7   5 -13 3.11013 1.79565  18
   7   5 -13 1.72059 0.96610   9
   7   5 -13 1.57933 1.31359  10
   6   5 -13 -0.3635 1.36012   9
   6   5 -13 -0.0735 1.27254  18
   6   5 -13 -0.0679 1.44402  10
   5   5 -13 41.0338 3.14971   8
   5   5 -13 43.9134 4.18368   9
   5   5 -13 45.4789 3.30664  17
   4   5 -13 11.8976 1.69916  17
   4   5 -13 12.3263 1.64626   8
   4   5 -13 12.4013 2.05236   9
   3   5 -13 50.6050 5.82564   7
   3   5 -13 56.6824 4.19392   8
   2   5 -13 24.9823 4.62366   7
  -2  -5  13 12.7476 2.90493   5
  -1  -5  13 7.16984 1.28106   8
  -1  -5  13 5.03122 2.51612   5
   0  -5  13 4.23121 1.73282   9
   0  -5  13 5.27537 2.76217   5
   0  -5  13 5.32629 1.31606   8
   1  -5  13 0.29942 1.01365   8
   1  -5  13 0.29206 1.28369   9
   1  -5  13 4.60448 2.76201   5
   2  -5  13 2.45406 1.47616   9
   2  -5  13 5.74278 1.57268  10
   2  -5  13 6.10281 1.11223  12
   2  -5  13 2.58416 0.65721   8
   3  -5  13 111.333 8.35315   9
   3  -5  13 120.022 7.38430  10
   3  -5  13 129.712 8.06762  13
   3  -5  13 110.870 7.85334  12
   4  -5  13 9.53015 1.24698  10
   4  -5  13 7.36468 1.38266  13
   4  -5  13 9.33274 1.43128  12
   5  -5  13 90.6940 5.55437  10
   8   4 -13 8.30379 1.20190  18
   8   4 -13 8.81750 1.07599  10
   7   4 -13 0.32519 1.17414  18
   7   4 -13 0.91709 0.98237   9
   7   4 -13 -0.2603 0.92104  10
   7   4 -13 0.37137 1.05517  17
   6   4 -13 1.58788 1.40435   9
   6   4 -13 1.43852 1.32562  17
   6   4 -13 -0.1398 1.47746  10
   6   4 -13 0.14600 1.76516  18
   5   4 -13 10.6056 1.88016   9
   5   4 -13 9.35380 1.70065  10
   5   4 -13 7.26178 1.62368  17
   5   4 -13 9.82617 1.33145   8
   4   4 -13 -0.6736 1.36877  17
   4   4 -13 0.62885 3.07121   7
   4   4 -13 1.78810 1.21140   8
   4   4 -13 -0.2979 1.60238   9
   3   4 -13 230.518 14.7727   8
   3   4 -13 217.267 16.0832   7
   2   4 -13 158.009 10.5465   8
  -1  -4  13 235.072 15.3508   8
   0  -4  13 30.0102 2.48051   8
   1  -4  13 17.6191 1.80127   8
   1  -4  13 15.1893 4.27977   2
   1  -4  13 12.1120 3.14405   5
   1  -4  13 14.9866 1.85195   9
   2  -4  13 5.36403 1.32934  10
   2  -4  13 3.91196 1.53036   9
   2  -4  13 3.13769 1.11632  12
   2  -4  13 4.13218 0.83879   8
   3  -4  13 81.0138 5.82710   9
   3  -4  13 86.4421 5.55281  13
   3  -4  13 71.2265 5.26726  12
   3  -4  13 71.6356 5.06461  10
   4  -4  13 1.56834 0.72791   9
   4  -4  13 1.28715 1.04090  10
   4  -4  13 0.04218 1.17218  12
   5  -4  13 12.0256 1.42330  12
   5  -4  13 13.6304 1.25198  10
   8   3 -13 81.1563 4.90239  10
   8   3 -13 78.3384 5.47243  18
   8   3 -13 75.3032 4.95468  17
   7   3 -13 26.7294 2.48552  18
   7   3 -13 27.6709 2.25146   9
   7   3 -13 25.2894 2.44268  10
   7   3 -13 21.5604 2.12195  17
   6   3 -13 0.85899 1.71484  10
   6   3 -13 0.91010 1.65645  18
   6   3 -13 0.71463 1.36318   9
   6   3 -13 -0.2215 1.52183  17
   5   3 -13 40.3314 3.48259  10
   5   3 -13 41.6955 3.05635   8
   5   3 -13 42.4974 4.36908   9
   5   3 -13 46.9478 3.54296  17
   4   3 -13 -0.0996 1.94613   9
   4   3 -13 -1.1396 3.02189   7
   4   3 -13 2.20622 1.14405   8
   4   3 -13 2.59070 4.28410   2
   3   3 -13 365.925 25.8660   7
   3   3 -13 389.499 24.5429   8
   2   3 -13 42.7597 3.46515   8
  -1  -3  13 2.53247 1.12157   8
   0  -3  13 14.5502 1.70899   8
   1  -3  13 15.4043 1.91527   9
   1  -3  13 16.5058 1.87158   8
   1  -3  13 18.3707 2.04892  12
   2  -3  13 56.8898 4.52906   9
   2  -3  13 56.4282 4.11129  12
   2  -3  13 54.6581 3.86238   8
   2  -3  13 56.3217 4.19973  10
   3  -3  13 13.4067 1.62671  10
   3  -3  13 12.7553 1.61376   9
   3  -3  13 16.9130 1.76457  13
   3  -3  13 17.3989 2.03659  12
   4  -3  13 21.8729 2.32870  12
   4  -3  13 22.5985 2.09171  10
   4  -3  13 23.2565 2.05069   9
   5  -3  13 -1.4200 0.98889  12
   5  -3  13 -0.4230 0.79814  10
   8   2 -13 1.94991 1.16470  18
   8   2 -13 2.30086 1.11553  17
   8   2 -13 0.32499 0.95865  10
   7   2 -13 2.65330 1.48308  17
   7   2 -13 -0.3549 1.40206  18
   7   2 -13 1.79491 1.23136  10
   6   2 -13 2.00130 1.40833  10
   6   2 -13 0.79167 1.63017  17
   6   2 -13 0.39110 1.49973   9
   6   2 -13 0.49572 1.46471  18
   5   2 -13 24.4118 2.36695  17
   5   2 -13 23.8741 1.89060   8
   5   2 -13 28.4525 3.09012   9
   5   2 -13 26.1886 2.73411  10
   4   2 -13 19.0041 4.17907   7
   4   2 -13 23.7571 2.55665  10
   4   2 -13 29.7942 2.38381   8
   4   2 -13 24.0154 2.61344   9
   4   2 -13 16.2489 4.30635   2
   3   2 -13 164.243 13.8622   2
   3   2 -13 206.917 14.1120   7
   3   2 -13 209.453 12.0562   8
   3   2 -13 145.145 14.1053   3
   3   2 -13 175.268 13.1610   9
   2   2 -13 6.29358 1.53875   8
   0  -2  13 1.87168 1.06850   8
   1  -2  13 7.48232 1.49648   9
   1  -2  13 8.05647 1.18929   8
   1  -2  13 5.95320 1.12948  12
   2  -2  13 5.74066 1.23769  12
   2  -2  13 5.44900 1.39562   9
   2  -2  13 5.04574 1.08841   8
   3  -2  13 49.2141 3.71170  12
   3  -2  13 56.2523 4.16549   9
   3  -2  13 49.3554 3.68819  10
   4  -2  13 10.2149 1.33581  10
   4  -2  13 7.71124 1.36537  12
   4  -2  13 7.57761 1.17609   9
   5  -2  13 117.907 7.17077  10
   5  -2  13 117.410 7.69141  12
   8   1 -13 12.8638 1.22382  10
   8   1 -13 11.4548 1.34559  17
   7   1 -13 5.26270 1.22842  10
   7   1 -13 3.88027 1.16281  17
   6   1 -13 4.00639 1.35795   9
   6   1 -13 1.42021 1.65273  10
   6   1 -13 3.15154 1.68223  17
   5   1 -13 13.2268 2.03656  10
   5   1 -13 12.3913 2.10001   9
   5   1 -13 13.2034 1.96688  17
   4   1 -13 75.0251 6.23409   9
   4   1 -13 67.6647 7.70710   2
   4   1 -13 72.8190 5.39871  10
   4   1 -13 75.1444 5.10331   8
   4   1 -13 75.7795 7.33612   7
   3   1 -13 6.42503 1.89447   9
   3   1 -13 11.1854 3.80968   7
   3   1 -13 10.5239 1.46213   8
   3   1 -13 4.84946 4.20952   3
   3   1 -13 10.4342 4.35659   2
   2   1 -13 351.201 22.7227   8
   1   1 -13 116.031 7.94766   8
   0  -1  13 56.6210 4.08910   8
   1  -1  13 13.3678 1.62594   8
   2  -1  13 8.03832 1.34656  12
   2  -1  13 6.05045 1.18872   8
   2  -1  13 3.44895 1.37343   9
   3  -1  13 105.621 6.58646  12
   3  -1  13 85.5244 6.13374  10
   4  -1  13 5.34181 0.94904   9
   4  -1  13 6.02236 0.96888  12
   4  -1  13 3.66870 1.15383  10
   5  -1  13 43.7625 3.16160  12
   5  -1  13 47.4828 2.97514  10
   8   0 -13 47.2262 3.26565  17
   7   0 -13 151.350 9.17482  10
   7   0 -13 145.614 9.24292  17
   6   0 -13 9.31543 1.96746  17
   6   0 -13 12.1987 1.85918  16
   6   0 -13 13.2354 1.67477  10
   6   0 -13 12.4310 1.41525   9
   5   0 -13 62.2774 4.30025  17
   5   0 -13 58.9420 4.54055  16
   5   0 -13 63.4729 4.43501  10
   5   0 -13 58.9484 4.91418   9
   4   0 -13 135.960 9.08626   8
   4   0 -13 134.841 9.05035  16
   4   0 -13 138.814 8.83780  10
   4   0 -13 146.245 10.3195   9
   3   0 -13 2.71928 4.25577   2
   3   0 -13 12.1023 1.50029   8
   3   0 -13 6.59979 4.20390   3
   3   0 -13 11.7597 2.05329   9
   3   0 -13 11.0916 1.70159  16
   3   0 -13 17.9182 4.69259   7
   2   0 -13 59.4259 5.54939   9
   2   0 -13 59.4730 4.60290  16
   2   0 -13 73.8376 4.84321   8
   1   0 -13 40.2129 3.36098   8
   0   0  13 3.61664 1.14598   8
   1   0  13 44.9603 3.37184   8
   2   0  13 8.52333 1.56819   9
   2   0  13 7.75678 1.13262   8
   3   0  13 18.0842 1.75499  12
   3   0  13 15.2826 1.26843   8
   3   0  13 15.0773 1.80800   9
   4   0  13 23.9986 2.07379  12
   4   0  13 26.1514 2.23951   9
   4   0  13 25.1847 2.14040  10
   8  -1 -13 -1.3733 0.94061  17
   8  -1 -13 -0.1279 1.19541  16
   7  -1 -13 0.78580 1.07612  10
   7  -1 -13 0.16228 1.53626  17
   7  -1 -13 -1.3902 1.68855  16
   6  -1 -13 8.68911 1.48729  17
   6  -1 -13 10.4477 1.12446   9
   6  -1 -13 9.50090 1.98774  16
   6  -1 -13 10.0198 1.76392  10
   5  -1 -13 57.2057 4.68995  16
   5  -1 -13 60.5985 4.83250   9
   5  -1 -13 64.0242 4.44676  10
   5  -1 -13 64.6207 4.64526  17
   4  -1 -13 14.0364 2.02847  10
   4  -1 -13 11.8035 1.86870  16
   4  -1 -13 11.6665 1.56962  17
   4  -1 -13 3.64798 3.44896   7
   4  -1 -13 9.92569 1.86618   9
   4  -1 -13 10.7531 1.17567   8
   3  -1 -13 14.7158 1.93092  16
   3  -1 -13 11.7220 1.80529  10
   3  -1 -13 16.9674 2.53239   9
   3  -1 -13 8.98167 4.37600   7
   3  -1 -13 14.1095 1.66025   8
   2  -1 -13 -1.1454 1.52425   8
   2  -1 -13 -0.5314 1.82761   9
   2  -1 -13 -2.2290 1.38083  16
   1  -1 -13 81.0511 5.72726   8
   0  -1 -13 4.22271 1.63475   8
   1   1  13 34.8040 2.79395   8
   2   1  13 0.35671 1.36963   9
   2   1  13 3.01806 0.98382   8
   3   1  13 12.3904 1.44129  12
   3   1  13 11.1257 1.52091   9
   3   1  13 9.67898 0.98220   8
   4   1  13 9.69133 1.17984  12
   4   1  13 12.6427 1.36197   9
   4   1  13 6.55615 1.21033  10
   8  -2 -13 1.47302 0.91387  17
   8  -2 -13 -1.6064 1.29813  16
   7  -2 -13 40.5717 2.68576  10
   7  -2 -13 33.2195 2.99628  16
   7  -2 -13 39.9999 3.25275  17
   6  -2 -13 0.26342 1.17711  10
   6  -2 -13 -0.1856 1.81961  16
   6  -2 -13 0.43223 1.16323  17
   5  -2 -13 3.15807 1.91018  16
   5  -2 -13 4.01365 1.44197  10
   5  -2 -13 7.40083 1.40639   9
   5  -2 -13 5.28142 1.75178  17
   4  -2 -13 18.6956 2.26495  17
   4  -2 -13 25.1733 2.93675   9
   4  -2 -13 24.1741 2.65929  10
   4  -2 -13 19.8962 2.42235  16
   3  -2 -13 1.88452 1.05267   8
   3  -2 -13 1.46017 1.65762  16
   3  -2 -13 4.13172 1.75926   9
   3  -2 -13 -0.1492 3.19776   7
   3  -2 -13 2.26934 1.44561  10
   2  -2 -13 56.1211 5.05699   9
   2  -2 -13 52.8457 3.97024   8
   2  -2 -13 55.9987 4.28409  16
   1  -2 -13 115.691 7.91729   8
   0  -2 -13 70.0465 5.09458   8
  -1  -2 -13 209.557 14.5442   8
   1   2  13 232.338 14.4218   8
   2   2  13 231.543 14.9781   8
   3   2  13 2.24452 1.09274  12
   3   2  13 1.90405 0.56453   8
   3   2  13 2.74062 0.87587   9
   4   2  13 14.5378 1.32242  12
   4   2  13 15.6929 1.44288   9
   8  -3 -13 117.418 7.66775  17
   8  -3 -13 134.469 8.08332  16
   7  -3 -13 9.93099 0.93964  10
   7  -3 -13 13.7297 1.63566  16
   7  -3 -13 9.22826 1.31459  17
   6  -3 -13 47.8973 3.35805  10
   6  -3 -13 39.7430 3.26837  17
   6  -3 -13 50.7780 4.02330  16
   5  -3 -13 25.9911 2.38956   9
   5  -3 -13 28.0787 2.76217  17
   5  -3 -13 26.6243 2.62097  10
   5  -3 -13 22.3899 2.60949  16
   4  -3 -13 11.4238 1.78562  10
   4  -3 -13 15.2778 1.84944  16
   4  -3 -13 13.4998 1.83419  17
   4  -3 -13 15.0593 2.07899   9
   3  -3 -13 3.03338 0.78032   8
   3  -3 -13 1.77093 1.84247  16
   3  -3 -13 2.54778 2.07537   9
   3  -3 -13 3.32797 1.50317  10
   3  -3 -13 2.19122 1.36998  17
   2  -3 -13 30.0863 3.83377   9
   2  -3 -13 28.2657 2.79785  16
   2  -3 -13 36.0161 2.67865   8
   1  -3 -13 12.3661 1.66078   8
   1  -3 -13 12.5665 2.33740   9
   0  -3 -13 4.06979 1.47794   8
  -1  -3 -13 11.6141 1.70705   8
   1   3  13 8.68690 1.12378   8
  -2  -3 -13 0.79092 1.33809   8
   2   3  13 -0.8271 0.79669   8
   3   3  13 17.5773 1.18660   8
   7  -4 -13 9.00953 1.38011  16
   7  -4 -13 6.56534 0.94663  17
   6  -4 -13 10.7015 1.27305  10
   6  -4 -13 7.43795 1.09515  17
   6  -4 -13 8.67598 1.62625  16
   5  -4 -13 12.2577 1.58221  10
   5  -4 -13 13.5023 1.82363  16
   5  -4 -13 10.5580 1.53960  17
   4  -4 -13 6.22981 2.04561  16
   4  -4 -13 2.84370 1.77254  10
   4  -4 -13 3.36551 1.19400   9
   3  -4 -13 40.5738 3.59723  16
   3  -4 -13 32.7502 3.32924  10
   3  -4 -13 42.0360 4.10006   9
   2  -4 -13 1.08071 1.79037   9
   2  -4 -13 -0.4756 0.91150   8
   2  -4 -13 -2.0524 1.29940  16
   1  -4 -13 42.8763 3.10865   8
   1  -4 -13 38.3338 4.24566   9
   0  -4 -13 5.86234 1.37135   8
  -1  -4 -13 43.4073 3.24606   8
   1   4  13 41.5757 3.01376   8
  -2  -4 -13 3.82867 0.88972   8
   2   4  13 4.06715 0.79341   8
   7  -5 -13 16.2411 1.76524  16
   6  -5 -13 -4.3553 1.77970  16
   6  -5 -13 -0.5017 0.82242  10
   5  -5 -13 26.2306 2.34280  10
   5  -5 -13 28.4454 3.11434  16
   4  -5 -13 20.6581 2.35326  16
   4  -5 -13 22.9634 2.20474   9
   4  -5 -13 19.5052 2.08608  10
   3  -5 -13 0.61262 1.34140   9
   3  -5 -13 0.43834 1.32178  16
   3  -5 -13 0.22705 1.42987  10
   2  -5 -13 114.466 8.25281   9
   2  -5 -13 117.157 7.50226  16
   2  -5 -13 101.328 7.21473  10
   1  -5 -13 0.43122 0.88469   8
   1  -5 -13 3.86730 1.74842  16
   1  -5 -13 3.79491 1.80922   9
   0  -5 -13 104.298 7.29787   9
   0  -5 -13 88.4965 6.30500   8
  -1  -5 -13 10.1353 1.09747   8
   1   5  13 11.1753 1.25941   8
  -2  -5 -13 0.75456 0.75994   8
   2   5  13 0.25645 0.47732   8
   6  -6 -13 236.374 14.9009  16
   5  -6 -13 4.24969 1.10378  10
   5  -6 -13 0.45553 1.22881  16
   4  -6 -13 15.5475 1.88241  16
   4  -6 -13 19.6792 2.05264  10
   3  -6 -13 6.29301 1.53137  10
   3  -6 -13 5.85961 1.82797  16
   3  -6 -13 7.02352 1.24763   9
   2  -6 -13 34.9454 3.17095  10
   2  -6 -13 33.8572 2.92349  16
   2  -6 -13 43.0497 3.39557   9
   1  -6 -13 0.01644 1.06653  16
   1  -6 -13 -0.5458 1.05502   9
   0  -6 -13 0.42940 1.01450  16
   0  -6 -13 -0.7687 1.02588   9
   0  -6 -13 0.15376 0.50228   8
  -1  -6 -13 0.16160 1.15551  16
  -1  -6 -13 -0.0170 0.45994   8
   1   6  13 -0.0209 0.61654   8
   5  -7 -13 0.63811 0.55828  10
   5  -7 -13 1.25193 1.46886  16
   4  -7 -13 6.45398 1.24507  16
   4  -7 -13 5.98956 1.04966  10
   3  -7 -13 32.8610 2.37259  10
   3  -7 -13 23.5097 2.21178  16
   2  -7 -13 3.08010 1.07814  16
   2  -7 -13 3.87411 0.99119  10
   2  -7 -13 5.41430 1.05424   9
   1  -7 -13 21.7300 1.80524  16
  -2 -12  14 1.29721 0.98245  14
  -2 -12  14 1.62108 0.98999   9
  -1 -12  14 12.7208 1.58388  14
  -1 -12  14 13.7983 1.67589   9
   0 -12  14 3.14273 0.66276   9
   0 -12  14 3.01200 1.08840  10
   0 -12  14 2.16710 1.00383  14
   1 -12  14 11.4007 1.20661  10
   3  11 -14 3.29680 0.79393   8
  -3 -11  14 5.00608 0.80474   8
  -3 -11  14 6.73287 1.32912  14
  -3 -11  14 7.57088 1.12541   9
  -2 -11  14 4.58626 1.09099   9
  -2 -11  14 3.91963 1.29292  14
  -2 -11  14 4.64503 0.63929   8
  -1 -11  14 1.41012 1.31425   9
  -1 -11  14 0.57803 1.71395  14
   0 -11  14 13.7282 1.53353   9
   0 -11  14 13.9178 1.68288  10
   0 -11  14 13.9257 2.01283  14
   1 -11  14 5.74328 1.22413  13
   1 -11  14 8.56901 0.92138   9
   1 -11  14 6.91299 1.04991  10
   2 -11  14 3.37994 1.10708  13
   2 -11  14 3.39635 0.90666  10
   3 -11  14 28.9374 2.18787  13
   4  10 -14 17.0382 1.67046   8
  -4 -10  14 18.7374 1.50716   8
   3  10 -14 61.3281 4.14995   8
  -3 -10  14 57.3599 4.09784   8
  -2 -10  14 5.93201 0.93817   8
  -2 -10  14 7.87791 1.62136   9
  -1 -10  14 72.2161 5.34627   9
  -1 -10  14 64.0862 4.42819   8
   0 -10  14 109.844 7.03388  10
   0 -10  14 113.335 7.44510  13
   0 -10  14 102.307 8.21673  14
   0 -10  14 115.469 8.01501   9
   1 -10  14 23.7139 2.27537  10
   1 -10  14 18.7070 2.08320  13
   1 -10  14 24.8396 2.18033   9
   2 -10  14 40.2170 2.61095  10
   2 -10  14 28.1848 2.71641  13
   3 -10  14 54.5271 3.38450  10
   3 -10  14 50.0905 3.72038  13
   5   9 -14 30.1778 3.04457   9
   5   9 -14 34.7039 2.64527  18
   5   9 -14 28.1373 2.05796   8
  -5  -9  14 24.7753 2.28934   8
   4   9 -14 6.78537 1.23171   8
  -4  -9  14 5.63411 1.23286   8
   3   9 -14 2.30563 1.29595   8
  -3  -9  14 1.21971 1.12163   8
  -2  -9  14 0.77390 1.01087   8
  -1  -9  14 15.2478 1.45860   8
  -1  -9  14 13.3868 2.00108   9
   0  -9  14 1.14259 0.58475   8
   0  -9  14 2.99123 1.42875  10
   0  -9  14 0.67085 1.62061  14
   0  -9  14 0.71443 1.43544   9
   0  -9  14 1.09107 0.96889  13
   1  -9  14 1.34650 1.37757  10
   1  -9  14 1.89498 1.16828   9
   1  -9  14 1.06881 1.05264  13
   2  -9  14 18.2815 2.15032  13
   2  -9  14 25.0351 2.17145  10
   2  -9  14 22.2862 1.93246   9
   3  -9  14 5.38755 1.06905  13
   3  -9  14 3.81696 0.97289  10
   4  -9  14 4.34614 1.08000  13
   6   8 -14 26.1088 2.66947   9
   6   8 -14 28.3316 2.46452  18
   5   8 -14 -0.1778 1.12233   9
   5   8 -14 -1.9347 0.77122   8
   4   8 -14 17.9646 1.98818   8
  -4  -8  14 17.8691 1.68944   8
   3   8 -14 2.72050 1.01871   8
  -3  -8  14 0.46708 1.16136   8
  -2  -8  14 0.23867 1.09658   8
  -1  -8  14 2.07574 1.25633  13
  -1  -8  14 1.16408 1.58502   9
  -1  -8  14 2.69089 1.02283   8
   0  -8  14 3.99928 1.47687  13
   0  -8  14 1.88301 0.89893   8
   0  -8  14 3.67209 1.49294   9
   1  -8  14 2.87951 1.51864  13
   1  -8  14 3.67135 1.40553  10
   1  -8  14 4.75179 1.36012   9
   2  -8  14 1.63643 1.13612   9
   2  -8  14 2.96660 1.24300  10
   2  -8  14 2.34945 1.11327  13
   3  -8  14 9.95575 1.59238  13
   3  -8  14 9.54436 1.23473  10
   4  -8  14 6.90543 1.00850  13
   4  -8  14 6.71587 0.84055  10
   6   7 -14 3.35088 1.04259   9
   6   7 -14 0.95826 1.24740  18
   5   7 -14 18.2375 2.38293   9
   5   7 -14 19.8015 1.86485   8
   4   7 -14 16.7394 1.98621   8
   3   7 -14 19.7904 2.31684   8
  -3  -7  14 20.6894 2.09342   8
  -2  -7  14 34.1316 2.79619   8
  -1  -7  14 223.190 15.8254   9
   0  -7  14 58.9075 4.49478   8
   0  -7  14 71.5668 5.37264   9
   0  -7  14 72.3109 4.95833  13
   1  -7  14 102.130 6.49894  13
   1  -7  14 89.4923 5.97386  10
   1  -7  14 100.695 6.84354   9
   1  -7  14 79.0453 5.92029   8
   2  -7  14 2.90967 1.29928   9
   2  -7  14 2.65103 1.23600  10
   2  -7  14 3.63605 1.18321  13
   3  -7  14 26.6954 2.27957  10
   3  -7  14 27.6881 2.16684   9
   3  -7  14 27.1178 2.44409  13
   4  -7  14 31.2438 2.50191  12
   4  -7  14 34.9280 2.73571  13
   4  -7  14 32.7221 2.25711  10
   7   6 -14 198.548 12.6888  10
   7   6 -14 219.408 14.5092   9
   6   6 -14 9.18459 1.66989   9
   6   6 -14 13.1780 2.04274  18
   5   6 -14 116.579 7.97614   8
   5   6 -14 126.899 9.06098   9
   4   6 -14 9.35047 1.54926   8
   3   6 -14 21.9610 2.49725   8
  -2  -6  14 14.3465 1.70832   8
  -1  -6  14 0.61156 1.12612   8
   0  -6  14 -0.8823 1.43259   9
   0  -6  14 0.40944 0.91990   8
   1  -6  14 18.2660 2.12474   9
   1  -6  14 13.2366 1.24141   8
   1  -6  14 11.1665 1.65257  10
   2  -6  14 3.42000 1.27127  10
   2  -6  14 2.89129 1.47595  13
   2  -6  14 2.18235 1.14812   9
   3  -6  14 16.4676 1.80578   9
   3  -6  14 18.1967 1.90610  13
   3  -6  14 14.2152 1.53761  12
   3  -6  14 16.6514 1.64116  10
   4  -6  14 7.27161 1.00755  13
   4  -6  14 8.37762 0.97902  12
   4  -6  14 7.99767 1.04563  10
   7   5 -14 0.15119 1.09810  18
   7   5 -14 -0.6238 0.84653   9
   7   5 -14 0.08753 1.22545  10
   6   5 -14 7.16478 1.60506   9
   6   5 -14 7.01514 1.58522  10
   6   5 -14 8.18158 1.90827  18
   5   5 -14 4.53920 1.41047  17
   5   5 -14 1.81555 1.72841   9
   5   5 -14 2.86014 0.94351   8
   4   5 -14 61.5364 5.33311   9
   4   5 -14 59.8736 4.18525  17
   4   5 -14 63.7662 4.47121   8
   3   5 -14 -0.9446 1.38513   8
   2   5 -14 55.0575 6.54162   7
   2   5 -14 65.5368 4.76877   8
  -2  -5  14 62.2945 4.52717   8
  -2  -5  14 60.3459 5.96322   5
  -1  -5  14 0.36060 2.47535   5
  -1  -5  14 -0.6588 1.11577   8
   0  -5  14 1.77307 2.55014   5
   0  -5  14 0.08578 1.40300   9
   0  -5  14 0.04052 1.20695   8
   1  -5  14 -0.2211 1.30611   9
   1  -5  14 2.00279 0.97494   8
   2  -5  14 7.54346 1.58290   9
   2  -5  14 5.97409 1.53806  13
   2  -5  14 4.62245 1.31918  10
   3  -5  14 12.6628 1.44667  10
   3  -5  14 9.48988 1.36880   9
   3  -5  14 8.86963 1.35509  12
   3  -5  14 8.87864 1.56170  13
   4  -5  14 4.29971 0.77537  10
   4  -5  14 4.56525 0.88542  12
   5  -5  14 10.7999 1.14200  12
   5  -5  14 14.6317 1.04703  10
   8   4 -14 -0.2127 0.76936  10
   7   4 -14 7.66872 1.03167  17
   7   4 -14 11.1513 1.54953  10
   7   4 -14 10.7187 1.14520   9
   7   4 -14 7.82619 1.28911  18
   6   4 -14 7.99018 1.78240  18
   6   4 -14 8.90131 1.65644   9
   6   4 -14 9.68563 1.56480  17
   6   4 -14 6.22840 1.64821  10
   5   4 -14 10.2780 2.27929   9
   5   4 -14 8.86853 1.35866  17
   5   4 -14 8.74516 1.23388   8
   4   4 -14 3.50461 1.30358   8
   4   4 -14 3.86488 1.79368   9
   4   4 -14 2.60572 1.56524  17
   3   4 -14 357.701 23.1592   8
   2   4 -14 207.070 13.6596   8
  -1  -4  14 195.896 12.8448   8
   0  -4  14 -0.2523 2.36599   5
   0  -4  14 0.16940 1.01484   8
   1  -4  14 9.10912 1.56602   9
   1  -4  14 6.30503 1.06530   8
   2  -4  14 5.00737 0.72874   8
   2  -4  14 8.69476 1.02839  12
   2  -4  14 6.78846 1.35822   9
   2  -4  14 7.15193 1.38834  10
   3  -4  14 72.8339 4.80327  10
   3  -4  14 70.7736 5.15957  13
   3  -4  14 66.1681 5.06920  12
   3  -4  14 80.6201 5.46484   9
   4  -4  14 12.2326 1.22410  10
   4  -4  14 12.1019 1.44126  12
   5  -4  14 2.08628 0.56772  10
   5  -4  14 1.55657 0.79473  12
   8   3 -14 131.221 7.97031  10
   7   3 -14 7.53150 1.36950  10
   7   3 -14 2.73463 1.05503  18
   7   3 -14 4.44350 1.00750  17
   6   3 -14 10.5644 1.66534  10
   6   3 -14 7.17985 1.66702  17
   6   3 -14 5.55370 1.17691  18
   6   3 -14 6.03718 1.79511   9
   5   3 -14 43.8113 3.27089   8
   5   3 -14 42.1387 3.60002  18
   5   3 -14 54.4746 3.81998  17
   5   3 -14 51.5885 4.35455   9
   5   3 -14 48.0078 3.80006  10
   4   3 -14 12.6990 1.60888   8
   4   3 -14 15.9342 2.48765   9
   3   3 -14 128.988 8.62425   8
   3   3 -14 125.825 10.5048   7
   2   3 -14 0.40341 1.45846   8
  -1  -3  14 12.1993 1.56428   8
   0  -3  14 2.97812 1.07098   8
   1  -3  14 13.8310 1.51022   8
   1  -3  14 12.9511 1.80770   9
   2  -3  14 13.2482 1.30549   8
   2  -3  14 11.9585 1.68843   9
   2  -3  14 15.9531 1.84884  12
   3  -3  14 26.5795 2.55766   9
   3  -3  14 26.6750 2.23261  12
   3  -3  14 27.5152 2.19328  13
   4  -3  14 0.30536 0.76901  12
   4  -3  14 1.04737 0.61683   9
   4  -3  14 -0.1584 0.97868  10
   8   2 -14 0.34451 0.98092  17
   8   2 -14 -0.4451 0.88962  10
   7   2 -14 -0.0440 1.40218  17
   7   2 -14 1.77170 1.17080  10
   6   2 -14 3.12952 1.50736   9
   6   2 -14 3.94410 1.70440  17
   6   2 -14 4.99267 1.49950  10
   5   2 -14 0.48648 1.16234  17
   5   2 -14 1.85211 1.54359  10
   5   2 -14 0.90689 1.56365   9
   5   2 -14 1.26273 0.62873   8
   4   2 -14 21.2955 2.11860   8
   4   2 -14 20.7283 2.47209   9
   4   2 -14 17.3535 4.52024   7
   3   2 -14 20.2184 4.41701   7
   3   2 -14 21.6477 2.67466   9
   3   2 -14 22.4053 2.54276   8
   2   2 -14 116.445 7.94103   8
   1   2 -14 7.35027 1.73094   8
   0  -2  14 16.7558 1.92014   8
   1  -2  14 2.28285 1.02301  12
   1  -2  14 3.78587 1.01147   8
   1  -2  14 4.05312 1.46304   9
   2  -2  14 0.91936 1.04346  12
   2  -2  14 -0.0027 1.28281   9
   2  -2  14 1.83575 0.85291   8
   3  -2  14 8.23296 1.10964  12
   3  -2  14 8.53898 1.39601  10
   3  -2  14 8.19673 1.28625   9
   4  -2  14 4.04366 1.12636  12
   4  -2  14 4.93985 1.09486  10
   4  -2  14 4.20833 0.75189   9
   8   1 -14 1.30677 0.88577  17
   8   1 -14 2.25071 0.62567  10
   7   1 -14 -0.6213 1.10296  10
   7   1 -14 0.33696 1.02630  17
   6   1 -14 1.28612 1.27105   9
   6   1 -14 1.05936 1.70370  10
   6   1 -14 -0.7200 1.63507  17
   5   1 -14 5.52280 1.60118  10
   5   1 -14 5.20168 1.32477  17
   5   1 -14 4.07464 1.88281   9
   4   1 -14 73.3670 5.19028  10
   4   1 -14 78.2154 6.00598   9
   4   1 -14 69.1992 4.94392   8
   3   1 -14 1.31226 1.24514   8
   3   1 -14 3.73143 3.67861   7
   3   1 -14 0.14707 1.82336   9
   2   1 -14 48.8257 3.80458   8
   1   1 -14 169.349 11.2789   8
   0  -1  14 0.20988 1.08172   8
   1  -1  14 74.2873 5.30424   8
   1  -1  14 81.0933 5.39260  12
   2  -1  14 0.10508 1.07827  12
   2  -1  14 0.39380 0.88975   8
   2  -1  14 -0.9683 1.31527   9
   3  -1  14 32.9276 2.74847   9
   3  -1  14 35.1677 2.84550  12
   4  -1  14 -0.4852 0.94218  12
   4  -1  14 0.30387 0.68074   9
   4  -1  14 0.48430 0.95500  10
   8   0 -14 29.8038 2.27905  17
   7   0 -14 106.210 6.89266  17
   7   0 -14 110.838 6.76870  10
   6   0 -14 46.7881 3.80497  10
   6   0 -14 43.5087 3.87936  17
   6   0 -14 48.1173 3.67157   9
   5   0 -14 35.4358 3.73050   9
   5   0 -14 36.3733 3.40710  17
   5   0 -14 34.6870 3.57412  10
   4   0 -14 142.584 10.0422   9
   4   0 -14 140.654 8.74655  10
   4   0 -14 128.321 8.87934   8
   3   0 -14 4.69878 3.75901   7
   3   0 -14 6.08848 1.26663   8
   3   0 -14 4.42166 1.92266   9
   2   0 -14 5.06994 2.13771   9
   2   0 -14 7.77109 1.49891   8
   1   0 -14 1.65920 1.45487   8
   0   0 -14 -1.7638 1.47632   8
   0   0  14 1.02122 1.12513   8
   1   0  14 27.1103 2.32299   8
   2   0  14 0.92231 1.15348  12
   2   0  14 0.35145 1.29671   9
   2   0  14 0.11776 0.78131   8
   3   0  14 -0.1756 0.75693  12
   3   0  14 -3.1268 1.09055   9
   4   0  14 0.66508 0.65024  10
   4   0  14 1.32360 0.62009   9
   4   0  14 0.91924 0.59803  12
   8  -1 -14 0.10283 1.18625  17
   7  -1 -14 -0.2807 1.47725  17
   7  -1 -14 1.96156 1.46380  16
   7  -1 -14 0.67170 0.85505  10
   6  -1 -14 4.93785 1.35772  10
   6  -1 -14 0.33786 1.67252  17
   6  -1 -14 2.89790 1.64441  16
   5  -1 -14 7.43628 1.85133  17
   5  -1 -14 9.67984 1.73999   9
   5  -1 -14 8.48115 1.91537  16
   5  -1 -14 8.82385 1.66309  10
   4  -1 -14 0.75910 1.58192   9
   4  -1 -14 1.26075 1.59413  16
   4  -1 -14 -0.6124 1.64484  17
   4  -1 -14 0.28320 1.47828  10
   4  -1 -14 1.75473 0.53415   8
   3  -1 -14 2.30923 1.59126  10
   3  -1 -14 2.16060 1.62175  16
   3  -1 -14 5.90197 1.27381   8
   3  -1 -14 3.61934 1.82757   9
   2  -1 -14 -0.0277 1.22284   8
   2  -1 -14 0.00105 1.51803  16
   2  -1 -14 1.62039 1.92837   9
   1  -1 -14 0.85172 1.37758   8
   0  -1 -14 1.43061 1.53596   8
   0   1  14 3.27692 1.17670   8
   1   1  14 5.00067 1.19556   8
   2   1  14 8.23104 1.52830   9
   2   1  14 7.22295 1.39334  12
   2   1  14 10.0117 1.13781   8
   3   1  14 16.1090 2.01567   9
   3   1  14 18.8725 1.89155  12
   8  -2 -14 -0.7605 0.71443  17
   7  -2 -14 14.9914 1.65485  17
   7  -2 -14 14.4735 1.59145  16
   7  -2 -14 14.2634 1.42455  10
   6  -2 -14 0.55243 1.25799  16
   6  -2 -14 -0.2707 1.59659  17
   6  -2 -14 0.46500 1.16049  10
   5  -2 -14 0.37980 1.43358  10
   5  -2 -14 -0.2360 1.81868  16
   5  -2 -14 -0.7390 1.15256  17
   5  -2 -14 -1.0859 1.20329   9
   4  -2 -14 0.24211 1.51094  10
   4  -2 -14 -0.4862 1.48751   9
   4  -2 -14 -0.2432 1.71341  16
   4  -2 -14 -0.2322 1.53677  17
   3  -2 -14 18.6880 2.34685   9
   3  -2 -14 17.1570 1.59384   8
   3  -2 -14 15.5754 2.04903  10
   3  -2 -14 17.3913 2.21454  16
   2  -2 -14 10.5184 2.22433   9
   2  -2 -14 14.0725 1.70694   8
   2  -2 -14 14.6944 2.03209  16
   1  -2 -14 57.0359 4.18152   8
   0  -2 -14 1.66198 1.42476   8
   0   2  14 1.61155 1.12514   8
  -1  -2 -14 131.778 9.01091   8
   1   2  14 136.486 8.86774   8
   2   2  14 12.9489 1.42728  12
   2   2  14 10.2917 1.70075   9
   2   2  14 10.2645 1.17177   8
   3   2  14 2.81788 0.90128  12
   3   2  14 2.17429 0.98537   9
   7  -3 -14 24.7490 1.92217  17
   7  -3 -14 23.5625 2.12093  16
   6  -3 -14 36.8401 3.29777  16
   6  -3 -14 32.0468 2.59600  17
   6  -3 -14 38.1368 2.83360  10
   5  -3 -14 16.9408 1.99907  17
   5  -3 -14 13.8481 1.87704  10
   5  -3 -14 22.7351 1.85041   9
   5  -3 -14 16.7384 1.98978  16
   4  -3 -14 5.42499 1.45178  17
   4  -3 -14 9.37555 1.92191  16
   4  -3 -14 5.20381 1.41917   9
   4  -3 -14 3.54476 1.56324  10
   3  -3 -14 3.67487 1.56169  10
   3  -3 -14 2.50875 0.51021   8
   3  -3 -14 1.12062 1.27394  17
   3  -3 -14 4.26385 1.84969  16
   3  -3 -14 0.85015 1.71796   9
   2  -3 -14 11.1218 2.03543  16
   2  -3 -14 9.98526 1.37611   8
   2  -3 -14 13.1785 2.17531   9
   1  -3 -14 52.3144 4.80251   9
   1  -3 -14 50.1390 3.80425   8
   0  -3 -14 -0.6759 1.20050   8
  -1  -3 -14 2.57763 0.92951   8
   1   3  14 0.70322 0.96034   8
  -2  -3 -14 -0.7078 0.75158   8
   2   3  14 -0.6428 0.67953  12
   2   3  14 -0.1203 0.58457   8
   7  -4 -14 6.74806 1.14558  16
   6  -4 -14 0.26218 0.91808  10
   6  -4 -14 0.37114 1.27943  16
   5  -4 -14 -0.1047 1.17627  10
   5  -4 -14 0.24488 1.30658  16
   4  -4 -14 13.2096 2.07588  16
   4  -4 -14 10.8188 1.66001  10
   4  -4 -14 9.60841 1.45501   9
   3  -4 -14 -0.2561 1.52325  10
   3  -4 -14 4.39601 1.45902   9
   3  -4 -14 3.89613 1.85460  16
   2  -4 -14 2.91551 1.66090   9
   2  -4 -14 3.32687 1.81425  16
   2  -4 -14 2.41517 0.67150   8
   1  -4 -14 0.70295 0.86981   8
   1  -4 -14 0.02882 1.80297   9
   1  -4 -14 1.20455 1.19310  16
   0  -4 -14 -0.9400 0.97413   8
  -1  -4 -14 -0.2778 0.95250   8
   1   4  14 -0.8046 0.79490   8
  -2  -4 -14 1.09571 0.56006   8
   2   4  14 1.07793 0.47508   8
   2   4  14 2.31361 0.56946  12
   6  -5 -14 4.87411 1.17309  16
   5  -5 -14 -1.6375 1.21150  10
   5  -5 -14 -0.3584 1.18345  16
   4  -5 -14 2.50002 1.32440  10
   4  -5 -14 3.73564 1.76591  16
   4  -5 -14 2.23889 0.75253   9
   3  -5 -14 22.3458 2.52926  16
   3  -5 -14 16.8610 2.02581  10
   3  -5 -14 19.6095 2.15733   9
   2  -5 -14 32.8425 3.17658   9
   2  -5 -14 36.9741 2.70273  16
   2  -5 -14 27.6295 2.65326  10
   1  -5 -14 5.77345 1.65479  16
   1  -5 -14 4.09846 1.63151   9
   1  -5 -14 3.93199 0.62823   8
   0  -5 -14 48.2796 4.38454   9
   0  -5 -14 70.5596 3.86660   8
   0   5  14 50.9547 3.90394   8
  -1  -5 -14 0.59920 0.66919   8
  -1  -5 -14 0.53163 1.16174  16
   1   5  14 0.45522 0.65764   8
   6  -6 -14 62.2941 4.15841  16
   5  -6 -14 10.6449 1.48290  16
   5  -6 -14 13.9350 1.30493  10
   4  -6 -14 7.97380 1.30093  16
   4  -6 -14 6.84611 1.23031  10
   3  -6 -14 11.6492 1.61375  10
   3  -6 -14 11.0475 1.50040  16
   3  -6 -14 13.8704 1.38031   9
   2  -6 -14 15.3186 1.71861   9
   2  -6 -14 10.2792 1.46025  16
   2  -6 -14 11.7141 1.33177  10
   1  -6 -14 7.82303 1.32290   9
   1  -6 -14 6.14472 1.12722  16
   0  -6 -14 -0.0142 0.79328  16
   4  -7 -14 -0.0751 0.88746  10
   3  -7 -14 1.77465 0.86767  16
   3  -7 -14 2.66762 0.98540  10
  -3 -11  15 2.52363 1.02706  14
  -2 -11  15 13.4270 1.74293  14
  -2 -11  15 13.1167 1.62827   9
  -1 -11  15 2.34762 1.14288   9
  -1 -11  15 3.61013 1.09886  14
   0 -11  15 73.7326 5.75824  14
   0 -11  15 83.4664 5.50840   9
   0 -11  15 68.6691 4.76233  10
   1 -11  15 0.57787 0.64550  13
   1 -11  15 -1.7698 0.98655  10
   2 -11  15 48.1244 3.06717  10
   4  10 -15 114.862 7.11176   8
  -4 -10  15 101.900 7.08921   8
   3  10 -15 25.4217 1.98275   8
  -3 -10  15 23.5021 1.90138   8
  -2 -10  15 9.65084 1.64032   9
  -2 -10  15 9.76352 1.02707   8
  -1 -10  15 -0.4645 1.07900  14
  -1 -10  15 2.16777 0.99153   9
   0 -10  15 7.30538 1.31031  13
   0 -10  15 6.58376 1.25848   9
   0 -10  15 5.65370 1.54115  14
   0 -10  15 7.14484 1.44273  10
   1 -10  15 18.7582 1.95529  10
   1 -10  15 20.2440 1.81891   9
   1 -10  15 14.1930 1.76743  13
   2 -10  15 2.54251 0.86837  13
   2 -10  15 3.70918 0.97726  10
   3 -10  15 18.2063 1.60590  13
   5   9 -15 2.05801 0.49504   8
   5   9 -15 1.21643 1.02524  18
  -5  -9  15 2.52073 0.90463   8
   4   9 -15 0.49845 0.97825   8
  -4  -9  15 0.06028 0.95380   8
   3   9 -15 3.10245 1.26768   8
  -3  -9  15 1.70551 1.01674   8
  -2  -9  15 3.62997 0.98980   8
  -2  -9  15 5.65243 1.60415   9
  -1  -9  15 10.3071 1.74676   9
  -1  -9  15 8.36021 1.02224   8
  -1  -9  15 8.18418 1.38185  13
   0  -9  15 27.7334 2.73938   9
   0  -9  15 21.7058 2.18496  13
   1  -9  15 -1.0421 1.30242  13
   1  -9  15 -1.8224 1.01151   9
   1  -9  15 1.33028 1.28051  10
   2  -9  15 8.44858 1.27387  10
   2  -9  15 4.42880 1.37950  13
   3  -9  15 1.14412 0.76876  13
   3  -9  15 -0.3740 0.88909  10
   6   8 -15 11.2414 1.34516   9
   6   8 -15 9.37506 1.27827  18
   5   8 -15 1.67018 1.09510   9
   5   8 -15 1.77899 0.64355   8
   4   8 -15 1.92088 1.13118   8
  -4  -8  15 0.02787 0.77599   8
   3   8 -15 0.75093 0.92813   8
  -3  -8  15 3.32376 1.15204   8
  -2  -8  15 37.9356 2.89978   8
  -1  -8  15 1.15798 1.55685   9
  -1  -8  15 1.95035 1.26244  13
  -1  -8  15 0.79758 0.88172   8
   0  -8  15 14.6991 1.91153   9
   0  -8  15 14.1965 1.22500   8
   0  -8  15 12.4413 1.73494  13
   1  -8  15 5.24119 1.12569  13
   1  -8  15 2.64961 1.23767   9
   1  -8  15 2.37412 1.32193  10
   2  -8  15 86.9937 6.41597   9
   2  -8  15 93.9491 6.29755  13
   3  -8  15 0.95764 0.86167  10
   3  -8  15 2.23119 1.15704  13
   6   7 -15 37.3366 2.96226  18
   6   7 -15 36.1516 3.21767   9
   5   7 -15 14.5745 1.27109   8
   5   7 -15 10.5697 1.62014   9
   4   7 -15 91.3001 6.23503   8
   3   7 -15 1.48457 1.01302   8
  -3  -7  15 2.18041 1.17337   8
  -2  -7  15 4.20366 1.21542   8
  -1  -7  15 6.23806 1.36716   8
  -1  -7  15 4.88300 1.70270   9
   0  -7  15 0.74380 0.73368   8
   0  -7  15 0.06465 0.94589  13
   0  -7  15 -0.5319 1.43756   9
   1  -7  15 1.15972 0.99591  13
   1  -7  15 1.04491 1.55632   9
   1  -7  15 0.26752 1.31546  10
   2  -7  15 0.65098 1.24270  10
   2  -7  15 1.77055 1.03012  13
   2  -7  15 2.41380 0.96567   9
   3  -7  15 21.9082 1.76328  10
   3  -7  15 14.2262 1.78574  13
   4  -7  15 3.39852 0.72177  10
   6   6 -15 4.50056 1.67457  18
   6   6 -15 6.80646 1.48401   9
   5   6 -15 0.39729 1.26296   9
   5   6 -15 0.59226 0.96413   8
   4   6 -15 5.74500 1.36999   8
   3   6 -15 2.69775 1.49474   8
  -2  -6  15 -1.4834 1.11248   8
  -1  -6  15 4.84981 1.17111   8
   0  -6  15 8.94010 1.17490   8
   0  -6  15 11.9524 1.81236   9
   1  -6  15 18.3967 2.13353   9
   1  -6  15 14.3181 1.33070   8
   1  -6  15 14.8765 1.84254  13
   2  -6  15 37.5036 3.01803   9
   2  -6  15 34.6486 2.56034  10
   2  -6  15 31.9405 2.81055  13
   3  -6  15 8.06842 0.99190  10
   3  -6  15 5.24378 1.35559  13
   3  -6  15 8.80185 1.09016   9
   4  -6  15 34.5957 2.32300  10
   7   5 -15 7.36668 1.08135  18
   7   5 -15 12.5527 1.39413  10
   6   5 -15 -0.6042 1.39949  10
   6   5 -15 3.31750 1.09008  18
   6   5 -15 -0.4940 1.36342   9
   5   5 -15 5.57890 1.06193   8
   5   5 -15 4.28281 1.85475   9
   5   5 -15 4.98499 1.45008  17
   4   5 -15 -1.2359 1.18229   8
   4   5 -15 0.75177 1.46595  17
   4   5 -15 0.20876 1.75409   9
   3   5 -15 -1.0229 1.40102   8
   2   5 -15 25.9549 2.94157   8
  -2  -5  15 26.1529 2.43291   8
  -1  -5  15 -0.8655 1.06046   8
   0  -5  15 134.838 8.92314   8
   1  -5  15 22.5159 2.58345   9
   1  -5  15 17.8823 1.61903   8
   2  -5  15 28.9305 2.56122  13
   2  -5  15 32.8882 2.84504   9
   2  -5  15 29.4022 2.62633  10
   3  -5  15 1.42996 1.10917  10
   3  -5  15 -0.4677 0.83670   9
   3  -5  15 0.28109 0.92993  12
   3  -5  15 -0.5838 0.82220  13
   4  -5  15 59.8735 3.70820  10
   4  -5  15 56.3251 3.97550  12
   7   4 -15 19.4907 1.65770  17
   7   4 -15 19.2322 2.11790  18
   7   4 -15 25.5815 2.12573  10
   6   4 -15 15.7647 1.87555   9
   6   4 -15 11.9241 1.48570  17
   6   4 -15 18.5024 1.93446  10
   6   4 -15 14.0770 1.70978  18
   5   4 -15 56.2413 4.61112   9
   5   4 -15 48.1142 3.45119   8
   5   4 -15 49.3587 3.58342  17
   4   4 -15 0.22833 1.58702  17
   4   4 -15 1.51585 1.80635   9
   4   4 -15 2.50138 1.22214   8
   3   4 -15 132.306 8.90669   8
   2   4 -15 157.766 10.5621   8
  -1  -4  15 11.0780 1.54317   8
   0  -4  15 51.7138 3.73180   8
   1  -4  15 9.65057 1.56047   9
   1  -4  15 6.34532 0.97854   8
   2  -4  15 -0.7787 1.19281  10
   2  -4  15 -0.0126 1.28900  13
   2  -4  15 1.33626 0.73204  12
   2  -4  15 -0.7214 1.14635   9
   3  -4  15 7.70149 1.03167  10
   3  -4  15 6.87824 1.17281  12
   3  -4  15 7.87165 1.05353   9
   3  -4  15 6.62596 1.22756  13
   4  -4  15 10.6250 1.14664  10
   4  -4  15 9.75310 1.08863  12
   7   3 -15 -0.1056 0.81582  17
   7   3 -15 0.35604 1.17979  10
   6   3 -15 2.33237 1.51551  10
   6   3 -15 -1.0150 1.50473  17
   6   3 -15 2.50924 1.27744   9
   5   3 -15 -0.0669 1.58371  10
   5   3 -15 -0.0608 0.70203   8
   5   3 -15 -0.7808 1.65215   9
   5   3 -15 0.12792 1.12636  17
   4   3 -15 22.6328 2.66013   9
   4   3 -15 21.8602 2.27512   8
   3   3 -15 5.38057 1.49805   8
   2   3 -15 30.7401 2.83098   8
  -1  -3  15 42.8950 3.33139   8
   0  -3  15 0.60131 1.05284   8
   1  -3  15 15.2161 1.55091   8
   1  -3  15 20.3285 2.49799   9
   2  -3  15 42.4829 3.15447   9
   2  -3  15 32.1273 2.51060  12
   2  -3  15 30.9774 2.29717   8
   3  -3  15 8.86970 1.06273  10
   3  -3  15 6.81045 1.10303   9
   3  -3  15 8.50216 1.04873  12
   4  -3  15 22.7727 1.74370  10
   4  -3  15 20.4102 1.67846  12
   7   2 -15 3.49913 1.18839  10
   7   2 -15 1.00047 0.94239  17
   6   2 -15 33.5404 3.10024   9
   6   2 -15 33.8385 2.89548  10
   6   2 -15 26.0091 2.55001  17
   5   2 -15 0.47697 1.61382  17
   5   2 -15 1.05664 1.54637  10
   5   2 -15 0.63882 1.91123   9
   4   2 -15 30.1007 3.73098   9
   4   2 -15 33.8680 2.68840   8
   3   2 -15 3.16585 1.95628   9
   3   2 -15 5.39684 1.41280   8
   2   2 -15 29.5401 2.73395   8
   1   2 -15 31.2835 2.89926   8
  -1  -2  15 31.8083 2.68937   8
   0  -2  15 27.1903 2.34034   8
   1  -2  15 20.8767 2.19930   9
   1  -2  15 19.6235 1.82347   8
   2  -2  15 56.4154 4.26678   8
   2  -2  15 70.2894 4.56100  12
   2  -2  15 69.6703 4.83989   9
   3  -2  15 4.55797 0.81863   9
   3  -2  15 6.63062 1.13350  12
   3  -2  15 4.75508 1.18688  10
   4  -2  15 54.0669 3.45531  12
   4  -2  15 45.3483 3.12530  10
   8   1 -15 0.13351 0.64718  17
   7   1 -15 11.4980 1.37356  10
   7   1 -15 8.23930 1.32670  17
   6   1 -15 5.76900 1.22559   9
   6   1 -15 6.38178 1.72300  17
   6   1 -15 7.39090 1.53318  10
   5   1 -15 17.2846 2.01215  10
   5   1 -15 11.2720 1.98552  17
   5   1 -15 13.8095 1.94062   9
   4   1 -15 328.955 20.0395  10
   4   1 -15 307.253 21.1560   8
   4   1 -15 353.775 23.1017   9
   3   1 -15 206.871 14.0024   9
   3   1 -15 182.275 12.6351   8
   2   1 -15 58.0972 4.30425   8
   1   1 -15 4.82014 1.54451   8
   0  -1  15 0.25456 1.11488   8
   1  -1  15 23.7774 2.09524   8
   1  -1  15 20.8030 2.12724  12
   2  -1  15 -0.2035 1.22576   9
   2  -1  15 -0.8656 0.56757   8
   2  -1  15 -0.3306 1.03682  12
   3  -1  15 18.2413 1.77110   9
   3  -1  15 13.0706 1.42670  12
   8   0 -15 1.80604 0.73165  17
   7   0 -15 10.3894 1.46121  17
   7   0 -15 14.5888 1.55191  10
   6   0 -15 0.56355 0.75695   9
   6   0 -15 0.52053 1.12460  17
   6   0 -15 0.55497 1.35697  10
   5   0 -15 14.1939 1.78953   9
   5   0 -15 12.5759 1.64365  17
   5   0 -15 15.1320 1.95208  10
   4   0 -15 -0.2122 1.56164  10
   4   0 -15 -1.9597 1.64451  17
   4   0 -15 -0.0733 1.72607   9
   4   0 -15 -0.2983 0.77635   8
   3   0 -15 46.1674 5.05144   9
   3   0 -15 48.0270 3.56864   8
   2   0 -15 41.2572 4.48896   9
   2   0 -15 44.6720 3.39509   8
   1   0 -15 1.37215 1.39237   8
   0   0 -15 0.45210 1.45608   8
   0   0  15 -0.1042 1.08888   8
   1   0  15 1.64967 0.97743   8
   1   0  15 2.08401 1.07346  12
   2   0  15 2.14137 0.63673   8
   2   0  15 3.52693 0.83776  12
   2   0  15 2.27621 0.92527   9
   3   0  15 4.37858 0.76858   9
   3   0  15 4.51133 0.77956  12
   7  -1 -15 0.46809 0.87542  10
   7  -1 -15 0.30149 0.98955  17
   6  -1 -15 4.35080 1.28794  10
   6  -1 -15 3.42523 1.15028  17
   5  -1 -15 0.15662 1.44153  10
   5  -1 -15 2.25144 1.15560  16
   5  -1 -15 2.10259 1.17653  17
   5  -1 -15 1.49569 1.39166   9
   4  -1 -15 17.5143 2.30892  10
   4  -1 -15 27.0983 2.68645  16
   4  -1 -15 26.2476 2.74473  17
   4  -1 -15 29.2635 3.06607   9
   3  -1 -15 4.36249 1.18845  16
   3  -1 -15 1.95305 1.85797   9
   3  -1 -15 4.24751 0.93018   8
   2  -1 -15 5.95783 1.52902   8
   2  -1 -15 4.03562 2.04692   9
   2  -1 -15 8.00227 1.65722  16
   1  -1 -15 2.57793 1.09340  16
   1  -1 -15 4.65913 1.39929   8
   0  -1 -15 2.71058 1.39433   8
   0   1  15 3.31341 1.17561   8
  -1  -1 -15 1.94879 0.95792   8
   1   1  15 0.66787 0.75897  12
   1   1  15 0.47797 0.93911   8
   2   1  15 68.9024 5.01544   8
   2   1  15 85.9744 5.61781   9
   3   1  15 32.4203 2.50212  12
   3   1  15 34.7268 2.66642   9
   7  -2 -15 5.31107 1.26942  16
   7  -2 -15 5.04313 0.96858  17
   7  -2 -15 6.91539 0.76056  10
   6  -2 -15 2.05928 1.44020  17
   6  -2 -15 1.84866 1.12996  10
   6  -2 -15 0.81276 1.48618  16
   5  -2 -15 99.4503 6.52305   9
   5  -2 -15 75.3492 5.98942  16
   5  -2 -15 103.214 5.96983  10
   5  -2 -15 84.5808 5.79842  17
   4  -2 -15 0.35156 1.16621  16
   4  -2 -15 2.44701 1.38637   9
   4  -2 -15 0.04505 1.49448  10
   4  -2 -15 -2.1914 1.45675  17
   3  -2 -15 85.7887 6.23775   8
   3  -2 -15 110.358 6.57200  16
   3  -2 -15 106.820 6.44987  10
   3  -2 -15 86.8608 7.28649   9
   2  -2 -15 34.9976 3.61613   9
   2  -2 -15 32.5119 2.88818  16
   2  -2 -15 25.6045 2.24307   8
   1  -2 -15 0.98443 1.13306   8
   1  -2 -15 2.20775 1.15965  16
   0  -2 -15 1.13557 1.24619   8
   0   2  15 1.61614 0.80970   8
  -1  -2 -15 5.29728 1.27096   8
   1   2  15 4.22958 0.75014   8
  -2  -2 -15 2.33178 1.03499   8
   2   2  15 0.39791 0.76133   9
   2   2  15 1.07452 0.67631  12
   2   2  15 0.95153 0.57019   8
   6  -3 -15 -0.5323 0.78505  17
   6  -3 -15 -0.3202 1.55916  16
   6  -3 -15 -1.3697 1.04274  10
   5  -3 -15 6.63555 1.81684  16
   5  -3 -15 2.53519 1.27129  17
   5  -3 -15 7.51426 1.41209  10
   4  -3 -15 1.25769 1.48761  10
   4  -3 -15 1.05746 1.73998  16
   4  -3 -15 -1.3728 1.16174  17
   4  -3 -15 -0.4982 1.29481   9
   3  -3 -15 0.29993 1.45349   9
   3  -3 -15 0.30084 1.67830  16
   3  -3 -15 0.20945 1.49181  10
   2  -3 -15 40.0256 3.54048   9
   2  -3 -15 29.8896 2.31778   8
   2  -3 -15 30.6091 2.61275  16
   1  -3 -15 -0.2649 1.12381  16
   1  -3 -15 -1.2293 1.67574   9
   1  -3 -15 -0.3988 0.85860   8
   0  -3 -15 42.3967 3.12619   8
   0   3  15 43.0168 3.13115   8
  -1  -3 -15 -0.6398 0.94944   8
   1   3  15 0.00511 0.52252   8
   6  -4 -15 17.0093 1.84475  16
   6  -4 -15 25.5600 1.67168  10
   5  -4 -15 3.06652 1.66402  16
   5  -4 -15 2.85004 1.12808  10
   4  -4 -15 15.4983 1.65718   9
   4  -4 -15 20.4653 2.11148  10
   4  -4 -15 13.8341 1.71989  16
   3  -4 -15 19.8660 2.10883  16
   3  -4 -15 23.3298 2.46073  10
   3  -4 -15 24.3107 2.49462   9
   2  -4 -15 5.72975 1.23150  16
   2  -4 -15 2.49594 1.12841   9
   1  -4 -15 17.1716 2.10175   9
   1  -4 -15 16.3597 1.76650  16
   1  -4 -15 16.1897 1.33475   8
   0  -4 -15 4.53234 1.46924  16
   0  -4 -15 2.12738 0.85570   8
   0  -4 -15 3.15307 1.07887   9
   0   4  15 2.34605 0.67241   8
  -1  -4 -15 43.9909 2.72509   8
  -1  -4 -15 36.5474 2.73926  16
   1   4  15 38.1937 2.67746   8
   5  -5 -15 20.3919 1.76497  10
   5  -5 -15 19.5126 2.14650  16
   4  -5 -15 15.0653 1.51826  10
   4  -5 -15 12.5755 1.52477  16
   3  -5 -15 34.4141 2.74140   9
   3  -5 -15 30.6313 2.72569  10
   3  -5 -15 31.9943 2.83062  16
   2  -5 -15 19.4043 2.14041   9
   2  -5 -15 18.5127 2.14268  16
   1  -5 -15 8.12114 1.43105  16
   1  -5 -15 6.63116 1.33711   9
   0  -5 -15 14.0999 1.35754  16
   4  -6 -15 8.57579 1.15114  10
   4  -6 -15 8.09954 1.10649  16
   3  -6 -15 1.26137 0.82483  16
   2  -6 -15 3.19085 0.86398  16
  -1 -11  16 47.6122 3.61012   9
   0 -11  16 72.8353 5.14343   9
   3  10 -16 12.2477 1.43429   8
  -3 -10  16 13.6308 1.21069   8
  -2 -10  16 4.88679 1.14440  14
  -2 -10  16 4.65297 0.66617   8
  -2 -10  16 6.95611 1.40990   9
  -1 -10  16 6.23450 1.31813   9
  -1 -10  16 5.39152 1.06041  14
   0 -10  16 16.3025 1.91255   9
   0 -10  16 17.0528 1.89715  10
   0 -10  16 19.0874 1.85103  13
   1 -10  16 2.12687 0.77890  13
   1 -10  16 4.71856 1.09772  10
   1 -10  16 3.36478 0.58005   9
   2 -10  16 9.14003 1.15870  13
   2 -10  16 10.7434 1.09476  10
   4   9 -16 4.81449 0.93648   8
  -4  -9  16 5.02648 0.75172   8
   3   9 -16 2.36538 0.87102   8
  -3  -9  16 5.59976 0.76624   8
  -2  -9  16 10.8570 1.64586   9
  -2  -9  16 8.93043 1.09333   8
  -1  -9  16 55.0348 3.75108   8
  -1  -9  16 52.8049 3.91625  13
  -1  -9  16 60.2222 4.37480   9
  -1  -9  16 58.9992 4.43515  14
   0  -9  16 6.34126 1.09995   9
   0  -9  16 8.42518 1.11394  13
   1  -9  16 1.27354 1.18570  10
   1  -9  16 3.14929 0.94259  13
   1  -9  16 5.03754 1.05673   9
   2  -9  16 3.31850 0.80584  13
   2  -9  16 3.53612 0.73895  10
   5   8 -16 0.18488 1.34447   9
   5   8 -16 1.93738 0.48022   8
   5   8 -16 2.84078 1.09492  18
  -5  -8  16 1.91048 0.93805   8
   4   8 -16 6.68261 0.92488   8
  -4  -8  16 4.82411 1.12922   8
   3   8 -16 5.59919 1.36443   8
  -3  -8  16 5.51452 1.13068   8
  -2  -8  16 52.2569 3.68159   8
  -1  -8  16 23.6981 2.34363  13
  -1  -8  16 23.5232 2.42252   9
  -1  -8  16 22.0244 1.87482   8
   0  -8  16 23.7713 1.72715   8
   0  -8  16 32.6492 2.82446   9
   0  -8  16 25.3087 2.23085  13
   1  -8  16 2.58565 1.11726   9
   1  -8  16 4.41924 0.99322  13
   1  -8  16 4.08873 1.28657  10
   2  -8  16 115.784 7.19110  10
   2  -8  16 124.289 8.08108   9
   2  -8  16 107.194 7.67369  13
   3  -8  16 7.96456 0.89055  10
   3  -8  16 8.32602 0.96816  13
   6   7 -16 73.8999 5.19016  18
   5   7 -16 20.8812 1.55175   8
   5   7 -16 20.4206 2.26688   9
   4   7 -16 103.832 6.89998   8
   3   7 -16 5.67415 1.46907   8
  -3  -7  16 8.22674 1.31010   8
   2   7 -16 81.2218 5.63361   8
  -2  -7  16 79.9092 5.50253  13
  -2  -7  16 77.3279 5.41046   8
  -1  -7  16 8.29517 1.45815  13
  -1  -7  16 8.18324 1.73663   9
  -1  -7  16 11.6385 1.36021   8
   0  -7  16 21.9710 2.52158   9
   0  -7  16 18.2079 1.84720  13
   0  -7  16 15.1578 1.33715   8
   1  -7  16 0.28836 1.13078   9
   1  -7  16 0.12956 0.90296  10
   1  -7  16 -0.0376 0.91445  13
   2  -7  16 4.17716 1.02773   9
   2  -7  16 1.25857 1.26362  13
   2  -7  16 4.68248 0.92044  10
   3  -7  16 12.5129 1.19171  10
   3  -7  16 10.1507 1.27995  13
   6   6 -16 0.45566 1.21385   9
   6   6 -16 1.06366 0.90377  18
   5   6 -16 14.6693 2.06681   9
   5   6 -16 12.7507 1.25635   8
   4   6 -16 3.33228 1.91689   9
   4   6 -16 4.87776 1.20663   8
   3   6 -16 24.9170 2.32374   8
  -3  -6  16 20.3712 2.11994   8
   2   6 -16 5.68365 1.59034   8
  -2  -6  16 6.88381 1.30061   8
  -1  -6  16 27.5138 2.24816   8
   0  -6  16 15.3666 1.90977   9
   0  -6  16 12.4510 1.42408   8
   1  -6  16 31.4424 2.86519  13
   1  -6  16 29.7008 2.92297   9
   2  -6  16 -1.4425 1.19594  13
   2  -6  16 -0.8136 0.90362   9
   2  -6  16 -0.7545 1.15665  10
   3  -6  16 7.47384 1.07839  10
   3  -6  16 8.57075 1.19095  13
   6   5 -16 12.3667 1.71045  10
   6   5 -16 16.4268 2.03795   9
   6   5 -16 10.8104 1.57136  18
   5   5 -16 1.20447 0.60250   8
   5   5 -16 -0.2497 1.27847  18
   5   5 -16 1.41364 1.71646   9
   5   5 -16 2.17551 1.35133  17
   4   5 -16 7.27303 1.89821   9
   4   5 -16 4.65051 1.56958  17
   4   5 -16 3.46815 1.17993   8
   3   5 -16 13.0790 1.77560   8
   2   5 -16 42.1329 3.45979   8
  -2  -5  16 43.3726 3.28821   8
  -1  -5  16 24.7365 2.15726   8
   0  -5  16 84.9913 6.44996   8
   0  -5  16 114.746 7.36294   9
   1  -5  16 0.61082 0.56359   8
   1  -5  16 -0.2415 1.31355   9
   2  -5  16 88.3643 5.96649   9
   2  -5  16 72.0015 5.51763  13
   2  -5  16 85.0229 5.29854  10
   3  -5  16 33.1362 2.52354  10
   3  -5  16 40.2928 2.73770   9
   3  -5  16 38.9654 2.84485  13
   7   4 -16 35.4310 2.61286  10
   6   4 -16 30.9613 2.68423  10
   6   4 -16 40.4531 3.21134   9
   6   4 -16 38.5022 2.89425  17
   5   4 -16 71.7076 4.26485  17
   5   4 -16 51.5548 3.78062   8
   4   4 -16 15.1981 1.73340   8
   4   4 -16 19.9917 2.38949   9
   4   4 -16 15.2564 1.74562  17
   3   4 -16 13.3236 1.77600   8
   2   4 -16 73.6122 5.27626   8
  -2  -4  16 72.2833 5.14350   8
  -1  -4  16 26.0651 2.30590   8
   0  -4  16 56.9177 4.49808   9
   0  -4  16 50.0849 3.80838   8
   1  -4  16 0.10919 0.75136   8
   1  -4  16 -1.2504 1.30506   9
   2  -4  16 34.0727 3.05187   9
   2  -4  16 37.3920 2.94926  13
   3  -4  16 23.3002 2.04510  10
   3  -4  16 26.7534 2.13305   9
   7   3 -16 -0.6168 0.73617  10
   7   3 -16 1.20770 1.01686  17
   6   3 -16 0.85007 1.33562   9
   6   3 -16 2.20636 1.41440  10
   6   3 -16 1.33288 1.04285  17
   5   3 -16 13.0327 1.88308  17
   5   3 -16 14.0539 1.96494   9
   5   3 -16 8.19818 1.82832  10
   4   3 -16 4.84490 1.70514  17
   4   3 -16 3.11541 1.90825   9
   4   3 -16 4.95578 1.07751   8
   3   3 -16 35.5132 2.92645   8
   2   3 -16 -1.5263 1.38172   8
   1   3 -16 18.2692 2.24991   8
  -1  -3  16 20.1004 1.98505   8
   0  -3  16 3.14818 1.05441   8
   1  -3  16 4.25098 0.80572   8
   1  -3  16 4.91458 1.40372   9
   2  -3  16 0.08473 0.73468  13
   2  -3  16 -1.0823 1.13733   9
   3  -3  16 6.50868 0.82025  12
   3  -3  16 8.05902 1.00534   9
   3  -3  16 5.94445 1.13645  10
   7   2 -16 1.86403 0.89981  17
   7   2 -16 3.00751 1.01987  10
   6   2 -16 10.8454 1.44250   9
   6   2 -16 8.20298 1.36408  17
   6   2 -16 10.5533 1.34772  10
   5   2 -16 24.9786 2.91095   9
   5   2 -16 24.5685 2.24307  17
   5   2 -16 20.3037 2.18461  10
   4   2 -16 11.3774 2.12344   9
   4   2 -16 11.1429 1.52232  17
   4   2 -16 10.1026 1.19673   8
   3   2 -16 1.98144 1.95449   9
   3   2 -16 2.59648 1.24812   8
   2   2 -16 44.3954 3.47257   8
   1   2 -16 3.82187 1.48768   8
  -1  -2  16 2.05031 1.16930   8
   0  -2  16 5.93511 1.17068   8
   1  -2  16 3.07292 1.32317   9
   1  -2  16 2.32730 0.79698   8
   2  -2  16 90.7361 6.41568  13
   2  -2  16 105.659 7.00501   9
   2  -2  16 93.4545 6.39114  12
   3  -2  16 -1.7544 0.71767  12
   3  -2  16 0.15349 0.80649   9
   7   1 -16 19.9380 1.77601  10
   7   1 -16 20.0906 1.77541  17
   6   1 -16 11.4518 1.27346   9
   6   1 -16 15.8890 1.66405  10
   6   1 -16 9.32745 1.44190  17
   5   1 -16 1.89908 1.39991   9
   5   1 -16 2.53587 1.18400  17
   5   1 -16 -0.1951 1.61035  10
   4   1 -16 342.883 19.1719  17
   4   1 -16 340.371 22.1060   9
   4   1 -16 268.421 20.1839   8
   3   1 -16 124.338 8.98547   9
   3   1 -16 113.254 7.82871   8
   2   1 -16 35.7672 2.93845   8
   1   1 -16 -1.3644 1.34018   8
  -1  -1  16 1.86471 1.15007   8
   0   1 -16 1.08458 1.41996   8
   0  -1  16 0.72113 1.04652   8
   1  -1  16 0.93272 1.29216   9
   1  -1  16 0.46813 0.76488   8
   2  -1  16 9.90245 1.16420   9
   2  -1  16 9.04305 1.16385  12
   3  -1  16 5.84327 0.79751   9
   7   0 -16 9.55990 1.15044  10
   7   0 -16 6.04646 1.09229  17
   6   0 -16 2.83803 1.08456  17
   6   0 -16 4.34521 1.33422  10
   5   0 -16 6.79634 1.28157  10
   5   0 -16 8.86425 1.38962   9
   5   0 -16 5.07082 1.27564  17
   4   0 -16 13.6350 1.99036   9
   4   0 -16 9.07352 1.87029  17
   4   0 -16 10.4213 1.90085  10
   3   0 -16 12.9594 2.18165   9
   3   0 -16 10.7776 1.33963   8
   2   0 -16 31.1561 2.58723   8
   2   0 -16 32.4063 3.28596   9
   1   0 -16 16.5287 1.89462   8
  -1   0  16 17.0608 1.89122   8
   0   0 -16 0.02918 1.28129   8
   0   0  16 -0.6933 0.71213   8
  -1   0 -16 1.26805 0.89848   8
   1   0  16 0.55904 0.88118  12
   1   0  16 0.17648 0.74620   8
   2   0  16 1.62757 0.75617   9
   2   0  16 1.36059 0.84602  12
   7  -1 -16 -0.3383 0.80806  17
   7  -1 -16 0.70739 0.73948  10
   6  -1 -16 5.56374 1.14955  17
   6  -1 -16 7.77277 1.28630  10
   5  -1 -16 -2.2609 1.10201   9
   5  -1 -16 -2.4321 1.42800  10
   5  -1 -16 0.90046 1.11253  17
   4  -1 -16 28.2070 2.95097   9
   4  -1 -16 25.4550 2.26915  17
   4  -1 -16 26.5621 2.80294  10
   3  -1 -16 4.41058 0.91384   8
   3  -1 -16 3.92877 1.79764   9
   2  -1 -16 18.5205 2.44456   9
   2  -1 -16 17.7259 1.70193   8
   1  -1 -16 2.44756 1.14429   8
   0  -1 -16 2.21592 0.91593   8
   0   1  16 4.98981 1.08881   8
  -1  -1 -16 0.40636 0.78769   8
   1   1  16 0.80717 0.83182  12
   1   1  16 0.88783 0.72765   8
   2   1  16 23.6977 1.90376  12
   2   1  16 29.9488 2.33324   9
   6  -2 -16 17.3364 1.56561  10
   6  -2 -16 12.7048 1.40131  17
   5  -2 -16 183.465 11.6075  16
   5  -2 -16 194.855 11.2280  10
   5  -2 -16 153.917 11.1006  17
   5  -2 -16 198.675 12.6520   9
   4  -2 -16 -0.6818 1.15609   9
   4  -2 -16 -0.1414 1.41713  10
   4  -2 -16 -1.1856 0.96832  16
   4  -2 -16 -0.9901 0.93263  17
   3  -2 -16 51.5952 4.18682   9
   3  -2 -16 46.6777 3.65516  16
   3  -2 -16 45.6753 3.41334  17
   2  -2 -16 44.1174 3.36402  16
   2  -2 -16 43.6744 3.89638   9
   2  -2 -16 52.4224 3.30205   8
   1  -2 -16 0.60799 0.97740  16
   1  -2 -16 0.51855 0.90940   8
   1  -2 -16 0.18577 1.24613   9
   0  -2 -16 0.25584 0.90934  16
   0  -2 -16 0.86916 1.04450   8
   0   2  16 0.72485 0.65989   8
  -1  -2 -16 -0.9991 0.76001  16
  -1  -2 -16 0.19583 0.61963   8
   1   2  16 -0.0910 0.69503  12
   1   2  16 0.03689 0.58316   8
   6  -3 -16 3.17668 0.89344  10
   6  -3 -16 2.02489 1.20002  16
   5  -3 -16 0.51800 1.04790  17
   5  -3 -16 1.88713 1.40885  16
   5  -3 -16 2.95675 1.20117  10
   4  -3 -16 7.76377 1.20672   9
   4  -3 -16 8.31625 1.19120  10
   4  -3 -16 9.50941 1.64457  16
   3  -3 -16 3.06724 1.10355  10
   3  -3 -16 3.14913 1.54917  16
   3  -3 -16 3.75586 1.33687   9
   2  -3 -16 1.62644 1.10091   9
   2  -3 -16 2.06530 1.46771  16
   1  -3 -16 9.05455 1.39107   9
   1  -3 -16 8.73318 0.92447   8
   1  -3 -16 8.99370 1.20318  16
   0  -3 -16 3.35304 0.96250  16
   0  -3 -16 4.56931 0.80692   8
   0   3  16 4.08319 0.69650   8
   5  -4 -16 0.57503 0.85022  16
   5  -4 -16 3.35497 0.87734  10
   4  -4 -16 0.54809 0.97723  16
   4  -4 -16 -0.3793 1.10385  10
   3  -4 -16 -0.8443 0.82498   9
   3  -4 -16 -0.6466 0.92761  10
   3  -4 -16 -0.8704 1.35627  16
   2  -4 -16 26.2433 2.64739   9
   2  -4 -16 31.5701 2.48151  16
   1  -4 -16 0.10129 0.85540   9
   1  -4 -16 -0.2385 1.16102  16
   4  -5 -16 0.69433 0.85888  10
   3  -5 -16 23.8730 1.98143  16
  -2 -10  17 2.22001 1.14678   9
  -1 -10  17 11.2417 1.38420   9
   0 -10  17 -0.6094 0.83950   9
   4   9 -17 8.84390 0.97949   8
  -4  -9  17 6.81866 0.77491   8
   3   9 -17 -0.4146 0.95210   8
  -3  -9  17 -0.1480 0.62197   8
   2   9 -17 2.97427 1.17416   8
  -2  -9  17 2.78874 0.58290   8
  -2  -9  17 5.20147 1.03154   9
  -1  -9  17 1.14276 0.69787  13
  -1  -9  17 3.09332 0.91523   9
   0  -9  17 8.47441 1.26329   9
   0  -9  17 9.86673 1.09626  13
   1  -9  17 12.4139 1.31265  10
   1  -9  17 16.4809 1.36920   9
   1  -9  17 17.1152 1.73785  13
   4   8 -17 2.51462 0.81039   8
  -4  -8  17 3.15298 0.69804   8
   3   8 -17 18.6974 1.83911   8
  -3  -8  17 18.7571 1.65569   8
   2   8 -17 4.89664 1.03636   8
  -2  -8  17 4.04848 0.84228   8
  -1  -8  17 9.50982 1.25897   9
  -1  -8  17 6.96863 0.85077   8
  -1  -8  17 6.54619 1.20586  13
   0  -8  17 0.01387 1.06849  13
   0  -8  17 1.03330 1.24189   9
   1  -8  17 3.37917 1.12145  13
   1  -8  17 5.19384 0.94206   9
   1  -8  17 5.67700 0.90593  10
   2  -8  17 17.2128 1.54295  10
   5   7 -17 22.7911 1.93095  18
   4   7 -17 4.73927 0.97808   8
  -4  -7  17 3.81823 0.83842   8
   3   7 -17 11.8530 1.55551   8
  -3  -7  17 11.9707 1.22254   8
   2   7 -17 -0.8844 0.90672   8
  -2  -7  17 0.83365 0.66479   8
  -2  -7  17 0.79788 1.00705  13
  -1  -7  17 11.2709 1.71512   9
  -1  -7  17 9.71120 1.19943  13
  -1  -7  17 10.4029 1.10404   8
   0  -7  17 18.1573 1.81246   9
   0  -7  17 14.7581 1.13693   8
   0  -7  17 14.1058 1.67511  13
   1  -7  17 -0.5935 0.71266   9
   1  -7  17 -0.1441 1.13881  13
   1  -7  17 -1.4328 1.15655  10
   2  -7  17 0.24309 0.73753  13
   2  -7  17 -1.7298 0.57388   9
   2  -7  17 -0.5865 0.67445  10
   6   6 -17 1.82053 1.09036   9
   5   6 -17 -0.1297 0.75552  18
   5   6 -17 -1.3957 0.99710   9
   4   6 -17 7.82165 1.14844   8
   4   6 -17 7.33859 1.07832  17
   4   6 -17 7.28592 1.45191   9
   3   6 -17 18.0901 1.98601  17
   3   6 -17 16.4701 1.85391   8
  -3  -6  17 13.8774 1.69327   8
   2   6 -17 1.05706 1.36189   8
  -2  -6  17 2.74640 0.78866   8
  -1  -6  17 31.0138 2.36392   8
   0  -6  17 2.50409 0.60269   8
   0  -6  17 2.40012 1.36821   9
   0  -6  17 2.41704 1.23665  13
   1  -6  17 24.8891 2.20282  13
   1  -6  17 26.3921 2.28174   9
   2  -6  17 4.75058 0.89750  13
   2  -6  17 4.39174 0.81815  10
   2  -6  17 3.01644 0.84613   9
   6   5 -17 19.3339 1.98573   9
   5   5 -17 4.90130 0.98748  17
   5   5 -17 2.39276 1.59135   9
   4   5 -17 3.22071 1.75177   9
   4   5 -17 1.54401 1.40986  17
   4   5 -17 1.21696 0.92523   8
   3   5 -17 17.4436 1.84913   8
  -3  -5  17 13.5489 1.71509   8
   2   5 -17 7.96419 1.18891   8
  -2  -5  17 2.97286 1.14553   8
  -1  -5  17 1.10638 0.93435   8
   0  -5  17 0.45637 0.83186   8
   0  -5  17 0.26316 1.34282   9
   1  -5  17 22.2868 2.48087   9
   1  -5  17 25.9360 2.41479  13
   2  -5  17 2.66039 0.78836  13
   2  -5  17 2.90642 0.88407   9
   2  -5  17 3.63795 0.84365  10
   6   4 -17 3.00850 1.09562  17
   6   4 -17 1.91312 1.32135  10
   6   4 -17 2.56599 1.12338   9
   5   4 -17 29.8403 2.57370  17
   5   4 -17 23.2434 2.97512   9
   4   4 -17 7.46820 1.20318   8
   4   4 -17 6.68766 1.29050  17
   4   4 -17 5.63993 1.42439   9
   3   4 -17 1.54347 1.20160   8
   2   4 -17 0.35205 1.34381   8
  -2  -4  17 -0.8943 1.11662   8
   1   4 -17 19.8143 2.18838   8
  -1  -4  17 19.6817 1.87331   8
   0  -4  17 9.51614 1.14381   8
   0  -4  17 8.14891 1.60672   9
   1  -4  17 26.5386 2.08070   8
   1  -4  17 35.9531 2.64718   9
   1  -4  17 34.6932 2.47963  13
   2  -4  17 12.0954 1.34419  13
   2  -4  17 15.6138 1.64479   9
   6   3 -17 0.70097 0.94186  10
   6   3 -17 0.84081 0.92228   9
   6   3 -17 -0.1593 0.88514  17
   5   3 -17 0.75756 1.08576  17
   5   3 -17 1.15172 1.46096   9
   4   3 -17 7.25548 1.66492  17
   4   3 -17 7.81754 1.86126   9
   4   3 -17 5.91852 1.05212   8
   3   3 -17 -2.7865 1.80480   9
   3   3 -17 1.32496 1.39658   8
   2   3 -17 1.50435 1.27671   8
  -2  -3  17 -1.1573 1.09115   8
   1   3 -17 18.5386 2.10462   8
  -1  -3  17 17.5861 1.60501   8
   0  -3  17 0.92974 0.85150   8
   1  -3  17 24.6837 2.32251   9
   1  -3  17 17.7796 1.46092   8
   2  -3  17 8.05815 1.09083  13
   2  -3  17 10.5169 1.23282   9
   7   2 -17 0.33770 0.78414  10
   6   2 -17 4.38701 1.11373  17
   6   2 -17 5.26668 1.04343  10
   6   2 -17 5.74269 0.90409   9
   5   2 -17 0.69101 1.05619  10
   5   2 -17 0.69007 1.06563  17
   5   2 -17 -2.5958 1.33270   9
   4   2 -17 -1.1909 1.07129  17
   4   2 -17 -1.1303 0.70545   8
   4   2 -17 -3.1794 1.61931   9
   3   2 -17 80.1701 5.06309   8
   3   2 -17 64.0575 5.62755   9
   2   2 -17 -1.0535 1.23729   8
   1   2 -17 88.6172 6.17257   8
  -1  -2  17 90.8031 6.09630   8
   0   2 -17 35.3969 2.95867   8
   0  -2  17 36.1601 2.66725   8
   1  -2  17 1.61278 0.68850   8
   1  -2  17 2.84122 1.25796   9
   2  -2  17 0.84416 0.65316   9
   7   1 -17 6.35759 0.80087  10
   7   1 -17 3.55879 0.81675  17
   6   1 -17 3.88800 1.06965  17
   6   1 -17 3.90181 1.25148  10
   5   1 -17 7.57322 1.25295  10
   5   1 -17 4.90398 1.20873  17
   5   1 -17 4.89486 1.57840   9
   4   1 -17 85.4559 6.13920  17
   4   1 -17 109.350 7.32104   9
   3   1 -17 2.81232 1.84846   9
   3   1 -17 1.79548 0.91994   8
   2   1 -17 24.0153 2.11974   8
   1   1 -17 1.82622 1.25407   8
  -1  -1  17 1.48484 1.07261   8
   0   1 -17 0.41896 1.18864   8
   0  -1  17 0.20740 0.87793   8
   1  -1  17 1.35780 0.68218   8
   1  -1  17 1.56617 1.14494   9
   2  -1  17 6.70029 1.03513   9
   6   0 -17 2.81573 1.10855  10
   6   0 -17 3.15533 0.97337  17
   5   0 -17 13.2696 1.55882   9
   5   0 -17 12.2857 1.45821  17
   5   0 -17 13.7542 1.75813  10
   4   0 -17 1.03826 1.60229  10
   4   0 -17 0.21740 1.02324   9
   4   0 -17 0.31064 1.03803  17
   3   0 -17 -0.0527 0.77319   8
   3   0 -17 -1.1446 1.63383   9
   2   0 -17 2.30068 0.94357   8
   2   0 -17 -0.5304 1.76638   9
   1   0 -17 0.49899 1.03771   8
  -1   0  17 0.25662 0.71750   8
   0   0 -17 1.04506 0.78403   8
   0   0  17 0.55692 0.62154   8
  -1   0 -17 6.83252 1.16514   8
   1   0  17 8.69864 0.88356   8
   1   0  17 6.01847 1.31386   9
   6  -1 -17 1.38162 1.11512  17
   6  -1 -17 2.38549 0.97428  10
   5  -1 -17 10.8775 1.51920  10
   5  -1 -17 10.4401 1.28911   9
   5  -1 -17 6.94235 1.13742  17
   4  -1 -17 39.9208 3.37671   9
   4  -1 -17 38.3011 3.03252  17
   4  -1 -17 39.7976 3.22371  10
   3  -1 -17 5.41931 1.66437   9
   3  -1 -17 5.83547 1.09587  17
   2  -1 -17 9.92926 1.83562   9
   2  -1 -17 5.93226 0.99947   8
   1  -1 -17 2.72634 0.94105   8
  -1   1  17 3.67569 0.78986   8
   0  -1 -17 0.29690 0.89046   8
   0   1  17 -0.1320 0.55799   8
  -1  -1 -17 14.8179 1.27592   8
   1   1  17 16.2653 1.16065   8
   6  -2 -17 -0.2688 0.82533  10
   5  -2 -17 75.9971 5.22528  17
   5  -2 -17 91.0106 5.30438  10
   4  -2 -17 12.1719 1.61145  10
   4  -2 -17 10.4506 1.23437   9
   4  -2 -17 9.24801 1.28793  17
   3  -2 -17 0.20099 0.89549   9
   3  -2 -17 1.45968 0.95810  17
   2  -2 -17 1.89451 0.44112   8
   2  -2 -17 3.63925 1.50334   9
   1  -2 -17 4.95685 0.71229   8
   1  -2 -17 4.08481 1.08718   9
  -1   2  17 4.74140 0.96430   8
   0  -2 -17 3.16221 0.67607   8
   0   2  17 2.42450 0.55420   8
   5  -3 -17 44.4783 2.96032  10
   4  -3 -17 0.52267 1.15054  10
   4  -3 -17 2.06057 1.12200  16
   3  -3 -17 38.6562 2.97303  16
   3  -3 -17 43.1941 3.34316   9
   2  -3 -17 2.82584 1.11518  16
   2  -3 -17 1.93657 1.15551   9
  -1  -9  18 53.8159 4.06488   9
   0  -9  18 1.66426 0.81755   9
   4   8 -18 2.67036 0.57152   8
  -4  -8  18 1.10262 0.68889   8
   3   8 -18 35.1405 2.67807   8
  -3  -8  18 37.7565 2.57208   8
   2   8 -18 10.0457 1.40415   8
  -2  -8  18 12.8016 1.10785   8
  -1  -8  18 97.2676 6.18528   9
  -1  -8  18 72.4896 5.54717  13
   0  -8  18 0.74064 0.97098   9
   0  -8  18 0.82511 0.64470  13
   1  -8  18 32.6352 2.39649  13
   4   7 -18 1.54067 1.04388   9
   4   7 -18 0.89020 0.57611   8
  -4  -7  18 -0.8555 0.77641   8
   3   7 -18 2.99480 1.03823   8
  -3  -7  18 1.96815 0.85934   8
   2   7 -18 23.5047 2.14142   8
  -2  -7  18 22.1968 1.87909  13
  -2  -7  18 24.6303 1.83256   8
  -1  -7  18 -0.4660 1.29163   9
  -1  -7  18 -0.4636 0.96710  13
  -1  -7  18 -0.1384 0.46572   8
   0  -7  18 24.5222 2.06079  13
   0  -7  18 27.6003 2.48892   9
   1  -7  18 1.80695 0.97306  13
   1  -7  18 3.12235 0.81393   9
   5   6 -18 -0.0861 0.84328   9
   4   6 -18 7.82241 0.89599   8
   4   6 -18 4.80113 1.24720   9
  -4  -6  18 7.16862 1.09818   8
   3   6 -18 -0.6446 0.72601   8
   3   6 -18 0.14064 0.81236  17
  -3  -6  18 0.44747 0.91730   8
   2   6 -18 7.23274 1.08437   8
  -2  -6  18 7.25524 1.06327   8
  -1  -6  18 0.09697 0.65634   8
  -1  -6  18 2.39498 1.34443   9
  -1  -6  18 1.24270 0.81588  13
   0  -6  18 3.16895 0.93370   9
   0  -6  18 2.52024 0.84949  13
   1  -6  18 35.2897 3.03816  13
   1  -6  18 50.2563 3.31620   9
   5   5 -18 73.5571 5.23468   9
   5   5 -18 64.5075 4.40826  17
   4   5 -18 -0.3719 1.54568   9
   4   5 -18 1.09467 0.86805  17
   4   5 -18 1.10842 0.76477   8
   3   5 -18 62.3123 4.41677   8
   3   5 -18 66.8105 4.25526  17
  -3  -5  18 66.3595 4.51278   8
   2   5 -18 8.04671 1.36639   8
  -2  -5  18 5.51181 0.86014   8
   1   5 -18 31.8114 2.70482   8
  -1  -5  18 33.1149 2.39076   8
   0  -5  18 0.58655 0.82366  13
   0  -5  18 1.18331 0.51056   8
   0  -5  18 0.62299 0.89233   9
   1  -5  18 61.0207 4.54796   9
   5   4 -18 25.9638 2.29717  17
   5   4 -18 25.7160 2.65219   9
   4   4 -18 -0.1396 1.36723  17
   4   4 -18 0.49331 1.11211   9
   4   4 -18 0.59040 0.64851   8
   3   4 -18 3.81553 1.01460   8
  -3  -4  18 3.24973 1.06844   8
   2   4 -18 6.34738 1.27979   8
  -2  -4  18 3.92398 0.83008   8
   1   4 -18 1.53484 1.22557   8
  -1  -4  18 1.29736 0.84767   8
   0  -4  18 13.9728 1.23258   8
   0  -4  18 19.8590 2.19523   9
   1  -4  18 -1.3013 0.96792  13
   1  -4  18 -1.7101 1.02920   9
   6   3 -18 4.58392 0.85160  17
   5   3 -18 1.64861 1.26694   9
   5   3 -18 1.51852 1.33283  17
   4   3 -18 1.20191 0.56502   8
   4   3 -18 1.62153 1.51072   9
   4   3 -18 -1.3004 0.94320  17
   3   3 -18 -1.4193 1.58882   9
   3   3 -18 -1.2311 0.82191   8
   2   3 -18 19.8269 1.83497   8
  -2  -3  18 17.7944 1.77888   8
   1   3 -18 4.89461 0.96956   8
  -1  -3  18 3.25365 0.97557   8
   0   3 -18 0.62998 0.81703   8
   0  -3  18 -0.2748 0.63625   8
   1  -3  18 27.1173 2.40964   9
   1  -3  18 24.7524 2.15945  13
   6   2 -18 27.3014 2.17728  17
   6   2 -18 24.1801 2.11198  10
   5   2 -18 4.02577 1.04941  17
   5   2 -18 2.17383 1.34574  10
   5   2 -18 3.10289 1.14677   9
   4   2 -18 -0.4706 0.95382  17
   4   2 -18 -0.9357 1.48831   9
   3   2 -18 78.9895 5.84143   8
   3   2 -18 104.082 6.85181   9
   2   2 -18 9.19266 1.21815   8
  -2  -2  18 7.23306 1.00949   8
   1   2 -18 47.6502 3.36109   8
   0   2 -18 0.34227 0.76011   8
   0  -2  18 -0.4851 0.68716   8
   1  -2  18 25.3126 2.00227  13
   1  -2  18 24.1042 2.07266   9
   6   1 -18 27.9353 2.29678  17
   6   1 -18 39.9244 2.43071  10
   5   1 -18 1.88005 0.87033   9
   5   1 -18 2.13812 0.89967  10
   5   1 -18 2.07834 0.93605  17
   4   1 -18 3.24097 1.40872  17
   4   1 -18 3.95835 1.42840   9
   3   1 -18 -1.1938 0.66076   8
   3   1 -18 -1.9777 1.52215   9
   2   1 -18 3.87685 0.89512   8
  -2  -1  18 3.22690 1.05957   8
   1   1 -18 0.30605 0.96547   8
  -1  -1  18 -0.4886 0.86754   8
   0   1 -18 4.76102 1.06302   8
   0  -1  18 5.43628 0.77957   8
   6   0 -18 5.51704 0.86798  17
   6   0 -18 8.48720 1.05805  10
   5   0 -18 27.7202 2.21950  10
   5   0 -18 26.2787 2.05523   9
   5   0 -18 21.5050 1.91691  17
   4   0 -18 16.1720 1.96171   9
   4   0 -18 12.7626 1.44234  17
   3   0 -18 21.3339 2.47761   9
   3   0 -18 16.0676 1.64432  17
   2   0 -18 -0.7130 0.99750   9
   2   0 -18 0.41898 0.73592   8
   1   0 -18 3.07987 0.84881   8
  -1   0  18 1.83105 0.62933   8
   0   0 -18 -0.4661 0.77052   8
   0   0  18 0.87483 0.43514   8
   5  -1 -18 44.3831 2.87157  10
   5  -1 -18 42.5007 2.84226  17
   4  -1 -18 69.3141 4.27092  17
   4  -1 -18 65.7484 4.34492  10
   3  -1 -18 25.8954 2.24975  17
   3  -1 -18 34.3678 2.77160   9
   2  -1 -18 19.3084 1.76517  17
   2  -1 -18 26.6340 2.50529   9
   1  -1 -18 2.08871 0.53132   8
  -1   1  18 1.21574 0.73933   8
   3  -2 -18 1.35356 0.86933   9
   2  -2 -18 3.21637 0.78927   9
   3   7 -19 -0.2225 0.74066   8
  -3  -7  19 -0.2642 0.60039   8
   2   7 -19 0.34553 0.88793   8
  -2  -7  19 0.61964 0.48749   8
  -1  -7  19 -1.4068 1.07533   9
  -1  -7  19 0.60562 0.77334  13
   0  -7  19 2.52019 0.64232  13
   0  -7  19 3.45994 0.93863   9
   3   6 -19 -0.5788 0.62916  17
   3   6 -19 0.46451 0.73048   8
  -3  -6  19 -0.1348 0.71519   8
   2   6 -19 3.05824 0.75210   8
  -2  -6  19 2.39488 0.67689   8
  -2  -6  19 3.50996 0.88270  13
   1   6 -19 5.32449 0.86224   8
  -1  -6  19 3.97945 0.59687   8
  -1  -6  19 4.14952 1.19082   9
  -1  -6  19 4.20862 0.98603  13
   0  -6  19 32.9860 2.72336   9
   4   5 -19 -0.9227 0.87803   9
   4   5 -19 -1.4494 0.96021  17
  -4  -5  19 0.27604 0.57225   8
   3   5 -19 14.7062 1.40612  17
   3   5 -19 15.0970 1.32279   8
  -3  -5  19 13.3944 1.23173   8
   2   5 -19 2.15758 1.00250   8
  -2  -5  19 0.88802 0.74896   8
   1   5 -19 1.61492 0.75485   8
  -1  -5  19 2.68108 0.59077   8
  -1  -5  19 3.20045 0.78684  13
   0  -5  19 1.37581 0.93837  13
   0  -5  19 0.04768 1.01328   9
   5   4 -19 3.07671 0.95655   9
   4   4 -19 2.00747 0.96679   9
   4   4 -19 4.60590 0.91560  17
   3   4 -19 2.32731 1.11897   9
   3   4 -19 2.05149 0.87970   8
   3   4 -19 0.73421 0.87994  17
  -3  -4  19 0.08315 0.61999   8
   2   4 -19 11.5106 1.13585   8
  -2  -4  19 12.2369 1.23931   8
   1   4 -19 0.11735 0.66766   8
  -1  -4  19 -0.9858 0.58210   8
   0  -4  19 -1.1547 1.01340   9
   0  -4  19 -0.1983 0.66190  13
   5   3 -19 0.98323 0.79716   9
   5   3 -19 2.25681 1.02067  17
   4   3 -19 10.2972 1.42592  17
   4   3 -19 9.02649 1.47807   9
   3   3 -19 0.00464 0.55029   8
   3   3 -19 -1.1671 1.35495   9
   3   3 -19 -1.1696 1.20934  17
  -3  -3  19 1.03415 0.60652   8
   2   3 -19 -0.0761 0.58708   8
  -2  -3  19 0.82633 0.58209   8
   1   3 -19 2.37161 0.68898   8
  -1  -3  19 3.30679 0.72178   8
   0   3 -19 12.2249 1.26270   8
   0  -3  19 14.2256 1.04350   8
   0  -3  19 18.8486 1.41175  13
   5   2 -19 0.64775 0.75991  17
   5   2 -19 0.15331 0.73087   9
   4   2 -19 4.40757 0.91128  17
   4   2 -19 5.04909 0.93157   9
   3   2 -19 16.4369 1.85583   9
   3   2 -19 20.7200 1.58828  17
   3   2 -19 15.4918 1.22123   8
   2   2 -19 4.31051 0.80313   8
  -2  -2  19 3.95961 0.70154   8
   1   2 -19 6.05639 0.93049   8
  -1  -2  19 5.37006 0.82195   8
   0  -2  19 -0.6697 0.40797   8
   5   1 -19 1.94256 0.73819  17
   4   1 -19 -0.1036 1.09200  17
   4   1 -19 0.44270 0.93994   9
   3   1 -19 -0.0229 0.85526   9
   3   1 -19 0.06160 0.81255  17
   2   1 -19 7.49922 1.45970   9
   2   1 -19 7.10101 0.69156   8
  -2  -1  19 4.11366 0.75262   8
   1   1 -19 0.32329 0.61057   8
  -1  -1  19 -0.7305 0.42340   8
   4   0 -19 -0.8742 0.80805   9
   3   0 -19 -1.6681 1.00408   9
   3   0 -19 0.33672 0.66617  17
   2   4 -20 4.43393 0.78073  17
  -2  -4  20 3.40575 0.63630   8
   0   0   0    0.00    0.00   0
;
_shelx_hkl_checksum   32918

