data_x16026 
 
_audit_creation_method            'SHELXL-2014/7 and CIFFIX' 
# CIF edited on-the-fly by script CIFFIX (S. Parkin, 2000-2014). 
# CIFFIX: http://xray.uky.edu/people/parkin/programs/ciffix 
_audit_update_record              ? 
 
_shelx_SHELXL_version_number      '2014/7' 
 
_publ_section_exptl_refinement 
; 
H atoms were found in difference Fourier maps, but subsequently included 
in the refinement using riding models, with constrained distances set to 
0.95 %A (C~sp2~H), 0.98 %A (RCH~3~), 0.99 %A (R~2~CH~2~) and 1.00 %A 
(R~3~CH).  U~iso~(H) parameters were set to values of either 1.2U~eq~ or 
1.5U~eq~ (RCH~3~ only) of the attached atom. 
 
To ensure satisfactory refinement for disordered groups in the structure, 
a combination of constraints and restraints were employed. The constraints 
(SHELXL commands EXYZ and EADP) were used to fix overlapping fragments. 
Restraints were used to ensure the integrity of ill-defined or disordered 
groups (SHELXL commands SAME, SADI, SIMU, and RIGU). 
; 
 
_publ_section_references 
; 
Bruker-AXS (2006). 
  <i>APEX2</i> Bruker-AXS Inc., Madison, WI, USA. 
 
Hope, H. (1994). 
  <i>Prog. Inorg. Chem.</i> <b>41</b>, 1--19. 
 
Krause, L., Herbst-Irmer, R., Sheldrick, G.M. & Stalke, D. (2015). 
  <i>J. Appl. Cryst.</i> <b>48</b>, 3--10. 
 
Parkin, S. & Hope, H. (1998). 
  <i>J. Appl. Cryst.</i> <b>31</b>, 945--953. 
 
Parkin, S. (2000). 
  <i>Acta Cryst.</i> A<b>56</b>, 157--162. 
 
Parkin, S. (2013). 
  <i>CIFFIX</i>, http://xray.uky.edu/people/parkin/programs/ciffix 
 
Sheldrick, G.M. (2008). 
  <i>Acta Cryst.</i> A<b>64</b>, 112--122. 
 
Sheldrick, G.M. (2015a). 
  <i>Acta Cryst.</i> A<b>71</b>, 3--8. 
 
Sheldrick, G.M. (2015b). 
  <i>Acta Cryst.</i> C<b>71</b>, 3--8. 
 
Spek, A.L. (2009). 
  <i>Acta Cryst.</i> D<b>65</b>, 148--155. 
; 
 
_publ_section_acknowledgements 
; 
The X8 Proteum diffractometer was funded by the NSF (MRI CHE0319176, 70%), 
and by the University of Kentucky (cost share, 30%). 
; 
 
_chemical_name_systematic         ? 
_chemical_name_common             ? 
_chemical_melting_point           ? 
_chemical_formula_moiety          'C58 H64 F2 S6 Si2' 
_chemical_formula_sum             'C58 H64 F2 S6 Si2' 
_chemical_formula_weight          1047.63 
 
loop_ 
 _atom_type_symbol 
 _atom_type_description 
 _atom_type_scat_dispersion_real 
 _atom_type_scat_dispersion_imag 
 _atom_type_scat_source 
 'C'  'C'   0.0181   0.0091 
 'International Tables Vol C Tables 4.2.6.8 and 6.1.1.4' 
 'H'  'H'   0.0000   0.0000 
 'International Tables Vol C Tables 4.2.6.8 and 6.1.1.4' 
 'F'  'F'   0.0727   0.0534 
 'International Tables Vol C Tables 4.2.6.8 and 6.1.1.4' 
 'Si'  'Si'   0.2541   0.3302 
 'International Tables Vol C Tables 4.2.6.8 and 6.1.1.4' 
 'S'  'S'   0.3331   0.5567 
 'International Tables Vol C Tables 4.2.6.8 and 6.1.1.4' 
 
_space_group_crystal_system       triclinic 
_space_group_IT_number            2 
_space_group_name_H-M_alt         'P -1' 
_space_group_name_Hall            '-P 1' 
 
_shelx_space_group_comment 
; 
The symmetry employed for this shelxl refinement is uniquely defined 
by the following loop, which should always be used as a source of 
symmetry information in preference to the above space-group names. 
They are only intended as comments. 
; 
 
loop_ 
 _space_group_symop_operation_xyz 
 'x, y, z' 
 '-x, -y, -z' 
 
_cell_length_a                    9.9556(2) 
_cell_length_b                    10.1493(2) 
_cell_length_c                    14.9580(3) 
_cell_angle_alpha                 92.564(1) 
_cell_angle_beta                  98.008(1) 
_cell_angle_gamma                 110.722(1) 
_cell_volume                      1392.60(5) 
_cell_formula_units_Z             1 
_cell_measurement_temperature     150(2) 
_cell_measurement_reflns_used     9540 
_cell_measurement_theta_min       3.00 
_cell_measurement_theta_max       68.66 
 
_exptl_crystal_description        'cut needle' 
_exptl_crystal_colour             yellow 
_exptl_crystal_density_meas       ? 
_exptl_crystal_density_method     ? 
_exptl_crystal_density_diffrn     1.249 
_exptl_crystal_F_000              554 
_exptl_transmission_factor_min    ? 
_exptl_transmission_factor_max    ? 
_exptl_crystal_size_max           0.300 
_exptl_crystal_size_mid           0.100 
_exptl_crystal_size_min           0.050 
_exptl_absorpt_coefficient_mu     3.017 
_shelx_estimated_absorpt_T_min    0.465 
_shelx_estimated_absorpt_T_max    0.864 
_exptl_absorpt_correction_type    multi-scan 
_exptl_absorpt_correction_T_min   0.520 
_exptl_absorpt_correction_T_max   0.864 
_exptl_absorpt_process_details    '<i>SADABS</i> (Krause et al., 2015)' 
_exptl_absorpt_special_details 
; 
In addition to absorption, multi-scan techniques also correct other slowly 
varying changes in scale factor over reciprocal space, such as those caused 
by x-ray beam inhomogeneity, goniometer imperfection, crystal decomposition, 
crystal longer than the x-ray beam cross section, absorption by the crystal 
mount etc.  These account, by and large, for much of the difference between 
estimated values of Tmin and Tmax and the _exptl_absorpt_correction_ values. 
; 
 
_exptl_special_details 
; 
The crystal was mounted using polyisobutene oil on the tip of a fine glass 
fibre, which was fastened in a copper mounting pin with electrical solder. 
It was placed directly into the cold gas stream of a liquid-nitrogen based 
cryostat (Hope, 1994; Parkin & Hope, 1998). 
 
The crystals underwent a destructive phase transition when cooled to 90K. 
Visual inspection of crystal integrity and diffraction quality vs temperature 
established a safe temperature for data collection of -123\% C. 
; 
 
_diffrn_ambient_temperature       150(2) 
_diffrn_radiation_wavelength      1.54178 
_diffrn_radiation_type            CuK\a 
_diffrn_source                    'fine-focus rotating anode' 
_diffrn_measurement_device_type   'Bruker X8 Proteum diffractometer' 
_diffrn_measurement_method        '\f and \w scans' 
_diffrn_detector_area_resol_mean  5.6 
_diffrn_reflns_number             19170 
_diffrn_reflns_av_unetI/netI      0.0345 
_diffrn_reflns_av_R_equivalents   0.0425 
_diffrn_reflns_limit_h_min        -11 
_diffrn_reflns_limit_h_max        11 
_diffrn_reflns_limit_k_min        -11 
_diffrn_reflns_limit_k_max        4 
_diffrn_reflns_limit_l_min        -18 
_diffrn_reflns_limit_l_max        18 
_diffrn_reflns_theta_min          2.999 
_diffrn_reflns_theta_max          68.656 
_diffrn_reflns_theta_full         67.679 
_diffrn_measured_fraction_theta_max                0.974 
_diffrn_measured_fraction_theta_full               0.983 
_diffrn_reflns_Laue_measured_fraction_max          0.974 
_diffrn_reflns_Laue_measured_fraction_full         0.983 
_diffrn_reflns_point_group_measured_fraction_max   0.974 
_diffrn_reflns_point_group_measured_fraction_full  0.983 
 
_reflns_number_total              4997 
_reflns_number_gt                 4321 
_reflns_threshold_expression      'I > 2\s(I)' 
_reflns_Friedel_coverage          0.000 
_reflns_Friedel_fraction_max      . 
_reflns_Friedel_fraction_full     . 
_reflns_special_details 
; 
Reflections were merged by SHELXL according to the crystal 
class for the calculation of statistics and refinement. 
 
_reflns_Friedel_fraction is defined as the number of unique 
Friedel pairs measured divided by the number that would be 
possible theoretically, ignoring centric projections and 
systematic absences. 
; 
 
_computing_data_collection        '<i>APEX2</i> (Bruker-AXS, 2006)' 
_computing_cell_refinement        '<i>APEX2</i> (Bruker-AXS, 2006)' 
_computing_data_reduction         '<i>APEX2</i> (Bruker-AXS, 2006)' 
_computing_structure_solution     '<i>SHELXT</i> (Sheldrick, 2015a)' 
_computing_structure_refinement   '<i>SHELXL-2014/7</i> (Sheldrick, 2015b)' 
_computing_molecular_graphics     '<i>XP in SHELXTL</i> (Sheldrick, 2008)' 
_computing_publication_material 
'<i>SHELX</i> (Sheldrick, 2008) and <i>CIFFIX</i> (Parkin, 2013)' 
 
_refine_special_details 
; 
Refinement progress was checked using <i>Platon</i> (Spek, 2009) and by 
an <i>R</i>-tensor (Parkin, 2000). The final model was further checked 
with the IUCr utility <i>checkCIF</i>. 
; 
_refine_ls_structure_factor_coef  Fsqd 
_refine_ls_matrix_type            full 
_refine_ls_weighting_scheme       calc 
_refine_ls_weighting_details 
'w=1/[\s^2^(Fo^2^)+(0.0730P)^2^+0.4925P] where P=(Fo^2^+2Fc^2^)/3' 
_atom_sites_solution_primary      direct 
_atom_sites_solution_secondary    difmap 
_atom_sites_solution_hydrogens    difmap 
_refine_ls_hydrogen_treatment     constr 
_refine_ls_extinction_method      none 
_refine_ls_extinction_coef        . 
_refine_ls_number_reflns          4997 
_refine_ls_number_parameters      472 
_refine_ls_number_restraints      554 
_refine_ls_R_factor_all           0.0507 
_refine_ls_R_factor_gt            0.0438 
_refine_ls_wR_factor_ref          0.1296 
_refine_ls_wR_factor_gt           0.1219 
_refine_ls_goodness_of_fit_ref    1.072 
_refine_ls_restrained_S_all       1.045 
_refine_ls_shift/su_max           0.000 
_refine_ls_shift/su_mean          0.000 
 
loop_ 
 _atom_site_label 
 _atom_site_type_symbol 
 _atom_site_fract_x 
 _atom_site_fract_y 
 _atom_site_fract_z 
 _atom_site_U_iso_or_equiv 
 _atom_site_adp_type 
 _atom_site_occupancy 
 _atom_site_site_symmetry_order 
 _atom_site_calc_flag 
 _atom_site_refinement_flags_posn 
 _atom_site_refinement_flags_adp 
 _atom_site_refinement_flags_occupancy 
 _atom_site_disorder_assembly 
 _atom_site_disorder_group 
Si1 Si 0.63394(6) -0.08948(5) 0.14075(3) 0.02849(16) Uani 1 1 d . . . . . 
C1 C 0.90632(18) -0.03503(18) 0.41312(11) 0.0230(4) Uani 1 1 d . . . . . 
C2 C 0.92067(18) 0.08197(18) 0.47209(12) 0.0225(4) Uani 0.562(2) 1 d D U P A 1 
S3 S 0.82039(10) 0.18390(8) 0.43879(7) 0.0204(3) Uani 0.562(2) 1 d D U P A 1 
C4 C 0.900(3) 0.294(2) 0.5388(16) 0.0197(12) Uani 0.562(2) 1 d D U P A 1 
C5 C 0.9898(5) 0.2436(4) 0.5911(3) 0.0218(4) Uani 0.562(2) 1 d D U P A 1 
F1 F 1.0665(2) 0.3086(3) 0.67353(19) 0.0296(4) Uani 0.562(2) 1 d D U P A 1 
C6 C 1.01264(19) 0.11707(17) 0.55677(11) 0.0228(4) Uani 0.562(2) 1 d D U P A 1 
C2' C 0.92067(18) 0.08197(18) 0.47209(12) 0.0225(4) Uani 0.438(2) 1 d D U P A 2 
F1' F 0.7659(4) 0.1972(3) 0.4023(2) 0.0296(4) Uani 0.438(2) 1 d D U P A 2 
C3' C 0.8632(5) 0.1979(5) 0.4749(3) 0.0204(3) Uani 0.438(2) 1 d D U P A 2 
C4' C 0.907(4) 0.295(3) 0.548(2) 0.0197(12) Uani 0.438(2) 1 d D U P A 2 
S5' S 1.03345(13) 0.26403(12) 0.62737(10) 0.0218(4) Uani 0.438(2) 1 d D U P A 2 
C6' C 1.01264(19) 0.11707(17) 0.55677(11) 0.0228(4) Uani 0.438(2) 1 d D U P A 2 
C7 C 0.865(4) 0.416(3) 0.5624(19) 0.0207(10) Uani 0.5980(18) 1 d D U P A 1 
S8 S 0.94855(9) 0.53292(8) 0.65893(6) 0.0236(2) Uani 0.5980(18) 1 d D U P A 1 
C9 C 0.8475(16) 0.6389(12) 0.6298(9) 0.0213(10) Uani 0.5980(18) 1 d D U P A 1 
C10 C 0.8530(13) 0.7604(9) 0.6789(7) 0.0256(10) Uani 0.5980(18) 1 d D U P A 1 
H10 H 0.9170 0.7961 0.7350 0.031 Uiso 0.5980(18) 1 calc R U P A 1 
C11 C 0.7606(11) 0.8282(10) 0.6426(5) 0.0261(11) Uani 0.5980(18) 1 d D U P A 1 
C12 C 0.7509(5) 0.9572(4) 0.6775(3) 0.0390(4) Uani 0.5980(18) 1 d D U P A 1 
H12 H 0.8114 1.0140 0.7305 0.047 Uiso 0.5980(18) 1 calc R U P A 1 
C13 C 0.6448(14) 0.9892(11) 0.626(1) 0.0390(14) Uani 0.5980(18) 1 d D U P A 1 
H13 H 0.6165 1.0656 0.6428 0.047 Uiso 0.5980(18) 1 calc R U P A 1 
S14 S 0.56789(10) 0.87910(9) 0.52876(8) 0.0368(3) Uani 0.5980(18) 1 d D U P A 1 
C15 C 0.6661(10) 0.7715(8) 0.5584(5) 0.0241(10) Uani 0.5980(18) 1 d D U P A 1 
C16 C 0.6591(11) 0.6483(8) 0.5099(6) 0.0245(9) Uani 0.5980(18) 1 d D U P A 1 
H16 H 0.5954 0.6125 0.4537 0.029 Uiso 0.5980(18) 1 calc R U P A 1 
C17 C 0.7498(17) 0.5793(14) 0.5475(9) 0.0218(8) Uani 0.5980(18) 1 d D U P A 1 
C18 C 0.7634(5) 0.4544(5) 0.5104(3) 0.0267(4) Uani 0.5980(18) 1 d D U P A 1 
H18 H 0.7075 0.4025 0.4548 0.032 Uiso 0.5980(18) 1 calc R U P A 1 
C8' C 0.9061(6) 0.5145(6) 0.6288(4) 0.0236(2) Uani 0.4020(18) 1 d D U P A 2 
H8' H 0.9793 0.5175 0.6778 0.028 Uiso 0.4020(18) 1 calc R U P A 2 
C9' C 0.835(3) 0.6152(19) 0.6227(14) 0.0213(10) Uani 0.4020(18) 1 d D U P A 2 
C10' C 0.858(2) 0.7328(15) 0.6829(11) 0.0256(10) Uani 0.4020(18) 1 d D U P A 2 
H10' H 0.9264 0.7529 0.7376 0.031 Uiso 0.4020(18) 1 calc R U P A 2 
C11' C 0.7816(17) 0.8194(15) 0.6616(9) 0.0261(11) Uani 0.4020(18) 1 d D U P A 2 
S12' S 0.78479(17) 0.97084(14) 0.72352(11) 0.0390(4) Uani 0.4020(18) 1 d D U P 
A 2 
C13' C 0.671(2) 1.0039(18) 0.6391(15) 0.0390(14) Uani 0.4020(18) 1 d D U P A 2 
H13' H 0.6509 1.0885 0.6397 0.047 Uiso 0.4020(18) 1 calc R U P A 2 
C14' C 0.6131(7) 0.8976(6) 0.5708(5) 0.0368(3) Uani 0.4020(18) 1 d D U P A 2 
H14' H 0.5380 0.8929 0.5226 0.044 Uiso 0.4020(18) 1 calc R U P A 2 
C15' C 0.6793(17) 0.7929(13) 0.5804(8) 0.0241(10) Uani 0.4020(18) 1 d D U P A 2 
C16' C 0.6561(18) 0.6775(14) 0.5189(10) 0.0245(9) Uani 0.4020(18) 1 d D U P A 2 
H16' H 0.5879 0.6575 0.4643 0.029 Uiso 0.4020(18) 1 calc R U P A 2 
C17' C 0.736(3) 0.592(2) 0.5402(13) 0.0218(8) Uani 0.4020(18) 1 d D U P A 2 
S18' S 0.72856(15) 0.44061(14) 0.47675(10) 0.0267(4) Uani 0.4020(18) 1 d D U P 
A 2 
C7' C 0.857(6) 0.414(4) 0.556(3) 0.0207(10) Uani 0.4020(18) 1 d D U P A 2 
C19 C 0.8175(2) -0.0625(2) 0.32590(12) 0.0298(4) Uani 1 1 d . . . . . 
C20 C 0.7453(2) -0.0781(2) 0.25212(13) 0.0299(4) Uani 1 1 d . . . . . 
C21 C 0.6635(3) -0.2176(4) 0.0566(2) 0.0399(7) Uani 0.685(3) 1 d D U P B 1 
H21A H 0.6418 -0.3074 0.0850 0.048 Uiso 0.685(3) 1 calc R U P B 1 
H21B H 0.5849 -0.2357 0.0039 0.048 Uiso 0.685(3) 1 calc R U P B 1 
C22 C 0.7852(8) -0.2003(8) 0.0210(5) 0.062(2) Uani 0.685(3) 1 d D U P B 1 
H22 H 0.8038 -0.1052 -0.0016 0.074 Uiso 0.685(3) 1 calc R U P B 1 
C23 C 0.8057(8) -0.2757(8) -0.0552(4) 0.092(2) Uani 0.685(3) 1 d D U P B 1 
H23A H 0.8049 -0.3685 -0.0392 0.138 Uiso 0.685(3) 1 calc R U P B 1 
H23B H 0.8993 -0.2221 -0.0730 0.138 Uiso 0.685(3) 1 calc R U P B 1 
H23C H 0.7268 -0.2885 -0.1059 0.138 Uiso 0.685(3) 1 calc R U P B 1 
C24 C 0.9316(5) -0.1650(8) 0.0975(3) 0.0887(18) Uani 0.685(3) 1 d D U P B 1 
H24A H 0.9419 -0.0843 0.1399 0.133 Uiso 0.685(3) 1 calc R U P B 1 
H24B H 1.0174 -0.1417 0.0675 0.133 Uiso 0.685(3) 1 calc R U P B 1 
H24C H 0.9231 -0.2478 0.1308 0.133 Uiso 0.685(3) 1 calc R U P B 1 
C25 C 0.4336(3) -0.1637(3) 0.1520(2) 0.0335(7) Uani 0.685(3) 1 d D U P B 1 
H25A H 0.4219 -0.1142 0.2072 0.040 Uiso 0.685(3) 1 calc R U P B 1 
H25B H 0.3785 -0.1385 0.0995 0.040 Uiso 0.685(3) 1 calc R U P B 1 
C26 C 0.3606(4) -0.3245(4) 0.1573(3) 0.0423(9) Uani 0.685(3) 1 d D U P B 1 
H26 H 0.3787 -0.3751 0.1040 0.051 Uiso 0.685(3) 1 calc R U P B 1 
C27 C 0.4216(9) -0.3732(7) 0.2430(4) 0.0563(16) Uani 0.685(3) 1 d D U P B 1 
H27A H 0.4025 -0.3270 0.2962 0.085 Uiso 0.685(3) 1 calc R U P B 1 
H27B H 0.5269 -0.3479 0.2464 0.085 Uiso 0.685(3) 1 calc R U P B 1 
H27C H 0.3748 -0.4761 0.2418 0.085 Uiso 0.685(3) 1 calc R U P B 1 
C28 C 0.1955(7) -0.3632(14) 0.1498(8) 0.067(2) Uani 0.685(3) 1 d D U P B 1 
H28A H 0.1488 -0.4648 0.1544 0.101 Uiso 0.685(3) 1 calc R U P B 1 
H28B H 0.1568 -0.3400 0.0912 0.101 Uiso 0.685(3) 1 calc R U P B 1 
H28C H 0.1754 -0.3095 0.1989 0.101 Uiso 0.685(3) 1 calc R U P B 1 
C29 C 0.6898(3) 0.0900(3) 0.10331(19) 0.0360(7) Uani 0.685(3) 1 d D U P B 1 
H29A H 0.7767 0.1047 0.0742 0.043 Uiso 0.685(3) 1 calc R U P B 1 
H29B H 0.6109 0.0916 0.0556 0.043 Uiso 0.685(3) 1 calc R U P B 1 
C30 C 0.7256(8) 0.2183(6) 0.1736(5) 0.0361(12) Uani 0.685(3) 1 d D U P B 1 
H30 H 0.8026 0.2151 0.2231 0.043 Uiso 0.685(3) 1 calc R U P B 1 
C31 C 0.5955(5) 0.2154(4) 0.2158(3) 0.0561(10) Uani 0.685(3) 1 d D U P B 1 
H31A H 0.5152 0.2100 0.1679 0.084 Uiso 0.685(3) 1 calc R U P B 1 
H31B H 0.6218 0.3018 0.2569 0.084 Uiso 0.685(3) 1 calc R U P B 1 
H31C H 0.5651 0.1326 0.2499 0.084 Uiso 0.685(3) 1 calc R U P B 1 
C32 C 0.7873(5) 0.3559(5) 0.1303(3) 0.0574(11) Uani 0.685(3) 1 d D U P B 1 
H32A H 0.7132 0.3624 0.0820 0.086 Uiso 0.685(3) 1 calc R U P B 1 
H32B H 0.8730 0.3570 0.1046 0.086 Uiso 0.685(3) 1 calc R U P B 1 
H32C H 0.8153 0.4366 0.1765 0.086 Uiso 0.685(3) 1 calc R U P B 1 
C21' C 0.7456(8) -0.0793(8) 0.0456(4) 0.0415(16) Uani 0.315(3) 1 d D U P B 2 
H21C H 0.6788 -0.0812 -0.0104 0.050 Uiso 0.315(3) 1 calc R U P B 2 
H21D H 0.8203 0.0175 0.0558 0.050 Uiso 0.315(3) 1 calc R U P B 2 
C22' C 0.8183(14) -0.1646(14) 0.0220(9) 0.041(2) Uani 0.315(3) 1 d D U P B 2 
H22' H 0.9182 -0.0906 0.0377 0.049 Uiso 0.315(3) 1 calc R U P B 2 
C23' C 0.8270(17) -0.1964(13) -0.0733(8) 0.068(3) Uani 0.315(3) 1 d D U P B 2 
H23D H 0.8827 -0.2585 -0.0768 0.102 Uiso 0.315(3) 1 calc R U P B 2 
H23E H 0.7285 -0.2439 -0.1076 0.102 Uiso 0.315(3) 1 calc R U P B 2 
H23F H 0.8754 -0.1081 -0.0990 0.102 Uiso 0.315(3) 1 calc R U P B 2 
C24' C 0.8462(17) -0.2722(13) 0.0891(7) 0.082(3) Uani 0.315(3) 1 d D U P B 2 
H24D H 0.8990 -0.3244 0.0619 0.123 Uiso 0.315(3) 1 calc R U P B 2 
H24E H 0.9041 -0.2197 0.1466 0.123 Uiso 0.315(3) 1 calc R U P B 2 
H24F H 0.7527 -0.3390 0.1003 0.123 Uiso 0.315(3) 1 calc R U P B 2 
C25' C 0.4712(7) -0.2471(7) 0.1202(4) 0.0396(16) Uani 0.315(3) 1 d D U P B 2 
H25C H 0.4149 -0.2438 0.0609 0.048 Uiso 0.315(3) 1 calc R U P B 2 
H25D H 0.5016 -0.3295 0.1140 0.048 Uiso 0.315(3) 1 calc R U P B 2 
C26' C 0.3703(11) -0.2751(12) 0.1880(7) 0.055(2) Uani 0.315(3) 1 d D U P B 2 
H26' H 0.3682 -0.1813 0.2098 0.067 Uiso 0.315(3) 1 calc R U P B 2 
C27' C 0.4205(19) -0.3362(17) 0.2711(8) 0.060(4) Uani 0.315(3) 1 d D U P B 2 
H27D H 0.3495 -0.3519 0.3126 0.089 Uiso 0.315(3) 1 calc R U P B 2 
H27E H 0.4288 -0.4265 0.2526 0.089 Uiso 0.315(3) 1 calc R U P B 2 
H27F H 0.5155 -0.2699 0.3019 0.089 Uiso 0.315(3) 1 calc R U P B 2 
C28' C 0.2137(16) -0.368(3) 0.1465(18) 0.088(7) Uani 0.315(3) 1 d D U P B 2 
H28D H 0.1520 -0.3829 0.1936 0.132 Uiso 0.315(3) 1 calc R U P B 2 
H28E H 0.1773 -0.3204 0.0984 0.132 Uiso 0.315(3) 1 calc R U P B 2 
H28F H 0.2114 -0.4592 0.1208 0.132 Uiso 0.315(3) 1 calc R U P B 2 
C29' C 0.5806(7) 0.0748(7) 0.1489(4) 0.0362(15) Uani 0.315(3) 1 d D U P B 2 
H29C H 0.5352 0.0830 0.0871 0.043 Uiso 0.315(3) 1 calc R U P B 2 
H29D H 0.5034 0.0542 0.1871 0.043 Uiso 0.315(3) 1 calc R U P B 2 
C30' C 0.6939(16) 0.2218(13) 0.1852(11) 0.034(3) Uani 0.315(3) 1 d D U P B 2 
H30' H 0.7588 0.2084 0.2385 0.041 Uiso 0.315(3) 1 calc R U P B 2 
C31' C 0.6261(10) 0.3214(9) 0.2189(6) 0.056(2) Uani 0.315(3) 1 d D U P B 2 
H31D H 0.5649 0.2773 0.2634 0.084 Uiso 0.315(3) 1 calc R U P B 2 
H31E H 0.7029 0.4096 0.2476 0.084 Uiso 0.315(3) 1 calc R U P B 2 
H31F H 0.5662 0.3420 0.1678 0.084 Uiso 0.315(3) 1 calc R U P B 2 
C32' C 0.7903(11) 0.286(1) 0.1156(6) 0.053(2) Uani 0.315(3) 1 d D U P B 2 
H32D H 0.8329 0.2189 0.0949 0.079 Uiso 0.315(3) 1 calc R U P B 2 
H32E H 0.7317 0.3064 0.0637 0.079 Uiso 0.315(3) 1 calc R U P B 2 
H32F H 0.8684 0.3740 0.1434 0.079 Uiso 0.315(3) 1 calc R U P B 2 
 
loop_ 
 _atom_site_aniso_label 
 _atom_site_aniso_U_11 
 _atom_site_aniso_U_22 
 _atom_site_aniso_U_33 
 _atom_site_aniso_U_23 
 _atom_site_aniso_U_13 
 _atom_site_aniso_U_12 
Si1 0.0310(3) 0.0329(3) 0.0218(3) 0.00126(19) -0.00303(19) 0.0147(2) 
C1 0.0237(8) 0.0241(9) 0.0207(8) 0.0052(7) 0.0022(6) 0.0084(7) 
C2 0.0250(8) 0.0218(9) 0.0282(9) 0.0105(7) 0.0076(7) 0.0154(7) 
S3 0.0256(6) 0.0188(4) 0.0219(6) 0.0025(4) 0.0007(4) 0.0155(3) 
C4 0.025(2) 0.0169(9) 0.022(4) 0.0047(18) 0.005(2) 0.0124(13) 
C5 0.0284(7) 0.0177(6) 0.0225(10) 0.0012(6) 0.0015(6) 0.0135(5) 
F1 0.0395(9) 0.0272(9) 0.0255(9) -0.0032(7) -0.0064(7) 0.0213(7) 
C6 0.0295(9) 0.0161(8) 0.0254(9) 0.0020(6) 0.0085(7) 0.0101(7) 
C2' 0.0250(8) 0.0218(9) 0.0282(9) 0.0105(7) 0.0076(7) 0.0154(7) 
F1' 0.0395(9) 0.0272(9) 0.0255(9) -0.0032(7) -0.0064(7) 0.0213(7) 
C3' 0.0256(6) 0.0188(4) 0.0219(6) 0.0025(4) 0.0007(4) 0.0155(3) 
C4' 0.025(2) 0.0169(9) 0.022(4) 0.0047(18) 0.005(2) 0.0124(13) 
S5' 0.0284(7) 0.0177(6) 0.0225(10) 0.0012(6) 0.0015(6) 0.0135(5) 
C6' 0.0295(9) 0.0161(8) 0.0254(9) 0.0020(6) 0.0085(7) 0.0101(7) 
C7 0.023(3) 0.0161(11) 0.026(3) 0.0036(14) 0.0056(19) 0.0106(18) 
S8 0.0291(5) 0.0203(4) 0.0251(5) 0.0000(3) 0.0013(3) 0.0150(3) 
C9 0.023(2) 0.012(3) 0.0317(19) 0.0029(16) 0.0088(13) 0.008(3) 
C10 0.0333(13) 0.017(3) 0.0313(13) 0.001(2) 0.009(1) 0.013(2) 
C11 0.029(3) 0.0176(13) 0.039(3) 0.0040(19) 0.013(2) 0.0135(11) 
C12 0.0541(9) 0.0251(6) 0.0481(10) 0.0002(7) 0.0220(8) 0.0224(6) 
C13 0.041(5) 0.022(2) 0.064(4) 0.0017(17) 0.017(2) 0.021(3) 
S14 0.0370(5) 0.0252(4) 0.0611(7) 0.0096(4) 0.0139(4) 0.0243(4) 
C15 0.0266(18) 0.014(2) 0.037(3) 0.0020(18) 0.011(2) 0.0120(19) 
C16 0.0292(11) 0.016(3) 0.035(2) 0.0024(18) 0.0056(13) 0.016(2) 
C17 0.025(2) 0.015(2) 0.032(2) 0.0058(16) 0.0070(14) 0.0131(10) 
C18 0.0295(8) 0.0211(5) 0.0339(9) -0.0012(6) 0.0010(6) 0.0166(5) 
C8' 0.0291(5) 0.0203(4) 0.0251(5) 0.0000(3) 0.0013(3) 0.0150(3) 
C9' 0.023(2) 0.012(3) 0.0317(19) 0.0029(16) 0.0088(13) 0.008(3) 
C10' 0.0333(13) 0.017(3) 0.0313(13) 0.001(2) 0.009(1) 0.013(2) 
C11' 0.029(3) 0.0176(13) 0.039(3) 0.0040(19) 0.013(2) 0.0135(11) 
S12' 0.0541(9) 0.0251(6) 0.0481(10) 0.0002(7) 0.0220(8) 0.0224(6) 
C13' 0.041(5) 0.022(2) 0.064(4) 0.0017(17) 0.017(2) 0.021(3) 
C14' 0.0370(5) 0.0252(4) 0.0611(7) 0.0096(4) 0.0139(4) 0.0243(4) 
C15' 0.0266(18) 0.014(2) 0.037(3) 0.0020(18) 0.011(2) 0.0120(19) 
C16' 0.0292(11) 0.016(3) 0.035(2) 0.0024(18) 0.0056(13) 0.016(2) 
C17' 0.025(2) 0.015(2) 0.032(2) 0.0058(16) 0.0070(14) 0.0131(10) 
S18' 0.0295(8) 0.0211(5) 0.0339(9) -0.0012(6) 0.0010(6) 0.0166(5) 
C7' 0.023(3) 0.0161(11) 0.026(3) 0.0036(14) 0.0056(19) 0.0106(18) 
C19 0.0319(10) 0.0312(10) 0.0244(9) 0.0048(7) 0.0013(8) 0.0102(8) 
C20 0.0342(10) 0.0284(10) 0.0289(10) 0.0028(7) -0.0005(8) 0.0157(8) 
C21 0.0421(17) 0.0470(18) 0.0304(15) -0.0029(12) 0.0010(12) 0.0188(14) 
C22 0.089(4) 0.067(5) 0.058(3) 0.020(3) 0.036(3) 0.052(4) 
C23 0.087(4) 0.128(6) 0.076(4) -0.025(4) 0.023(3) 0.058(5) 
C24 0.056(3) 0.163(6) 0.063(3) 0.015(3) 0.019(2) 0.055(3) 
C25 0.0313(14) 0.0397(17) 0.0316(14) 0.0020(12) 0.0023(11) 0.0168(13) 
C26 0.0365(18) 0.040(2) 0.045(2) -0.0032(16) 0.0088(16) 0.0075(16) 
C27 0.057(3) 0.046(3) 0.064(4) 0.012(3) 0.015(3) 0.013(2) 
C28 0.042(3) 0.079(4) 0.081(4) 0.004(3) 0.020(3) 0.020(3) 
C29 0.0390(16) 0.0406(16) 0.0284(14) 0.0071(12) -0.0006(12) 0.0164(13) 
C30 0.040(3) 0.0336(19) 0.033(2) 0.0041(15) -0.0051(18) 0.0152(17) 
C31 0.064(2) 0.047(2) 0.061(2) -0.0024(18) 0.0110(19) 0.0248(19) 
C32 0.066(3) 0.042(2) 0.052(2) 0.009(2) -0.0035(19) 0.009(2) 
C21' 0.049(4) 0.048(4) 0.033(3) -0.002(3) 0.004(3) 0.026(3) 
C22' 0.039(4) 0.035(5) 0.050(4) 0.009(3) 0.021(3) 0.009(4) 
C23' 0.083(7) 0.079(8) 0.060(5) 0.001(5) 0.027(4) 0.045(7) 
C24' 0.13(1) 0.081(6) 0.066(5) 0.007(5) 0.018(6) 0.073(7) 
C25' 0.043(3) 0.036(3) 0.032(3) 0.001(3) -0.005(3) 0.009(3) 
C26' 0.055(4) 0.048(5) 0.056(5) 0.005(4) 0.012(4) 0.009(4) 
C27' 0.048(5) 0.065(9) 0.050(6) 0.027(6) 0.007(5) 0.000(6) 
C28' 0.059(7) 0.105(12) 0.074(9) 0.033(9) 0.004(6) -0.001(7) 
C29' 0.036(3) 0.039(3) 0.034(3) 0.003(2) -0.003(2) 0.017(3) 
C30' 0.037(5) 0.034(4) 0.032(4) 0.002(3) -0.004(3) 0.015(3) 
C31' 0.068(5) 0.040(4) 0.064(5) -0.006(3) 0.006(4) 0.028(4) 
C32' 0.059(5) 0.038(5) 0.057(5) -0.002(4) 0.015(4) 0.011(4) 
 
_geom_special_details 
; 
 All esds (except the esd in the dihedral angle between two l.s. planes) 
 are estimated using the full covariance matrix.  The cell esds are taken 
 into account individually in the estimation of esds in distances, angles 
 and torsion angles; correlations between esds in cell parameters are only 
 used when they are defined by crystal symmetry.  An approximate (isotropic) 
 treatment of cell esds is used for estimating esds involving l.s. planes. 
; 
 
loop_ 
 _geom_bond_atom_site_label_1 
 _geom_bond_atom_site_label_2 
 _geom_bond_distance 
 _geom_bond_site_symmetry_2 
 _geom_bond_publ_flag 
Si1 C25' 1.806(6) . ? 
Si1 C20 1.8424(19) . ? 
Si1 C29 1.845(3) . ? 
Si1 C21 1.895(3) . ? 
Si1 C25 1.901(3) . ? 
Si1 C21' 1.909(7) . ? 
Si1 C29' 1.925(6) . ? 
C1 C6' 1.398(2) 2_756 ? 
C1 C6 1.398(2) 2_756 ? 
C1 C2 1.400(3) . ? 
C1 C2' 1.400(3) . ? 
C1 C19 1.426(2) . ? 
C2 C6 1.405(2) . ? 
C2 S3 1.7186(17) . ? 
S3 C4 1.732(18) . ? 
C4 C5 1.356(17) . ? 
C4 C7 1.448(12) . ? 
C5 F1 1.359(5) . ? 
C5 C6 1.465(4) . ? 
C6 C1 1.398(2) 2_756 ? 
C2' C6' 1.405(2) . ? 
C2' C3' 1.481(5) . ? 
F1' C3' 1.348(6) . ? 
C3' C4' 1.35(2) . ? 
C4' C7' 1.462(17) . ? 
C4' S5' 1.73(2) . ? 
S5' C6' 1.721(2) . ? 
C6' C1 1.398(2) 2_756 ? 
C7 C18 1.363(19) . ? 
C7 S8 1.73(2) . ? 
S8 C9 1.744(11) . ? 
C9 C10 1.387(7) . ? 
C9 C17 1.418(7) . ? 
C10 C11 1.399(6) . ? 
C10 H10 0.9500 . ? 
C11 C15 1.423(6) . ? 
C11 C12 1.428(9) . ? 
C12 C13 1.361(10) . ? 
C12 H12 0.9500 . ? 
C13 S14 1.70(1) . ? 
C13 H13 0.9500 . ? 
S14 C15 1.739(8) . ? 
C15 C16 1.391(6) . ? 
C16 C17 1.401(7) . ? 
C16 H16 0.9500 . ? 
C17 C18 1.418(11) . ? 
C18 H18 0.9500 . ? 
C8' C7' 1.37(3) . ? 
C8' C9' 1.436(16) . ? 
C8' H8' 0.9500 . ? 
C9' C10' 1.391(10) . ? 
C9' C17' 1.420(11) . ? 
C10' C11' 1.376(9) . ? 
C10' H10' 0.9500 . ? 
C11' C15' 1.419(9) . ? 
C11' S12' 1.747(13) . ? 
S12' C13' 1.700(16) . ? 
C13' C14' 1.355(15) . ? 
C13' H13' 0.9500 . ? 
C14' C15' 1.437(13) . ? 
C14' H14' 0.9500 . ? 
C15' C16' 1.388(9) . ? 
C16' C17' 1.389(10) . ? 
C16' H16' 0.9500 . ? 
C17' S18' 1.744(16) . ? 
S18' C7' 1.72(3) . ? 
C19 C20 1.201(3) . ? 
C21 C22 1.349(7) . ? 
C21 H21A 0.9900 . ? 
C21 H21B 0.9900 . ? 
C22 C23 1.423(7) . ? 
C22 C24 1.641(8) . ? 
C22 H22 1.0000 . ? 
C23 H23A 0.9800 . ? 
C23 H23B 0.9800 . ? 
C23 H23C 0.9800 . ? 
C24 H24A 0.9800 . ? 
C24 H24B 0.9800 . ? 
C24 H24C 0.9800 . ? 
C25 C26 1.544(5) . ? 
C25 H25A 0.9900 . ? 
C25 H25B 0.9900 . ? 
C26 C27 1.520(6) . ? 
C26 C28 1.535(7) . ? 
C26 H26 1.0000 . ? 
C27 H27A 0.9800 . ? 
C27 H27B 0.9800 . ? 
C27 H27C 0.9800 . ? 
C28 H28A 0.9800 . ? 
C28 H28B 0.9800 . ? 
C28 H28C 0.9800 . ? 
C29 C30 1.540(6) . ? 
C29 H29A 0.9900 . ? 
C29 H29B 0.9900 . ? 
C30 C31 1.510(6) . ? 
C30 C32 1.527(7) . ? 
C30 H30 1.0000 . ? 
C31 H31A 0.9800 . ? 
C31 H31B 0.9800 . ? 
C31 H31C 0.9800 . ? 
C32 H32A 0.9800 . ? 
C32 H32B 0.9800 . ? 
C32 H32C 0.9800 . ? 
C21' C22' 1.372(13) . ? 
C21' H21C 0.9900 . ? 
C21' H21D 0.9900 . ? 
C22' C23' 1.468(12) . ? 
C22' C24' 1.585(14) . ? 
C22' H22' 1.0000 . ? 
C23' H23D 0.9800 . ? 
C23' H23E 0.9800 . ? 
C23' H23F 0.9800 . ? 
C24' H24D 0.9800 . ? 
C24' H24E 0.9800 . ? 
C24' H24F 0.9800 . ? 
C25' C26' 1.492(11) . ? 
C25' H25C 0.9900 . ? 
C25' H25D 0.9900 . ? 
C26' C27' 1.514(12) . ? 
C26' C28' 1.530(14) . ? 
C26' H26' 1.0000 . ? 
C27' H27D 0.9800 . ? 
C27' H27E 0.9800 . ? 
C27' H27F 0.9800 . ? 
C28' H28D 0.9800 . ? 
C28' H28E 0.9800 . ? 
C28' H28F 0.9800 . ? 
C29' C30' 1.536(13) . ? 
C29' H29C 0.9900 . ? 
C29' H29D 0.9900 . ? 
C30' C31' 1.505(13) . ? 
C30' C32' 1.525(12) . ? 
C30' H30' 1.0000 . ? 
C31' H31D 0.9800 . ? 
C31' H31E 0.9800 . ? 
C31' H31F 0.9800 . ? 
C32' H32D 0.9800 . ? 
C32' H32E 0.9800 . ? 
C32' H32F 0.9800 . ? 
 
loop_ 
 _geom_angle_atom_site_label_1 
 _geom_angle_atom_site_label_2 
 _geom_angle_atom_site_label_3 
 _geom_angle 
 _geom_angle_site_symmetry_1 
 _geom_angle_site_symmetry_3 
 _geom_angle_publ_flag 
C25' Si1 C20 112.1(2) . . ? 
C20 Si1 C29 107.45(11) . . ? 
C20 Si1 C21 110.02(11) . . ? 
C29 Si1 C21 110.84(14) . . ? 
C20 Si1 C25 109.15(11) . . ? 
C29 Si1 C25 112.51(13) . . ? 
C21 Si1 C25 106.88(13) . . ? 
C25' Si1 C21' 110.6(3) . . ? 
C20 Si1 C21' 110.8(2) . . ? 
C25' Si1 C29' 109.4(3) . . ? 
C20 Si1 C29' 103.8(2) . . ? 
C21' Si1 C29' 109.8(3) . . ? 
C6 C1 C2 116.46(15) 2_756 . ? 
C6' C1 C2' 116.46(15) 2_756 . ? 
C6' C1 C19 123.17(16) 2_756 . ? 
C6 C1 C19 123.17(16) 2_756 . ? 
C2 C1 C19 120.32(16) . . ? 
C2' C1 C19 120.32(16) . . ? 
C1 C2 C6 122.23(15) . . ? 
C1 C2 S3 118.06(14) . . ? 
C6 C2 S3 119.70(14) . . ? 
C2 S3 C4 88.9(4) . . ? 
C5 C4 C7 126.5(16) . . ? 
C5 C4 S3 110.5(6) . . ? 
C7 C4 S3 122.9(14) . . ? 
C4 C5 F1 123.3(7) . . ? 
C4 C5 C6 119.4(7) . . ? 
F1 C5 C6 117.3(3) . . ? 
C1 C6 C2 121.30(15) 2_756 . ? 
C1 C6 C5 137.3(2) 2_756 . ? 
C2 C6 C5 101.4(2) . . ? 
C1 C2' C6' 122.23(15) . . ? 
C1 C2' C3' 138.6(2) . . ? 
C6' C2' C3' 99.2(2) . . ? 
F1' C3' C4' 123.9(9) . . ? 
F1' C3' C2' 116.1(4) . . ? 
C4' C3' C2' 120.1(9) . . ? 
C3' C4' C7' 124(2) . . ? 
C3' C4' S5' 111.0(8) . . ? 
C7' C4' S5' 125(2) . . ? 
C6' S5' C4' 87.8(5) . . ? 
C1 C6' C2' 121.30(15) 2_756 . ? 
C1 C6' S5' 116.83(14) 2_756 . ? 
C2' C6' S5' 121.86(14) . . ? 
C18 C7 C4 123.8(17) . . ? 
C18 C7 S8 112.2(6) . . ? 
C4 C7 S8 124.0(15) . . ? 
C7 S8 C9 92.2(5) . . ? 
C10 C9 C17 123.0(11) . . ? 
C10 C9 S8 127.2(8) . . ? 
C17 C9 S8 109.7(7) . . ? 
C9 C10 C11 117.4(9) . . ? 
C9 C10 H10 121.3 . . ? 
C11 C10 H10 121.3 . . ? 
C10 C11 C15 119.7(8) . . ? 
C10 C11 C12 128.0(6) . . ? 
C15 C11 C12 112.2(5) . . ? 
C13 C12 C11 112.0(6) . . ? 
C13 C12 H12 124.0 . . ? 
C11 C12 H12 124.0 . . ? 
C12 C13 S14 113.5(6) . . ? 
C12 C13 H13 123.2 . . ? 
S14 C13 H13 123.2 . . ? 
C13 S14 C15 92.2(3) . . ? 
C16 C15 C11 122.8(8) . . ? 
C16 C15 S14 127.5(5) . . ? 
C11 C15 S14 109.7(5) . . ? 
C15 C16 C17 117.3(8) . . ? 
C15 C16 H16 121.4 . . ? 
C17 C16 H16 121.4 . . ? 
C16 C17 C9 119.8(11) . . ? 
C16 C17 C18 127.6(9) . . ? 
C9 C17 C18 112.6(6) . . ? 
C7 C18 C17 113.3(8) . . ? 
C7 C18 H18 123.4 . . ? 
C17 C18 H18 123.4 . . ? 
C7' C8' C9' 112.3(12) . . ? 
C7' C8' H8' 123.8 . . ? 
C9' C8' H8' 123.8 . . ? 
C10' C9' C17' 118.7(17) . . ? 
C10' C9' C8' 128.4(13) . . ? 
C17' C9' C8' 112.7(11) . . ? 
C11' C10' C9' 118.7(14) . . ? 
C11' C10' H10' 120.6 . . ? 
C9' C10' H10' 120.6 . . ? 
C10' C11' C15' 122.3(13) . . ? 
C10' C11' S12' 129.3(9) . . ? 
C15' C11' S12' 108.4(8) . . ? 
C13' S12' C11' 92.8(6) . . ? 
C14' C13' S12' 113.3(8) . . ? 
C14' C13' H13' 123.3 . . ? 
S12' C13' H13' 123.3 . . ? 
C13' C14' C15' 111.5(8) . . ? 
C13' C14' H14' 124.3 . . ? 
C15' C14' H14' 124.3 . . ? 
C16' C15' C11' 119.8(12) . . ? 
C16' C15' C14' 127.(1) . . ? 
C11' C15' C14' 113.2(8) . . ? 
C15' C16' C17' 117.5(13) . . ? 
C15' C16' H16' 121.2 . . ? 
C17' C16' H16' 121.2 . . ? 
C16' C17' C9' 123.0(17) . . ? 
C16' C17' S18' 127.5(12) . . ? 
C9' C17' S18' 109.5(10) . . ? 
C7' S18' C17' 92.5(8) . . ? 
C8' C7' C4' 123(2) . . ? 
C8' C7' S18' 112.8(9) . . ? 
C4' C7' S18' 124(2) . . ? 
C20 C19 C1 176.5(2) . . ? 
C19 C20 Si1 175.93(17) . . ? 
C22 C21 Si1 127.3(4) . . ? 
C22 C21 H21A 105.5 . . ? 
Si1 C21 H21A 105.5 . . ? 
C22 C21 H21B 105.5 . . ? 
Si1 C21 H21B 105.5 . . ? 
H21A C21 H21B 106.0 . . ? 
C21 C22 C23 130.0(7) . . ? 
C21 C22 C24 113.7(5) . . ? 
C23 C22 C24 106.3(5) . . ? 
C21 C22 H22 100.5 . . ? 
C23 C22 H22 100.5 . . ? 
C24 C22 H22 100.5 . . ? 
C22 C23 H23A 109.5 . . ? 
C22 C23 H23B 109.5 . . ? 
H23A C23 H23B 109.5 . . ? 
C22 C23 H23C 109.5 . . ? 
H23A C23 H23C 109.5 . . ? 
H23B C23 H23C 109.5 . . ? 
C22 C24 H24A 109.5 . . ? 
C22 C24 H24B 109.5 . . ? 
H24A C24 H24B 109.5 . . ? 
C22 C24 H24C 109.5 . . ? 
H24A C24 H24C 109.5 . . ? 
H24B C24 H24C 109.5 . . ? 
C26 C25 Si1 118.5(2) . . ? 
C26 C25 H25A 107.7 . . ? 
Si1 C25 H25A 107.7 . . ? 
C26 C25 H25B 107.7 . . ? 
Si1 C25 H25B 107.7 . . ? 
H25A C25 H25B 107.1 . . ? 
C27 C26 C28 110.8(6) . . ? 
C27 C26 C25 112.8(4) . . ? 
C28 C26 C25 109.1(6) . . ? 
C27 C26 H26 108.0 . . ? 
C28 C26 H26 108.0 . . ? 
C25 C26 H26 108.0 . . ? 
C26 C27 H27A 109.5 . . ? 
C26 C27 H27B 109.5 . . ? 
H27A C27 H27B 109.5 . . ? 
C26 C27 H27C 109.5 . . ? 
H27A C27 H27C 109.5 . . ? 
H27B C27 H27C 109.5 . . ? 
C26 C28 H28A 109.5 . . ? 
C26 C28 H28B 109.5 . . ? 
H28A C28 H28B 109.5 . . ? 
C26 C28 H28C 109.5 . . ? 
H28A C28 H28C 109.5 . . ? 
H28B C28 H28C 109.5 . . ? 
C30 C29 Si1 119.3(3) . . ? 
C30 C29 H29A 107.5 . . ? 
Si1 C29 H29A 107.5 . . ? 
C30 C29 H29B 107.5 . . ? 
Si1 C29 H29B 107.5 . . ? 
H29A C29 H29B 107.0 . . ? 
C31 C30 C32 110.6(5) . . ? 
C31 C30 C29 112.4(5) . . ? 
C32 C30 C29 110.2(5) . . ? 
C31 C30 H30 107.8 . . ? 
C32 C30 H30 107.8 . . ? 
C29 C30 H30 107.8 . . ? 
C30 C31 H31A 109.5 . . ? 
C30 C31 H31B 109.5 . . ? 
H31A C31 H31B 109.5 . . ? 
C30 C31 H31C 109.5 . . ? 
H31A C31 H31C 109.5 . . ? 
H31B C31 H31C 109.5 . . ? 
C30 C32 H32A 109.5 . . ? 
C30 C32 H32B 109.5 . . ? 
H32A C32 H32B 109.5 . . ? 
C30 C32 H32C 109.5 . . ? 
H32A C32 H32C 109.5 . . ? 
H32B C32 H32C 109.5 . . ? 
C22' C21' Si1 129.8(7) . . ? 
C22' C21' H21C 104.8 . . ? 
Si1 C21' H21C 104.8 . . ? 
C22' C21' H21D 104.8 . . ? 
Si1 C21' H21D 104.8 . . ? 
H21C C21' H21D 105.8 . . ? 
C21' C22' C23' 121.2(11) . . ? 
C21' C22' C24' 120.1(10) . . ? 
C23' C22' C24' 115.5(10) . . ? 
C21' C22' H22' 96.1 . . ? 
C23' C22' H22' 96.1 . . ? 
C24' C22' H22' 96.1 . . ? 
C22' C23' H23D 109.5 . . ? 
C22' C23' H23E 109.5 . . ? 
H23D C23' H23E 109.5 . . ? 
C22' C23' H23F 109.5 . . ? 
H23D C23' H23F 109.5 . . ? 
H23E C23' H23F 109.5 . . ? 
C22' C24' H24D 109.5 . . ? 
C22' C24' H24E 109.5 . . ? 
H24D C24' H24E 109.5 . . ? 
C22' C24' H24F 109.5 . . ? 
H24D C24' H24F 109.5 . . ? 
H24E C24' H24F 109.5 . . ? 
C26' C25' Si1 118.7(6) . . ? 
C26' C25' H25C 107.6 . . ? 
Si1 C25' H25C 107.6 . . ? 
C26' C25' H25D 107.6 . . ? 
Si1 C25' H25D 107.6 . . ? 
H25C C25' H25D 107.1 . . ? 
C25' C26' C27' 113.8(9) . . ? 
C25' C26' C28' 112.7(13) . . ? 
C27' C26' C28' 110.1(13) . . ? 
C25' C26' H26' 106.6 . . ? 
C27' C26' H26' 106.6 . . ? 
C28' C26' H26' 106.6 . . ? 
C26' C27' H27D 109.5 . . ? 
C26' C27' H27E 109.5 . . ? 
H27D C27' H27E 109.5 . . ? 
C26' C27' H27F 109.5 . . ? 
H27D C27' H27F 109.5 . . ? 
H27E C27' H27F 109.5 . . ? 
C26' C28' H28D 109.5 . . ? 
C26' C28' H28E 109.5 . . ? 
H28D C28' H28E 109.5 . . ? 
C26' C28' H28F 109.5 . . ? 
H28D C28' H28F 109.5 . . ? 
H28E C28' H28F 109.5 . . ? 
C30' C29' Si1 121.4(7) . . ? 
C30' C29' H29C 107.0 . . ? 
Si1 C29' H29C 107.0 . . ? 
C30' C29' H29D 107.0 . . ? 
Si1 C29' H29D 107.0 . . ? 
H29C C29' H29D 106.7 . . ? 
C31' C30' C32' 111.4(11) . . ? 
C31' C30' C29' 112.5(10) . . ? 
C32' C30' C29' 111.7(10) . . ? 
C31' C30' H30' 106.9 . . ? 
C32' C30' H30' 106.9 . . ? 
C29' C30' H30' 106.9 . . ? 
C30' C31' H31D 109.5 . . ? 
C30' C31' H31E 109.5 . . ? 
H31D C31' H31E 109.5 . . ? 
C30' C31' H31F 109.5 . . ? 
H31D C31' H31F 109.5 . . ? 
H31E C31' H31F 109.5 . . ? 
C30' C32' H32D 109.5 . . ? 
C30' C32' H32E 109.5 . . ? 
H32D C32' H32E 109.5 . . ? 
C30' C32' H32F 109.5 . . ? 
H32D C32' H32F 109.5 . . ? 
H32E C32' H32F 109.5 . . ? 
 
_refine_diff_density_max    0.384 
_refine_diff_density_min   -0.333 
_refine_diff_density_rms    0.052 
 
_shelx_res_file 
; 
 
    x16026.res created by SHELXL-2014/7 
 
 
TITL x16026 : space group P1bar 
CELL  1.54178   9.9556  10.1493  14.9580   92.564   98.008  110.722 
ZERR    1.000   0.0002   0.0002   0.0003    0.001    0.001    0.001 
LATT  1 
SFAC C H F SI S 
UNIT 58 64 2 2 6 
TEMP -123 
SIZE 0.30 0.10 0.05 
REM FORM cut needle 
REM COLR yellow 
SADI 0.02 c9 c10 c10 c11 c15 c16 c16 c17 = 
          C9' C10' C10' C11' C15' C16' C16' C17' 
ACTA 
L.S. 10 
BOND $H 
LIST 4 
FMAP 2 
PLAN 10 
WGHT    0.073000    0.492500 
FVAR       0.42350   0.56224   0.59802   0.68477 
SI1   4    0.633944   -0.089482    0.140755    11.00000    0.03097    0.03288 = 
         0.02176    0.00126   -0.00303    0.01473 
C1    1    0.906324   -0.035028    0.413116    11.00000    0.02374    0.02412 = 
         0.02068    0.00521    0.00218    0.00841 
EXYZ C2 C2' 
EXYZ C6 C6' 
EADP C2 C2' 
EADP S3 C3' 
EADP C4 C4' 
EADP C5 S5' 
EADP F1 F1' 
EADP C6 C6' 
SAME 0.020 C6' < C2' 
RIGU C2 > C6 
RIGU C2' > C6' 
PART   1 
C2    1    0.920670    0.081966    0.472091    21.00000    0.02503    0.02176 = 
         0.02820    0.01055    0.00759    0.01535 
S3    5    0.820392    0.183900    0.438791    21.00000    0.02556    0.01880 = 
         0.02191    0.00252    0.00067    0.01547 
C4    1    0.899675    0.293644    0.538790    21.00000    0.02455    0.01687 = 
         0.02235    0.00469    0.00510    0.01244 
C5    1    0.989845    0.243610    0.591134    21.00000    0.02840    0.01769 = 
         0.02249    0.00116    0.00145    0.01354 
F1    3    1.066513    0.308595    0.673535    21.00000    0.03955    0.02722 = 
         0.02553   -0.00319   -0.00643    0.02131 
C6    1    1.012645    0.117071    0.556769    21.00000    0.02954    0.01610 = 
         0.02541    0.00197    0.00855    0.01011 
PART 2 
C2'   1    0.920670    0.081966    0.472091   -21.00000    0.02503    0.02176 = 
         0.02820    0.01055    0.00759    0.01535 
F1'   3    0.765918    0.197180    0.402287   -21.00000    0.03955    0.02722 = 
         0.02553   -0.00319   -0.00643    0.02131 
C3'   1    0.863179    0.197935    0.474887   -21.00000    0.02556    0.01880 = 
         0.02191    0.00252    0.00067    0.01547 
C4'   1    0.906839    0.295343    0.548214   -21.00000    0.02455    0.01687 = 
         0.02235    0.00469    0.00510    0.01244 
S5'   5    1.033454    0.264031    0.627375   -21.00000    0.02840    0.01769 = 
         0.02249    0.00116    0.00145    0.01354 
C6'   1    1.012645    0.117071    0.556769   -21.00000    0.02954    0.01610 = 
         0.02541    0.00197    0.00855    0.01011 
EADP C7 C7' 
EADP S8 C8' 
EADP C9 C9' 
EADP C10 C10' 
EADP C11 C11' 
EADP C12 S12' 
EADP C13 C13' 
EADP S14 C14' 
EADP C15 C15' 
EADP C16 C16' 
EADP C17 C17' 
EADP C18 S18' 
SAME 0.020 C7' < C8' 
RIGU C7 > C18 
RIGU C8' > C7' 
PART 1 
C7    1    0.864712    0.416293    0.562401    31.00000    0.02288    0.01612 = 
         0.02643    0.00359    0.00555    0.01057 
S8    5    0.948552    0.532920    0.658935    31.00000    0.02912    0.02027 = 
         0.02507   -0.00001    0.00134    0.01498 
C9    1    0.847518    0.638852    0.629782    31.00000    0.02309    0.01179 = 
         0.03172    0.00293    0.00881    0.00791 
C10   1    0.852986    0.760352    0.678911    31.00000    0.03328    0.01654 = 
         0.03135    0.00082    0.00896    0.01333 
AFIX  43 
H10   2    0.916967    0.796112    0.735041    31.00000   -1.20000 
AFIX   0 
C11   1    0.760591    0.828209    0.642579    31.00000    0.02857    0.01755 = 
         0.03861    0.00401    0.01275    0.01354 
C12   1    0.750911    0.957191    0.677527    31.00000    0.05409    0.02512 = 
         0.04807    0.00023    0.02203    0.02243 
AFIX  43 
H12   2    0.811382    1.013989    0.730465    31.00000   -1.20000 
AFIX   0 
C13   1    0.644811    0.989162    0.626039    31.00000    0.04140    0.02181 = 
         0.06376    0.00174    0.01711    0.02078 
AFIX  43 
H13   2    0.616462    1.065631    0.642844    31.00000   -1.20000 
AFIX   0 
S14   5    0.567890    0.879101    0.528761    31.00000    0.03697    0.02522 = 
         0.06109    0.00956    0.01395    0.02429 
C15   1    0.666148    0.771466    0.558353    31.00000    0.02657    0.01396 = 
         0.03726    0.00197    0.01052    0.01200 
C16   1    0.659097    0.648318    0.509929    31.00000    0.02916    0.01626 = 
         0.03497    0.00244    0.00565    0.01639 
AFIX  43 
H16   2    0.595404    0.612494    0.453703    31.00000   -1.20000 
AFIX   0 
C17   1    0.749776    0.579252    0.547462    31.00000    0.02516    0.01469 = 
         0.03152    0.00578    0.00702    0.01307 
C18   1    0.763400    0.454379    0.510376    31.00000    0.02948    0.02113 = 
         0.03392   -0.00119    0.00098    0.01657 
AFIX  43 
H18   2    0.707473    0.402486    0.454815    31.00000   -1.20000 
AFIX   0 
PART 2 
C8'   1    0.906109    0.514462    0.628802   -31.00000    0.02912    0.02027 = 
         0.02507   -0.00001    0.00134    0.01498 
AFIX  43 
H8'   2    0.979327    0.517521    0.677797   -31.00000   -1.20000 
AFIX   0 
C9'   1    0.834844    0.615234    0.622734   -31.00000    0.02309    0.01179 = 
         0.03172    0.00293    0.00881    0.00791 
C10'  1    0.858486    0.732809    0.682863   -31.00000    0.03328    0.01654 = 
         0.03135    0.00082    0.00896    0.01333 
AFIX  43 
H10'  2    0.926444    0.752948    0.737591   -31.00000   -1.20000 
AFIX   0 
C11'  1    0.781552    0.819433    0.661569   -31.00000    0.02857    0.01755 = 
         0.03861    0.00401    0.01275    0.01354 
S12'  5    0.784787    0.970838    0.723524   -31.00000    0.05409    0.02512 = 
         0.04807    0.00023    0.02203    0.02243 
C13'  1    0.671406    1.003914    0.639066   -31.00000    0.04140    0.02181 = 
         0.06376    0.00174    0.01711    0.02078 
AFIX  43 
H13'  2    0.650950    1.088521    0.639675   -31.00000   -1.20000 
AFIX   0 
C14'  1    0.613114    0.897603    0.570794   -31.00000    0.03697    0.02522 = 
         0.06109    0.00956    0.01395    0.02429 
AFIX  43 
H14'  2    0.537968    0.892872    0.522621   -31.00000   -1.20000 
AFIX   0 
C15'  1    0.679259    0.792948    0.580435   -31.00000    0.02657    0.01396 = 
         0.03726    0.00197    0.01052    0.01200 
C16'  1    0.656096    0.677474    0.518920   -31.00000    0.02916    0.01626 = 
         0.03497    0.00244    0.00565    0.01639 
AFIX  43 
H16'  2    0.587916    0.657454    0.464302   -31.00000   -1.20000 
AFIX   0 
C17'  1    0.736310    0.592289    0.540192   -31.00000    0.02516    0.01469 = 
         0.03152    0.00578    0.00702    0.01307 
S18'  5    0.728564    0.440612    0.476752   -31.00000    0.02948    0.02113 = 
         0.03392   -0.00119    0.00098    0.01657 
C7'   1    0.856666    0.413748    0.556144   -31.00000    0.02288    0.01612 = 
         0.02643    0.00359    0.00555    0.01057 
PART 0 
C19   1    0.817483   -0.062518    0.325901    11.00000    0.03190    0.03118 = 
         0.02441    0.00480    0.00133    0.01016 
C20   1    0.745278   -0.078089    0.252120    11.00000    0.03422    0.02842 = 
         0.02885    0.00283   -0.00053    0.01567 
SAME 0.02 C21' > C32' 
SIMU 0.010 C21 C21' 
SIMU 0.010 C22 C22' 
SIMU 0.010 C23 C23' 
SIMU 0.010 C24 C24' 
SIMU 0.010 C25 C25' 
SIMU 0.010 C26 C26' 
SIMU 0.010 C27 C27' 
SIMU 0.010 C28 C28' 
SIMU 0.010 C29 C29' 
SIMU 0.010 C30 C30' 
SIMU 0.010 C31 C31' 
SIMU 0.010 C32 C32' 
RIGU C21 > C32 
RIGU C21' > C32' 
PART 1 
C21   1    0.663459   -0.217590    0.056568    41.00000    0.04206    0.04704 = 
         0.03040   -0.00290    0.00103    0.01881 
AFIX  23 
H21A  2    0.641775   -0.307445    0.085000    41.00000   -1.20000 
H21B  2    0.584911   -0.235724    0.003872    41.00000   -1.20000 
AFIX   0 
C22   1    0.785214   -0.200293    0.020999    41.00000    0.08948    0.06660 = 
         0.05761    0.02018    0.03641    0.05153 
AFIX  13 
H22   2    0.803787   -0.105231   -0.001627    41.00000   -1.20000 
AFIX   0 
C23   1    0.805660   -0.275723   -0.055205    41.00000    0.08706    0.12784 = 
         0.07612   -0.02507    0.02280    0.05850 
AFIX 137 
H23A  2    0.804907   -0.368536   -0.039198    41.00000   -1.50000 
H23B  2    0.899330   -0.222059   -0.073046    41.00000   -1.50000 
H23C  2    0.726828   -0.288539   -0.105870    41.00000   -1.50000 
AFIX   0 
C24   1    0.931642   -0.164970    0.097491    41.00000    0.05619    0.16257 = 
         0.06320    0.01482    0.01908    0.05507 
AFIX 137 
H24A  2    0.941875   -0.084290    0.139935    41.00000   -1.50000 
H24B  2    1.017426   -0.141707    0.067470    41.00000   -1.50000 
H24C  2    0.923094   -0.247812    0.130758    41.00000   -1.50000 
AFIX   0 
C25   1    0.433625   -0.163738    0.151955    41.00000    0.03135    0.03969 = 
         0.03161    0.00202    0.00229    0.01676 
AFIX  23 
H25A  2    0.421927   -0.114174    0.207182    41.00000   -1.20000 
H25B  2    0.378455   -0.138477    0.099524    41.00000   -1.20000 
AFIX   0 
C26   1    0.360648   -0.324466    0.157301    41.00000    0.03647    0.03960 = 
         0.04540   -0.00315    0.00884    0.00755 
AFIX  13 
H26   2    0.378718   -0.375111    0.104040    41.00000   -1.20000 
AFIX   0 
C27   1    0.421623   -0.373194    0.243044    41.00000    0.05657    0.04559 = 
         0.06424    0.01164    0.01473    0.01296 
AFIX 137 
H27A  2    0.402537   -0.327009    0.296225    41.00000   -1.50000 
H27B  2    0.526890   -0.347858    0.246406    41.00000   -1.50000 
H27C  2    0.374755   -0.476133    0.241783    41.00000   -1.50000 
AFIX   0 
C28   1    0.195502   -0.363206    0.149767    41.00000    0.04235    0.07889 = 
         0.08088    0.00428    0.01965    0.01997 
AFIX 137 
H28A  2    0.148832   -0.464817    0.154382    41.00000   -1.50000 
H28B  2    0.156825   -0.340041    0.091164    41.00000   -1.50000 
H28C  2    0.175438   -0.309488    0.198946    41.00000   -1.50000 
AFIX   0 
C29   1    0.689767    0.090015    0.103309    41.00000    0.03901    0.04062 = 
         0.02844    0.00706   -0.00060    0.01639 
AFIX  23 
H29A  2    0.776722    0.104696    0.074239    41.00000   -1.20000 
H29B  2    0.610942    0.091640    0.055569    41.00000   -1.20000 
AFIX   0 
C30   1    0.725610    0.218269    0.173551    41.00000    0.04011    0.03361 = 
         0.03266    0.00414   -0.00507    0.01522 
AFIX  13 
H30   2    0.802624    0.215108    0.223131    41.00000   -1.20000 
AFIX   0 
C31   1    0.595520    0.215421    0.215791    41.00000    0.06363    0.04683 = 
         0.06116   -0.00242    0.01099    0.02482 
AFIX 137 
H31A  2    0.515218    0.210013    0.167942    41.00000   -1.50000 
H31B  2    0.621777    0.301817    0.256919    41.00000   -1.50000 
H31C  2    0.565145    0.132586    0.249921    41.00000   -1.50000 
AFIX   0 
C32   1    0.787327    0.355913    0.130279    41.00000    0.06596    0.04176 = 
         0.05244    0.00879   -0.00349    0.00943 
AFIX 137 
H32A  2    0.713228    0.362397    0.081990    41.00000   -1.50000 
H32B  2    0.873025    0.357047    0.104596    41.00000   -1.50000 
H32C  2    0.815331    0.436621    0.176483    41.00000   -1.50000 
AFIX   0 
PART 2 
C21'  1    0.745642   -0.079347    0.045632   -41.00000    0.04889    0.04789 = 
         0.03273   -0.00217    0.00351    0.02571 
AFIX  23 
H21C  2    0.678820   -0.081235   -0.010424   -41.00000   -1.20000 
H21D  2    0.820333    0.017501    0.055790   -41.00000   -1.20000 
AFIX   0 
C22'  1    0.818272   -0.164613    0.021983   -41.00000    0.03889    0.03452 = 
         0.04960    0.00894    0.02125    0.00887 
AFIX  13 
H22'  2    0.918230   -0.090584    0.037713   -41.00000   -1.20000 
AFIX   0 
C23'  1    0.826955   -0.196396   -0.073277   -41.00000    0.08319    0.07873 = 
         0.05970    0.00106    0.02661    0.04502 
AFIX  33 
H23D  2    0.882719   -0.258452   -0.076833   -41.00000   -1.50000 
H23E  2    0.728500   -0.243887   -0.107640   -41.00000   -1.50000 
H23F  2    0.875441   -0.108067   -0.098953   -41.00000   -1.50000 
AFIX   0 
C24'  1    0.846207   -0.272191    0.089100   -41.00000    0.12991    0.08053 = 
         0.06573    0.00659    0.01764    0.07336 
AFIX  33 
H24D  2    0.899033   -0.324398    0.061902   -41.00000   -1.50000 
H24E  2    0.904147   -0.219732    0.146644   -41.00000   -1.50000 
H24F  2    0.752710   -0.338954    0.100252   -41.00000   -1.50000 
AFIX   0 
C25'  1    0.471216   -0.247105    0.120231   -41.00000    0.04250    0.03619 = 
         0.03244    0.00149   -0.00478    0.00920 
AFIX  23 
H25C  2    0.414861   -0.243784    0.060931   -41.00000   -1.20000 
H25D  2    0.501627   -0.329514    0.113969   -41.00000   -1.20000 
AFIX   0 
C26'  1    0.370304   -0.275085    0.188043   -41.00000    0.05516    0.04792 = 
         0.05589    0.00488    0.01239    0.00858 
AFIX  13 
H26'  2    0.368202   -0.181328    0.209788   -41.00000   -1.20000 
AFIX   0 
C27'  1    0.420452   -0.336250    0.271092   -41.00000    0.04810    0.06536 = 
         0.04964    0.02676    0.00690   -0.00006 
AFIX  33 
H27D  2    0.349495   -0.351926    0.312557   -41.00000   -1.50000 
H27E  2    0.428839   -0.426497    0.252592   -41.00000   -1.50000 
H27F  2    0.515474   -0.269907    0.301871   -41.00000   -1.50000 
AFIX   0 
C28'  1    0.213669   -0.367731    0.146486   -41.00000    0.05914    0.10519 = 
         0.07377    0.03287    0.00379   -0.00140 
AFIX  33 
H28D  2    0.152023   -0.382916    0.193602   -41.00000   -1.50000 
H28E  2    0.177308   -0.320396    0.098411   -41.00000   -1.50000 
H28F  2    0.211376   -0.459207    0.120833   -41.00000   -1.50000 
AFIX   0 
C29'  1    0.580576    0.074835    0.148850   -41.00000    0.03580    0.03903 = 
         0.03352    0.00280   -0.00302    0.01681 
AFIX  23 
H29C  2    0.535163    0.082977    0.087147   -41.00000   -1.20000 
H29D  2    0.503415    0.054227    0.187073   -41.00000   -1.20000 
AFIX   0 
C30'  1    0.693941    0.221840    0.185189   -41.00000    0.03689    0.03359 = 
         0.03165    0.00178   -0.00405    0.01541 
AFIX  13 
H30'  2    0.758786    0.208368    0.238493   -41.00000   -1.20000 
AFIX   0 
C31'  1    0.626069    0.321393    0.218950   -41.00000    0.06832    0.03998 = 
         0.06423   -0.00624    0.00632    0.02776 
AFIX  33 
H31D  2    0.564926    0.277320    0.263444   -41.00000   -1.50000 
H31E  2    0.702925    0.409639    0.247575   -41.00000   -1.50000 
H31F  2    0.566160    0.342043    0.167814   -41.00000   -1.50000 
AFIX   0 
C32'  1    0.790345    0.286001    0.115594   -41.00000    0.05861    0.03831 = 
         0.05710   -0.00203    0.01541    0.01066 
AFIX  33 
H32D  2    0.832872    0.218886    0.094939   -41.00000   -1.50000 
H32E  2    0.731675    0.306375    0.063680   -41.00000   -1.50000 
H32F  2    0.868440    0.373972    0.143440   -41.00000   -1.50000 
PART   0 
 
AFIX   0 
HKLF 4 
 
REM  x16026 : space group P1bar 
REM R1 =  0.0438 for    4321 Fo > 4sig(Fo)  and  0.0507 for all    4997 data 
REM    472 parameters refined using    554 restraints 
 
END 
 
WGHT      0.0730      0.4925 
 
REM Highest difference peak  0.384,  deepest hole -0.333,  1-sigma level  0.052 
Q1    1   0.5542 -0.0711  0.1625  11.00000  0.05    0.38 
Q2    1   0.9137  0.0236  0.4409  11.00000  0.05    0.29 
Q3    1   0.7109 -0.2755  0.0174  11.00000  0.05    0.28 
Q4    1   0.8926  0.3577  0.5492  11.00000  0.05    0.28 
Q5    1   0.6838 -0.1036  0.1982  11.00000  0.05    0.27 
Q6    1   0.7024  0.7779  0.6194  11.00000  0.05    0.27 
Q7    1   0.8046  0.4232  0.5177  11.00000  0.05    0.27 
Q8    1   0.6549 -0.1581  0.0930  11.00000  0.05    0.27 
Q9    1   0.9402  0.0809  0.5212  11.00000  0.05    0.26 
Q10   1   0.8573  0.2595  0.4900  11.00000  0.05    0.25 
; 
_shelx_res_checksum      69 
 
_shelx_hkl_file
;
  -1   0   0 272.613 16.9734   3
  -1   0   0 259.035 16.3221   4
  -1   0   0 293.947 14.2842   1
  -1   0   0 267.594 15.6737   2
  -1   0   0 283.946 14.2769   1
   1   0   0 291.162 14.2806   1
   1   0   0 274.109 16.9692   3
   1   0   0 282.059 16.9026   6
   1   0   0 292.132 14.2848   1
   1   0   0 272.540 15.6771   2
  -2   0   0 894.189 50.5253   2
  -2   0   0 866.787 45.9977   1
  -2   0   0 931.351 46.0196   1
  -2   0   0 892.445 54.7467   3
  -2   0   0 898.396 52.5989   4
   2   0   0 953.518 46.0311   1
   2   0   0 932.428 54.5544   6
   2   0   0 888.764 50.5158   2
  -3   0   0 3.35605 0.71072   1
  -3   0   0 4.63423 0.91195   2
  -3   0   0 4.31779 0.93178   3
  -3   0   0 3.46012 0.63577   1
  -3   0   0 4.24665 0.64720   4
   3   0   0 4.88439 0.71059   1
   3   0   0 3.79418 0.73400   1
   3   0   0 3.49547 0.80967   2
   3   0   0 3.99600 0.78397   3
   3   0   0 4.43956 0.72478   6
  -4   0   0 46.7768 3.17446   1
  -4   0   0 50.6764 3.75056   3
  -4   0   0 47.6219 3.20606   1
  -4   0   0 39.4895 3.43072   2
   4   0   0 46.3102 3.48175   2
   4   0   0 47.9341 3.65449   3
   4   0   0 45.3597 3.14163   1
   4   0   0 44.1353 3.13341   1
   5   0   0 193.542 12.6342   3
   5   0   0 188.237 11.7898   2
   7   0   0 29.4880 1.85455   8
   8   0   0 3.21999 0.57157   8
  -9   0   0 1.72914 0.63038   8
   9   0   0 1.21888 0.43307   8
 -10   0   0 32.1282 1.96330   8
 -11   0   0 9.93589 0.75105   8
  11   0   0 9.54515 0.65816   8
  11   0   0 8.60805 0.93772  17
  11  -1   0 2.67596 0.60334  17
  11  -1   0 2.01560 0.41101   9
  11  -1   0 2.43430 0.31412   8
 -11   1   0 1.51314 0.52519   8
  10  -1   0 35.2659 2.02296   8
  10  -1   0 34.8315 2.12496   9
   9  -1   0 118.113 6.09235   8
   8  -1   0 -0.7720 1.56027   7
   8  -1   0 -0.3788 0.44034   8
   7  -1   0 0.63134 0.39899   8
   6  -1   0 64.3685 4.89415   2
   6  -1   0 57.3918 4.90518   3
   5  -1   0 88.3010 5.62166   6
   5  -1   0 79.4166 5.40940   2
   5  -1   0 84.4384 5.72333   3
   5  -1   0 68.3485 4.84578   1
  -5   1   0 66.5976 4.80904   1
   4  -1   0 52.4909 3.37094   1
   4  -1   0 56.9425 3.94287   3
   4  -1   0 56.6215 3.77451   2
   4  -1   0 55.5318 3.87071   6
   4  -1   0 53.4865 3.38957   1
  -4   1   0 50.4246 3.96135   3
  -4   1   0 43.6828 3.67001   2
  -4   1   0 48.3114 3.36166   1
  -4   1   0 53.9985 3.43596   1
   3  -1   0 79.2142 5.04543   3
   3  -1   0 73.0118 4.27168   1
   3  -1   0 78.7302 5.05507   6
   3  -1   0 77.5298 4.29918   1
   3  -1   0 76.7711 4.72935   2
  -3   1   0 76.7561 4.31647   1
  -3   1   0 71.7390 5.06349   3
  -3   1   0 67.8923 4.71272   2
  -3   1   0 73.7470 4.29453   1
   2  -1   0 2.96615 0.46675   1
   2  -1   0 2.48658 0.43950   1
   2  -1   0 2.64028 0.52106   2
   2  -1   0 3.34684 0.61454   6
   2  -1   0 3.48962 0.55909   3
  -2   1   0 3.02445 0.57207   3
  -2   1   0 2.47492 0.51592   2
  -2   1   0 2.34043 0.45171   1
  -2   1   0 2.50906 0.45946   1
   1  -1   0 41.1198 2.55386   5
   1  -1   0 37.4388 2.04455   1
   1  -1   0 36.1039 2.53953   6
   1  -1   0 38.0445 2.42153   3
   1  -1   0 36.7012 2.41098   3
   1  -1   0 38.1362 2.48958   7
   1  -1   0 39.2901 2.04694   1
   1  -1   0 36.8561 2.24824   2
   1  -1   0 37.2077 2.24810   2
  -1   1   0 38.1028 2.04840   1
  -1   1   0 40.0248 2.05136   1
   0  -1   0 632.402 30.8557   1
   0  -1   0 602.222 36.6201   3
   0  -1   0 571.250 36.7061   5
   0  -1   0 578.490 35.1834   4
   0  -1   0 594.099 33.7152   2
   0  -1   0 589.955 35.9327   7
   0  -1   0 586.567 33.5634   2
   0  -1   0 589.359 36.5106   3
   0  -1   0 642.685 30.8491   1
   0   1   0 659.459 30.8351   1
   0   1   0 622.994 30.8069   1
  -1  -1   0 453.503 26.6123   3
  -1  -1   0 455.280 22.3779   1
  -1  -1   0 434.571 24.5639   2
  -1  -1   0 442.964 22.3695   1
  -1  -1   0 423.845 25.6795   4
   1   1   0 459.641 22.3849   1
   1   1   0 433.538 26.6106   3
   1   1   0 394.914 24.5516   2
   1   1   0 457.969 22.3885   1
  -2  -1   0 34.5380 2.59032   3
  -2  -1   0 34.8312 2.45873   2
  -2  -1   0 35.0796 2.21721   1
  -2  -1   0 35.5417 2.22165   1
  -2  -1   0 35.6233 2.48551   4
   2   1   0 31.7601 2.19586   1
   2   1   0 32.0594 2.55157   3
   2   1   0 31.5273 2.42837   2
   2   1   0 36.4735 2.23952   1
  -3  -1   0 0.55943 0.56551   1
  -3  -1   0 -1.1563 0.57484   4
  -3  -1   0 0.74234 0.52855   1
  -3  -1   0 0.17564 0.66887   2
  -3  -1   0 0.53770 0.71023   3
   3   1   0 0.16865 0.58642   3
   3   1   0 0.76861 0.56445   1
   3   1   0 0.64036 0.65066   2
   3   1   0 0.18845 0.54323   1
  -4  -1   0 228.628 12.7666   4
  -4  -1   0 189.898 11.3574   1
  -4  -1   0 199.104 11.4077   1
  -4  -1   0 217.151 12.5693   2
  -4  -1   0 224.884 13.5286   3
   4   1   0 194.649 11.4052   1
   4   1   0 201.335 13.6567   3
   4   1   0 201.049 12.5353   2
  -5  -1   0 45.4626 4.01875   2
  -5  -1   0 49.1959 4.14525   3
  -6  -1   0 16.8780 1.26445   8
  -7  -1   0 51.4158 2.95176   8
  -8  -1   0 0.19378 0.38537   8
  -9  -1   0 1.47693 0.46209   8
   9   1   0 1.07480 0.53549   8
 -10  -1   0 -0.2177 0.28305   8
  10   1   0 -0.1096 0.44311   8
  11  -2   0 10.0108 1.08001  17
  11  -2   0 8.99441 0.82983   9
  10  -2   0 0.54382 0.40475   8
  10  -2   0 0.03870 0.53266   9
   9  -2   0 1.20650 0.39209   8
   9  -2   0 0.55016 0.42261   9
   8  -2   0 0.75693 0.41836   8
   8  -2   0 -0.3813 1.80803   2
   8  -2   0 -0.0096 1.50971   3
   8  -2   0 -0.2639 1.56857   7
   8  -2   0 0.50232 0.47074   9
   7  -2   0 123.738 9.09760   3
   7  -2   0 124.263 8.74219   2
   7  -2   0 152.914 9.68650   7
   7  -2   0 124.146 6.32198   8
   7  -2   0 115.664 6.15755   9
   6  -2   0 30.8996 2.99903   6
   6  -2   0 30.1070 3.00348   3
   6  -2   0 31.6143 2.92763   2
   5  -2   0 26.5887 2.52261   6
   5  -2   0 29.2034 2.61238   3
   5  -2   0 29.1686 2.56344   2
   4  -2   0 25.9633 2.38081   6
   4  -2   0 27.1894 2.20623   2
   4  -2   0 25.4257 1.96100   1
   4  -2   0 24.5449 1.91100   1
   4  -2   0 28.3124 2.27419   3
  -4   2   0 26.4640 2.03809   1
  -4   2   0 26.5483 2.02419   1
   3  -2   0 31.7047 2.20786   2
   3  -2   0 30.9471 2.49274   6
   3  -2   0 30.6125 1.97762   1
   3  -2   0 30.2415 2.26790   3
   3  -2   0 29.8650 1.95702   1
   3  -2   0 24.0028 2.10497   2
   3  -2   0 34.7845 2.59152   7
   3  -2   0 32.1680 2.33451   3
  -3   2   0 31.6940 2.01527   1
  -3   2   0 31.3970 2.01333   1
   2  -2   0 223.007 13.9416   3
   2  -2   0 224.268 11.7270   1
   2  -2   0 239.878 11.7482   1
   2  -2   0 227.332 13.9618   7
   2  -2   0 240.159 12.8993   2
   2  -2   0 235.882 13.9374   3
   2  -2   0 224.917 14.1677   6
   2  -2   0 205.008 12.8623   2
   2  -2   0 210.333 13.3634   4
  -2   2   0 246.639 11.7671   1
  -2   2   0 240.720 11.7579   1
   1  -2   0 554.675 33.8669   6
   1  -2   0 567.543 33.4094   7
   1  -2   0 557.476 34.1089   5
   1  -2   0 562.209 32.6324   4
   0  -2   0 296.141 18.5703   5
   0  -2   0 285.175 16.7824   2
   0  -2   0 315.196 15.3050   1
   0  -2   0 285.729 17.7634   4
   0  -2   0 312.127 18.1501   7
   0  -2   0 296.978 18.1860   3
   0  -2   0 299.246 15.2879   1
   0  -2   0 275.033 18.2178   6
   0  -2   0 311.615 16.8037   2
   0  -2   0 289.661 18.1896   3
   0   2   0 316.406 15.3057   1
   0   2   0 330.641 15.3207   1
  -1  -2   0 559.636 35.1410   3
  -1  -2   0 590.273 29.5736   1
  -1  -2   0 559.993 29.5441   1
  -1  -2   0 599.198 32.4709   2
  -1  -2   0 607.800 35.1701   3
  -1  -2   0 518.802 32.4282   2
  -1  -2   0 554.810 34.0240   4
  -1  -2   0 597.734 35.5875   5
   1   2   0 609.223 29.5896   1
   1   2   0 612.684 29.6025   1
  -2  -2   0 52.6173 3.64955   3
  -2  -2   0 51.2020 3.43590   2
  -2  -2   0 49.9496 3.59486   4
  -2  -2   0 50.7308 3.08485   1
  -2  -2   0 47.2836 3.08345   1
   2   2   0 49.3258 3.12191   1
   2   2   0 49.3658 3.64563   3
   2   2   0 51.5377 3.14121   1
  -3  -2   0 15.4346 1.69875   4
  -3  -2   0 12.7228 1.45940   1
  -3  -2   0 14.8977 1.74340   3
  -3  -2   0 13.0424 1.46117   1
  -3  -2   0 15.6841 1.71318   2
   3   2   0 11.4469 1.49090   1
   3   2   0 15.7092 1.57233   1
  -4  -2   0 97.3623 6.48767   2
  -4  -2   0 92.4287 6.81902   3
  -4  -2   0 94.8008 6.45305   4
  -5  -2   0 11.6099 2.06857   2
  -5  -2   0 10.2283 0.90916   8
  -5  -2   0 12.0178 2.16819   3
  -6  -2   0 116.045 5.95540   8
  -7  -2   0 4.66814 2.18881   5
  -7  -2   0 6.22633 0.76966   8
  -8  -2   0 22.4766 1.60311   8
  -9  -2   0 20.6444 1.41808   8
 -10  -2   0 3.86205 0.32889   8
 -10  -2   0 3.20620 0.65066  13
  10   2   0 2.96214 0.46875   8
  11  -3   0 -0.7015 0.42576   9
  11  -3   0 0.47035 0.70163  17
  10  -3   0 7.93432 1.05719  17
  10  -3   0 6.46847 0.74685   9
  10  -3   0 5.81717 0.55196   8
   9  -3   0 31.2611 1.84690   8
   9  -3   0 34.6811 2.02460   9
   9  -3   0 29.6128 1.93375  10
   8  -3   0 2.56042 0.56861  10
   8  -3   0 1.94104 1.91095   7
   8  -3   0 3.58563 0.60454   9
   8  -3   0 0.72314 1.64299   2
   8  -3   0 0.89286 1.41031   3
   8  -3   0 2.80427 0.48372   8
   7  -3   0 117.116 8.43319  16
   7  -3   0 136.832 9.45688   3
   7  -3   0 140.926 9.54294   6
   7  -3   0 128.977 6.55082  10
   7  -3   0 136.892 6.52347   9
   7  -3   0 144.312 9.14279   2
   7  -3   0 149.034 10.0656   7
   7  -3   0 130.157 6.64486   8
   6  -3   0 124.626 8.09236   2
   6  -3   0 109.895 6.12170   8
   6  -3   0 140.230 9.17984   7
   6  -3   0 126.110 8.51904   3
   6  -3   0 131.016 8.73870   6
   5  -3   0 0.88816 0.60860   3
   5  -3   0 -0.1070 0.63632   2
   5  -3   0 0.16415 0.53154   6
   5  -3   0 1.01402 0.93563   7
   4  -3   0 373.207 23.5517   3
   4  -3   0 411.019 21.8012   2
   4  -3   0 353.832 19.7716   1
   4  -3   0 397.568 23.8276   6
   4  -3   0 371.776 19.8192   1
   4  -3   0 401.554 23.5017   3
   4  -3   0 407.359 23.6472   7
   4  -3   0 337.409 21.7115   2
  -4   3   0 388.116 19.8884   1
  -4   3   0 382.757 19.8559   1
   3  -3   0 4.31954 0.89142   7
   3  -3   0 3.89293 0.83730   6
   3  -3   0 3.49318 0.58567   2
   3  -3   0 4.10347 0.61456   2
   3  -3   0 4.22768 0.60016   3
   3  -3   0 3.65284 0.46761   4
   3  -3   0 3.86710 0.50454   1
   3  -3   0 3.73638 0.63640   3
   3  -3   0 3.79867 0.51690   1
  -3   3   0 4.36284 0.54824   1
  -3   3   0 4.06420 0.54688   1
   2  -3   0 238.899 14.9610   4
   2  -3   0 258.717 12.8248   1
   2  -3   0 242.032 15.5133   7
   2  -3   0 236.812 15.2371   3
   2  -3   0 260.435 14.0771   2
   2  -3   0 247.370 12.8161   1
   2  -3   0 261.906 15.2537   3
   2  -3   0 246.886 15.7247   6
   2  -3   0 257.299 15.7901   5
   2  -3   0 256.006 14.0799   2
  -2   3   0 264.979 12.8298   1
  -2   3   0 260.411 12.8250   1
   1  -3   0 59.3157 4.09841   7
   1  -3   0 61.9270 4.00587   4
   1  -3   0 58.8711 4.18952   5
   1  -3   0 60.7354 4.09527   6
   0  -3   0 10.5093 1.05675   6
   0  -3   0 12.1237 1.44437   4
   0  -3   0 13.2860 1.57900   5
   0  -3   0 11.9111 0.93729   2
   0  -3   0 11.9405 0.97506   3
   0  -3   0 12.6661 0.96786   2
   0  -3   0 12.6438 0.97957   3
   0  -3   0 12.1325 0.83471   1
   0  -3   0 11.4854 0.83639   1
   0   3   0 13.3652 0.88117   1
   0   3   0 11.7996 0.84692   1
  -1  -3   0 89.3642 5.98113   2
  -1  -3   0 108.789 6.49087   3
  -1  -3   0 103.796 6.95024   5
  -1  -3   0 99.4502 5.47707   1
  -1  -3   0 98.1664 6.53658   4
  -1  -3   0 92.6943 6.42938   3
  -1  -3   0 102.879 5.49765   1
  -1  -3   0 106.531 6.05683   2
   1   3   0 102.738 5.51774   1
   1   3   0 100.535 5.51775   1
  -2  -3   0 31.8550 2.51778   3
  -2  -3   0 32.7537 2.89956   5
  -2  -3   0 33.6299 2.47237   2
  -2  -3   0 27.9040 2.11710   1
  -2  -3   0 31.4686 2.58302   4
  -2  -3   0 28.2304 2.16256   1
   2   3   0 32.8129 2.27558   1
   2   3   0 23.3679 2.11527   1
  -3  -3   0 3.61539 1.03689   3
  -3  -3   0 2.72674 0.95841   2
  -3  -3   0 4.10747 1.34863   5
  -3  -3   0 2.55681 1.06273   4
  -4  -3   0 4.11196 0.50381   8
  -4  -3   0 5.96957 1.47527   3
  -4  -3   0 4.50696 1.34309   4
  -4  -3   0 3.19483 1.22920   2
  -4  -3   0 6.28200 1.75654   5
  -5  -3   0 13.0696 2.32947   2
  -5  -3   0 11.8735 1.04092   9
  -5  -3   0 11.4656 1.07832  10
  -5  -3   0 12.1506 0.97285   8
  -5  -3   0 19.5596 3.20366   5
  -5  -3   0 8.49931 2.07754   3
  -6  -3   0 15.8988 2.76215   2
  -6  -3   0 6.82151 2.09482   3
  -6  -3   0 13.3798 3.03931   5
  -6  -3   0 15.2542 1.13646   8
  -6  -3   0 14.5993 1.12169   9
  -7  -3   0 0.40735 0.40240   9
  -7  -3   0 0.17535 0.37682   8
  -8  -3   0 15.7100 1.15596   8
  -8  -3   0 16.3678 1.37007   9
  -9  -3   0 0.94393 0.58231  13
  -9  -3   0 0.08547 0.20808   8
  -9  -3   0 1.06843 0.54497   9
  11  -4   0 15.2679 1.41679  17
  11  -4   0 14.0166 1.10553  10
  11  -4   0 14.5144 0.99814   9
  10  -4   0 10.6789 0.94310   9
  10  -4   0 9.36878 1.32664  17
  10  -4   0 8.97152 0.99812  10
   9  -4   0 16.6484 1.29736   9
   9  -4   0 16.9220 1.23716  10
   9  -4   0 17.8388 1.95070  17
   9  -4   0 16.1852 0.92641   8
   8  -4   0 14.6299 0.92338   8
   8  -4   0 16.2802 1.18832  10
   8  -4   0 15.5861 1.14139   9
   8  -4   0 12.5288 1.51258  16
   8  -4   0 13.5155 3.13317   7
   8  -4   0 16.8577 2.61617   2
   8  -4   0 15.7870 1.78355  17
   8  -4   0 9.75800 2.04479   3
   7  -4   0 53.3989 3.48204  17
   7  -4   0 45.1368 4.08330   2
   7  -4   0 58.4999 5.17084   7
   7  -4   0 44.3785 3.33330  16
   7  -4   0 49.6031 2.57707  10
   7  -4   0 45.2561 2.50665   9
   7  -4   0 45.4926 2.47296   8
   7  -4   0 47.2766 4.45108   6
   7  -4   0 48.1237 4.10324   3
   6  -4   0 11.9953 0.81598   9
   6  -4   0 13.3783 2.46237   7
   6  -4   0 13.0212 1.81334   2
   6  -4   0 14.0240 2.19729   6
   6  -4   0 11.1290 0.74847   8
   6  -4   0 13.8598 1.78012   3
   6  -4   0 11.7157 1.35837  17
   6  -4   0 11.9091 1.24149  16
   6  -4   0 11.1105 0.84873  10
   5  -4   0 191.876 12.1280   3
   5  -4   0 189.505 12.7812   7
   5  -4   0 195.951 11.3573   2
   5  -4   0 185.483 12.6402   6
   4  -4   0 22.3297 1.70394   1
   4  -4   0 25.5174 2.01230   3
   4  -4   0 27.8727 2.01026   3
   4  -4   0 29.9934 2.68829   6
   4  -4   0 22.8067 1.91259   2
   4  -4   0 30.4000 2.78360   7
   4  -4   0 29.2315 1.99415   2
  -4   4   0 24.0726 1.76863   1
   3  -4   0 10.1586 0.74937   2
   3  -4   0 10.4810 0.75321   3
   3  -4   0 10.3454 1.48843   6
   3  -4   0 11.5494 1.60896   7
   3  -4   0 11.2818 0.78100   3
   3  -4   0 9.42804 0.65723   1
   3  -4   0 10.7668 0.74477   2
   3  -4   0 8.62080 1.03433   4
   3  -4   0 8.77508 0.65038   1
  -3   4   0 9.53416 0.65589   1
  -3   4   0 9.20777 0.65111   1
   2  -4   0 1.10964 0.70519   7
   2  -4   0 0.37953 0.63059   5
   2  -4   0 1.22757 0.69149   6
   2  -4   0 1.56802 0.67491   4
   1  -4   0 1306.44 74.6807   4
   1  -4   0 1278.73 76.2293   7
   1  -4   0 1283.15 77.9813   5
   1  -4   0 1254.36 77.2041   6
   0  -4   0 10.9422 1.51996   5
   0  -4   0 5.72482 0.62748   2
   0  -4   0 5.46521 0.60926   3
   0  -4   0 5.16158 0.64971   3
   0  -4   0 5.36427 0.60592   2
   0  -4   0 6.71721 1.20451   4
   0  -4   0 5.08302 0.51703   1
   0  -4   0 4.14840 0.71144   6
   0  -4   0 5.59015 0.54974   1
   0   4   0 5.83522 0.58046   1
   0   4   0 4.73938 0.54050   1
  -1  -4   0 0.06854 0.41472   1
  -1  -4   0 0.43126 0.51197   2
  -1  -4   0 -0.0608 0.38136   2
  -1  -4   0 0.37403 0.38387   3
  -1  -4   0 0.36515 0.62610   5
  -1  -4   0 0.58209 0.75653   4
  -1  -4   0 0.25197 0.41981   3
   1   4   0 0.71849 0.41823   1
  -2  -4   0 0.12939 0.71098   5
  -2  -4   0 -0.6557 0.70747   4
  -2  -4   0 0.24819 0.54083   3
  -2  -4   0 0.00729 0.59080   2
  -3  -4   0 64.7461 4.56811   3
  -3  -4   0 55.5183 4.53815   4
  -3  -4   0 57.8530 5.26393   5
  -3  -4   0 51.1089 2.84875   8
  -3  -4   0 55.2578 4.21849   2
  -4  -4   0 116.205 7.59887   2
  -4  -4   0 107.244 7.78197   4
  -4  -4   0 130.897 9.12517   5
  -4  -4   0 105.159 5.30740   9
  -4  -4   0 93.2354 6.92028  12
  -4  -4   0 111.149 5.37222  10
  -4  -4   0 111.616 5.42088   8
  -4  -4   0 102.033 7.88387   3
  -5  -4   0 4.01926 1.74574   3
  -5  -4   0 7.31589 0.76534  10
  -5  -4   0 6.94236 2.53160   5
  -5  -4   0 7.15963 0.79161   9
  -5  -4   0 7.84229 2.09848   2
  -6  -4   0 -0.3959 0.42225   9
  -6  -4   0 -0.2706 0.34692  10
  -6  -4   0 -0.1055 0.34668   8
  -7  -4   0 3.11616 0.67549   9
  -7  -4   0 4.21270 0.52782   8
  -7  -4   0 5.20137 1.01945  13
  -8  -4   0 11.1792 1.27585  13
  -8  -4   0 9.35418 0.90641   9
  -9  -4   0 7.30047 0.56622   9
  -9  -4   0 6.26975 0.79270  13
  11  -5   0 1.33693 0.25932   9
  11  -5   0 1.80542 0.52137  10
  11  -5   0 1.11784 0.54306  17
  10  -5   0 1.73751 0.70056  17
  10  -5   0 1.17964 0.52571  10
  10  -5   0 1.50956 0.39307   9
   9  -5   0 7.92831 0.78589   9
   9  -5   0 9.67749 1.31003  17
   9  -5   0 6.98789 1.17641  16
   9  -5   0 8.97358 0.84637  10
   8  -5   0 3.47989 1.52321   2
   8  -5   0 2.82058 0.49798   9
   8  -5   0 1.73311 0.74692  15
   8  -5   0 3.13211 1.97564   7
   8  -5   0 3.91462 1.09985  17
   8  -5   0 3.00130 0.82915  16
   8  -5   0 2.06790 0.50438  10
   7  -5   0 108.522 6.56134  17
   7  -5   0 106.664 5.07812  10
   7  -5   0 102.287 7.84670   6
   7  -5   0 98.8128 4.97106   9
   7  -5   0 98.4815 6.65807  15
   7  -5   0 103.924 6.88650   2
   7  -5   0 100.982 8.71689   7
   7  -5   0 103.462 6.74054  16
   7  -5   0 94.5129 7.10010   3
   6  -5   0 362.971 22.0182   3
   6  -5   0 339.455 20.5075  17
   6  -5   0 332.477 16.5859   9
   6  -5   0 406.715 21.8751  14
   6  -5   0 352.932 22.8683   6
   6  -5   0 352.310 16.7351  10
   6  -5   0 378.378 23.2678   7
   6  -5   0 335.362 21.8229  16
   6  -5   0 336.884 21.9972  15
   6  -5   0 354.919 20.4628   2
   5  -5   0 0.75312 0.89355   6
   5  -5   0 1.10758 0.46471   3
   5  -5   0 1.74218 1.26085   7
   5  -5   0 0.72536 0.51417   3
   5  -5   0 0.82194 0.49008   2
   4  -5   0 54.2726 4.32887   6
   4  -5   0 47.3490 4.23988   7
   3  -5   0 216.517 13.6808   5
   3  -5   0 201.118 12.8381   4
   3  -5   0 219.329 13.7387   6
   3  -5   0 208.158 13.5160   7
   2  -5   0 242.055 15.4333   6
   2  -5   0 243.454 15.2877   7
   2  -5   0 239.933 15.6415   5
   2  -5   0 244.937 14.8719   4
   1  -5   0 86.0652 6.31159   5
   1  -5   0 89.2918 5.97408   4
   1  -5   0 81.4344 5.81954   6
   1  -5   0 87.6394 5.99541   7
   0  -5   0 8.97038 0.67317   3
   0  -5   0 9.58264 0.60797   1
   0  -5   0 9.62092 0.65601   2
   0  -5   0 11.0519 1.73485   4
   0  -5   0 10.9543 0.71044   3
   0  -5   0 11.0752 1.77188   5
   0  -5   0 9.95007 0.65347   2
  -1  -5   0 47.1874 3.25558   2
  -1  -5   0 48.2632 3.44574   3
  -1  -5   0 47.7951 4.02821   4
  -1  -5   0 48.8196 4.46904   5
  -2  -5   0 479.344 24.1579   9
  -2  -5   0 474.036 29.9212  11
  -2  -5   0 493.756 24.3262  10
  -2  -5   0 538.865 31.9286   3
  -2  -5   0 542.390 31.4259   4
  -2  -5   0 563.309 33.4436   5
  -2  -5   0 573.987 30.9684  18
  -2  -5   0 479.451 31.7815  12
  -2  -5   0 539.388 29.5541   2
  -2  -5   0 513.696 30.5208  13
  -3  -5   0 196.282 11.6137  13
  -3  -5   0 198.710 13.8540   5
  -3  -5   0 198.834 12.6225   4
  -3  -5   0 191.711 9.05597  10
  -3  -5   0 178.804 11.8530  12
  -3  -5   0 186.134 8.96092   9
  -3  -5   0 191.549 11.6716   2
  -3  -5   0 173.997 11.1010  11
  -3  -5   0 185.672 12.4529   3
  -4  -5   0 17.9408 1.19885   9
  -4  -5   0 19.1838 2.68595   2
  -4  -5   0 20.0545 1.91999  13
  -4  -5   0 15.8498 2.50886   3
  -4  -5   0 15.5443 0.95913   8
  -4  -5   0 16.2965 3.54561   5
  -4  -5   0 17.7823 1.27308  10
  -4  -5   0 17.0857 1.68141  12
  -5  -5   0 0.19576 2.41621   5
  -5  -5   0 0.03375 0.43067   9
  -5  -5   0 0.28004 0.33133  10
  -5  -5   0 -0.1750 0.97457  13
  -6  -5   0 11.4781 1.04427   9
  -6  -5   0 13.5446 1.07241  10
  -6  -5   0 11.3065 1.59667  13
  -7  -5   0 0.94353 0.53307  10
  -7  -5   0 0.61574 0.63103  13
  -7  -5   0 -0.2334 0.28090   9
  -8  -5   0 0.12049 0.34148  10
  -8  -5   0 -0.1286 0.45612  13
  -8  -5   0 0.22722 0.26853   9
  11  -6   0 0.53410 0.28044  10
  11  -6   0 0.30253 0.69942  17
  10  -6   0 1.10498 0.67187  17
  10  -6   0 1.05149 0.71605  16
  10  -6   0 0.78426 0.44616  10
   9  -6   0 17.0288 1.87472  17
   9  -6   0 15.6764 0.94949   9
   9  -6   0 15.6508 1.11931  10
   9  -6   0 15.6043 1.82164  16
   8  -6   0 336.243 21.3958  15
   8  -6   0 335.799 20.2029  17
   8  -6   0 361.943 16.0830   9
   8  -6   0 327.133 23.7657   7
   8  -6   0 357.753 16.3254  10
   8  -6   0 328.899 21.2789  16
   7  -6   0 209.466 9.76880  10
   7  -6   0 206.491 12.9426  15
   7  -6   0 203.916 14.2825   6
   7  -6   0 184.851 14.9053   7
   7  -6   0 208.648 9.56592   9
   7  -6   0 193.606 12.7241   3
   7  -6   0 204.132 12.2560  17
   7  -6   0 205.704 12.8947  16
   7  -6   0 205.798 11.9182   2
   6  -6   0 22.1403 3.03957   6
   6  -6   0 20.4773 1.91069  15
   6  -6   0 23.0556 3.53904   7
   6  -6   0 23.5254 1.90057  14
   6  -6   0 21.4796 1.22753  10
   6  -6   0 19.6809 1.96600  17
   6  -6   0 21.6007 1.97809  16
   5  -6   0 37.4716 3.57830   6
   5  -6   0 36.1412 2.58485  14
   5  -6   0 33.2023 2.66867  16
   5  -6   0 36.2237 2.65294  15
   5  -6   0 34.1490 2.42128  13
   5  -6   0 33.5956 2.54676  17
   5  -6   0 34.1295 3.63092   7
   5  -6   0 33.5407 1.75707  10
   4  -6   0 3.50209 1.22322   6
   4  -6   0 2.71874 1.27713   7
   4  -6   0 3.32621 0.71186  15
   4  -6   0 3.94791 0.63013  14
   4  -6   0 3.30360 0.79160  16
   3  -6   0 506.841 30.4105   6
   3  -6   0 509.042 30.5658   5
   3  -6   0 464.343 28.9693   4
   3  -6   0 466.337 29.9057   7
   2  -6   0 1.04611 0.86442   7
   2  -6   0 0.24688 0.81131   5
   2  -6   0 -0.4634 0.57294   6
   2  -6   0 0.17099 0.75006   4
   1  -6   0 18.1768 2.58469   5
   1  -6   0 19.7483 2.33969   4
   0  -6   0 57.5488 4.26540  13
   0  -6   0 68.0593 4.45892  12
   0  -6   0 63.0570 4.15287  11
   0  -6   0 67.7747 5.67781   5
   0  -6   0 71.5107 5.22679   4
   0  -6   0 69.2460 4.32248  18
   0  -6   0 65.8082 3.18500  10
  -1  -6   0 2.42212 0.59398   2
  -1  -6   0 2.32448 0.59788   3
  -1  -6   0 3.22597 0.86259  13
  -1  -6   0 2.58303 0.62336  11
  -1  -6   0 0.97892 1.36943   5
  -1  -6   0 2.91064 0.25766   9
  -1  -6   0 3.01250 0.76552  18
  -1  -6   0 2.75109 0.38153  10
  -1  -6   0 2.80172 1.34477   4
  -1  -6   0 1.79234 0.61080   2
  -1  -6   0 3.47377 0.74684  12
  -1  -6   0 3.03098 0.60830   3
  -2  -6   0 3.29805 0.98589  13
  -2  -6   0 3.20210 0.44066  10
  -2  -6   0 3.71897 2.07366   5
  -2  -6   0 2.17164 0.62853  11
  -2  -6   0 1.51649 0.88769   2
  -2  -6   0 4.18915 1.60383   4
  -2  -6   0 2.34401 0.34772   9
  -2  -6   0 2.58156 0.72944  12
  -2  -6   0 1.85464 0.84700   3
  -3  -6   0 3.71557 1.39494   3
  -3  -6   0 5.87138 1.55418   2
  -3  -6   0 4.97094 0.76740  11
  -3  -6   0 6.01240 0.61945   9
  -3  -6   0 5.12017 0.97667  12
  -3  -6   0 7.81183 1.39063  13
  -3  -6   0 7.19706 0.70224  10
  -3  -6   0 5.84494 2.85746   5
  -4  -6   0 1.29618 2.17686   5
  -4  -6   0 2.90619 0.69802  12
  -4  -6   0 2.13981 0.44375   9
  -4  -6   0 3.03990 0.56080  10
  -4  -6   0 1.21294 1.05435  13
  -5  -6   0 36.3057 2.21374  10
  -5  -6   0 39.4743 2.14356   9
  -5  -6   0 43.7505 3.21231  13
  -6  -6   0 14.0320 1.04378  10
  -6  -6   0 13.3820 0.91362   9
  -6  -6   0 11.9541 1.59932  13
  -7  -6   0 0.61204 0.53965  13
  -7  -6   0 0.71445 0.32742  10
  11  -7   0 0.67432 0.54432  17
  11  -7   0 -0.4377 0.21265  10
  10  -7   0 0.12401 0.70317  17
  10  -7   0 0.49235 0.58642  16
  10  -7   0 0.48957 0.33061  10
   9  -7   0 9.79095 1.15086  15
   9  -7   0 10.0499 0.82884  10
   9  -7   0 9.19711 1.42143  17
   9  -7   0 8.09869 1.39554  16
   8  -7   0 43.6992 3.40749  17
   8  -7   0 43.0728 3.20565  15
   8  -7   0 43.2240 2.33719  10
   8  -7   0 44.1945 3.43149  16
   7  -7   0 36.6221 4.55765   6
   7  -7   0 39.9245 2.09430  10
   7  -7   0 44.8389 2.99899  14
   7  -7   0 24.1091 4.70211   7
   7  -7   0 40.9094 3.06416  15
   7  -7   0 41.2216 3.19116  16
   7  -7   0 35.2925 3.01407  17
   6  -7   0 11.5220 0.72292  10
   6  -7   0 9.27951 2.33201   6
   6  -7   0 12.1229 1.25069  14
   6  -7   0 10.3609 1.26855  15
   6  -7   0 11.8581 1.45946  17
   6  -7   0 13.2672 1.57077  16
   6  -7   0 12.8167 2.91985   7
   5  -7   0 17.5528 1.50191  13
   5  -7   0 20.4415 2.82235   6
   5  -7   0 14.6675 2.74363   7
   5  -7   0 18.0800 1.58585  15
   5  -7   0 20.0998 1.55473  14
   5  -7   0 17.9654 1.79239  16
   5  -7   0 14.2189 0.79244  10
   5  -7   0 16.5953 1.69391  17
   4  -7   0 229.782 13.2181  13
   4  -7   0 223.648 13.8317  16
   4  -7   0 234.340 13.8077  14
   4  -7   0 235.602 13.9613  15
   4  -7   0 204.497 13.7428  12
   4  -7   0 238.264 14.9554   6
   4  -7   0 197.413 13.3638  18
   4  -7   0 216.507 12.8944  17
   4  -7   0 206.694 14.5347   7
   3  -7   0 9.42779 1.12425  15
   3  -7   0 10.5541 1.22872  16
   3  -7   0 6.91002 1.71400   5
   3  -7   0 6.10116 1.55161   6
   3  -7   0 8.80842 0.97863  13
   3  -7   0 9.67702 1.08324  17
   3  -7   0 7.23866 0.89389  11
   3  -7   0 8.80558 1.05196  18
   3  -7   0 7.75649 1.53092   4
   3  -7   0 7.80549 0.96122  12
   3  -7   0 9.04348 1.10836  14
   2  -7   0 204.183 12.7389   4
   2  -7   0 198.952 12.3209  12
   2  -7   0 185.555 12.2010  14
   2  -7   0 186.990 12.1796  16
   2  -7   0 184.539 11.3890  17
   2  -7   0 199.164 11.9332  18
   2  -7   0 191.102 12.3012  15
   2  -7   0 200.999 11.7873  13
   2  -7   0 206.238 11.5989  11
   2  -7   0 197.375 13.4005   5
   1  -7   0 0.33031 0.57951  18
   1  -7   0 0.31392 0.54586  12
   1  -7   0 0.65609 0.59866  13
   1  -7   0 0.57031 0.54917  14
   1  -7   0 0.06124 0.38252  17
   1  -7   0 0.31697 0.88511   5
   1  -7   0 0.95798 1.13899   4
   1  -7   0 0.27829 0.37882  11
   0  -7   0 34.9881 2.48922  18
   0  -7   0 33.0772 3.62154   4
   0  -7   0 35.3697 2.66095  13
   0  -7   0 32.2658 3.87448   5
   0  -7   0 35.0790 2.63761  12
   0  -7   0 27.6760 2.45534  14
   0  -7   0 32.7258 1.68671  10
   0  -7   0 35.2658 2.47587  11
  -1  -7   0 45.6185 3.47085  13
  -1  -7   0 45.5879 3.51160  12
  -1  -7   0 45.5471 4.46546   4
  -1  -7   0 47.0696 2.43486  10
  -1  -7   0 42.6363 5.45055   5
  -1  -7   0 55.1457 3.42322  18
  -1  -7   0 48.3382 3.28642  11
  -2  -7   0 1.65456 2.76343   5
  -2  -7   0 1.60845 0.38513  10
  -2  -7   0 0.74569 0.98299  13
  -2  -7   0 1.10416 0.74065  12
  -2  -7   0 1.95660 0.68538  11
  -3  -7   0 0.12529 0.34703  10
  -3  -7   0 0.52936 1.07424  13
  -3  -7   0 0.39885 0.48964  12
  -3  -7   0 -0.5542 0.55235  11
  -4  -7   0 0.27914 0.38099  10
  -4  -7   0 0.51785 1.11012  13
  -4  -7   0 0.38500 0.52488  12
  -5  -7   0 23.4829 2.34178  13
  -5  -7   0 21.7684 1.35887  10
  -6  -7   0 9.37383 0.67730  10
  -6  -7   0 6.44435 0.96996  13
  11  -8   0 1.36074 0.51370  17
  10  -8   0 1.11907 0.62765  16
  10  -8   0 0.56869 0.94606  17
   9  -8   0 6.22262 1.17976  17
   9  -8   0 8.09284 1.20418  16
   9  -8   0 8.76551 1.08042  15
   8  -8   0 4.09454 1.06027  17
   8  -8   0 1.64426 0.84785  15
   8  -8   0 3.28098 1.06064  16
   7  -8   0 16.3197 1.80915  17
   7  -8   0 16.0313 1.71138  16
   7  -8   0 15.8591 1.76402  15
   7  -8   0 18.3410 1.64277  14
   6  -8   0 13.3734 1.65950  16
   6  -8   0 9.90703 1.39099  17
   6  -8   0 12.1228 1.28676  14
   6  -8   0 6.10948 2.35522   6
   6  -8   0 10.5613 1.41482  15
   5  -8   0 111.198 9.80054   6
   5  -8   0 133.494 8.77252  16
   5  -8   0 130.087 8.17766  17
   5  -8   0 140.906 8.31075  13
   5  -8   0 141.360 8.70512  14
   5  -8   0 139.869 8.79322  15
   4  -8   0 31.7884 2.49260  16
   4  -8   0 30.9521 2.32117  14
   4  -8   0 30.8450 2.30919  13
   4  -8   0 28.2472 2.14369  11
   4  -8   0 28.3693 2.26851  18
   4  -8   0 33.2511 2.48369  15
   4  -8   0 19.4233 3.12786   6
   4  -8   0 26.5794 2.16919  17
   4  -8   0 29.5787 2.33885  12
   3  -8   0 31.0654 2.36251  17
   3  -8   0 32.5367 2.52195  16
   3  -8   0 28.8247 2.31617  18
   3  -8   0 32.2874 2.34051  11
   3  -8   0 31.0810 2.40471  14
   3  -8   0 31.5686 2.50625  15
   3  -8   0 31.6266 2.49310  12
   3  -8   0 31.2022 2.35485  13
   2  -8   0 316.510 18.8297  13
   2  -8   0 295.955 19.6524  15
   2  -8   0 339.290 18.5480  11
   2  -8   0 332.325 19.7153  12
   2  -8   0 308.709 19.5397  14
   2  -8   0 337.098 19.1204  18
   2  -8   0 308.886 18.1936  17
   2  -8   0 274.088 20.7110   5
   1  -8   0 4.06172 1.00513  13
   1  -8   0 5.21364 0.97692  12
   1  -8   0 3.80744 0.71444  17
   1  -8   0 3.04716 1.57247   4
   1  -8   0 5.05714 0.79322  11
   1  -8   0 5.08172 0.96894  18
   1  -8   0 3.76234 0.83401  14
   1  -8   0 0.75453 1.84860   5
   0  -8   0 16.3798 3.66448   5
   0  -8   0 21.9199 2.20863  13
   0  -8   0 24.7692 2.02026  11
   0  -8   0 20.1481 2.08488  12
   0  -8   0 26.0827 2.01203  18
  -1  -8   0 4.47007 0.91751  11
  -1  -8   0 5.05156 0.48877  10
  -1  -8   0 6.92988 1.05401  12
  -1  -8   0 4.90926 1.21257  13
  -1  -8   0 4.60320 3.25023   5
  -2  -8   0 33.1842 3.07503  13
  -2  -8   0 32.8898 2.52083  11
  -2  -8   0 32.4373 1.75973  10
  -2  -8   0 31.5083 2.71226  12
  -3  -8   0 93.4698 4.53148  10
  -3  -8   0 91.8831 6.21022  13
  -3  -8   0 90.8033 5.68041  11
  -3  -8   0 89.6161 6.13844  12
  -4  -8   0 2.92659 0.43513  10
  -4  -8   0 4.89334 1.20284  13
  -4  -8   0 2.23230 0.60202  12
  -5  -8   0 9.13127 1.12511  13
  -5  -8   0 7.91696 0.59727  10
  10  -9   0 0.31603 0.53656  17
  10  -9   0 0.13979 0.51699  16
   9  -9   0 1.48489 0.70023  16
   9  -9   0 1.25300 0.74636  17
   8  -9   0 33.5393 2.49893  15
   8  -9   0 27.4813 2.55198  17
   8  -9   0 31.3082 2.58726  16
   7  -9   0 69.3534 4.84678  16
   7  -9   0 66.2896 4.73293  15
   7  -9   0 64.5379 4.48371  17
   6  -9   0 4.30559 0.82030  14
   6  -9   0 2.01485 0.90985  15
   6  -9   0 3.49240 0.81977  17
   6  -9   0 3.58446 0.91747  16
   5  -9   0 0.46173 0.82233  16
   5  -9   0 0.18797 0.75375  15
   5  -9   0 0.42950 0.58371  12
   5  -9   0 0.21261 0.67498  17
   5  -9   0 0.47025 0.46871  13
   5  -9   0 1.29963 0.72795  14
   4  -9   0 0.19943 0.67855  17
   4  -9   0 0.85424 0.55854  11
   4  -9   0 1.00015 0.64923  18
   4  -9   0 0.30684 0.55742  16
   4  -9   0 0.48213 0.60914  12
   4  -9   0 0.07218 0.65459  13
   4  -9   0 2.54528 0.80279  14
   4  -9   0 0.98919 0.70960  15
   3  -9   0 289.350 16.4608  11
   3  -9   0 269.033 16.1872  17
   3  -9   0 280.272 17.3986  14
   3  -9   0 284.258 16.9468  18
   3  -9   0 273.287 17.4896  15
   3  -9   0 295.744 17.5358  12
   3  -9   0 261.176 17.3147  16
   2  -9   0 128.721 7.77056  18
   2  -9   0 124.489 8.01849  12
   2  -9   0 127.410 7.54463  11
   2  -9   0 118.707 7.35255  17
   2  -9   0 117.429 7.67443  13
   2  -9   0 115.224 7.88977  14
   1  -9   0 5.50035 1.01309  13
   1  -9   0 4.93570 0.84263  11
   1  -9   0 4.13573 1.00536  12
   1  -9   0 4.35941 1.03563  18
   0  -9   0 20.4933 2.03080  13
   0  -9   0 19.9840 2.07738  12
   0  -9   0 20.4877 1.89954  11
  -1  -9   0 124.249 7.39837  11
  -1  -9   0 119.980 7.91236  12
  -1  -9   0 113.434 7.82103  13
  -2  -9   0 73.7461 4.94056  12
  -2  -9   0 73.4257 4.52573  11
  -2  -9   0 64.5205 4.90139  13
  -3  -9   0 3.80639 0.70523  12
  -3  -9   0 4.67146 1.05466  13
  -4  -9   0 1.40446 0.59421  13
   9 -10   0 58.7996 3.77472  17
   8 -10   0 37.4659 2.76633  16
   8 -10   0 32.7954 2.54768  17
   7 -10   0 5.34962 0.89195  17
   7 -10   0 5.97624 1.16888  16
   6 -10   0 5.64213 1.02741  15
   6 -10   0 4.69578 0.96639  17
   6 -10   0 2.99404 1.03689  16
   6 -10   0 4.03406 0.96362  14
   5 -10   0 1.96482 0.67986  15
   5 -10   0 0.93298 0.50100  12
   5 -10   0 1.28293 0.84055  16
   5 -10   0 0.17335 0.66636  13
   5 -10   0 0.72385 0.75274  14
   5 -10   0 0.67108 0.67254  17
   4 -10   0 166.577 10.6368  18
   4 -10   0 178.532 11.0809  15
   4 -10   0 178.378 10.5740  13
   4 -10   0 173.551 10.9919  16
   4 -10   0 188.952 11.0215  14
   4 -10   0 166.555 10.1903  17
   4 -10   0 166.715 10.2999  11
   4 -10   0 165.560 10.9841  12
   3 -10   0 3.72243 0.79970  12
   3 -10   0 2.49927 0.79330  18
   3 -10   0 2.41836 0.63073  11
   3 -10   0 3.17989 0.75327  13
   3 -10   0 1.58182 0.81016  14
   2 -10   0 9.31444 1.22564  13
   2 -10   0 6.89064 1.08518  12
   2 -10   0 7.70274 0.98092  11
   1 -10   0 2.74131 0.85609  12
   1 -10   0 3.33297 0.76728  11
   1 -10   0 2.69561 1.02535  13
   0 -10   0 5.47563 0.82454  11
   0 -10   0 6.36621 1.02711  12
   0 -10   0 5.87544 1.15388  13
  -1 -10   0 9.49985 1.37574  13
  -1 -10   0 8.61680 1.17692  12
  -2 -10   0 -0.0903 0.59384  13
  -2 -10   0 -0.2192 0.40939  12
   8 -11   0 -0.0529 0.56855  16
   7 -11   0 3.26505 0.70941  16
   6 -11   0 12.4009 1.34827  16
   5 -11   0 84.8682 5.95911  16
   5 -11   0 98.1705 5.96952  14
   4 -11   0 -0.2179 0.44107  14
   4 -11   0 -0.6594 0.60640  13
   4 -11   0 0.03235 0.46056  12
   3 -11   0 20.7746 1.91595  12
   3 -11   0 25.4544 2.01912  13
   2 -11   0 8.31294 1.19923  12
   2 -11   0 8.56972 0.96618  11
   2 -11   0 8.43746 1.09466  13
   1 -11   0 12.9154 1.38171  13
   1 -11   0 11.5539 1.30477  12
   0 -11   0 35.3574 2.56600  13
   0 -11   0 35.1181 2.58222  12
  -1 -11   1 8.21558 0.97366  12
   0 -11   1 8.74775 1.16586  13
   0 -11   1 9.35916 1.17122  12
   1 -11   1 3.95119 0.95025  12
   1 -11   1 3.00350 0.71138  13
   2 -11   1 1.21729 0.81235  12
   2 -11   1 -1.0355 0.63036  13
   3 -11   1 5.63059 0.94621  12
   3 -11   1 3.72774 0.76198  13
   4 -11   1 4.57427 0.80080  18
   4 -11   1 3.36347 0.77035  12
   5 -11   1 6.33113 1.02491  16
   5 -11   1 5.93766 0.87570  17
   6 -11   1 1.94117 0.57094  17
   6 -11   1 0.40263 0.78115  16
   7 -11   1 -0.2995 0.64277  17
   7 -11   1 0.31402 0.53260  16
   8 -11   1 8.38552 1.04370  16
  -2 -10   1 15.1512 1.57716  13
  -2 -10   1 16.6089 1.49115  12
  -1 -10   1 17.3061 1.68276  12
  -1 -10   1 18.7595 1.81147  13
   0 -10   1 2.71513 0.84045  13
   0 -10   1 3.93711 1.00420  12
   0 -10   1 3.31518 0.68595  11
   1 -10   1 40.1362 3.07950  12
   1 -10   1 37.1466 2.91817  13
   1 -10   1 41.4971 2.92337  11
   2 -10   1 3.52037 0.93770  13
   2 -10   1 3.95985 0.94566  18
   2 -10   1 4.17671 0.75591  11
   2 -10   1 4.72990 0.98143  12
   3 -10   1 24.6549 2.01121  13
   3 -10   1 25.5310 1.99219  11
   3 -10   1 23.9502 2.07510  14
   3 -10   1 24.4119 1.96837  17
   3 -10   1 27.9661 2.18220  12
   3 -10   1 27.1637 2.21983  18
   4 -10   1 37.7139 2.69060  17
   4 -10   1 35.4476 2.75850  14
   4 -10   1 35.6859 2.78250  12
   4 -10   1 38.4905 2.83073  15
   4 -10   1 35.3936 2.75245  18
   4 -10   1 36.3827 2.77757  16
   4 -10   1 36.4259 2.60626  11
   4 -10   1 35.2463 2.66323  13
   5 -10   1 20.5500 1.75311  14
   5 -10   1 21.6597 2.07275  16
   5 -10   1 19.4381 1.79612  15
   5 -10   1 21.0923 1.94233  17
   5 -10   1 18.9239 1.74347  13
   6 -10   1 4.45751 0.86259  17
   6 -10   1 3.38163 0.92772  15
   6 -10   1 3.92268 1.07860  16
   7 -10   1 0.51704 0.65136  16
   7 -10   1 -0.0264 0.47978  15
   7 -10   1 -0.3383 0.60839  17
   8 -10   1 92.7771 5.86251  16
   8 -10   1 76.7805 5.51182  17
   8 -10   1 91.7405 5.79710  15
   9 -10   1 25.7755 2.19978  17
   9 -10   1 31.5792 2.27627  16
  -4  -9   1 12.3095 1.32821  13
  -3  -9   1 15.5040 1.78323  13
  -3  -9   1 17.8374 1.60753  12
  -2  -9   1 11.3907 1.76812  13
  -2  -9   1 12.8867 1.51737  12
  -2  -9   1 12.1464 1.43687  11
  -1  -9   1 132.660 8.12248  11
  -1  -9   1 131.856 8.70710  12
  -1  -9   1 132.193 8.54959  13
   0  -9   1 9.48723 1.22348  11
   0  -9   1 9.56995 1.29997  12
   0  -9   1 10.5777 1.43669  13
   1  -9   1 5.57353 1.05602  18
   1  -9   1 4.75933 0.85988  11
   1  -9   1 4.06598 1.02045  13
   1  -9   1 3.59006 0.97879  12
   2  -9   1 86.4757 5.89898  13
   2  -9   1 90.6000 5.70867  17
   2  -9   1 92.5810 5.80958  11
   2  -9   1 97.1885 6.01894  18
   2  -9   1 90.3228 6.20663  12
   3  -9   1 136.821 8.90862  12
   3  -9   1 138.953 8.49277  13
   3  -9   1 138.658 8.83568  16
   3  -9   1 139.517 8.24851  17
   3  -9   1 141.822 8.36734  11
   3  -9   1 132.861 8.60993  18
   3  -9   1 130.938 8.75768  14
   3  -9   1 135.335 8.85267  15
   4  -9   1 20.8010 2.02129  18
   4  -9   1 25.9784 2.14384  17
   4  -9   1 24.5331 2.14873  15
   4  -9   1 22.4797 1.92580  12
   4  -9   1 23.5275 2.00122  13
   4  -9   1 24.0074 2.05757  16
   4  -9   1 23.9553 1.95739  14
   4  -9   1 21.8344 1.88426  11
   5  -9   1 2.88805 0.75996  13
   5  -9   1 3.65645 0.87997  14
   5  -9   1 4.28394 0.88462  17
   5  -9   1 5.13630 0.91484  15
   5  -9   1 2.62954 0.78914  18
   5  -9   1 5.38202 1.00688  16
   6  -9   1 13.3367 1.38160  14
   6  -9   1 13.5025 1.47125  15
   6  -9   1 14.6548 1.78104  16
   6  -9   1 10.6382 1.45475  17
   7  -9   1 280.457 17.2802  17
   7  -9   1 310.015 18.5139  15
   7  -9   1 290.037 18.3619  16
   8  -9   1 1.35452 0.62425  15
   8  -9   1 1.66158 0.95347  16
   8  -9   1 0.49495 0.80916  17
   9  -9   1 27.1310 2.36800  17
   9  -9   1 28.1582 2.25656  16
  10  -9   1 2.15366 0.63303  17
  10  -9   1 2.03528 0.60212  16
  -5  -8   1 -0.0506 0.21112  10
  -5  -8   1 0.91478 0.85467  13
  -4  -8   1 1.76338 0.61595  12
  -4  -8   1 2.52342 0.96889  13
  -4  -8   1 2.15109 0.38302  10
  -3  -8   1 32.7904 2.52657  11
  -3  -8   1 32.8601 2.80923  12
  -3  -8   1 32.0362 3.19001  13
  -3  -8   1 36.8468 1.90362  10
  -2  -8   1 186.361 11.6300  12
  -2  -8   1 170.274 11.3173  13
  -2  -8   1 183.799 10.8404  11
  -2  -8   1 180.217 8.62700  10
  -1  -8   1 16.8414 1.68727  12
  -1  -8   1 15.1032 1.90533  13
  -1  -8   1 16.1427 3.24051   4
  -1  -8   1 17.0980 1.56281  11
  -1  -8   1 17.2322 0.97967  10
   0  -8   1 0.55582 0.57677  18
   0  -8   1 0.87781 0.52712  11
   0  -8   1 1.30136 0.79188  12
   0  -8   1 -0.7527 0.75616  13
   0  -8   1 0.83502 1.66810   4
   1  -8   1 62.3391 4.16111  17
   1  -8   1 64.0479 4.24368  11
   1  -8   1 67.1074 4.42973  18
   1  -8   1 62.0598 4.35707  13
   1  -8   1 64.4396 4.54328  12
   2  -8   1 221.374 16.3340  15
   2  -8   1 272.859 15.9372  18
   2  -8   1 263.220 15.1950  17
   2  -8   1 270.995 16.4005  12
   2  -8   1 258.516 16.2003  16
   2  -8   1 264.430 15.6633  13
   2  -8   1 285.290 15.4619  11
   2  -8   1 252.697 16.2041  14
   3  -8   1 41.7120 3.08314  18
   3  -8   1 42.6239 3.10722  16
   3  -8   1 43.2146 3.10002  12
   3  -8   1 41.2273 2.99860  13
   3  -8   1 40.7508 3.06515  15
   3  -8   1 43.0577 3.10306  14
   3  -8   1 42.2854 3.01362  17
   3  -8   1 42.8038 2.89403  11
   4  -8   1 36.0968 2.61367  16
   4  -8   1 31.2340 2.34862  11
   4  -8   1 21.7220 3.35337   6
   4  -8   1 34.2928 2.63289  15
   4  -8   1 33.9795 2.56471  17
   4  -8   1 30.8703 2.50151  12
   4  -8   1 34.7538 2.56826  14
   4  -8   1 30.6123 2.50696  18
   4  -8   1 34.0569 2.44318  13
   5  -8   1 -0.2357 0.64045  15
   5  -8   1 -0.1143 0.57131  18
   5  -8   1 -0.1921 0.56707  14
   5  -8   1 0.71979 1.52298   6
   5  -8   1 0.65876 0.54177  13
   5  -8   1 0.59808 0.57496  16
   5  -8   1 0.46465 0.52952  17
   6  -8   1 15.1641 1.67970  16
   6  -8   1 14.7394 1.78104  17
   6  -8   1 16.1257 1.63524  15
   6  -8   1 19.4636 1.62822  14
   7  -8   1 11.1886 1.34494  15
   7  -8   1 11.1615 1.51535  17
   7  -8   1 11.2622 1.45446  16
   8  -8   1 103.611 6.44475  15
   8  -8   1 93.8954 4.57893  10
   8  -8   1 95.6178 6.32132  17
   8  -8   1 91.3683 6.50158  16
   9  -8   1 14.9519 1.61832  16
   9  -8   1 19.0980 1.96337  17
   9  -8   1 16.7727 1.74749  15
   9  -8   1 16.9638 0.92874  10
  10  -8   1 45.9411 3.15122  17
  10  -8   1 41.5054 3.10806  16
  11  -8   1 75.9364 4.67492  17
  -6  -7   1 15.4061 1.59834  13
  -6  -7   1 18.9885 1.14970  10
  -5  -7   1 1.26091 0.44407  10
  -5  -7   1 1.27131 0.81179  13
  -5  -7   1 1.37575 0.69502  12
  -4  -7   1 35.9748 2.03809  10
  -4  -7   1 37.9839 3.11102  13
  -4  -7   1 33.1074 2.82151  12
  -3  -7   1 1.44655 0.69447  11
  -3  -7   1 2.33673 0.43500  10
  -3  -7   1 1.53980 1.14578  13
  -3  -7   1 0.70045 0.73472  12
  -2  -7   1 16.8242 1.61123  11
  -2  -7   1 17.5571 1.08695  10
  -2  -7   1 12.5090 3.80490   5
  -2  -7   1 16.8581 1.77051  12
  -2  -7   1 16.3131 3.08851   4
  -2  -7   1 16.0332 1.82236  13
  -1  -7   1 58.1989 5.48430   4
  -1  -7   1 68.9603 4.28997  18
  -1  -7   1 62.7453 4.37305  12
  -1  -7   1 59.6823 3.06248  10
  -1  -7   1 63.5850 4.06983  11
  -1  -7   1 49.6478 6.05349   5
  -1  -7   1 58.7026 4.29908  13
   0  -7   1 0.86512 0.66510  13
   0  -7   1 0.90744 0.65841  18
   0  -7   1 -0.4626 0.77818   4
   0  -7   1 -0.1532 0.39346  17
   0  -7   1 0.39586 1.48882   5
   0  -7   1 0.10976 0.14783  10
   0  -7   1 0.25776 0.53487  11
   0  -7   1 0.36576 0.59641  12
   1  -7   1 5.60645 0.83192  11
   1  -7   1 4.58763 0.79374  13
   1  -7   1 5.09664 0.84800  17
   1  -7   1 4.71665 0.77254  18
   1  -7   1 4.63324 0.85378  14
   1  -7   1 3.99767 0.79612  16
   1  -7   1 4.73696 0.81134  12
   1  -7   1 1.88444 1.36945   5
   1  -7   1 3.09605 1.40697   4
   2  -7   1 34.6784 3.34421   4
   2  -7   1 35.9361 3.52606   7
   2  -7   1 30.8981 2.46139  15
   2  -7   1 33.2680 2.54255  12
   2  -7   1 36.0568 2.41460  11
   2  -7   1 31.7327 2.44785  14
   2  -7   1 30.7029 2.40163  13
   2  -7   1 33.0702 2.40808  17
   2  -7   1 32.4133 2.49759  16
   2  -7   1 35.7880 2.51974  18
   2  -7   1 32.8966 3.25018   5
   3  -7   1 2.45720 0.63714  13
   3  -7   1 1.11778 0.55809  11
   3  -7   1 1.82312 0.59514  12
   3  -7   1 2.04205 1.09829   4
   3  -7   1 2.36225 0.60398  14
   3  -7   1 2.97832 0.71778  15
   3  -7   1 0.82108 1.20092   7
   3  -7   1 0.88136 1.05986   6
   3  -7   1 1.63794 0.52717  18
   3  -7   1 0.54151 0.63038  17
   3  -7   1 1.88614 0.72904  16
   4  -7   1 17.1292 1.50733  14
   4  -7   1 12.9442 1.45719  18
   4  -7   1 13.2066 2.54180   7
   4  -7   1 14.7455 1.37438  13
   4  -7   1 16.3182 1.60818  15
   4  -7   1 15.2068 1.49531  16
   4  -7   1 14.6144 2.39688   6
   4  -7   1 17.7738 1.61620  17
   5  -7   1 151.391 9.19215  13
   5  -7   1 164.984 9.82705  15
   5  -7   1 171.279 9.70696  14
   5  -7   1 153.647 11.1058   7
   5  -7   1 164.602 11.0564   6
   5  -7   1 139.056 7.12472  10
   5  -7   1 150.837 9.14646  17
   5  -7   1 131.102 9.35934  18
   6  -7   1 1.79386 0.28464  10
   6  -7   1 1.05931 1.08642   6
   6  -7   1 1.28946 2.07275   7
   6  -7   1 1.18379 0.74563  15
   6  -7   1 1.41344 0.84696  16
   6  -7   1 1.98598 0.55653  14
   6  -7   1 1.54297 0.83567  17
   7  -7   1 -3.0247 2.37329   7
   7  -7   1 3.16226 0.45641  10
   7  -7   1 4.32452 0.93649  15
   7  -7   1 2.76783 0.83999  16
   7  -7   1 3.36136 0.89180  17
   8  -7   1 45.9472 3.48029  15
   8  -7   1 50.6317 3.78233  17
   8  -7   1 46.1101 2.47931  10
   9  -7   1 24.6885 2.27434  15
   9  -7   1 25.4069 2.41061  16
   9  -7   1 29.3733 1.60631  10
   9  -7   1 28.4423 2.74522  17
  10  -7   1 3.31934 0.84927  16
  10  -7   1 3.65401 0.84455  17
  10  -7   1 4.06587 0.49184  10
  11  -7   1 4.08848 0.72051  17
  11  -7   1 3.49455 0.36841  10
  -7  -6   1 0.43852 0.31455  10
  -7  -6   1 -0.2274 0.53021  13
  -6  -6   1 0.15084 0.31800   9
  -6  -6   1 0.06463 1.04242  13
  -6  -6   1 0.21857 0.49375  10
  -5  -6   1 -0.5582 1.02273  13
  -5  -6   1 0.04782 0.35917   9
  -5  -6   1 0.40226 0.53030  12
  -5  -6   1 0.14120 0.46279  10
  -4  -6   1 91.9166 6.53804  12
  -4  -6   1 96.3705 6.69179  13
  -4  -6   1 104.575 4.85715   9
  -4  -6   1 94.8112 9.64568   5
  -4  -6   1 98.6081 4.95903  10
  -3  -6   1 28.7013 2.45108  13
  -3  -6   1 24.8120 2.02763  11
  -3  -6   1 27.1603 1.50710   9
  -3  -6   1 23.7137 3.53770   4
  -3  -6   1 28.6217 1.59413  10
  -3  -6   1 23.9669 2.21880  12
  -3  -6   1 20.2483 4.20003   5
  -3  -6   1 22.9759 2.72155   2
  -2  -6   1 60.2234 4.09924   2
  -2  -6   1 54.8479 4.03049  13
  -2  -6   1 54.8741 4.23972   3
  -2  -6   1 58.9490 2.86335   9
  -2  -6   1 57.3562 6.03121   5
  -2  -6   1 57.3527 5.18336   4
  -2  -6   1 53.9654 3.76948  11
  -2  -6   1 58.8365 2.96850  10
  -2  -6   1 53.4354 4.00783  12
  -2  -6   1 67.4441 4.05034  18
  -1  -6   1 231.055 14.2338   3
  -1  -6   1 256.332 14.2927  18
  -1  -6   1 242.053 15.2336   4
  -1  -6   1 237.482 11.0831  10
  -1  -6   1 215.374 10.8906   9
  -1  -6   1 232.564 13.1763   2
  -1  -6   1 243.786 16.2334   5
  -1  -6   1 226.304 14.6622  12
  -1  -6   1 223.395 14.1008  13
  -1  -6   1 240.758 13.8136  11
   0  -6   1 39.3083 3.62602   4
   0  -6   1 36.6552 2.56059  11
   0  -6   1 36.2689 2.72093  12
   0  -6   1 37.1830 2.67420  18
   0  -6   1 37.9182 3.67012   5
   0  -6   1 36.4749 1.84509  10
   1  -6   1 35.5786 3.52970   5
   1  -6   1 41.3679 3.55410   4
   2  -6   1 19.5829 2.20686   4
   2  -6   1 16.7264 1.99943   6
   2  -6   1 16.9894 2.14519   5
   2  -6   1 19.8433 2.34483   7
   3  -6   1 32.5932 3.10008   6
   3  -6   1 31.6674 2.93363   5
   3  -6   1 35.5422 3.37073   7
   3  -6   1 30.0295 2.76308   4
   4  -6   1 -0.1117 0.32669  15
   4  -6   1 0.28134 0.69498   6
   4  -6   1 0.11707 0.56148  16
   4  -6   1 -0.2901 0.97556   7
   4  -6   1 -0.0750 0.41171  14
   4  -6   1 0.04792 0.51443  17
   5  -6   1 19.6206 1.56016  13
   5  -6   1 19.0372 1.71019  16
   5  -6   1 19.7758 1.09034  10
   5  -6   1 21.1860 2.73294   6
   5  -6   1 18.1768 3.03200   7
   5  -6   1 20.3772 1.69506  14
   5  -6   1 20.3333 1.77388  17
   5  -6   1 17.9851 1.72634  15
   6  -6   1 30.0456 3.59194   6
   6  -6   1 28.4717 2.44805  17
   6  -6   1 29.6752 2.33702  15
   6  -6   1 30.7349 1.64621  10
   6  -6   1 29.1603 2.46018  16
   6  -6   1 23.4106 3.87993   7
   6  -6   1 34.0616 2.33916  14
   7  -6   1 180.145 10.7774  17
   7  -6   1 181.240 11.2942  15
   7  -6   1 179.392 8.33718   9
   7  -6   1 175.467 10.4944   2
   7  -6   1 161.017 11.1357   3
   7  -6   1 172.363 12.5321   6
   7  -6   1 180.820 8.54735  10
   7  -6   1 182.171 11.3231  16
   7  -6   1 179.524 13.5561   7
   8  -6   1 100.465 4.77203   9
   8  -6   1 92.3227 6.60746  16
   8  -6   1 88.4495 8.78188   7
   8  -6   1 105.158 6.47395  17
   8  -6   1 100.914 4.97179  10
   8  -6   1 98.7147 6.53926  15
   9  -6   1 9.23352 0.64086   9
   9  -6   1 9.15916 1.43272  17
   9  -6   1 8.23329 0.78232  10
  10  -6   1 17.1265 1.74996  17
  10  -6   1 17.1972 1.24828  10
  11  -6   1 6.04729 0.88598  17
  11  -6   1 9.02039 0.75299  10
  -8  -5   1 19.4632 1.28733  10
  -8  -5   1 20.8194 1.14236   9
  -8  -5   1 21.5125 1.72329  13
  -7  -5   1 10.0173 0.99933  10
  -7  -5   1 13.2567 1.47691  13
  -7  -5   1 11.0774 0.98047   9
  -6  -5   1 7.52202 1.26318  13
  -6  -5   1 7.51356 0.79437   9
  -6  -5   1 6.70305 0.86084  10
  -5  -5   1 12.0879 1.02890   9
  -5  -5   1 12.2326 1.73500  13
  -5  -5   1 11.2988 1.06076  10
  -5  -5   1 7.90148 3.23601   5
  -5  -5   1 9.85579 1.29839  12
  -4  -5   1 23.0393 2.07685  12
  -4  -5   1 24.7024 1.49102   9
  -4  -5   1 25.7533 1.57677  10
  -4  -5   1 21.6279 2.91712   3
  -4  -5   1 26.7064 3.44924   4
  -4  -5   1 22.0536 2.88072   2
  -4  -5   1 18.4360 3.86605   5
  -4  -5   1 24.5025 2.50716  13
  -3  -5   1 9.51361 0.77847  10
  -3  -5   1 8.78606 1.38287  13
  -3  -5   1 9.19248 0.71149   9
  -3  -5   1 6.92667 0.90488  11
  -3  -5   1 7.96043 1.02988  12
  -3  -5   1 9.50544 1.57081   2
  -3  -5   1 6.40935 1.63197   3
  -3  -5   1 6.17859 2.13290   5
  -3  -5   1 8.24062 1.94853   4
  -2  -5   1 373.119 21.9636   4
  -2  -5   1 370.053 23.3943   5
  -2  -5   1 384.915 21.2479  18
  -2  -5   1 328.197 21.8045  12
  -2  -5   1 335.328 16.6418  10
  -2  -5   1 320.147 16.5117   9
  -2  -5   1 375.203 22.0429   3
  -2  -5   1 338.008 20.9582  13
  -2  -5   1 366.555 20.4162   2
  -1  -5   1 39.1595 3.79980   5
  -1  -5   1 36.4757 2.78805   3
  -1  -5   1 37.3930 2.67803   2
  -1  -5   1 40.8242 3.54275   4
   0  -5   1 0.20291 0.84264   5
   0  -5   1 2.74869 1.06416   4
   1  -5   1 0.24687 0.50052   6
   1  -5   1 -0.4749 0.63627   7
   1  -5   1 0.51213 0.76187   4
   1  -5   1 0.14016 0.72286   5
   2  -5   1 272.668 17.0795   6
   2  -5   1 265.743 17.1587   5
   2  -5   1 272.704 17.0591   7
   2  -5   1 271.408 16.5062   4
   3  -5   1 18.5802 2.22920   7
   3  -5   1 20.5647 2.16464   6
   3  -5   1 15.6597 1.68330   4
   4  -5   1 -0.7372 0.92125   7
   4  -5   1 0.30862 0.82061   6
   5  -5   1 1.57250 0.61896   2
   5  -5   1 2.48329 0.33919  10
   5  -5   1 1.58010 1.29667   7
   5  -5   1 1.09702 0.78497   6
   5  -5   1 1.85141 0.58279   3
   5  -5   1 1.17783 0.54990  14
   6  -5   1 482.925 22.2591  10
   6  -5   1 476.334 22.0861   9
   6  -5   1 479.025 30.1535   7
   6  -5   1 444.639 28.9348  16
   6  -5   1 479.231 29.1027   3
   6  -5   1 464.335 29.2042  15
   6  -5   1 469.399 27.1749  17
   6  -5   1 488.621 29.9771   6
   7  -5   1 10.4535 1.70819   3
   7  -5   1 17.8472 2.62875   6
   7  -5   1 13.1689 1.92941   2
   7  -5   1 14.2242 0.94966   9
   7  -5   1 13.3617 1.41196  15
   7  -5   1 13.0079 1.48254  17
   7  -5   1 13.2188 1.39765  16
   7  -5   1 14.7882 1.02850  10
   7  -5   1 13.0679 2.95720   7
   8  -5   1 78.1725 5.36238  16
   8  -5   1 92.5856 5.32177  17
   8  -5   1 75.0757 5.91161   2
   8  -5   1 82.2998 4.06660  10
   8  -5   1 75.2172 7.68385   7
   8  -5   1 82.9206 3.99152   9
   8  -5   1 64.2529 5.22868  15
   9  -5   1 0.19188 0.38856   9
   9  -5   1 0.40070 0.78288  16
   9  -5   1 0.27200 0.61457  17
   9  -5   1 0.59257 0.50305  10
  10  -5   1 9.01959 0.87396  10
  10  -5   1 8.29498 1.23393  17
  10  -5   1 9.58844 0.76648   9
  11  -5   1 32.6230 2.35674  17
  11  -5   1 32.1353 1.82973  10
  11  -5   1 31.3038 1.56683   9
  -9  -4   1 18.2669 1.44785  13
  -9  -4   1 16.6028 1.01424   9
  -8  -4   1 2.12146 0.56536   9
  -8  -4   1 0.72615 0.66852  13
  -7  -4   1 132.297 8.24219  13
  -7  -4   1 131.859 6.45851   9
  -7  -4   1 124.943 6.43672   8
  -6  -4   1 4.68325 0.78472  10
  -6  -4   1 5.80002 2.33760   5
  -6  -4   1 5.09675 0.66737   9
  -5  -4   1 17.8627 2.79596   2
  -5  -4   1 14.0939 2.69212   3
  -5  -4   1 20.2872 3.61227   5
  -5  -4   1 19.8691 1.33653   9
  -5  -4   1 18.0895 1.27720  10
  -5  -4   1 19.2765 1.23222   8
  -5  -4   1 17.2913 1.71404  12
  -4  -4   1 1.01341 1.18843   5
  -4  -4   1 0.26356 0.27615   8
  -4  -4   1 -0.4088 0.98483   2
  -4  -4   1 0.26579 0.47022  12
  -4  -4   1 0.22052 1.05805   3
  -4  -4   1 0.16061 0.32275   9
  -4  -4   1 -2.2850 0.98210   4
  -4  -4   1 0.19721 0.36005  10
  -3  -4   1 224.793 15.1639   4
  -3  -4   1 246.687 14.4706   2
  -3  -4   1 263.149 16.6139   5
  -3  -4   1 231.198 15.4632   3
  -2  -4   1 79.2004 5.50092   3
  -2  -4   1 71.6003 5.57279   4
  -2  -4   1 83.9359 5.20223   2
  -2  -4   1 78.1368 6.19951   5
   1   4  -1 12.8121 1.27077   1
  -1  -4   1 15.3460 2.09278   5
  -1  -4   1 12.8733 1.18572   1
  -1  -4   1 15.7566 1.97312   4
  -1  -4   1 14.0865 1.42623   3
  -1  -4   1 19.2438 1.51413   3
  -1  -4   1 16.1053 1.31956   1
  -1  -4   1 17.8272 1.47257   2
  -1  -4   1 12.8789 1.33235   2
   0   4  -1 581.831 29.9764   1
   0   4  -1 552.330 29.9800   1
   0  -4   1 584.750 36.5091   5
   0  -4   1 617.735 35.0607   4
   0  -4   1 574.653 35.7587   6
   0  -4   1 624.906 35.6790   3
   0  -4   1 568.140 29.9655   1
   0  -4   1 623.903 32.9158   2
   0  -4   1 600.498 32.9239   2
   0  -4   1 579.383 29.9800   1
   0  -4   1 599.533 35.6583   3
   1  -4   1 1025.72 62.8593   6
   1  -4   1 1058.84 60.8761   4
   1  -4   1 1011.81 63.4254   5
   1  -4   1 1067.88 62.2375   7
   2  -4   1 15.9937 1.69622   6
   2  -4   1 15.8210 1.58664   4
   2  -4   1 15.4358 1.59904   5
   2  -4   1 17.6457 1.79529   7
  -3   4  -1 22.7721 1.45806   1
  -3   4  -1 23.1577 1.48435   1
   3  -4   1 26.0263 1.70240   3
   3  -4   1 28.6621 2.47224   6
   3  -4   1 21.7012 1.92939   4
   3  -4   1 28.9033 2.50241   7
   3  -4   1 24.5907 1.49307   1
   3  -4   1 23.8015 1.46050   1
   3  -4   1 26.6600 1.74839   3
   3  -4   1 28.1376 1.67349   2
   3  -4   1 27.1771 1.64475   2
   4  -4   1 13.0704 1.13615   1
   4  -4   1 12.9873 1.28044   3
   4  -4   1 11.0180 1.25109   2
   4  -4   1 13.9280 1.30671   2
   4  -4   1 13.7449 1.82699   6
   4  -4   1 14.5431 2.05420   7
   4  -4   1 13.8333 1.28415   3
   5  -4   1 66.2025 5.42033   7
   5  -4   1 62.3683 5.06196   6
   5  -4   1 65.4387 4.67659   3
   5  -4   1 68.6961 4.49803   2
   6  -4   1 20.7365 3.02305   7
   6  -4   1 17.4945 1.98078   3
   6  -4   1 17.3394 1.55579  16
   6  -4   1 17.1429 1.07866  10
   6  -4   1 16.3688 2.39852   6
   6  -4   1 20.6983 2.30815   2
   6  -4   1 17.4400 1.08682   9
   6  -4   1 16.2843 0.99885   8
   6  -4   1 19.8912 1.67237  17
   7  -4   1 80.6897 3.97760   9
   7  -4   1 73.1965 5.94713   3
   7  -4   1 77.4791 3.97019   8
   7  -4   1 72.2341 5.22600  16
   7  -4   1 77.2363 4.02010  10
   7  -4   1 86.3977 7.07387   7
   7  -4   1 82.7814 5.94904   2
   7  -4   1 86.3789 5.16121  17
   8  -4   1 1.60552 0.53650  10
   8  -4   1 2.59331 1.63846   2
   8  -4   1 2.05850 1.50968   7
   8  -4   1 2.34568 0.76744  16
   8  -4   1 2.34973 0.35732   8
   8  -4   1 2.24931 0.86568  17
   8  -4   1 2.87906 0.56894   9
   9  -4   1 23.3981 2.22745  17
   9  -4   1 23.5221 1.50438   9
   9  -4   1 23.3790 1.65506  10
  10  -4   1 24.2888 2.05666  17
  10  -4   1 24.0045 1.70675  10
  10  -4   1 24.8133 1.57152   9
  11  -4   1 3.10096 0.62512  10
  11  -4   1 5.08176 0.52609   9
  11  -4   1 4.18860 0.75082  17
  -9  -3   1 18.1596 0.98482   8
  -9  -3   1 17.9835 1.33831   9
  -9  -3   1 14.9459 1.55820  13
  -8  -3   1 19.3353 1.30953   8
  -8  -3   1 18.8897 1.37777   9
  -7  -3   1 9.26370 1.01381   9
  -7  -3   1 10.2396 0.99312   8
  -6  -3   1 10.1359 2.81055   5
  -6  -3   1 4.70842 2.18473   2
  -6  -3   1 9.51888 0.96289   9
  -6  -3   1 5.48716 2.22331   3
  -6  -3   1 9.97248 0.93243   8
  -5  -3   1 1.07687 0.38745   8
  -5  -3   1 1.04568 1.29609   2
  -5  -3   1 1.79572 1.62536   5
  -5  -3   1 0.70657 1.19996   4
  -5  -3   1 0.39808 0.95511   3
  -5  -3   1 0.64153 0.45041  10
  -5  -3   1 0.07757 0.39471   9
  -4  -3   1 -0.6950 0.77507   5
  -4  -3   1 0.38153 0.94448   2
  -4  -3   1 0.46936 0.93639   4
  -4  -3   1 -1.2232 0.78589   3
  -3  -3   1 65.0398 4.63339   2
  -3  -3   1 64.6394 4.86676   3
  -3  -3   1 75.5128 5.51414   5
  -3  -3   1 61.4455 4.82384   4
   2   3  -1 20.4598 1.68004   1
   2   3  -1 17.0833 1.60625   1
  -2  -3   1 21.3105 1.84109   2
  -2  -3   1 22.8579 2.41110   5
  -2  -3   1 17.0384 1.57248   1
  -2  -3   1 15.9176 1.53643   1
  -2  -3   1 20.9295 1.92061   3
  -2  -3   1 21.4389 2.10389   4
   1   3  -1 415.476 21.1356   1
   1   3  -1 428.960 21.1459   1
  -1  -3   1 403.431 21.1016   1
  -1  -3   1 400.017 21.0900   1
  -1  -3   1 431.532 23.1893   2
  -1  -3   1 398.836 25.0436   3
  -1  -3   1 430.683 25.0980   3
  -1  -3   1 416.631 25.5799   5
  -1  -3   1 418.641 24.5012   4
  -1  -3   1 369.236 23.1460   2
   0   3  -1 10.3680 0.77557   1
   0   3  -1 10.2762 0.77112   1
   0  -3   1 9.91028 0.85917   2
   0  -3   1 11.0059 0.88563   3
   0  -3   1 10.0306 0.74611   1
   0  -3   1 12.1931 1.36897   5
   0  -3   1 9.20021 0.82668   2
   0  -3   1 8.47220 0.92185   6
   0  -3   1 11.7466 1.38493   7
   0  -3   1 10.5647 0.75619   1
   0  -3   1 10.8767 0.85468   3
   0  -3   1 9.38179 1.21990   4
   1  -3   1 24.3071 1.93543   7
   1  -3   1 19.8593 1.78328   5
   1  -3   1 21.2269 1.80986   4
   1  -3   1 20.2153 1.76067   6
  -2   3  -1 81.8116 4.07188   1
  -2   3  -1 80.2834 4.04901   1
   2  -3   1 72.3083 4.85643   4
   2  -3   1 73.9155 4.03377   1
   2  -3   1 75.0283 5.23478   6
   2  -3   1 75.2796 4.05368   1
   2  -3   1 77.9585 5.13055   5
   2  -3   1 76.4955 5.29307   7
   2  -3   1 78.6109 4.80698   3
   2  -3   1 73.2619 4.43211   2
   2  -3   1 81.8157 4.47214   2
   2  -3   1 77.3439 4.77527   3
  -3   3  -1 23.5960 1.52087   1
  -3   3  -1 23.5480 1.52583   1
   3  -3   1 21.4141 1.70442   3
   3  -3   1 21.8517 2.07072   6
   3  -3   1 23.1713 1.71090   3
   3  -3   1 23.7885 2.22764   7
   3  -3   1 20.7862 1.46227   1
   3  -3   1 21.9606 1.48136   1
   3  -3   1 21.7818 1.66155   2
   3  -3   1 24.1850 1.69392   2
   3  -3   1 16.7571 1.51588   4
  -4   3  -1 1604.33 83.6441   1
   4  -3   1 1728.05 99.4508   3
   4  -3   1 1528.78 83.5693   1
   4  -3   1 1696.66 99.6229   6
   4  -3   1 1731.24 91.8356   2
   4  -3   1 1714.15 98.3881   7
   4  -3   1 1547.40 83.5895   1
   5  -3   1 128.180 8.04916   2
   5  -3   1 131.404 8.92303   7
   5  -3   1 128.482 8.71732   6
   5  -3   1 123.551 8.47515   3
   6  -3   1 6.54072 1.45720   6
   6  -3   1 10.0243 1.66084   2
   6  -3   1 7.50219 1.46260   3
   6  -3   1 9.10256 1.77184   7
   6  -3   1 6.90318 0.61953   8
   7  -3   1 4.12680 0.53102   9
   7  -3   1 4.01763 0.49114   8
   7  -3   1 1.98797 1.48129   7
   7  -3   1 2.84351 1.15569   2
   7  -3   1 3.89387 0.53111  10
   7  -3   1 2.52781 1.26581   3
   8  -3   1 26.0352 1.76166  10
   8  -3   1 23.2476 3.43228   2
   8  -3   1 28.0153 3.94698   7
   8  -3   1 28.4633 1.74745   9
   8  -3   1 28.2798 1.64601   8
   8  -3   1 20.9050 3.25446   3
   9  -3   1 19.2197 1.57307  10
   9  -3   1 23.2646 1.92236  17
   9  -3   1 21.3775 1.55302   9
   9  -3   1 20.9847 1.39895   8
  10  -3   1 6.62663 0.56332   8
  10  -3   1 6.20483 0.79221   9
  10  -3   1 6.16127 1.05505  17
  11  -3   1 11.8940 1.24539  17
  11  -3   1 12.5728 0.89812   9
  10   2  -1 57.6600 3.06336   8
 -10  -2   1 60.9867 2.93187   8
 -10  -2   1 54.5657 3.00065   9
  -9  -2   1 0.23077 0.26096   8
  -8  -2   1 2.59569 0.62596   8
  -7  -2   1 9.06883 0.92473   8
  -7  -2   1 6.89842 2.22317   5
  -6  -2   1 -0.7663 1.58164   2
  -6  -2   1 0.14614 0.39198   8
  -6  -2   1 -0.0788 1.51989   3
  -5  -2   1 305.185 16.3892   8
  -5  -2   1 340.773 20.5294   4
  -5  -2   1 352.258 21.7326   3
  -5  -2   1 354.329 20.2331   2
  -4  -2   1 2.34711 0.91358   4
  -4  -2   1 2.08868 1.02762   3
  -4  -2   1 2.11413 1.02437   2
   3   2  -1 -0.1058 0.54191   1
   3   2  -1 0.94699 0.60169   1
  -3  -2   1 -0.1232 0.48421   1
  -3  -2   1 0.52026 0.63485   1
  -3  -2   1 0.07992 0.62734   3
  -3  -2   1 -0.6959 0.57362   4
  -3  -2   1 0.39292 0.65712   2
   2   2  -1 1.34886 0.62192   2
   2   2  -1 1.33558 0.53976   1
   2   2  -1 2.02778 0.67508   3
   2   2  -1 1.33769 0.50482   1
  -2  -2   1 2.13488 0.55972   1
  -2  -2   1 1.51239 0.64415   2
  -2  -2   1 1.70945 0.50032   1
  -2  -2   1 1.53093 0.66630   3
  -2  -2   1 2.42601 0.76301   4
  -2  -2   1 0.66301 0.49920   3
   1   2  -1 88.6561 4.59048   1
   1   2  -1 90.4090 4.59966   1
  -1  -2   1 86.6319 5.02039   2
  -1  -2   1 79.4898 5.35374   3
  -1  -2   1 71.0273 4.50974   1
  -1  -2   1 90.8195 4.57882   1
  -1  -2   1 80.9830 5.34645   4
  -1  -2   1 75.0209 4.98624   2
  -1  -2   1 92.7230 5.42296   3
   0   2  -1 189.468 9.18787   1
   0   2  -1 192.295 9.21088   1
   0  -2   1 174.930 10.9037   3
   0  -2   1 165.922 11.1414   5
   0  -2   1 181.930 10.0828   2
   0  -2   1 181.553 9.17698   1
   0  -2   1 174.576 10.7627   4
   0  -2   1 180.266 11.0341   7
   0  -2   1 176.467 10.9560   6
   0  -2   1 173.874 10.9098   3
   0  -2   1 173.664 10.0886   2
   0  -2   1 186.138 9.19327   1
  -1   2  -1 6.34979 0.44833   1
  -1   2  -1 6.99532 0.46179   1
   1  -2   1 5.61933 0.49630   2
   1  -2   1 5.21454 0.67899   5
   1  -2   1 6.03748 0.77819   6
   1  -2   1 6.17116 0.44697   1
   1  -2   1 5.81113 0.51162   2
   1  -2   1 5.12240 0.77235   7
   1  -2   1 6.16469 0.45162   1
   1  -2   1 5.84901 0.72723   4
   1  -2   1 6.22575 0.51335   3
   1  -2   1 6.05444 0.49820   3
  -2   2  -1 174.534 8.53127   1
  -2   2  -1 167.172 8.51194   1
   2  -2   1 169.167 10.0675   3
   2  -2   1 163.217 10.2957   6
   2  -2   1 165.320 8.50729   1
   2  -2   1 156.824 8.48077   1
   2  -2   1 167.148 9.35354   2
   2  -2   1 147.891 9.30716   2
   2  -2   1 162.509 10.0828   3
   2  -2   1 161.000 10.1982   7
  -3   2  -1 36.7146 2.34779   1
  -3   2  -1 39.9087 2.37009   1
   3  -2   1 36.6231 2.32765   1
   3  -2   1 34.7669 2.68967   3
   3  -2   1 34.2205 2.27764   1
   3  -2   1 28.4216 2.46370   2
   3  -2   1 39.0636 2.86026   6
   3  -2   1 39.0413 2.88729   7
   3  -2   1 39.4614 2.61683   2
   3  -2   1 39.7057 2.71497   3
  -4   2  -1 13.5215 1.34610   1
  -4   2  -1 15.1251 1.47385   1
   4  -2   1 12.6286 1.30845   1
   4  -2   1 15.2330 1.53188   2
   4  -2   1 13.4252 1.32845   1
   4  -2   1 17.2569 1.92340   7
   4  -2   1 17.3505 1.65682   3
   4  -2   1 16.4987 1.75938   6
   5  -2   1 274.600 17.0059   7
   5  -2   1 264.845 16.9246   3
   5  -2   1 271.310 16.9626   6
   5  -2   1 254.889 15.7570   2
   6  -2   1 110.618 8.08730   7
   6  -2   1 106.510 7.55121   2
   6  -2   1 116.505 8.03543   3
   7  -2   1 6.42008 1.85567   2
   7  -2   1 5.67962 1.79708   7
   7  -2   1 4.27609 0.63719   9
   7  -2   1 5.05752 0.61935   8
   7  -2   1 2.64010 1.29895   3
   8  -2   1 74.9370 3.95759   8
   8  -2   1 75.8920 6.56793   7
   8  -2   1 74.5763 3.92668   9
   8  -2   1 69.4290 6.46911   2
   9  -2   1 47.6592 2.62931   8
   9  -2   1 44.5647 2.69102   9
  10  -2   1 17.7186 1.14467   8
  10  -2   1 17.8230 1.79885  17
  10  -2   1 14.3699 1.21552   9
  11  -2   1 22.7700 1.87233  17
  11  -2   1 21.3031 1.39999   9
  10   1  -1 13.2164 0.99777   8
   9   1  -1 17.1215 1.33686   8
  -9  -1   1 20.8413 1.50199   8
  -8  -1   1 7.74834 0.91002   8
  -7  -1   1 23.4470 1.56630   8
  -6  -1   1 13.9988 1.13246   8
  -5  -1   1 0.94028 0.79982   3
  -5  -1   1 1.68668 1.07086   2
   4   1  -1 1.89650 0.86208   2
   4   1  -1 3.18563 0.97244   3
   4   1  -1 1.75796 0.78082   1
  -4  -1   1 1.77780 0.82969   1
  -4  -1   1 0.78033 0.89962   3
  -4  -1   1 1.79942 0.82324   4
  -4  -1   1 2.84591 0.97509   2
  -4  -1   1 0.69143 0.66870   1
   3   1  -1 93.4187 5.16764   1
   3   1  -1 81.7149 5.61339   2
   3   1  -1 90.4489 5.15230   1
   3   1  -1 83.9976 5.98986   3
  -3  -1   1 92.0605 5.14837   1
  -3  -1   1 94.5799 5.69977   2
  -3  -1   1 88.9872 5.74739   4
  -3  -1   1 91.5464 6.04800   3
  -3  -1   1 84.0551 5.09605   1
   2   1  -1 2649.61 132.039   1
   2   1  -1 2527.87 157.153   3
   2   1  -1 2480.50 144.938   2
   2   1  -1 2711.11 132.761   1
  -2  -1   1 2629.80 157.937   3
  -2  -1   1 2797.83 133.083   1
  -2  -1   1 2581.07 144.933   2
  -2  -1   1 2624.70 132.713   1
  -2  -1   1 2549.90 151.680   4
   1   1  -1 274.738 18.3125   3
   1   1  -1 330.765 15.4477   1
   1   1  -1 289.448 16.9394   2
   1   1  -1 308.985 15.4326   1
  -1  -1   1 312.189 16.9557   2
  -1  -1   1 283.857 17.7014   4
  -1  -1   1 291.422 18.3263   3
  -1  -1   1 301.750 15.4216   1
  -1  -1   1 320.228 15.4388   1
   0   1  -1 41.1393 2.08372   1
   0   1  -1 42.0789 2.09874   1
   0  -1   1 35.9388 2.56646   7
   0  -1   1 39.4941 2.08040   1
   0  -1   1 34.7390 2.45047   4
   0  -1   1 36.3248 2.46956   5
   0  -1   1 40.3935 2.08432   1
   0  -1   1 36.2394 2.45239   3
   0  -1   1 36.5266 2.28289   2
   0  -1   1 38.1262 2.29110   2
   0  -1   1 37.4388 2.45758   3
  -1   1  -1 225.367 11.0489   1
  -1   1  -1 227.490 11.0483   1
   1  -1   1 203.064 12.1131   2
   1  -1   1 215.807 13.1081   3
   1  -1   1 222.856 11.0417   1
   1  -1   1 203.825 13.1075   3
   1  -1   1 212.275 12.1218   2
   1  -1   1 205.222 13.0123   7
   1  -1   1 219.308 11.0412   1
   1  -1   1 223.984 13.2082   6
  -2   1  -1 19.2359 1.26175   1
  -2   1  -1 18.1570 1.24336   1
  -2   1  -1 14.7380 1.32756   3
  -2   1  -1 14.5738 1.33310   2
   2  -1   1 17.2750 1.48513   6
   2  -1   1 16.3281 1.15490   1
   2  -1   1 16.3541 1.36232   3
   2  -1   1 16.0868 1.20308   1
   2  -1   1 14.1853 1.34288   3
   2  -1   1 15.8799 1.34932   2
  -3   1  -1 23.9390 2.08235   3
  -3   1  -1 19.7146 1.87171   2
  -3   1  -1 25.8251 1.82401   1
  -3   1  -1 23.8803 1.74102   1
   3  -1   1 25.7905 2.06238   3
   3  -1   1 26.0334 1.93887   2
   3  -1   1 28.4974 2.11804   6
   3  -1   1 22.5911 1.69387   1
   3  -1   1 21.1688 1.71865   1
  -4   1  -1 35.3228 2.60923   1
  -4   1  -1 33.6283 3.03099   3
  -4   1  -1 29.0759 2.84130   2
  -4   1  -1 38.1692 2.64858   1
   4  -1   1 37.6249 2.87851   2
   4  -1   1 41.4023 2.96045   6
   4  -1   1 35.6419 2.58520   1
   5  -1   1 252.092 15.4423   1
   5  -1   1 301.142 18.3387   3
   5  -1   1 308.204 17.1379   2
   6  -1   1 12.0435 2.06440   3
   6  -1   1 11.7455 2.10140   2
   7  -1   1 0.28750 0.39839   8
   7  -1   1 1.39337 1.49229   7
   8  -1   1 13.7115 1.18419   8
   8  -1   1 11.6062 2.54420   7
   9  -1   1 18.1772 1.29390   8
  10  -1   1 179.852 8.43072   8
  10  -1   1 156.504 8.22426   9
 -11   1  -1 7.92775 0.78787   8
  11  -1   1 9.08638 0.96358  17
  11  -1   1 8.25919 0.75086   9
  11  -1   1 9.30625 0.55929   8
  11   0  -1 3.43833 0.40784   8
 -11   0   1 3.84666 0.45110   8
  10   0  -1 48.3908 2.58859   8
 -10   0   1 42.2877 2.57126   8
   9   0  -1 1.30137 0.56013   8
  -9   0   1 1.42727 0.65183   8
   8   0  -1 0.95788 0.50392   8
   7   0  -1 19.0545 1.30974   8
   5   0  -1 17.2413 1.97987   3
   5   0  -1 13.2483 1.82532   2
  -5   0   1 10.7534 1.72706   1
  -5   0   1 10.9433 1.88062   2
  -5   0   1 14.5376 2.32826   3
   4   0  -1 168.040 9.98700   2
   4   0  -1 156.878 9.02996   1
   4   0  -1 165.286 10.3452   6
   4   0  -1 177.279 10.7165   3
   4   0  -1 160.034 9.04992   1
  -4   0   1 178.223 10.8011   3
  -4   0   1 156.389 9.87953   4
  -4   0   1 160.956 9.99870   2
  -4   0   1 157.971 9.05561   1
  -4   0   1 157.849 9.06328   1
   3   0  -1 5.32667 0.82923   1
   3   0  -1 4.99744 0.90383   3
   3   0  -1 5.58002 0.76106   6
   3   0  -1 4.77539 0.76556   1
   3   0  -1 4.09988 0.86314   2
  -3   0   1 5.95366 1.04331   3
  -3   0   1 5.59947 0.83684   1
  -3   0   1 6.00924 0.97712   2
  -3   0   1 5.82623 0.85343   1
  -3   0   1 5.46611 0.73961   4
   2   0  -1 14.7334 1.10743   1
   2   0  -1 13.3496 1.20793   2
   2   0  -1 13.0048 1.22203   3
   2   0  -1 12.4526 1.08758   6
   2   0  -1 13.9001 1.09509   1
  -2   0   1 11.7383 1.03658   4
  -2   0   1 14.2292 1.28738   3
  -2   0   1 12.0665 1.07552   1
   1   0  -1 747.902 42.3733   2
   1   0  -1 824.803 38.6086   1
   1   0  -1 755.931 45.9297   3
   1   0  -1 767.761 38.5962   1
   1   0  -1 710.628 45.7935   6
  -1   0   1 774.253 42.3863   2
  -1   0   1 727.138 44.1869   4
  -1   0   1 728.220 45.9340   3
  -1   0   1 825.612 38.6141   1
  -1   0   1 770.373 38.5972   1
   0   0  -1 1892.74 90.5812   1
   0   0  -1 1879.83 90.6479   1
   0   0  -1 1754.54 107.634   3
   0   0  -1 1582.03 99.1775   2
   0   0   1 1866.50 90.5657   1
   0   0   1 1744.40 107.600   3
   0   0   1 1693.22 99.1326   2
   0   0   1 1849.88 90.5627   1
  -1   0  -1 940.133 54.5010   2
  -1   0  -1 1010.69 49.6543   1
  -1   0  -1 999.182 49.6493   1
  -1   0  -1 987.975 59.0924   3
   1   0   1 996.758 49.6558   1
   1   0   1 942.022 54.5047   2
   1   0   1 990.963 59.0845   3
   1   0   1 983.706 49.6475   1
  -2   0  -1 173.406 10.7786   3
  -2   0  -1 175.370 9.11138   1
  -2   0  -1 164.925 9.97717   2
  -2   0  -1 177.219 9.10580   1
   2   0   1 164.351 9.96883   2
   2   0   1 172.568 9.10160   1
   2   0   1 173.980 9.09543   1
   2   0   1 176.505 10.7703   3
  -3   0  -1 16.6050 1.79547   2
  -3   0  -1 20.1470 1.87855   3
  -3   0  -1 18.6162 1.63176   1
  -3   0  -1 17.7928 1.61076   1
   3   0   1 19.7876 1.85094   3
   3   0   1 17.7785 1.76654   2
   3   0   1 20.6401 1.65040   1
   3   0   1 20.5726 1.63753   1
  -4   0  -1 21.7765 1.99309   1
  -4   0  -1 24.4760 2.40518   3
  -4   0  -1 22.3199 2.15086   2
  -4   0  -1 23.6797 1.96731   1
   4   0   1 23.8384 1.96447   1
   4   0   1 21.0619 1.96471   1
   4   0   1 22.7140 2.13885   2
   4   0   1 22.9101 2.28316   3
   5   0   1 9.50138 1.79898   2
   5   0   1 14.6737 1.99302   3
   7   0   1 35.5998 2.16428   8
   8   0   1 5.78865 0.78637   8
   8   0   1 6.45095 2.29008   7
  -9   0  -1 0.03260 0.38673   8
   9   0   1 0.03798 0.49425   8
 -10   0  -1 3.05896 0.65911   8
  10   0   1 3.61975 0.53450   8
  11  -1  -1 7.90698 0.79276   9
  11  -1  -1 7.97170 0.57558   8
  11  -1  -1 9.01987 1.01997  17
  10  -1  -1 46.6120 2.60499   8
   9  -1  -1 58.9881 3.24252   8
   8  -1  -1 1.83189 0.43142   8
   7  -1  -1 54.8463 3.00563   8
   7  -1  -1 55.1964 5.08025   3
   6  -1  -1 9.88874 1.80825   3
   6  -1  -1 9.88578 1.85397   2
   5  -1  -1 82.7553 5.87805   3
   5  -1  -1 86.4259 5.74824   6
   5  -1  -1 76.1990 5.05855   1
   5  -1  -1 85.5742 5.60477   2
  -5   1   1 73.0459 5.06952   1
   4  -1  -1 78.3877 5.19271   6
   4  -1  -1 82.7688 5.28704   3
   4  -1  -1 82.8522 5.02351   2
   4  -1  -1 74.5684 4.49840   1
   4  -1  -1 73.1976 4.46848   1
  -4   1   1 69.0211 4.48732   1
  -4   1   1 76.9020 4.55145   1
  -4   1   1 63.0006 4.92545   2
  -4   1   1 73.4321 5.33050   3
   3  -1  -1 7.57768 1.13175   3
   3  -1  -1 9.67711 1.02210   1
   3  -1  -1 9.74169 1.19959   6
   3  -1  -1 7.59954 1.13241   2
   3  -1  -1 7.71285 0.98495   1
  -3   1   1 6.90960 1.11331   2
  -3   1   1 8.66109 1.26056   3
  -3   1   1 7.79894 1.02117   1
  -3   1   1 7.48855 1.00023   1
   2  -1  -1 883.186 43.8153   1
   2  -1  -1 871.015 43.8052   1
   2  -1  -1 834.191 52.0946   6
   2  -1  -1 875.653 48.1020   2
   2  -1  -1 884.773 52.1253   3
  -2   1   1 917.652 43.8394   1
  -2   1   1 802.233 48.1072   2
  -2   1   1 832.836 52.1514   3
  -2   1   1 882.561 43.8259   1
   1  -1  -1 298.057 18.0100   5
   1  -1  -1 292.588 16.4239   2
   1  -1  -1 270.577 17.7873   3
   1  -1  -1 279.349 16.4281   2
   1  -1  -1 275.061 17.8438   6
   1  -1  -1 281.100 17.7872   3
   1  -1  -1 315.241 14.9779   1
   1  -1  -1 307.386 14.9630   1
  -1   1   1 310.137 14.9771   1
  -1   1   1 311.098 14.9777   1
   0  -1  -1 77.4434 4.37477   4
   0  -1  -1 66.7301 4.55959   5
   0  -1  -1 70.9699 4.41991   3
   0  -1  -1 65.8865 4.10113   2
   0  -1  -1 72.4655 3.74168   1
   0  -1  -1 71.6202 3.73774   1
   0  -1  -1 70.8379 4.10987   2
   0  -1  -1 67.3210 4.41568   3
   0   1   1 67.8178 4.42669   3
   0   1   1 75.0179 3.74797   1
   0   1   1 75.0741 3.75500   1
  -1  -1  -1 182.835 11.1761   3
  -1  -1  -1 190.566 9.44252   1
  -1  -1  -1 185.782 9.43188   1
  -1  -1  -1 159.812 11.1382   3
  -1  -1  -1 186.882 10.8267   4
  -1  -1  -1 179.817 10.3569   2
   1   1   1 172.506 11.1644   3
   1   1   1 185.437 9.44107   1
   1   1   1 193.750 9.45894   1
   1   1   1 174.152 10.3689   2
  -2  -1  -1 3.20071 0.76788   2
  -2  -1  -1 3.97712 0.69100   1
  -2  -1  -1 3.88220 0.70733   3
  -2  -1  -1 3.98848 0.62476   1
  -2  -1  -1 3.75215 0.75392   4
   2   1   1 4.38342 0.72810   1
   2   1   1 3.31954 0.66520   3
   2   1   1 3.97630 0.64292   1
   2   1   1 3.40958 0.78140   2
  -3  -1  -1 1077.31 58.2911   2
  -3  -1  -1 1014.95 53.0481   1
  -3  -1  -1 1093.68 63.1204   3
  -3  -1  -1 1028.80 53.0593   1
   3   1   1 1064.53 63.1275   3
   3   1   1 1022.84 53.0759   1
   3   1   1 978.533 58.2508   2
   3   1   1 1039.22 53.0867   1
  -4  -1  -1 12.1771 1.79206   3
  -4  -1  -1 9.33440 1.31216   1
  -4  -1  -1 10.2310 1.49324   2
   4   1   1 9.66105 1.45584   1
  -5  -1  -1 -0.0065 0.96920   3
  -5  -1  -1 -0.0951 0.70876   2
  -6  -1  -1 2.29078 0.55921   8
  -7  -1  -1 0.50394 1.77733   5
  -7  -1  -1 1.05754 0.49675   8
  -8  -1  -1 75.3020 4.11895   8
  -9  -1  -1 0.40019 0.48211   8
   9   1   1 0.06553 0.35224   8
 -10  -1  -1 9.54817 1.10948  13
 -10  -1  -1 7.44042 0.75107   8
  10   1   1 8.35011 0.76216   8
  11  -2  -1 2.19720 0.43864   9
  11  -2  -1 1.52546 0.20659   8
  11  -2  -1 1.70775 0.57260  17
  10  -2  -1 51.8342 2.83868   8
  10  -2  -1 53.6472 2.96769   9
   9  -2  -1 0.85364 0.55080   9
   9  -2  -1 0.50614 0.47139   8
   8  -2  -1 5.57965 1.80858   7
   8  -2  -1 3.89901 1.65672   2
   8  -2  -1 5.68826 0.66848   8
   8  -2  -1 0.34416 1.57178   3
   8  -2  -1 4.60478 0.63692   9
   7  -2  -1 45.0084 2.38523   8
   7  -2  -1 40.9342 2.36685   9
   7  -2  -1 45.6495 4.12399   2
   7  -2  -1 39.9151 4.01558   3
   6  -2  -1 1021.85 63.1158   3
   6  -2  -1 1058.10 58.4370   2
   6  -2  -1 1019.87 62.9524   6
   5  -2  -1 16.9320 1.87131   3
   5  -2  -1 17.4218 1.89355   2
   5  -2  -1 15.9446 1.90144   6
   4  -2  -1 21.9525 1.87072   1
   4  -2  -1 22.4170 1.82121   1
   4  -2  -1 27.9200 2.30814   6
   4  -2  -1 26.1569 2.14807   2
   4  -2  -1 26.1847 2.18538   3
  -4   2   1 23.5711 1.92167   1
  -4   2   1 24.3016 1.96860   1
   3  -2  -1 52.8321 3.98799   3
   3  -2  -1 51.5648 3.74504   2
   3  -2  -1 61.9990 3.44634   1
   3  -2  -1 61.5212 3.44304   1
   3  -2  -1 58.5159 4.22450   6
   3  -2  -1 60.4089 3.78865   2
   3  -2  -1 65.9224 4.04915   3
  -3   2   1 59.5055 3.45666   1
  -3   2   1 65.0270 3.50074   1
   2  -2  -1 566.384 28.4751   1
   2  -2  -1 539.415 33.4720   7
   2  -2  -1 554.209 34.0561   6
   2  -2  -1 570.162 31.2514   2
   2  -2  -1 486.826 33.8354   3
   2  -2  -1 595.452 34.3072   5
   2  -2  -1 575.526 33.8664   3
   2  -2  -1 559.215 31.2761   2
   2  -2  -1 563.018 28.4577   1
  -2   2   1 574.597 28.4876   1
  -2   2   1 581.957 28.4850   1
   1  -2  -1 491.448 29.9805   3
   1  -2  -1 479.948 30.4270   5
   1  -2  -1 457.860 29.6167   7
   1  -2  -1 512.503 29.0698   4
   1  -2  -1 498.228 29.9724   3
   1  -2  -1 513.390 27.6591   2
   1  -2  -1 495.870 25.1950   1
   1  -2  -1 483.252 30.1597   6
   1  -2  -1 522.570 25.1937   1
   1  -2  -1 473.697 27.6582   2
  -1   2   1 535.403 25.2097   1
  -1   2   1 510.775 25.1982   1
   0  -2  -1 284.315 17.8938   5
   0  -2  -1 294.204 14.7494   1
   0  -2  -1 302.125 17.5212   3
   0  -2  -1 270.676 17.5042   3
   0  -2  -1 258.078 17.5101   6
   0  -2  -1 292.075 14.7341   1
   0  -2  -1 286.768 17.0822   4
   0  -2  -1 268.026 16.1632   2
   0  -2  -1 293.788 16.1979   2
   0   2   1 306.089 14.7706   1
   0   2   1 306.808 14.7612   1
  -1  -2  -1 100.675 6.70362   5
  -1  -2  -1 101.007 5.44345   1
  -1  -2  -1 103.484 5.46398   1
  -1  -2  -1 105.024 6.01351   2
  -1  -2  -1 101.863 6.36169   4
  -1  -2  -1 92.6731 6.39065   3
  -1  -2  -1 87.9477 5.94547   2
  -1  -2  -1 97.2288 6.39821   3
   1   2   1 108.933 5.49079   1
   1   2   1 104.965 5.49235   1
  -2  -2  -1 31.3001 2.64192   5
  -2  -2  -1 28.2939 2.32429   3
  -2  -2  -1 30.8144 2.37743   4
  -2  -2  -1 29.3346 2.27333   2
  -2  -2  -1 26.5369 1.96313   1
  -2  -2  -1 28.1401 1.97258   1
   2   2   1 20.3799 2.21865   2
   2   2   1 26.1203 2.33761   3
   2   2   1 27.9093 2.03567   1
   2   2   1 29.0591 2.01038   1
  -3  -2  -1 96.9427 6.01563   4
  -3  -2  -1 96.0418 6.25865   3
  -3  -2  -1 75.9963 5.17721   1
  -3  -2  -1 95.9857 5.85382   2
  -3  -2  -1 86.2109 5.26111   1
   3   2   1 78.2877 5.24662   1
  -4  -2  -1 160.428 10.2528   2
  -4  -2  -1 164.122 10.9221   3
  -5  -2  -1 5.24332 1.76833   5
  -5  -2  -1 4.41381 1.55895   3
  -5  -2  -1 5.16871 1.63067   2
  -5  -2  -1 4.76697 0.60301   8
  -6  -2  -1 35.6469 4.17053   5
  -6  -2  -1 31.9436 1.99004   8
  -7  -2  -1 36.5583 2.14347   8
  -7  -2  -1 31.3853 4.57566   5
  -8  -2  -1 0.28827 0.47016   8
  -9  -2  -1 2.63896 0.78101  13
  -9  -2  -1 3.84389 0.49498   8
  -9  -2  -1 4.20525 0.82893   9
  11  -3  -1 25.7187 2.14849  17
  11  -3  -1 26.8705 1.62717   9
  10  -3  -1 16.5816 1.04666   8
  10  -3  -1 17.4294 1.66839  17
  10  -3  -1 17.2250 1.34870   9
   9  -3  -1 26.7310 1.53196   8
   9  -3  -1 21.6554 1.64693  10
   9  -3  -1 24.4698 1.59572   9
   8  -3  -1 7.44886 0.79688   9
   8  -3  -1 6.67279 2.08891   2
   8  -3  -1 6.36989 1.01954  16
   8  -3  -1 7.48274 0.69561   8
   8  -3  -1 3.61373 1.58344   3
   8  -3  -1 7.90059 2.18628   7
   8  -3  -1 6.40491 0.73032  10
   7  -3  -1 0.32831 0.35877   9
   7  -3  -1 0.37226 0.29390   8
   7  -3  -1 0.08396 0.52263  16
   7  -3  -1 0.90277 1.35788   7
   7  -3  -1 0.55118 0.37736  10
   7  -3  -1 0.64677 0.98472   3
   7  -3  -1 -0.6331 1.01619   6
   7  -3  -1 1.12024 1.13004   2
   6  -3  -1 5.71113 1.27699   2
   6  -3  -1 6.92785 1.31304   3
   6  -3  -1 6.43412 1.77124   7
   6  -3  -1 5.68378 1.24498   6
   5  -3  -1 -0.3330 0.51003   7
   5  -3  -1 0.39457 0.64224   2
   5  -3  -1 0.60374 0.56742   3
   5  -3  -1 0.96058 0.68653   6
   4  -3  -1 30.3572 1.99317   1
   4  -3  -1 27.8352 2.21576   3
   4  -3  -1 22.2462 2.10663   2
   4  -3  -1 30.8905 2.70366   7
   4  -3  -1 27.6794 2.28282   3
   4  -3  -1 26.6485 1.92001   1
   4  -3  -1 28.0599 2.61963   6
   4  -3  -1 29.0854 2.16794   2
  -4   3   1 28.2718 1.99684   1
  -4   3   1 27.8423 1.99872   1
   3  -3  -1 462.213 27.6819   2
   3  -3  -1 474.738 29.9566   3
   3  -3  -1 476.177 25.2061   1
   3  -3  -1 489.856 25.2075   1
   3  -3  -1 523.283 27.6980   2
   3  -3  -1 482.512 29.8387   7
   3  -3  -1 518.134 29.9748   3
   3  -3  -1 505.726 30.3615   6
  -3   3   1 517.688 25.2470   1
  -3   3   1 491.097 25.2368   1
   2  -3  -1 938.253 48.2658   1
   2  -3  -1 922.640 57.8288   6
   2  -3  -1 951.768 57.4606   3
   2  -3  -1 891.957 56.8845   7
   2  -3  -1 973.603 48.2934   1
   2  -3  -1 980.252 55.5973   4
   2  -3  -1 954.251 52.9895   2
   2  -3  -1 964.043 58.2351   5
   2  -3  -1 972.433 57.5962   3
   2  -3  -1 960.463 53.0174   2
  -2   3   1 970.568 48.2809   1
  -2   3   1 994.135 48.3012   1
   1  -3  -1 24.2142 1.36293   1
   1  -3  -1 26.7981 1.63352   3
   1  -3  -1 21.9373 1.90579   7
   1  -3  -1 25.6243 2.17663   5
   1  -3  -1 24.2635 1.50555   2
   1  -3  -1 22.6487 1.97106   4
   1  -3  -1 24.9576 1.51445   2
   1  -3  -1 24.0398 1.60013   3
   1  -3  -1 25.1812 1.37228   1
   1  -3  -1 20.7017 1.99416   6
  -1   3   1 25.1660 1.38118   1
  -1   3   1 26.1648 1.37739   1
   0  -3  -1 231.053 11.7197   1
   0  -3  -1 217.192 11.6826   1
   0  -3  -1 226.712 13.8985   3
   0  -3  -1 212.291 12.8266   2
   0  -3  -1 227.582 13.7356   4
   0  -3  -1 231.727 13.8761   3
   0  -3  -1 206.371 13.9396   6
   0  -3  -1 240.814 12.8810   2
   0  -3  -1 231.745 14.4772   5
   0   3   1 237.275 11.7204   1
   0   3   1 235.459 11.7456   1
  -1  -3  -1 112.437 7.58239   5
  -1  -3  -1 118.386 7.10830   3
  -1  -3  -1 117.629 7.15965   4
  -1  -3  -1 102.461 6.58471   2
  -1  -3  -1 107.562 6.01158   1
  -1  -3  -1 92.2417 6.79752   6
  -1  -3  -1 108.291 5.99476   1
  -1  -3  -1 119.212 6.66414   2
  -1  -3  -1 108.571 7.08309   3
   1   3   1 120.327 6.07850   1
   1   3   1 108.723 6.05084   1
  -2  -3  -1 18.3534 1.71410   1
  -2  -3  -1 22.0200 2.01687   3
  -2  -3  -1 17.6680 1.63292   1
  -2  -3  -1 22.3021 2.29484   5
  -2  -3  -1 21.7316 2.12981   4
  -2  -3  -1 22.2060 1.96537   2
  -3  -3  -1 -0.6713 0.65661   3
  -3  -3  -1 0.10211 0.52164   2
  -3  -3  -1 1.13072 0.99168   5
  -3  -3  -1 0.28689 0.79627   4
  -4  -3  -1 4.76270 1.44261   3
  -4  -3  -1 4.70260 1.69407   5
  -4  -3  -1 5.15659 0.56987   8
  -4  -3  -1 5.17791 1.26507   2
  -5  -3  -1 299.586 18.6927   5
  -5  -3  -1 256.052 12.9211   9
  -5  -3  -1 276.634 18.0673   3
  -5  -3  -1 264.025 13.3271   8
  -5  -3  -1 271.392 16.8621   2
  -6  -3  -1 0.42393 1.32285   3
  -6  -3  -1 2.16515 2.11240   5
  -6  -3  -1 2.06856 2.12870   2
  -6  -3  -1 1.12541 0.47678   8
  -6  -3  -1 -0.0033 0.47985   9
  -7  -3  -1 14.3899 1.32139   9
  -7  -3  -1 15.0018 1.18834   8
  -8  -3  -1 5.02564 0.55091   8
  -8  -3  -1 4.61898 0.88593  13
  -8  -3  -1 5.68529 0.80506   9
  -9  -3  -1 27.4780 2.07163  13
  -9  -3  -1 22.0278 1.44972   9
  11  -4  -1 10.1343 1.13148  17
  11  -4  -1 8.58435 0.79937   9
  11  -4  -1 8.76231 0.84032  10
  10  -4  -1 23.1809 1.66379  10
  10  -4  -1 22.9808 1.56906   9
  10  -4  -1 25.7157 2.12360  17
   9  -4  -1 0.27004 0.60973  17
   9  -4  -1 1.00525 0.46879   9
   9  -4  -1 0.44497 0.75493  16
   9  -4  -1 0.34187 0.48563  10
   8  -4  -1 85.4944 7.31571   6
   8  -4  -1 99.0808 4.81429   9
   8  -4  -1 93.7451 7.08678   2
   8  -4  -1 87.4854 6.31382  16
   8  -4  -1 105.303 8.66948   7
   8  -4  -1 97.9687 4.87783  10
   8  -4  -1 93.8599 4.79795   8
   8  -4  -1 88.9951 7.23097   3
   8  -4  -1 111.120 6.32762  17
   7  -4  -1 3.45576 1.23107   6
   7  -4  -1 1.63078 0.42332  10
   7  -4  -1 2.75424 0.74480  16
   7  -4  -1 2.27378 1.05453   3
   7  -4  -1 2.18893 0.40998   9
   7  -4  -1 2.05811 0.34231   8
   7  -4  -1 0.92051 1.09103   2
   7  -4  -1 2.47461 1.48927   7
   6  -4  -1 3.79155 0.78326  16
   6  -4  -1 3.56544 0.34751   8
   6  -4  -1 3.05145 0.97946   3
   6  -4  -1 5.55957 1.17919   2
   6  -4  -1 3.46434 0.46419  10
   6  -4  -1 2.85306 1.31441   7
   6  -4  -1 4.21324 1.32030   6
   6  -4  -1 3.72284 0.42894   9
   6  -4  -1 4.86435 0.68401  14
   5  -4  -1 23.2254 2.00994   2
   5  -4  -1 21.0141 2.52892   6
   5  -4  -1 21.8302 2.02469   3
   5  -4  -1 29.7217 2.95002   7
   4  -4  -1 227.113 13.5630   2
   4  -4  -1 251.893 14.6515   3
   4  -4  -1 247.026 15.1059   7
   4  -4  -1 260.975 15.3788   6
   4  -4  -1 249.110 13.5793   2
   4  -4  -1 230.438 14.6443   3
   4  -4  -1 221.058 12.3429   1
  -4   4   1 212.582 12.3455   1
   3  -4  -1 9.34642 1.46405   6
   3  -4  -1 10.2394 0.73147   1
   3  -4  -1 10.4041 0.81861   3
   3  -4  -1 9.44985 1.39359   7
   3  -4  -1 10.9542 0.77979   2
   3  -4  -1 11.2391 1.53670   5
   3  -4  -1 9.20936 0.80976   2
   3  -4  -1 9.52075 0.69002   1
   3  -4  -1 10.5558 0.82113   3
  -3   4   1 8.50309 0.70543   1
  -3   4   1 8.18541 0.68030   1
   2  -4  -1 68.7463 4.93491   6
   2  -4  -1 70.8229 4.59532   4
   2  -4  -1 70.8331 5.00414   5
   2  -4  -1 64.1752 4.70779   7
   1  -4  -1 101.800 7.01733   5
   1  -4  -1 101.231 6.67080   6
   1  -4  -1 99.1692 6.51881   4
   1  -4  -1 99.7293 6.52594   7
   0  -4  -1 376.309 20.2258   2
   0  -4  -1 375.549 21.8469   3
   0  -4  -1 359.060 18.3894   1
   0  -4  -1 327.526 21.9548   6
   0  -4  -1 355.139 22.6997   5
   0  -4  -1 360.103 20.1875   2
   0  -4  -1 381.063 21.6448   4
   0  -4  -1 336.144 18.3942   1
   0  -4  -1 368.148 21.8832   3
   0   4   1 344.405 18.4209   1
   0   4   1 368.614 18.4135   1
  -1  -4  -1 22.6097 1.93817   3
  -1  -4  -1 19.2240 1.96807   2
  -1  -4  -1 23.8107 2.63089   5
  -1  -4  -1 25.3358 2.36474   4
  -1  -4  -1 26.0038 2.00502   2
  -2  -4  -1 20.1102 2.11544   3
  -2  -4  -1 19.2658 2.27339   4
  -2  -4  -1 21.5435 2.05283   2
  -2  -4  -1 23.8194 2.78292   5
  -3  -4  -1 37.0725 3.16297   2
  -3  -4  -1 40.8123 3.47300   4
  -3  -4  -1 29.4434 1.92190  10
  -3  -4  -1 36.6466 3.21887   3
  -3  -4  -1 33.4226 1.85523   9
  -3  -4  -1 33.6071 1.84889   8
  -3  -4  -1 38.2154 3.81040   5
  -4  -4  -1 88.4688 4.41404   9
  -4  -4  -1 89.9733 6.49173   2
  -4  -4  -1 90.9533 6.82581   3
  -4  -4  -1 91.1442 7.57651   5
  -4  -4  -1 83.7685 4.44314  10
  -4  -4  -1 87.3325 4.48908   8
  -5  -4  -1 0.66398 1.60321   3
  -5  -4  -1 2.08083 1.72737   2
  -5  -4  -1 5.17894 0.66453  10
  -5  -4  -1 5.71110 0.66655   8
  -5  -4  -1 4.56105 0.61144   9
  -5  -4  -1 6.12801 2.34070   5
  -6  -4  -1 22.1968 1.52585   9
  -6  -4  -1 20.9223 1.36564   8
  -6  -4  -1 18.4802 1.53435  10
  -6  -4  -1 25.2234 2.26955  13
  -7  -4  -1 22.6971 2.17146  13
  -7  -4  -1 21.5507 1.41058   9
  -7  -4  -1 19.3037 1.23776   8
  -8  -4  -1 16.6994 1.63894  13
  -8  -4  -1 18.3121 1.18116   9
  11  -5  -1 0.91973 0.56067  17
  11  -5  -1 0.83236 0.49149  10
  10  -5  -1 21.5612 1.44394  10
  10  -5  -1 24.7917 1.37923   9
  10  -5  -1 18.2052 1.79382  16
  10  -5  -1 22.7449 2.06886  17
   9  -5  -1 89.6825 4.47902  10
   9  -5  -1 84.8006 4.35077   9
   9  -5  -1 80.5640 5.86151  16
   9  -5  -1 92.6248 5.86753  17
   8  -5  -1 33.7806 5.14653   7
   8  -5  -1 44.3265 3.33574  17
   8  -5  -1 43.4912 2.23682   9
   8  -5  -1 39.1804 3.99987   2
   8  -5  -1 37.9956 4.20107   6
   8  -5  -1 38.8949 2.28338  10
   8  -5  -1 40.9812 3.15939  16
   7  -5  -1 7.40438 0.95536  15
   7  -5  -1 6.78469 1.83014   6
   7  -5  -1 9.24715 0.74999   9
   7  -5  -1 8.60242 0.75922  10
   7  -5  -1 9.18467 1.74614   2
   7  -5  -1 9.95627 1.30133  16
   7  -5  -1 6.65070 2.17378   7
   7  -5  -1 8.41612 1.48294   3
   7  -5  -1 8.66439 1.31905  17
   6  -5  -1 7.98674 1.21958   3
   6  -5  -1 7.74712 0.68831  10
   6  -5  -1 8.21367 1.00614  16
   6  -5  -1 7.59829 1.32330   2
   6  -5  -1 8.55327 1.15777  17
   6  -5  -1 7.22074 0.92551  15
   6  -5  -1 7.82505 0.98288  14
   6  -5  -1 6.39628 1.88253   7
   6  -5  -1 8.23715 1.84028   6
   6  -5  -1 6.99569 0.59079   9
   5  -5  -1 4.82073 1.54323   7
   5  -5  -1 5.34619 1.49559   6
   5  -5  -1 6.44198 0.92162   2
   5  -5  -1 6.73689 0.95419   3
   4  -5  -1 2.88720 1.07664   6
   4  -5  -1 2.27933 1.07171   7
   3  -5  -1 1.00101 0.81648   5
   3  -5  -1 1.33756 0.73283   7
   3  -5  -1 -0.2673 0.64268   6
   2  -5  -1 41.3080 3.43945   6
   2  -5  -1 43.2609 3.68412   5
   2  -5  -1 44.5761 3.30353   4
   2  -5  -1 39.9090 3.26134   7
   1  -5  -1 406.369 23.6107   4
   1  -5  -1 371.002 24.1748   6
   1  -5  -1 399.065 24.8854   5
   0  -5  -1 67.7100 4.08412   2
   0  -5  -1 71.6558 4.12158   2
   0  -5  -1 71.5765 5.11222   4
   0  -5  -1 67.4934 5.51834   5
   0  -5  -1 60.7999 3.69820   1
   0  -5  -1 70.5640 4.38141   3
   0  -5  -1 71.3376 4.43007   3
  -1  -5  -1 42.9146 3.79492   4
  -1  -5  -1 44.8370 3.30473   3
  -1  -5  -1 44.8918 3.18942   2
  -1  -5  -1 46.5103 4.33018   5
  -2  -5  -1 472.333 23.1744  10
  -2  -5  -1 528.326 30.0286   4
  -2  -5  -1 452.562 30.2615  12
  -2  -5  -1 455.476 28.4873  11
  -2  -5  -1 486.303 29.0576  13
  -2  -5  -1 527.268 30.5021   3
  -2  -5  -1 484.986 23.0225   9
  -2  -5  -1 534.683 28.2847   2
  -2  -5  -1 512.170 31.8470   5
  -3  -5  -1 6.91788 1.48777   2
  -3  -5  -1 8.45267 0.72623   9
  -3  -5  -1 12.0818 2.51033   5
  -3  -5  -1 7.12549 1.01883  12
  -3  -5  -1 9.70491 0.82762  10
  -3  -5  -1 6.99968 0.92632  11
  -3  -5  -1 9.18450 1.75726   3
  -3  -5  -1 8.94004 1.26928  13
  -4  -5  -1 12.3323 0.79885   8
  -4  -5  -1 10.6083 2.19574   3
  -4  -5  -1 13.3111 2.90205   5
  -4  -5  -1 14.0487 1.04616   9
  -4  -5  -1 16.9340 1.66628  13
  -4  -5  -1 13.8778 2.34657   2
  -4  -5  -1 14.0730 1.11758  10
  -4  -5  -1 13.3620 1.44420  12
  -5  -5  -1 3.09117 1.05009  13
  -5  -5  -1 2.79210 0.62428  10
  -5  -5  -1 2.56844 0.54130   9
  -6  -5  -1 5.46318 0.65017   9
  -6  -5  -1 5.80460 0.79920  10
  -6  -5  -1 6.28774 1.09784  13
  -7  -5  -1 11.9094 1.02174  10
  -7  -5  -1 12.2723 1.39133  13
  -7  -5  -1 12.2462 0.97187   9
  -8  -5  -1 0.02342 0.47988  13
  -8  -5  -1 0.07794 0.22888   9
  11  -6  -1 10.9155 0.92672  10
  11  -6  -1 10.5176 1.21391  17
  10  -6  -1 16.0492 1.72600  17
  10  -6  -1 14.5917 1.08509  10
  10  -6  -1 15.3824 1.53178  16
   9  -6  -1 0.99045 0.99579  17
   9  -6  -1 0.21380 0.54592  16
   9  -6  -1 0.50119 0.41861  10
   8  -6  -1 0.65617 0.63625  16
   8  -6  -1 1.31119 2.31135   7
   8  -6  -1 0.79375 0.63074  15
   8  -6  -1 0.59840 0.31107   9
   8  -6  -1 0.52513 0.98849  17
   8  -6  -1 0.89935 0.38493  10
   8  -6  -1 0.31530 1.25196   6
   7  -6  -1 288.355 15.5459  14
   7  -6  -1 246.900 15.5569  16
   7  -6  -1 253.228 11.8077  10
   7  -6  -1 244.608 15.6118  15
   7  -6  -1 240.828 16.8765   6
   7  -6  -1 236.290 15.3720   3
   7  -6  -1 249.354 11.5991   9
   7  -6  -1 218.202 17.3052   7
   7  -6  -1 243.413 14.3143   2
   7  -6  -1 238.219 14.7163  17
   6  -6  -1 21.5084 1.99739  16
   6  -6  -1 21.6319 1.92989  15
   6  -6  -1 23.6603 1.91314  14
   6  -6  -1 22.3610 3.48122   7
   6  -6  -1 19.1921 1.97980  17
   6  -6  -1 22.3756 1.23960  10
   6  -6  -1 20.1886 3.08261   6
   5  -6  -1 12.4985 2.13331   6
   5  -6  -1 9.73332 2.02568   7
   5  -6  -1 11.7159 1.33916  15
   5  -6  -1 12.0879 1.38056  16
   5  -6  -1 12.5744 1.19294  13
   5  -6  -1 12.6775 1.28529  14
   5  -6  -1 10.4946 1.22329  17
   5  -6  -1 10.0452 0.68572  10
   4  -6  -1 9.97807 0.99354  13
   4  -6  -1 10.9870 1.11381  16
   4  -6  -1 10.0068 1.19063  15
   4  -6  -1 10.3270 1.13355  14
   4  -6  -1 11.6573 1.98083   6
   4  -6  -1 10.1733 1.82898   7
   3  -6  -1 44.1423 3.84991   5
   3  -6  -1 41.0931 3.57551   7
   3  -6  -1 46.1506 3.90799   6
   2  -6  -1 4.75969 1.08438   7
   2  -6  -1 4.71617 1.21476   4
   2  -6  -1 3.75439 1.10632   6
   2  -6  -1 5.24449 1.51677   5
   1  -6  -1 139.933 9.73427   5
   1  -6  -1 123.421 8.57260  12
   1  -6  -1 143.424 9.03332   4
   0  -6  -1 46.0932 3.85813   4
   0  -6  -1 39.9765 2.03135  10
   0  -6  -1 38.5370 2.87391  12
   0  -6  -1 40.8576 4.18971   5
   0  -6  -1 41.4315 2.79082  18
   0  -6  -1 40.6687 2.69573  11
   0  -6  -1 38.6848 2.81943  13
  -1  -6  -1 0.25674 0.22399  10
  -1  -6  -1 0.34588 0.42739  18
  -1  -6  -1 0.01650 0.56984  14
  -1  -6  -1 0.58088 0.49265  13
  -1  -6  -1 -0.1429 0.92284   5
  -1  -6  -1 -0.4902 0.98970   4
  -1  -6  -1 0.08069 0.57094   2
  -1  -6  -1 0.00026 0.46479  11
  -1  -6  -1 0.01531 0.43658   3
  -1  -6  -1 0.33282 0.37987  12
  -1  -6  -1 0.03724 0.17306   9
  -2  -6  -1 180.236 13.6218   5
  -2  -6  -1 181.113 11.5493  12
  -2  -6  -1 182.554 8.75024  10
  -2  -6  -1 184.335 11.0532   2
  -2  -6  -1 167.481 11.7338   3
  -2  -6  -1 185.987 8.63717   9
  -2  -6  -1 183.199 10.8481  11
  -2  -6  -1 188.753 11.2707  13
  -3  -6  -1 40.9220 3.75063   2
  -3  -6  -1 43.0131 2.30017  10
  -3  -6  -1 34.6459 3.68062   3
  -3  -6  -1 47.5592 6.00445   5
  -3  -6  -1 40.5748 2.81503  11
  -3  -6  -1 43.3976 2.22402   9
  -3  -6  -1 37.5062 3.00285  12
  -3  -6  -1 45.5941 3.38619  13
  -4  -6  -1 15.4366 1.93100  13
  -4  -6  -1 13.0048 1.50628  12
  -4  -6  -1 13.6108 1.00318   9
  -4  -6  -1 13.7897 1.12498  10
  -5  -6  -1 31.8090 1.81380   9
  -5  -6  -1 33.1757 2.70936  13
  -5  -6  -1 32.5285 1.97183  10
  -6  -6  -1 87.7424 4.47617  10
  -6  -6  -1 85.1552 4.28167   9
  -6  -6  -1 92.4676 5.82405  13
  -7  -6  -1 0.22140 0.40250  10
  -7  -6  -1 0.03306 0.48080  13
  11  -7  -1 2.53468 0.64854  17
  11  -7  -1 2.31717 0.57933  16
  10  -7  -1 19.5671 1.86101  17
  10  -7  -1 14.3966 1.55517  16
  10  -7  -1 19.2226 1.16043  10
   9  -7  -1 0.97976 0.83857  17
   9  -7  -1 2.02395 0.96358  16
   9  -7  -1 1.43054 0.57789  15
   9  -7  -1 1.08661 0.38511  10
   8  -7  -1 7.04373 1.09464  15
   8  -7  -1 7.47016 0.68349  10
   8  -7  -1 8.63378 1.37544  16
   8  -7  -1 9.21149 1.40655  17
   7  -7  -1 7.28493 2.00555   6
   7  -7  -1 9.02513 1.29357  16
   7  -7  -1 11.0560 1.30559  14
   7  -7  -1 9.02034 1.30561  17
   7  -7  -1 8.51552 0.66612  10
   7  -7  -1 9.16045 1.25564  15
   6  -7  -1 3.17485 0.78958  16
   6  -7  -1 2.93634 0.32301  10
   6  -7  -1 2.38516 1.61162   6
   6  -7  -1 4.07986 0.78861  14
   6  -7  -1 1.78010 0.81362  17
   6  -7  -1 2.00212 0.82209  15
   5  -7  -1 32.5916 2.51452  12
   5  -7  -1 37.2757 2.60229  14
   5  -7  -1 32.1841 1.64395  10
   5  -7  -1 39.4625 2.55545  13
   5  -7  -1 34.8397 2.77417  16
   5  -7  -1 34.7610 2.71771  15
   5  -7  -1 29.2539 2.49113  17
   5  -7  -1 36.7814 3.95753   6
   4  -7  -1 437.377 26.0972  14
   4  -7  -1 437.682 25.0123  13
   4  -7  -1 431.757 27.0929   6
   4  -7  -1 420.928 26.0716  16
   4  -7  -1 423.688 26.1138  12
   4  -7  -1 433.048 26.3411  15
   4  -7  -1 384.068 24.2711  17
   3  -7  -1 235.640 13.8003  15
   3  -7  -1 214.511 14.4920   6
   3  -7  -1 217.256 13.6758  12
   3  -7  -1 225.631 13.1274  13
   3  -7  -1 228.157 14.8792   5
   3  -7  -1 201.865 13.2093  18
   3  -7  -1 212.392 13.6084  16
   3  -7  -1 203.247 12.6691  17
   3  -7  -1 224.013 13.6714  14
   3  -7  -1 221.175 12.8573  11
   2  -7  -1 3.03018 0.61263  17
   2  -7  -1 3.33153 1.66421   5
   2  -7  -1 3.33380 0.78315  14
   2  -7  -1 4.13357 0.79461  15
   2  -7  -1 4.16612 0.79374  18
   2  -7  -1 2.79409 0.78714  12
   2  -7  -1 3.90695 0.75887  13
   2  -7  -1 4.70744 0.75743  11
   1  -7  -1 113.195 8.82444   5
   1  -7  -1 104.159 5.27567  10
   1  -7  -1 119.132 7.32631  12
   1  -7  -1 122.025 6.87084  11
   1  -7  -1 110.939 7.03008  13
   1  -7  -1 100.360 7.21951  14
   1  -7  -1 122.096 8.18459   4
   1  -7  -1 120.092 7.10168  18
   1  -7  -1 104.822 6.68846  17
   0  -7  -1 262.785 18.7767   5
   0  -7  -1 269.797 16.3854  13
   0  -7  -1 236.546 16.8935  14
   0  -7  -1 280.416 17.0649  12
   0  -7  -1 261.864 12.8227  10
   0  -7  -1 305.260 16.5763  18
   0  -7  -1 286.969 16.0501  11
  -1  -7  -1 88.0892 4.34379  10
  -1  -7  -1 98.6204 5.62972  11
  -1  -7  -1 82.0795 8.01210   5
  -1  -7  -1 92.6097 5.93261  13
  -1  -7  -1 91.6329 5.95988  12
  -1  -7  -1 76.3361 5.82304  14
  -2  -7  -1 18.1451 1.89878  12
  -2  -7  -1 20.5570 1.23262  10
  -2  -7  -1 16.0742 3.63700   5
  -2  -7  -1 19.2996 1.77268  11
  -2  -7  -1 20.6880 2.00336  13
  -3  -7  -1 1.35831 0.42509  10
  -3  -7  -1 -0.2658 0.55780  11
  -3  -7  -1 1.69486 0.75609  12
  -3  -7  -1 1.57972 1.09709  13
  -4  -7  -1 1.91854 0.48413  10
  -4  -7  -1 2.12278 1.05960  13
  -4  -7  -1 1.95143 0.74962  12
  -5  -7  -1 16.0378 1.16534  10
  -5  -7  -1 18.1284 1.97922  13
  -6  -7  -1 9.13017 1.04830  13
  11  -8  -1 13.1745 1.18921  17
  11  -8  -1 9.39118 1.04170  16
  10  -8  -1 -0.1191 0.58725  17
  10  -8  -1 -0.4118 0.75830  16
   9  -8  -1 209.012 12.9165  16
   9  -8  -1 197.695 12.2226  17
   8  -8  -1 11.4614 1.45509  16
   8  -8  -1 9.33203 1.37100  17
   8  -8  -1 8.12449 1.24073  15
   7  -8  -1 41.6031 3.36347  15
   7  -8  -1 42.8600 3.54903  16
   7  -8  -1 40.1612 3.34087  17
   7  -8  -1 51.3245 3.40080  14
   6  -8  -1 63.6360 4.32042  14
   6  -8  -1 55.3179 4.08285  17
   6  -8  -1 55.0357 5.56920   6
   6  -8  -1 66.8142 4.12840  13
   6  -8  -1 58.2156 4.41443  16
   6  -8  -1 60.9147 4.39645  15
   5  -8  -1 225.575 16.7108   6
   5  -8  -1 239.306 15.5192  12
   5  -8  -1 262.882 15.6030  14
   5  -8  -1 229.766 14.4959  17
   5  -8  -1 257.611 15.7624  15
   5  -8  -1 268.858 14.9486  13
   4  -8  -1 3.10317 0.70864  13
   4  -8  -1 3.98371 0.78691  14
   4  -8  -1 3.60378 0.79040  17
   4  -8  -1 3.79552 0.78292  15
   4  -8  -1 3.77918 1.74418   6
   4  -8  -1 3.65651 0.96604  16
   4  -8  -1 3.22169 0.75581  12
   4  -8  -1 3.32855 0.66672  11
   3  -8  -1 -0.0734 0.57679  13
   3  -8  -1 0.03560 0.40501  12
   3  -8  -1 -0.5974 0.52920  17
   3  -8  -1 -0.1975 0.51944  11
   3  -8  -1 -0.1773 0.57550  18
   3  -8  -1 0.13085 0.41140  14
   3  -8  -1 -0.8799 0.57224  15
   3  -8  -1 0.57139 1.54995   5
   3  -8  -1 -0.4191 0.58338  16
   2  -8  -1 -0.1135 0.63126  14
   2  -8  -1 1.14638 0.77298  13
   2  -8  -1 -0.0386 0.42488  11
   2  -8  -1 -0.1464 0.56734  15
   2  -8  -1 -0.1670 1.69567   5
   2  -8  -1 0.18526 0.65783  18
   2  -8  -1 0.15102 0.44266  12
   1  -8  -1 205.232 13.0786  12
   1  -8  -1 188.161 14.7295   5
   1  -8  -1 206.577 12.5947  13
   1  -8  -1 220.514 12.3126  11
   1  -8  -1 224.666 12.6833  18
   1  -8  -1 182.589 12.9165  14
   0  -8  -1 7.69214 1.32537  13
   0  -8  -1 6.64783 1.06060  14
   0  -8  -1 6.09853 0.43732  10
   0  -8  -1 10.6034 1.09006  11
   0  -8  -1 3.46959 2.57528   5
   0  -8  -1 8.73701 1.21496  12
  -1  -8  -1 15.7045 1.41743  11
  -1  -8  -1 12.2900 0.87245  10
  -1  -8  -1 15.2624 1.71149  13
  -1  -8  -1 14.4445 1.51787  12
  -2  -8  -1 17.4071 1.15275  10
  -2  -8  -1 18.1834 1.77969  11
  -2  -8  -1 18.8564 1.90490  12
  -2  -8  -1 19.0788 2.01318  13
  -3  -8  -1 32.6954 1.85079  10
  -3  -8  -1 37.8292 3.10029  13
  -3  -8  -1 33.3378 2.60429  12
  -4  -8  -1 12.5193 1.19407  12
  -4  -8  -1 12.3062 0.85530  10
  -4  -8  -1 11.9013 1.47454  13
  -5  -8  -1 0.66395 0.51855  13
  -5  -8  -1 1.46084 0.26362  10
  10  -9  -1 69.7721 4.68148  17
  10  -9  -1 81.5573 5.08415  16
   9  -9  -1 2.66385 0.95081  17
   9  -9  -1 2.28162 0.96904  16
   8  -9  -1 0.71236 0.89049  17
   8  -9  -1 0.58128 0.57651  15
   8  -9  -1 0.60078 0.94673  16
   7  -9  -1 7.93452 1.42162  16
   7  -9  -1 6.22838 0.98584  17
   7  -9  -1 6.04623 1.10246  15
   7  -9  -1 7.88332 1.16036  14
   6  -9  -1 6.04900 1.11026  16
   6  -9  -1 4.13653 1.01114  15
   6  -9  -1 5.73399 0.88512  17
   6  -9  -1 5.67661 0.94685  14
   5  -9  -1 -0.1312 0.69471  15
   5  -9  -1 -0.0835 0.44734  17
   5  -9  -1 1.05808 0.58250  14
   5  -9  -1 0.52157 0.67067  13
   5  -9  -1 0.11107 0.43190  12
   5  -9  -1 -0.1599 0.74647  16
   4  -9  -1 9.75104 1.21985  13
   4  -9  -1 7.15430 1.05838  12
   4  -9  -1 9.68098 1.24804  16
   4  -9  -1 9.67023 1.24263  14
   4  -9  -1 8.89697 1.22255  15
   3  -9  -1 95.2500 6.05228  13
   3  -9  -1 86.9258 6.16523  15
   3  -9  -1 94.5643 6.22530  14
   3  -9  -1 93.6087 6.24169  12
   3  -9  -1 97.1592 5.79268  11
   3  -9  -1 88.6870 5.94925  18
   2  -9  -1 9.36510 1.25997  13
   2  -9  -1 7.91061 1.24347  12
   2  -9  -1 8.56272 1.26495  14
   2  -9  -1 9.29354 1.09190  11
   2  -9  -1 10.1143 1.14071  18
   1  -9  -1 46.6540 3.55264  13
   1  -9  -1 51.7233 3.43571  11
   1  -9  -1 51.8677 3.63629  12
   1  -9  -1 45.9148 3.58701  14
   0  -9  -1 53.4128 4.01648  12
   0  -9  -1 56.0685 3.67985  11
   0  -9  -1 54.9399 4.00399  13
  -1  -9  -1 107.468 7.16298  13
  -1  -9  -1 111.720 6.75972  11
  -1  -9  -1 108.643 7.24699  12
  -2  -9  -1 9.15960 1.23178  12
  -2  -9  -1 12.0292 1.55137  13
  -3  -9  -1 1.69067 0.51041  12
  -3  -9  -1 0.81691 0.94347  13
  -4  -9  -1 -0.0059 0.45811  13
   9 -10  -1 1.66166 0.71713  16
   8 -10  -1 11.9567 1.54455  16
   7 -10  -1 -1.0646 0.89002  16
   7 -10  -1 0.70286 0.59432  14
   6 -10  -1 -0.1203 0.86435  16
   6 -10  -1 0.78887 0.77143  15
   6 -10  -1 0.76139 0.55589  14
   5 -10  -1 4.17601 0.92321  13
   5 -10  -1 2.69969 0.90224  16
   5 -10  -1 4.64038 0.88840  15
   5 -10  -1 4.59238 0.86587  14
   4 -10  -1 29.1537 2.24276  13
   4 -10  -1 27.1392 2.03980  11
   4 -10  -1 28.0535 2.40657  14
   4 -10  -1 27.0801 2.35137  15
   4 -10  -1 28.9727 2.27899  12
   3 -10  -1 -0.1224 0.41312  11
   3 -10  -1 0.24549 0.51240  12
   3 -10  -1 0.67289 0.74118  14
   3 -10  -1 0.14039 0.79774  13
   2 -10  -1 31.2906 2.31098  11
   2 -10  -1 33.9827 2.64723  12
   2 -10  -1 27.6699 2.48150  14
   2 -10  -1 32.6615 2.52707  13
   1 -10  -1 6.39131 0.99755  12
   1 -10  -1 6.85638 0.87693  11
   1 -10  -1 3.92342 1.13821  13
   0 -10  -1 2.40510 0.88709  13
   0 -10  -1 2.54535 0.70630  12
  -1 -10  -1 66.0236 4.55283  13
  -1 -10  -1 66.4784 4.54123  12
  -2 -10  -1 0.79168 0.44380  12
  -2 -10  -1 0.40001 0.59480  13
   8 -11  -1 0.55250 0.55601  16
   7 -11  -1 12.3943 1.37114  16
   6 -11  -1 0.86759 0.74194  16
   6 -11  -1 0.67811 0.74694  14
   5 -11  -1 43.4492 3.09932  14
   4 -11  -1 12.9724 1.36834  12
   4 -11  -1 14.3008 1.38860  14
   4 -11  -1 15.1099 1.37223  13
   3 -11  -1 1.18245 0.75584  12
   3 -11  -1 -0.0339 0.47900  14
   3 -11  -1 -0.2984 0.52389  13
   2 -11  -1 14.2831 1.58324  13
   2 -11  -1 13.6293 1.41404  12
   1 -11  -1 51.0760 3.50051  13
   1 -11  -1 49.8547 3.53262  12
   0 -11  -1 25.8080 2.03775  13
  -1 -11   2 0.99616 0.52375  12
   0 -11   2 2.52748 0.72008  12
   1 -11   2 1.96265 0.91897  12
   2 -11   2 86.4539 5.84111  12
   3 -11   2 0.22752 0.48921  12
   3 -11   2 0.42328 0.52091  18
   4 -11   2 1.54999 0.72267  17
   4 -11   2 1.31965 0.69232  18
   5 -11   2 5.08004 0.92705  17
   5 -11   2 5.59040 1.00765  16
   6 -11   2 1.18649 0.76978  17
   6 -11   2 1.85433 0.62653  16
   7 -11   2 16.6211 1.54334  16
   7 -11   2 15.5063 1.46464  17
   8 -11   2 6.38879 0.91977  16
  -2 -10   2 29.7741 2.42830  13
  -2 -10   2 30.9729 2.33946  12
  -1 -10   2 0.32658 0.84380  12
  -1 -10   2 0.19946 0.58573  13
   0 -10   2 64.4638 4.39782  12
   0 -10   2 60.1894 3.95140  11
   0 -10   2 52.7539 3.94493  13
   1 -10   2 170.829 10.7587  12
   1 -10   2 177.259 10.3897  18
   1 -10   2 164.023 10.0078  11
   1 -10   2 152.896 10.1061  13
   2 -10   2 27.9372 2.32594  13
   2 -10   2 32.5910 2.34169  11
   2 -10   2 30.2703 2.58292  12
   2 -10   2 29.9451 2.55593  18
   3 -10   2 1.32671 0.55942  11
   3 -10   2 0.97160 0.55811  12
   3 -10   2 2.04684 0.85917  18
   3 -10   2 0.77220 0.55541  17
   3 -10   2 0.81931 0.57457  16
   4 -10   2 2.39818 0.81254  18
   4 -10   2 2.68709 0.69565  16
   4 -10   2 3.14994 0.74862  17
   4 -10   2 1.36019 0.74605  15
   4 -10   2 1.39853 0.65952  11
   4 -10   2 1.53068 0.66852  14
   5 -10   2 2.47681 0.92825  16
   5 -10   2 1.57508 0.63780  15
   5 -10   2 2.56063 0.76900  17
   5 -10   2 2.43513 0.66799  18
   6 -10   2 1.63021 0.83136  15
   6 -10   2 3.71131 0.89287  16
   6 -10   2 2.71139 0.97935  17
   7 -10   2 1.12269 0.85460  16
   7 -10   2 1.15999 0.72915  17
   7 -10   2 1.22023 0.57249  15
   8 -10   2 14.1391 1.63891  17
   8 -10   2 15.0399 1.50572  16
   9 -10   2 8.98404 1.14836  17
   9 -10   2 12.2802 1.19374  16
  -4  -9   2 2.01977 0.55226  12
  -4  -9   2 4.75451 0.77564  13
  -3  -9   2 0.71679 0.77142  12
  -3  -9   2 1.59558 0.77283  13
  -2  -9   2 1.68654 0.87434  13
  -2  -9   2 0.87040 0.64162  12
  -1  -9   2 98.9520 6.64933  13
  -1  -9   2 105.426 6.44626  11
  -1  -9   2 101.985 6.90052  12
   0  -9   2 30.6075 2.82825  13
   0  -9   2 35.9665 3.03430  12
   0  -9   2 36.5211 2.90481  18
   0  -9   2 38.3649 2.77769  11
   1  -9   2 1.63023 0.87592  12
   1  -9   2 0.35844 0.78851  18
   1  -9   2 1.44881 0.60424  11
   1  -9   2 0.71065 0.74922  13
   2  -9   2 38.4843 2.72138  17
   2  -9   2 37.9417 2.83136  18
   2  -9   2 35.6224 2.60560  11
   2  -9   2 33.3165 2.66698  13
   2  -9   2 37.1606 2.91270  12
   2  -9   2 31.6441 2.72590  16
   3  -9   2 253.038 16.1077  12
   3  -9   2 264.008 15.6984  18
   3  -9   2 257.126 15.1662  11
   3  -9   2 255.775 16.0215  16
   3  -9   2 272.063 15.0514  17
   3  -9   2 253.542 15.9319  14
   3  -9   2 240.409 15.2983  13
   3  -9   2 254.969 16.0870  15
   4  -9   2 29.2443 2.41311  16
   4  -9   2 29.2011 2.36215  15
   4  -9   2 26.1412 2.13373  13
   4  -9   2 26.7566 2.21480  14
   4  -9   2 28.1062 2.30922  18
   4  -9   2 23.2315 1.97897  11
   4  -9   2 27.6499 2.38032  17
   5  -9   2 5.15161 1.00106  17
   5  -9   2 7.12330 1.05625  14
   5  -9   2 6.11422 1.08324  15
   5  -9   2 5.13880 1.13718  16
   5  -9   2 6.40720 0.95834  18
   6  -9   2 -0.4140 0.84668  16
   6  -9   2 -0.0896 0.68814  18
   6  -9   2 -0.0036 0.85992  17
   6  -9   2 -0.7385 0.48983  15
   7  -9   2 40.9455 3.19628  17
   7  -9   2 43.5496 3.12889  15
   7  -9   2 39.4070 3.16413  16
   8  -9   2 56.2976 3.86418  15
   8  -9   2 51.0277 3.96495  16
   8  -9   2 55.5472 3.93116  17
   9  -9   2 4.46683 0.96960  17
   9  -9   2 2.23591 0.71220  16
  10  -9   2 6.70800 0.88059  17
  10  -9   2 3.90877 0.64104  16
  -5  -8   2 1.27775 0.61470  12
  -5  -8   2 1.43114 0.66129  13
  -4  -8   2 12.1329 0.85001  10
  -4  -8   2 13.0539 1.61445  13
  -4  -8   2 10.3265 1.28474  12
  -3  -8   2 42.9825 2.10511  10
  -3  -8   2 36.6521 2.75476  11
  -3  -8   2 36.5501 3.07563  12
  -3  -8   2 34.5925 3.32737  13
  -2  -8   2 35.6497 3.21105  13
  -2  -8   2 34.4737 3.03568  12
  -2  -8   2 37.7973 2.76747  11
  -2  -8   2 37.6902 1.97103  10
  -1  -8   2 2.02754 0.62884  11
  -1  -8   2 2.17516 0.29484  10
  -1  -8   2 1.53742 2.19750   4
  -1  -8   2 2.39955 0.89256  12
  -1  -8   2 2.22070 1.04694  13
  -1  -8   2 4.00069 0.84121  18
   0  -8   2 28.0037 2.41899  12
   0  -8   2 28.4070 2.32985  13
   0  -8   2 29.9363 3.80893   4
   0  -8   2 28.6070 2.34727  11
   0  -8   2 30.4068 2.52579  18
   1  -8   2 4.82014 0.91295  11
   1  -8   2 3.16713 1.67943   4
   1  -8   2 5.73877 1.01811  18
   1  -8   2 5.98643 0.97734  17
   1  -8   2 5.40030 0.98496  13
   1  -8   2 5.06065 1.00890  12
   1  -8   2 4.12641 0.90741  16
   2  -8   2 340.152 21.2342  16
   2  -8   2 351.086 19.9053  17
   2  -8   2 319.713 21.5873   4
   2  -8   2 369.379 20.8857  18
   2  -8   2 347.628 21.4524  12
   2  -8   2 320.476 20.3952  13
   2  -8   2 355.402 20.2092  11
   3  -8   2 109.191 7.28126  12
   3  -8   2 115.590 7.23561  14
   3  -8   2 119.286 6.93887  17
   3  -8   2 106.873 6.90632  13
   3  -8   2 100.932 7.27800  16
   3  -8   2 112.563 7.17935  18
   3  -8   2 115.986 6.91856  11
   3  -8   2 109.991 8.63946   7
   3  -8   2 115.460 7.32988  15
   4  -8   2 62.2336 4.14146  13
   4  -8   2 69.2208 4.52498  16
   4  -8   2 62.6959 4.27220  18
   4  -8   2 56.7396 4.06090  11
   4  -8   2 60.2820 5.65001   7
   4  -8   2 66.3689 4.36101  14
   4  -8   2 67.5304 4.47010  15
   4  -8   2 61.0152 4.17183  17
   5  -8   2 4.36522 0.88460  14
   5  -8   2 5.01674 0.96164  17
   5  -8   2 5.23519 0.91934  15
   5  -8   2 2.92848 2.15296   7
   5  -8   2 4.55423 0.96134  16
   5  -8   2 4.96939 0.92026  18
   6  -8   2 5.56545 1.01153  15
   6  -8   2 4.26891 2.96311   7
   6  -8   2 6.02697 1.07460  16
   6  -8   2 4.80663 0.95512  18
   6  -8   2 4.21325 1.06490  17
   7  -8   2 19.4813 2.14936  17
   7  -8   2 24.4340 2.15454  15
   7  -8   2 22.0510 2.06567  16
   8  -8   2 2.20010 0.71938  15
   8  -8   2 1.91991 0.28752  10
   8  -8   2 2.27121 1.01451  16
   8  -8   2 3.04400 1.20458  17
   9  -8   2 0.42003 0.21792  10
   9  -8   2 0.70663 1.00690  17
   9  -8   2 0.45156 0.59487  16
  10  -8   2 118.633 8.06916  16
  10  -8   2 139.439 7.87873  17
  -6  -7   2 1.90398 0.66393  13
  -6  -7   2 2.21488 0.39003  10
  -5  -7   2 7.53220 1.00280  12
  -5  -7   2 7.17601 0.70372  10
  -5  -7   2 7.78655 1.29239  13
  -4  -7   2 15.8735 1.13201  10
  -4  -7   2 14.0961 1.67781  12
  -4  -7   2 14.9339 1.97746  13
  -3  -7   2 4.44700 1.00699  12
  -3  -7   2 5.22327 0.61238  10
  -3  -7   2 5.71606 1.26590  13
  -3  -7   2 6.50905 0.87474  11
  -2  -7   2 28.2707 2.34451  18
  -2  -7   2 26.1965 2.09249  11
  -2  -7   2 24.2203 1.45072  10
  -2  -7   2 25.0990 2.28410  12
  -2  -7   2 20.9433 3.41838   4
  -2  -7   2 24.5245 2.28510  13
  -1  -7   2 0.05654 0.51074  13
  -1  -7   2 0.32738 1.04979   4
  -1  -7   2 -0.1447 0.48834  18
  -1  -7   2 0.25234 0.57277  11
  -1  -7   2 0.31236 0.64534  12
  -1  -7   2 -0.0227 0.18595  10
   0  -7   2 0.54297 0.18799  10
   0  -7   2 0.71021 0.66568  18
   0  -7   2 0.31268 0.59343  13
   0  -7   2 0.13212 0.41096  17
   0  -7   2 -0.1566 0.57521  12
   0  -7   2 0.55653 0.43982  11
   0  -7   2 0.22200 1.24551   4
   1  -7   2 331.070 21.0750  13
   1  -7   2 345.781 21.8859  16
   1  -7   2 363.901 22.1569  12
   1  -7   2 358.285 20.5236  17
   1  -7   2 361.924 22.3172   4
   1  -7   2 361.474 20.8536  11
   1  -7   2 375.098 21.5393  18
   2  -7   2 8.37197 0.98480  12
   2  -7   2 5.68870 0.91473  13
   2  -7   2 8.17169 1.94373   7
   2  -7   2 9.76277 1.05866  15
   2  -7   2 8.69082 1.06056  18
   2  -7   2 9.91308 1.17518  16
   2  -7   2 8.00913 1.06573  17
   2  -7   2 7.95727 0.99498  14
   2  -7   2 8.77564 0.96815  11
   2  -7   2 10.3539 1.88431   4
   3  -7   2 25.7721 1.88651  11
   3  -7   2 27.7761 2.12791  15
   3  -7   2 23.6889 2.02400  12
   3  -7   2 25.0544 3.33982   7
   3  -7   2 27.9439 2.11882  17
   3  -7   2 23.1089 2.68910   4
   3  -7   2 25.3187 2.07021  18
   3  -7   2 25.3374 2.15972  16
   3  -7   2 24.3368 1.91903  13
   3  -7   2 23.6601 1.98726  14
   4  -7   2 73.0024 4.89966  15
   4  -7   2 68.8169 4.74273  18
   4  -7   2 75.7157 4.79580  14
   4  -7   2 67.1006 4.53159  13
   4  -7   2 76.6111 4.95716  16
   4  -7   2 67.9129 6.18965   7
   4  -7   2 71.7115 4.64506  17
   5  -7   2 134.731 9.10339  18
   5  -7   2 162.465 9.35548  14
   5  -7   2 146.534 10.9187   7
   5  -7   2 142.302 8.84639  13
   5  -7   2 146.809 8.90371  17
   5  -7   2 138.554 6.91237  10
   5  -7   2 153.830 9.47663  15
   5  -7   2 149.377 9.44343  16
   6  -7   2 164.670 7.74011  10
   6  -7   2 167.894 10.4203  16
   6  -7   2 145.734 10.0578  18
   6  -7   2 145.778 12.1814   7
   6  -7   2 167.603 9.86436  17
   6  -7   2 174.055 10.4851  15
   7  -7   2 11.6110 1.44680  16
   7  -7   2 10.0694 1.31027  15
   7  -7   2 9.10874 0.77288  10
   7  -7   2 8.72660 2.78733   7
   7  -7   2 10.4043 1.50455  17
   8  -7   2 3.16511 0.96578  17
   8  -7   2 3.83564 0.54337  10
   8  -7   2 4.83151 0.96562  16
   8  -7   2 4.26363 0.84876  15
   9  -7   2 2.83684 1.01708  17
   9  -7   2 3.17004 0.81749  16
   9  -7   2 2.76109 0.46677  10
  10  -7   2 -0.2252 0.27610  10
  10  -7   2 -0.6689 0.73548  17
  11  -7   2 38.8634 2.59377  17
  11  -7   2 37.4331 1.90114  10
  -7  -6   2 0.83268 0.46140  10
  -7  -6   2 2.04879 0.87268  13
  -6  -6   2 0.88212 0.80029  13
  -6  -6   2 1.02302 0.52469  10
  -5  -6   2 55.1406 2.80929   9
  -5  -6   2 55.6050 4.08861  13
  -5  -6   2 49.6401 3.87500  12
  -5  -6   2 54.1213 2.94667  10
  -4  -6   2 237.396 10.6539  10
  -4  -6   2 223.603 13.9590  12
  -4  -6   2 234.499 10.4988   9
  -4  -6   2 215.484 13.7145  13
  -4  -6   2 191.873 16.4834   5
  -4  -6   2 189.218 14.7390   4
  -3  -6   2 2.09000 1.51155   4
  -3  -6   2 2.69743 0.79088  12
  -3  -6   2 2.32866 0.65838  11
  -3  -6   2 3.51526 1.18366  13
  -3  -6   2 3.47485 2.67246   5
  -3  -6   2 4.10513 0.54133  10
  -3  -6   2 2.13982 0.37974   9
  -3  -6   2 0.99306 0.97166   2
  -3  -6   2 3.41831 1.30237   3
  -2  -6   2 4.91147 0.93174  18
  -2  -6   2 4.97307 0.95812  13
  -2  -6   2 4.29534 0.49404  10
  -2  -6   2 3.45404 2.05558   5
  -2  -6   2 5.08694 0.81086  11
  -2  -6   2 3.62806 0.87018  12
  -2  -6   2 3.42831 0.96029   2
  -2  -6   2 5.00978 1.60990   4
  -2  -6   2 4.60154 0.43401   9
  -2  -6   2 3.30796 0.97860   3
  -1  -6   2 0.61350 0.34200   3
  -1  -6   2 0.63585 0.22130  10
  -1  -6   2 0.12489 1.24826   5
  -1  -6   2 0.47990 0.44760  18
  -1  -6   2 0.66961 0.62219  13
  -1  -6   2 0.68234 0.41319   2
  -1  -6   2 0.59249 0.51815  11
  -1  -6   2 0.42718 0.12962   9
  -1  -6   2 0.24039 0.40388  12
  -1  -6   2 1.10800 1.14101   4
   0  -6   2 31.7975 1.59902  10
   0  -6   2 31.3301 2.37854  12
   0  -6   2 29.0085 3.24553   4
   0  -6   2 26.7261 3.14017   5
   0  -6   2 33.6871 2.41894  18
   0  -6   2 31.6600 2.27623  11
   0  -6   2 33.0425 2.27801  17
   1  -6   2 109.794 7.49584   4
   1  -6   2 115.920 7.68557   7
   1  -6   2 93.0571 7.39242   5
   2  -6   2 93.5945 6.65957   7
   2  -6   2 92.7043 6.36370   4
   2  -6   2 81.6601 6.25905   5
   3  -6   2 6.92291 1.45099   6
   3  -6   2 3.03281 1.03292   4
   3  -6   2 8.89903 1.82094   7
   4  -6   2 91.3513 7.08936   7
   4  -6   2 91.4973 5.65081  17
   4  -6   2 87.1381 4.35711  10
   4  -6   2 90.2208 5.88421  14
   4  -6   2 97.8203 6.95724   6
   4  -6   2 94.2033 6.01396  15
   5  -6   2 98.0933 7.04083  18
   5  -6   2 116.889 7.29850  15
   5  -6   2 113.026 5.40469  10
   5  -6   2 112.531 7.30607  16
   5  -6   2 107.444 6.87286  17
   5  -6   2 119.641 7.22118  14
   5  -6   2 116.750 8.76247   7
   5  -6   2 118.563 8.42042   6
   6  -6   2 1.40498 0.37187  10
   6  -6   2 2.24986 0.81297  17
   6  -6   2 2.34188 0.81598  16
   6  -6   2 1.57134 0.53824  15
   6  -6   2 -0.3460 1.71162   7
   6  -6   2 1.27530 0.60856  18
   7  -6   2 0.11009 0.89438   2
   7  -6   2 -0.3458 0.32637  10
   7  -6   2 -0.2580 0.77540  16
   7  -6   2 0.45312 0.25617   9
   7  -6   2 -0.5606 2.02334   7
   7  -6   2 -0.0028 0.83671  17
   7  -6   2 0.01333 0.73543   3
   7  -6   2 0.09683 0.46619  15
   8  -6   2 5.56660 0.97042  15
   8  -6   2 7.00500 1.18730  17
   8  -6   2 6.54697 0.71621  10
   8  -6   2 6.36766 1.16372  16
   8  -6   2 6.06370 0.54332   9
   8  -6   2 5.24196 2.61477   7
   9  -6   2 22.0780 1.16991   9
   9  -6   2 21.4984 1.38013  10
   9  -6   2 24.2151 2.28844  17
   9  -6   2 18.4197 1.93441  16
  10  -6   2 0.74817 0.56160  17
  10  -6   2 -0.1764 0.26700  10
  11  -6   2 12.7768 0.82952  10
  11  -6   2 10.0010 1.20781  17
  -8  -5   2 0.11043 0.48717  10
  -8  -5   2 0.66685 0.55287  13
  -7  -5   2 -0.1519 0.38755  10
  -7  -5   2 -0.7129 0.38535   9
  -7  -5   2 -0.0298 0.91386  13
  -6  -5   2 57.1704 3.22518  10
  -6  -5   2 59.2937 3.16824   9
  -6  -5   2 63.8677 4.54664  13
  -5  -5   2 32.9084 2.67932  13
  -5  -5   2 24.0938 2.31919  12
  -5  -5   2 28.4008 1.71676   9
  -5  -5   2 27.9046 1.79005  10
  -5  -5   2 20.5073 4.48271   5
  -4  -5   2 19.8223 1.79042  12
  -4  -5   2 16.0913 2.80504   4
  -4  -5   2 21.9639 1.34250  10
  -4  -5   2 23.6613 4.09300   5
  -4  -5   2 20.3734 1.31335   9
  -4  -5   2 19.3997 2.67305   2
  -4  -5   2 19.0858 2.67204   3
  -4  -5   2 20.2759 2.31856  13
  -3  -5   2 0.59141 0.35491   9
  -3  -5   2 0.75944 0.33396  10
  -3  -5   2 0.68800 1.30633   4
  -3  -5   2 1.15323 0.92648   3
  -3  -5   2 0.26178 0.46559  11
  -3  -5   2 2.95927 1.17888   2
  -3  -5   2 0.54547 0.56198  12
  -3  -5   2 0.98698 1.79216   5
  -3  -5   2 0.47959 0.82311  13
  -2  -5   2 107.795 8.24881   5
  -2  -5   2 109.459 6.66801   2
  -2  -5   2 110.604 6.56838  18
  -2  -5   2 106.831 7.56640   4
  -2  -5   2 102.114 5.04175  10
  -2  -5   2 94.8260 4.96423   9
  -2  -5   2 101.981 6.73859  12
  -2  -5   2 111.463 7.10673   3
  -2  -5   2 95.5385 6.39272  11
  -1  -5   2 251.538 15.8147   3
  -1  -5   2 246.023 16.7746   5
  -1  -5   2 268.943 14.6690   2
  -1  -5   2 250.216 16.0560   4
   0  -5   2 55.6546 3.04891   2
   0  -5   2 46.3488 3.26341   3
   0  -5   2 57.7201 3.29514   3
   0  -5   2 50.3008 4.24922   5
   0  -5   2 55.6503 3.04370   2
   0  -5   2 50.9722 4.16316   4
   1  -5   2 53.1771 4.14081   7
   1  -5   2 44.6205 3.81396   5
   1  -5   2 53.9607 4.01263   4
   2  -5   2 15.0927 1.65177   6
   2  -5   2 14.4043 1.82481   4
   2  -5   2 16.8299 2.15717   7
   2  -5   2 14.2669 1.59017   5
   3  -5   2 260.389 16.1261   7
   3  -5   2 235.453 15.1663   4
   3  -5   2 255.026 15.9981   6
   4  -5   2 36.4751 3.31804   6
   4  -5   2 34.4151 2.22131   2
   4  -5   2 36.4493 2.25280   2
   4  -5   2 37.4484 2.40286   3
   4  -5   2 31.6310 3.48075   7
   4  -5   2 34.0417 2.31487   3
   5  -5   2 1.17328 0.95517   6
   5  -5   2 0.20983 0.22613  10
   5  -5   2 0.19286 0.41837  16
   5  -5   2 0.14721 0.33978  15
   5  -5   2 -0.6534 0.53216   2
   5  -5   2 0.70071 0.55710  17
   5  -5   2 0.72014 0.49807   3
   5  -5   2 1.90813 1.38469   7
   5  -5   2 0.89287 0.37401  14
   5  -5   2 0.43575 0.22087   9
   6  -5   2 12.5532 1.69123   2
   6  -5   2 11.0208 1.36613  18
   6  -5   2 14.0072 2.34897   6
   6  -5   2 13.0636 0.88372   9
   6  -5   2 14.2918 1.50375  17
   6  -5   2 14.3379 1.41717  15
   6  -5   2 16.0018 0.99441  10
   6  -5   2 18.7352 3.06426   7
   6  -5   2 14.4732 1.37752  16
   6  -5   2 14.9675 1.67376   3
   7  -5   2 37.2806 2.11490   9
   7  -5   2 40.9540 2.22716  10
   7  -5   2 42.8624 3.58337   2
   7  -5   2 40.6258 2.87572  15
   7  -5   2 36.0629 2.90110  16
   7  -5   2 40.4550 4.91688   7
   7  -5   2 42.5455 2.94402  17
   8  -5   2 0.51952 1.59481   7
   8  -5   2 -0.3858 0.34799   9
   8  -5   2 -0.0624 0.42968  10
   8  -5   2 1.42774 0.68586  17
   8  -5   2 -0.0968 0.74853  16
   8  -5   2 0.55816 0.64325  15
   9  -5   2 15.4002 1.30947  10
   9  -5   2 17.3848 1.15825   9
   9  -5   2 17.6656 1.73899  17
  10  -5   2 2.87081 0.50236  10
  10  -5   2 2.54476 0.41794   9
  10  -5   2 2.47251 0.72970  17
  11  -5   2 9.51683 0.74915  10
  11  -5   2 5.77858 0.83111  17
  -9  -4   2 -0.1845 0.45958  13
  -8  -4   2 38.4338 2.85978  13
  -8  -4   2 37.5621 2.13604   9
  -7  -4   2 22.4732 1.64144  10
  -7  -4   2 20.1144 1.42930   9
  -6  -4   2 0.63944 0.54389  10
  -6  -4   2 2.15241 1.89295   5
  -6  -4   2 0.01933 0.46649   9
  -6  -4   2 0.08670 0.35286   8
  -5  -4   2 -0.4600 1.88067   5
  -5  -4   2 1.19281 1.52441   3
  -5  -4   2 0.89732 0.35901   8
  -5  -4   2 0.65968 1.53599   4
  -5  -4   2 1.11264 1.44430   2
  -5  -4   2 1.15050 0.44398   9
  -5  -4   2 0.74359 0.45387  12
  -5  -4   2 0.92027 0.38613  10
  -4  -4   2 27.9601 3.07130   3
  -4  -4   2 25.2452 1.57221   9
  -4  -4   2 27.5124 1.54808   8
  -4  -4   2 25.5812 1.62659  10
  -4  -4   2 28.2979 3.00103   4
  -4  -4   2 28.1254 3.99603   5
  -4  -4   2 28.9830 3.02456   2
  -3  -4   2 5.34548 1.34813   3
  -3  -4   2 8.20227 2.10190   5
  -3  -4   2 5.38989 0.50993   8
  -3  -4   2 5.06958 1.19179   2
  -3  -4   2 6.82658 1.52088   4
  -2  -4   2 14.1896 2.06804   4
  -2  -4   2 14.2230 2.23869   5
  -2  -4   2 15.0163 1.60082   2
  -2  -4   2 13.3421 1.63869   3
   1   4  -2 151.531 8.66910   1
  -1  -4   2 173.482 10.4648   4
  -1  -4   2 157.342 8.64368   1
  -1  -4   2 179.689 10.2574   3
  -1  -4   2 169.919 10.8535   5
  -1  -4   2 150.961 10.1470   3
  -1  -4   2 147.959 9.47431   2
  -1  -4   2 164.583 9.47435   2
   0   4  -2 22.0912 1.55000   1
   0   4  -2 23.6070 1.52739   1
   0  -4   2 27.7694 2.45559   4
   0  -4   2 25.8779 2.32704   5
   0  -4   2 25.7233 1.83358   3
   0  -4   2 24.3626 1.52481   1
   0  -4   2 26.9508 1.70375   2
   0  -4   2 26.7761 2.50390   7
   0  -4   2 25.0532 1.77612   3
   0  -4   2 25.5237 1.74681   2
   0  -4   2 24.9964 1.56619   1
   1  -4   2 92.7790 6.50738   5
   1  -4   2 101.155 6.71649   7
   1  -4   2 98.7783 6.48584   4
   1  -4   2 101.154 6.50385   6
   2  -4   2 3.92619 0.86857   4
   2  -4   2 3.30426 0.70147   5
   2  -4   2 3.74859 0.89741   6
   2  -4   2 4.22185 0.99638   7
  -3   4  -2 46.0016 2.89356   1
   3  -4   2 58.3785 4.06287   6
   3  -4   2 54.5735 3.43496   3
   3  -4   2 49.6356 4.06099   7
   3  -4   2 50.6229 3.15996   2
   3  -4   2 45.6843 3.48004   4
   3  -4   2 55.7394 3.22992   2
   3  -4   2 54.3095 3.36627   3
   3  -4   2 49.4537 2.86540   1
   3  -4   2 48.2596 2.89506   1
   4  -4   2 82.9793 5.28118   3
   4  -4   2 83.8685 5.85991   6
   4  -4   2 74.9050 5.48391   3
   4  -4   2 79.6376 6.00152   7
   4  -4   2 79.1618 5.02495   2
   4  -4   2 75.1690 5.02927   2
   5  -4   2 63.5153 4.97995   6
   5  -4   2 57.5859 4.44072   3
   5  -4   2 60.7662 5.10537   7
   5  -4   2 67.5031 4.39428   2
   6  -4   2 33.3327 2.50269  15
   6  -4   2 32.4007 1.80019   8
   6  -4   2 31.5911 2.52634  16
   6  -4   2 36.3916 2.46904  17
   6  -4   2 34.5247 3.16767   3
   6  -4   2 36.4081 3.15892   2
   6  -4   2 34.3316 1.87697   9
   6  -4   2 34.8167 1.91022  10
   6  -4   2 42.1338 3.89887   7
   7  -4   2 1.05070 1.05959   3
   7  -4   2 0.48098 0.36355   9
   7  -4   2 0.32517 0.60449  16
   7  -4   2 -0.3666 1.11418   2
   7  -4   2 0.33974 1.56301   7
   7  -4   2 -0.0823 0.41431  17
   7  -4   2 0.06604 0.53639  15
   7  -4   2 1.38009 0.33147   8
   7  -4   2 1.35527 0.42739  10
   8  -4   2 15.5625 1.16469   9
   8  -4   2 14.5136 1.11770  10
   8  -4   2 11.9166 2.92516   7
   8  -4   2 14.3687 2.55398   2
   8  -4   2 13.4183 0.91793   8
   8  -4   2 16.1676 1.69897  17
   9  -4   2 3.83616 0.83462  17
   9  -4   2 3.02408 0.68628  10
   9  -4   2 3.31324 0.63094   9
  10  -4   2 12.9421 0.95936   9
  10  -4   2 12.9675 1.09306  10
  10  -4   2 13.3648 1.42135  17
  11  -4   2 1.46227 0.58818  17
  11  -4   2 2.12845 0.31857   9
  11  -4   2 1.26463 0.41309  10
  -9  -3   2 15.5278 1.31798   9
  -9  -3   2 18.4843 1.61992  13
  -8  -3   2 3.13584 0.47147   8
  -8  -3   2 3.97183 0.63309   9
  -7  -3   2 1.34954 0.47249   8
  -7  -3   2 0.71012 0.44819   9
  -6  -3   2 60.9490 3.37728   9
  -6  -3   2 63.9384 3.39645   8
  -6  -3   2 69.6388 6.31466   5
  -6  -3   2 58.6026 5.66618   2
  -5  -3   2 39.0336 2.21050   9
  -5  -3   2 35.7635 2.80952  12
  -5  -3   2 39.7537 2.18531   8
  -5  -3   2 38.7417 3.74483   4
  -5  -3   2 36.5797 2.22791  10
  -5  -3   2 39.4481 4.05978   3
  -5  -3   2 38.3380 3.88667   2
  -5  -3   2 56.4086 5.09848   5
  -4  -3   2 95.5409 4.90509   8
  -4  -3   2 99.0249 7.12000   3
  -4  -3   2 90.9833 6.78326   4
  -4  -3   2 99.0192 6.70375   2
  -3  -3   2 33.8600 2.97977   3
  -3  -3   2 32.0179 2.79440   2
  -3  -3   2 32.4385 2.99016   4
   2   3  -2 -0.0644 0.51954   1
   2   3  -2 0.61768 0.52922   1
  -2  -3   2 0.45099 0.45578   1
  -2  -3   2 0.94551 0.62212   3
  -2  -3   2 0.05252 0.54351   2
  -2  -3   2 0.17545 0.72765   4
  -2  -3   2 -0.5037 0.42042   1
  -2  -3   2 0.39000 0.90174   5
   1   3  -2 151.043 7.96011   1
   1   3  -2 161.701 8.02600   1
  -1  -3   2 148.460 9.37852   4
  -1  -3   2 157.789 8.72861   2
  -1  -3   2 137.740 9.34224   3
  -1  -3   2 155.757 9.43070   3
  -1  -3   2 144.623 7.91812   1
  -1  -3   2 131.742 8.70056   2
  -1  -3   2 143.219 7.93621   1
  -1  -3   2 158.719 9.78363   5
   0   3  -2 982.341 49.2813   1
   0   3  -2 983.561 49.3297   1
   0  -3   2 993.351 58.6712   3
   0  -3   2 990.233 49.3029   1
   0  -3   2 939.075 58.6309   3
   0  -3   2 966.231 59.1916   5
   0  -3   2 958.739 49.2678   1
   0  -3   2 961.946 54.0919   2
   0  -3   2 1011.66 58.2006   7
   0  -3   2 966.374 54.1261   2
   0  -3   2 965.075 56.9044   4
  -1   3  -2 198.200 9.68586   1
  -1   3  -2 194.481 9.67431   1
   1  -3   2 194.455 11.8042   6
   1  -3   2 185.642 10.6157   2
   1  -3   2 186.431 11.8462   7
   1  -3   2 196.335 11.4873   3
   1  -3   2 184.586 9.65922   1
   1  -3   2 193.559 10.6201   2
   1  -3   2 178.781 11.4312   4
   1  -3   2 186.318 9.66342   1
   1  -3   2 193.683 11.4727   3
   1  -3   2 167.479 11.6915   5
  -2   3  -2 0.17734 0.27663   1
  -2   3  -2 0.45727 0.31383   1
   2  -3   2 0.18979 0.44010   4
   2  -3   2 -0.3721 0.67829   7
   2  -3   2 -0.4869 0.32562   2
   2  -3   2 0.07219 0.26166   1
   2  -3   2 -0.1983 0.23337   1
   2  -3   2 0.73622 0.38192   3
   2  -3   2 -0.0964 0.27359   3
   2  -3   2 0.33430 0.32494   2
   2  -3   2 -0.0018 0.56423   6
  -3   3  -2 10.6272 1.08703   1
  -3   3  -2 11.9769 1.08387   1
   3  -3   2 9.57119 0.99465   1
   3  -3   2 10.3344 1.04411   1
   3  -3   2 13.1047 1.20320   3
   3  -3   2 13.4024 1.75397   7
   3  -3   2 12.8919 1.26620   2
   3  -3   2 11.5625 1.48138   6
   3  -3   2 8.81130 1.02510   4
   3  -3   2 8.94653 1.12414   2
   3  -3   2 10.8456 1.15514   3
   4  -3   2 851.213 50.6724   7
   4  -3   2 847.622 51.1986   6
   4  -3   2 891.913 47.1994   2
   4  -3   2 769.512 42.9025   1
   5  -3   2 566.052 33.9736   6
   5  -3   2 532.563 33.7068   7
   5  -3   2 535.729 33.7303   3
   5  -3   2 557.266 31.3506   2
   6  -3   2 5.85522 1.36513   3
   6  -3   2 5.68813 0.61879   9
   6  -3   2 5.65359 0.54089   8
   6  -3   2 4.80734 1.35181   2
   6  -3   2 5.20133 0.67240  10
   6  -3   2 7.20237 1.70770   7
   7  -3   2 18.9825 3.07486   7
   7  -3   2 15.0633 1.17240  10
   7  -3   2 15.3803 1.05842   8
   7  -3   2 14.4792 1.14883   9
   7  -3   2 14.4045 2.49554   2
   7  -3   2 10.9336 2.21391   3
   8  -3   2 4.10386 0.54756   8
   8  -3   2 4.96481 2.03406   7
   8  -3   2 2.30123 1.97400   2
   8  -3   2 2.77500 0.65056  10
   8  -3   2 4.37068 0.67814   9
   9  -3   2 15.4570 1.68519  17
   9  -3   2 13.1677 1.03981   8
   9  -3   2 12.5654 1.20666  10
   9  -3   2 13.2057 1.09439   9
  10  -3   2 48.6326 2.57524   9
  10  -3   2 41.9666 2.26870   8
  10  -3   2 48.6281 3.17969  17
  11  -3   2 12.9207 1.39976  17
  11  -3   2 12.1953 0.85857   9
  10   2  -2 0.25552 0.29162   8
 -10  -2   2 0.22153 0.58369  13
  -9  -2   2 35.3744 2.04685   8
  -8  -2   2 8.84788 0.92748   8
  -7  -2   2 25.6663 1.73471   8
  -6  -2   2 25.9743 3.78456   3
  -6  -2   2 34.5878 1.97973   8
  -6  -2   2 28.4021 3.80729   2
  -5  -2   2 238.030 12.6298   8
  -5  -2   2 269.661 15.8899   2
  -5  -2   2 259.744 16.0260   4
  -5  -2   2 270.089 17.0414   3
  -4  -2   2 3.32849 1.12329   2
  -4  -2   2 3.91932 1.22459   3
  -4  -2   2 3.95081 1.07010   4
   3   2  -2 128.626 7.71990   1
   3   2  -2 135.802 7.76666   1
  -3  -2   2 151.259 8.59288   2
  -3  -2   2 128.233 7.69363   1
  -3  -2   2 147.181 9.17566   3
  -3  -2   2 142.505 8.82765   4
  -3  -2   2 131.620 7.71187   1
   2   2  -2 72.8111 4.20978   1
   2   2  -2 69.2592 4.90877   3
   2   2  -2 55.5280 4.48287   2
   2   2  -2 75.3382 4.19240   1
  -2  -2   2 73.1266 4.18088   1
  -2  -2   2 77.5611 4.96103   3
  -2  -2   2 74.3173 4.87173   4
  -2  -2   2 72.6672 4.15838   1
  -2  -2   2 75.1788 4.58740   2
   1   2  -2 12.1371 1.05698   1
   1   2  -2 11.9917 1.03140   1
  -1  -2   2 9.83735 1.09813   2
  -1  -2   2 11.8101 1.17197   2
  -1  -2   2 12.5373 1.21586   3
  -1  -2   2 10.1426 1.11691   3
  -1  -2   2 10.5486 0.99874   1
  -1  -2   2 11.1325 0.99127   1
  -1  -2   2 12.0106 1.39669   4
   0   2  -2 458.284 21.9402   1
   0   2  -2 449.907 21.9667   1
   0  -2   2 426.279 26.0635   3
   0  -2   2 440.779 25.9526   7
   0  -2   2 421.716 26.0733   3
   0  -2   2 457.271 21.9344   1
   0  -2   2 437.763 24.0762   2
   0  -2   2 395.649 24.0606   2
   0  -2   2 441.599 21.9340   1
   0  -2   2 421.192 25.3102   4
   0  -2   2 388.901 26.1972   5
  -1   2  -2 -0.2228 0.30859   1
  -1   2  -2 -0.6121 0.30650   1
   1  -2   2 -0.8856 0.31213   3
   1  -2   2 -0.9071 0.28187   3
   1  -2   2 -1.0223 0.42828   4
   1  -2   2 -1.0283 0.30369   2
   1  -2   2 -0.7808 0.28217   1
   1  -2   2 -1.1816 0.24461   5
   1  -2   2 -0.6273 0.48744   6
   1  -2   2 -0.2757 0.53663   7
   1  -2   2 -0.8543 0.27053   1
   1  -2   2 -0.6470 0.35025   2
  -2   2  -2 10.5579 0.94791   1
  -2   2  -2 11.9013 0.98031   1
   2  -2   2 13.2203 1.36022   6
   2  -2   2 11.3570 0.95336   1
   2  -2   2 7.83716 0.97483   2
   2  -2   2 11.5096 1.06173   3
   2  -2   2 10.7007 1.07514   2
   2  -2   2 11.5503 1.38191   7
   2  -2   2 9.98874 0.98580   4
   2  -2   2 10.4070 1.06447   3
   2  -2   2 11.6784 0.95590   1
  -3   2  -2 355.164 23.7528   3
  -3   2  -2 402.100 20.0127   1
  -3   2  -2 396.197 20.0029   1
   3  -2   2 376.562 19.9471   1
   3  -2   2 433.972 23.8878   6
   3  -2   2 392.060 19.9815   1
   3  -2   2 341.205 23.6502   3
   3  -2   2 420.111 21.9894   2
   3  -2   2 408.269 23.6840   3
   3  -2   2 403.000 23.5881   7
   3  -2   2 322.769 21.8535   2
  -4   2  -2 97.1439 5.91711   1
   4  -2   2 104.038 6.57770   2
   4  -2   2 108.696 6.95371   3
   4  -2   2 89.8070 5.83424   1
   4  -2   2 117.544 7.14906   6
   4  -2   2 108.857 7.12503   7
   4  -2   2 95.1107 5.92230   1
   5  -2   2 0.33367 0.87529   7
   5  -2   2 1.51504 0.94214   2
   5  -2   2 0.21498 0.56170   3
   6  -2   2 3.16210 1.33125   2
   6  -2   2 3.65689 0.45464   8
   6  -2   2 2.92716 1.26109   3
   6  -2   2 3.22312 1.13456   7
   7  -2   2 248.822 11.9954   8
   7  -2   2 235.207 16.2797   3
   7  -2   2 237.242 15.2945   2
   7  -2   2 267.856 16.5617   7
   7  -2   2 229.640 11.6254   9
   8  -2   2 51.0064 2.78419   9
   8  -2   2 48.8645 2.67791   8
   8  -2   2 38.7958 4.65508   7
   9  -2   2 0.15056 0.44043   8
   9  -2   2 0.37997 0.41509   9
  10  -2   2 16.9056 1.15931   8
  10  -2   2 19.9264 1.66449  17
  10  -2   2 18.6107 1.42473   9
  11  -2   2 0.60617 0.50315  17
  11  -2   2 1.30310 0.36168   9
  10   1  -2 5.01161 0.60044   8
   9   1  -2 0.47401 0.39229   8
  -9  -1   2 -0.6313 0.51936   8
  -8  -1   2 9.05668 0.98809   8
  -7  -1   2 28.5437 1.87796   8
  -6  -1   2 23.3754 1.56472   8
  -5  -1   2 10.0949 1.90108   3
  -5  -1   2 8.03158 1.71853   2
   4   1  -2 17.3639 1.75720   1
   4   1  -2 15.5141 1.95640   2
   4   1  -2 15.7297 1.91279   3
  -4  -1   2 14.9797 2.04336   3
  -4  -1   2 17.2334 1.72730   4
  -4  -1   2 16.6780 1.80334   1
  -4  -1   2 14.7837 1.71580   1
  -4  -1   2 18.5414 2.14188   2
   3   1  -2 80.3242 5.39841   3
   3   1  -2 73.5985 5.02323   2
   3   1  -2 75.5915 4.57135   1
   3   1  -2 73.1461 4.91904   6
   3   1  -2 82.9120 4.64573   1
  -3  -1   2 81.1937 5.07011   2
  -3  -1   2 79.7361 4.61688   1
  -3  -1   2 77.3271 5.09159   4
  -3  -1   2 77.4801 4.58357   1
   2   1  -2 9080.75 520.411   2
   2   1  -2 8884.43 563.521   3
   2   1  -2 8336.64 561.246   6
   2   1  -2 9824.69 474.582   1
   2   1  -2 9999.99 474.794   1
  -2  -1   2 9068.51 543.361   4
  -2  -1   2 9609.50 474.416   1
  -2  -1   2 9574.36 563.984   3
  -2  -1   2 9560.89 520.832   2
  -2  -1   2 9729.48 474.300   1
   1   1  -2 25.5747 1.52846   1
   1   1  -2 22.0239 1.68782   3
   1   1  -2 20.1802 1.62783   2
   1   1  -2 24.2994 1.48308   1
  -1  -1   2 22.2791 1.44820   1
  -1  -1   2 22.4641 1.69829   3
  -1  -1   2 21.2112 1.66035   4
  -1  -1   2 21.2347 1.70704   3
  -1  -1   2 21.7843 1.66560   2
  -1  -1   2 23.2220 1.49972   1
   0   1  -2 482.917 23.8197   1
   0   1  -2 512.790 23.8254   1
   0   1  -2 437.264 28.3101   3
   0  -1   2 460.908 27.9549   7
   0  -1   2 457.016 28.2919   3
   0  -1   2 470.947 26.1418   2
   0  -1   2 434.839 28.2925   3
   0  -1   2 489.626 23.8107   1
  -1   1  -2 1166.94 69.8879   2
  -1   1  -2 1322.82 63.5860   1
  -1   1  -2 1360.10 63.8832   1
  -1   1  -2 1162.80 75.6405   3
   1  -1   2 1300.21 63.5799   1
   1  -1   2 1254.75 69.7969   2
   1  -1   2 1223.97 74.5310   7
   1  -1   2 1274.84 75.8803   3
  -2   1  -2 440.247 26.2350   2
  -2   1  -2 444.967 28.3844   3
  -2   1  -2 489.045 23.9152   1
  -2   1  -2 469.055 23.8964   1
   2  -1   2 474.289 28.3694   3
   2  -1   2 455.735 27.9886   7
   2  -1   2 485.328 26.2609   2
   2  -1   2 480.346 23.9027   1
   2  -1   2 457.699 23.8865   1
  -3   1  -2 68.2714 4.82591   2
  -3   1  -2 74.6048 4.40765   1
  -3   1  -2 69.7093 5.12186   3
  -3   1  -2 76.4998 4.42161   1
   3  -1   2 74.8725 5.10515   3
   3  -1   2 72.4501 4.36759   1
   3  -1   2 77.6119 4.87865   2
   3  -1   2 79.8497 4.43249   1
  -4   1  -2 0.42376 0.67865   1
  -4   1  -2 0.55802 0.70725   1
   4  -1   2 0.53242 0.75110   2
   4  -1   2 1.32931 0.81388   3
   4  -1   2 -0.0817 0.64591   1
   4  -1   2 0.42339 0.64757   1
   5  -1   2 65.5360 4.84959   2
   5  -1   2 63.1341 4.97748   3
   6  -1   2 9.04207 0.83730   8
   6  -1   2 9.23774 1.91681   2
   6  -1   2 11.4294 2.03234   7
   6  -1   2 6.49826 1.68164   3
   7  -1   2 7.57511 0.80748   8
   7  -1   2 7.46894 2.05766   7
   8  -1   2 119.210 9.30138   7
   8  -1   2 119.386 6.16282   8
   9  -1   2 6.63666 0.82994   8
  10  -1   2 83.8657 4.23003   8
  10  -1   2 77.7721 4.23055   9
  10  -1   2 82.4372 5.08304  17
  11  -1   2 2.47653 0.60371  17
  10   0  -2 0.92544 0.48334   8
 -10   0   2 0.61875 0.42168   8
   9   0  -2 3.22314 0.67089   8
  -9   0   2 4.59398 0.79666   8
   8   0  -2 1.48792 0.53577   8
   7   0  -2 61.3792 3.35912   8
   5   0  -2 0.38610 0.60119   3
   5   0  -2 -0.2025 0.81181   2
  -5   0   2 0.55334 0.74624   3
  -5   0   2 0.16719 1.03592   2
  -5   0   2 0.85597 0.68480   1
   4   0  -2 123.247 7.07335   1
   4   0  -2 131.019 8.01412   6
   4   0  -2 129.488 7.81691   2
   4   0  -2 114.788 7.01077   1
   4   0  -2 133.384 8.32748   3
  -4   0   2 116.259 7.62063   4
  -4   0   2 121.905 7.08339   1
  -4   0   2 124.762 7.10769   1
  -4   0   2 121.467 7.80920   2
  -4   0   2 123.014 8.36522   3
   3   0  -2 12.1103 1.26941   2
   3   0  -2 12.4585 1.14125   1
   3   0  -2 14.5728 1.36255   3
   3   0  -2 12.3883 1.18968   6
   3   0  -2 12.5355 1.15146   1
  -3   0   2 12.0047 1.11945   4
  -3   0   2 10.9674 1.31280   3
  -3   0   2 10.4388 1.11417   1
   2   0  -2 136.229 7.91978   2
   2   0  -2 141.429 7.22104   1
   2   0  -2 130.545 8.47931   3
   2   0  -2 136.334 7.19538   1
   2   0  -2 129.154 8.37085   6
  -2   0   2 138.930 7.20251   1
  -2   0   2 133.950 8.07379   4
  -2   0   2 140.663 7.23725   1
  -2   0   2 130.865 8.51784   3
  -2   0   2 131.068 7.92840   2
   1   0  -2 355.702 17.8059   1
   1   0  -2 332.313 19.5418   2
   1   0  -2 361.577 17.8248   1
   1   0  -2 338.841 21.1565   3
  -1   0   2 361.269 17.8192   1
  -1   0   2 362.757 17.8282   1
  -1   0   2 342.923 19.5756   2
  -1   0   2 330.741 21.1561   3
   0   0  -2 567.141 34.0291   3
   0   0  -2 578.978 28.6105   1
   0   0  -2 537.660 34.0997   5
   0   0  -2 522.398 31.3897   2
   0   0  -2 592.153 28.6265   1
   0   0   2 586.181 28.6154   1
   0   0   2 574.661 34.0240   3
   0   0   2 575.071 33.4112   7
   0   0   2 553.992 28.5935   1
   0   0   2 543.912 31.4050   2
  -1   0  -2 1793.94 90.5611   1
  -1   0  -2 1701.46 98.7307   2
  -1   0  -2 1735.00 107.034   3
  -1   0  -2 1874.37 91.2121   1
   1   0   2 1839.29 107.566   3
   1   0   2 1765.56 90.2347   1
   1   0   2 1746.95 105.273   7
   1   0   2 1733.64 98.7459   2
   1   0   2 1847.37 90.5670   1
  -2   0  -2 442.558 26.5823   2
  -2   0  -2 478.382 28.7917   3
  -2   0  -2 473.338 24.2262   1
  -2   0  -2 482.249 24.2441   1
   2   0   2 461.066 26.6173   2
   2   0   2 487.029 24.2555   1
   2   0   2 454.840 24.2175   1
   2   0   2 492.831 28.7907   3
  -3   0  -2 13.1542 1.59428   3
  -3   0  -2 11.4846 1.31628   1
  -3   0  -2 12.3181 1.33014   1
  -3   0  -2 10.4779 1.43852   2
   3   0   2 10.4488 1.24021   1
   3   0   2 9.21089 1.38124   2
   3   0   2 10.0616 1.25753   1
   3   0   2 11.7925 1.53504   3
  -4   0  -2 50.2858 3.42547   1
  -4   0  -2 48.3909 3.89265   3
  -4   0  -2 44.9308 3.33437   1
  -4   0  -2 44.5167 3.68460   2
   4   0   2 45.8437 3.33566   1
   4   0   2 46.9380 3.73601   2
   4   0   2 51.9702 3.94968   3
   4   0   2 48.2400 3.39015   1
   5   0   2 145.335 9.87787   3
   5   0   2 138.079 9.27313   2
   7   0   2 0.72780 0.48539   8
   7   0   2 -0.4252 0.94901   7
   8   0   2 6.85596 0.83181   8
  -9   0  -2 36.4088 2.60277   8
   9   0   2 52.0839 2.59860   8
 -10   0  -2 2.47555 0.47359   8
  10   0   2 2.15118 0.74868  17
  10   0   2 1.51286 0.37618   8
  11  -1  -2 0.72286 0.47428  17
 -11   1   2 0.66902 0.48321   8
  10  -1  -2 1.23245 0.47856   8
   9  -1  -2 19.2645 1.42766   8
   8  -1  -2 13.9867 1.17123   8
   7  -1  -2 0.98079 0.40265   8
   7  -1  -2 1.29485 1.35765   3
   6  -1  -2 -0.2718 0.79432   3
   6  -1  -2 0.73354 0.97706   2
   5  -1  -2 132.810 8.47994   6
   5  -1  -2 118.112 7.34709   1
   5  -1  -2 145.150 8.73680   3
   5  -1  -2 130.878 8.14231   2
  -5   1   2 105.640 7.32003   1
   4  -1  -2 662.532 35.6127   1
   4  -1  -2 713.451 42.2035   6
   4  -1  -2 726.527 39.1674   2
   4  -1  -2 743.614 42.3585   3
   4  -1  -2 687.488 35.6399   1
  -4   1   2 633.172 39.1309   2
  -4   1   2 691.849 35.6926   1
  -4   1   2 682.019 42.4155   3
  -4   1   2 701.311 35.7031   1
   3  -1  -2 34.9292 2.63251   6
   3  -1  -2 34.5491 2.25617   1
   3  -1  -2 39.6581 2.66797   3
   3  -1  -2 35.1241 2.26262   1
   3  -1  -2 36.2255 2.53286   2
  -3   1   2 28.8594 2.15640   4
  -3   1   2 28.8772 2.50885   2
  -3   1   2 32.5739 2.28164   1
  -3   1   2 36.3556 2.73641   3
  -3   1   2 39.8557 2.36235   1
   2  -1  -2 265.824 13.3845   1
   2  -1  -2 252.548 15.8672   3
   2  -1  -2 261.012 15.9137   6
   2  -1  -2 247.409 15.8991   3
   2  -1  -2 262.697 13.3899   1
   2  -1  -2 259.329 14.6946   2
  -2   1   2 270.545 13.4123   1
  -2   1   2 242.973 14.7121   2
  -2   1   2 276.888 13.4261   1
  -2   1   2 241.031 15.8951   3
   1  -1  -2 104.651 6.35731   2
   1  -1  -2 109.749 6.97262   5
   1  -1  -2 108.925 6.85782   3
   1  -1  -2 108.332 5.79038   1
  -1   1   2 117.323 5.81552   1
  -1   1   2 111.163 5.81405   1
  -1   1   2 105.933 6.87198   3
   0  -1  -2 292.682 16.6819   2
   0  -1  -2 294.727 18.2168   5
   0  -1  -2 293.263 18.0373   3
   0  -1  -2 305.462 15.2008   1
   0  -1  -2 299.412 15.1937   1
   0   1   2 310.154 15.2197   1
   0   1   2 273.796 16.6883   2
   0   1   2 279.570 18.0269   3
   0   1   2 315.971 15.2160   1
  -1  -1  -2 139.117 8.08379   2
  -1  -1  -2 139.479 7.34927   1
  -1  -1  -2 137.576 8.78531   5
  -1  -1  -2 142.657 7.34481   1
  -1  -1  -2 138.268 8.66678   3
   1   1   2 128.726 8.08338   2
   1   1   2 128.287 8.65204   3
   1   1   2 145.632 7.38613   1
   1   1   2 139.609 7.35656   1
  -2  -1  -2 88.9671 5.72396   3
  -2  -1  -2 86.6757 4.86453   1
  -2  -1  -2 84.3379 4.86067   1
  -2  -1  -2 84.6913 5.34883   2
   2   1   2 78.2598 5.35097   2
   2   1   2 84.2033 5.70626   3
   2   1   2 90.4148 4.91694   1
   2   1   2 83.9031 4.87843   1
  -3  -1  -2 135.263 7.68744   1
  -3  -1  -2 132.597 7.65463   1
  -3  -1  -2 148.204 9.08601   3
  -3  -1  -2 137.498 8.43304   2
   3   1   2 129.695 8.47876   2
   3   1   2 136.949 7.70707   1
   3   1   2 129.365 9.00618   3
   3   1   2 142.940 7.76266   1
  -4  -1  -2 133.905 8.10417   1
  -4  -1  -2 137.803 8.90376   2
  -4  -1  -2 145.926 9.54966   3
  -5  -1  -2 1.64811 1.16130   2
  -5  -1  -2 0.37467 1.09634   3
  -6  -1  -2 20.6805 1.52446   8
  -6  -1  -2 29.3427 3.72514   5
  -7  -1  -2 62.8056 5.92930   5
  -7  -1  -2 55.6582 3.18308   8
  -8  -1  -2 56.8599 2.99649   8
   8   1   2 46.2219 3.09898   8
  -9  -1  -2 9.26097 0.94667   8
   9   1   2 8.35456 0.91771   8
 -10  -1  -2 22.3965 1.80468  13
 -10  -1  -2 21.9007 1.30813   8
  10   1   2 23.9592 1.41474   8
  10   1   2 19.2693 1.57278  17
  11  -2  -2 2.53150 0.64509  17
  10  -2  -2 1.66878 0.58370   9
  10  -2  -2 1.46292 0.44205   8
   9  -2  -2 38.0135 2.20526   8
   9  -2  -2 35.7256 2.18471   9
   8  -2  -2 45.8347 2.58886   9
   8  -2  -2 44.7913 4.80074   2
   8  -2  -2 55.8985 5.09337   7
   8  -2  -2 48.0294 2.55165   8
   8  -2  -2 33.4204 4.41332   3
   7  -2  -2 14.6196 2.45653   3
   7  -2  -2 19.0003 1.19316   8
   7  -2  -2 14.6929 1.19763   9
   7  -2  -2 17.6994 1.57631  16
   7  -2  -2 18.8720 2.64044   2
   6  -2  -2 1084.88 65.0180   3
   6  -2  -2 1038.16 64.8210   6
   6  -2  -2 1069.86 60.1297   2
   5  -2  -2 2.39689 0.84101   6
   5  -2  -2 1.50158 0.67675   2
   5  -2  -2 1.64662 0.80272   3
   4  -2  -2 61.7766 4.02734   3
   4  -2  -2 60.3887 3.82881   2
   4  -2  -2 46.4216 3.32968   1
   4  -2  -2 54.6412 3.42495   1
   4  -2  -2 55.3069 4.08040   6
  -4   2   2 53.8619 3.47480   1
  -4   2   2 51.4798 3.44885   1
   3  -2  -2 53.7044 3.13752   1
   3  -2  -2 57.1648 3.70432   3
   3  -2  -2 53.1025 3.14734   1
   3  -2  -2 47.3676 3.65579   3
   3  -2  -2 44.1052 3.42335   2
   3  -2  -2 59.1691 3.51295   2
   3  -2  -2 53.5272 3.89228   6
  -3   2   2 55.2288 3.20182   1
  -3   2   2 55.8283 3.18129   1
   2  -2  -2 152.659 10.1319   3
   2  -2  -2 152.656 9.97811   7
   2  -2  -2 182.778 8.60914   1
   2  -2  -2 152.093 10.3061   6
   2  -2  -2 151.093 9.40506   2
   2  -2  -2 165.290 8.54860   1
   2  -2  -2 174.070 10.4516   5
   2  -2  -2 167.984 9.40564   2
   2  -2  -2 160.207 10.1382   3
  -2   2   2 169.110 8.58794   1
  -2   2   2 169.545 8.59619   1
   1  -2  -2 783.938 45.3057   3
   1  -2  -2 648.895 45.2845   3
   1  -2  -2 739.591 41.8211   2
   1  -2  -2 769.946 41.8169   2
   1  -2  -2 780.323 38.0907   1
   1  -2  -2 673.292 44.4564   7
   1  -2  -2 764.372 38.0905   1
   1  -2  -2 750.470 45.7929   5
   1  -2  -2 766.815 45.4027   6
  -1   2   2 806.300 38.1211   1
  -1   2   2 785.876 38.0944   1
   0  -2  -2 21.8962 2.01354   5
   0  -2  -2 23.5458 1.56119   1
   0  -2  -2 22.9659 1.80715   3
   0  -2  -2 21.1203 1.71741   2
   0  -2  -2 23.4085 1.55439   1
   0  -2  -2 25.2867 1.76259   2
   0  -2  -2 23.3121 1.79343   3
   0   2   2 26.7633 1.63015   1
   0   2   2 24.9430 1.60228   1
  -1  -2  -2 1.31907 0.57096   3
  -1  -2  -2 0.27085 0.40715   2
  -1  -2  -2 1.60354 0.50275   2
  -1  -2  -2 1.27214 0.45952   3
  -1  -2  -2 0.38133 0.30707   1
  -1  -2  -2 0.99998 0.76167   5
  -1  -2  -2 1.32201 0.39651   1
   1   2   2 0.55553 0.50657   3
   1   2   2 1.39668 0.50838   1
   1   2   2 0.95557 0.38012   1
  -2  -2  -2 2.14851 0.78950   2
  -2  -2  -2 1.15367 0.57553   1
  -2  -2  -2 2.25888 0.89486   5
  -2  -2  -2 0.88089 0.54655   1
  -2  -2  -2 2.71432 0.79004   3
   2   2   2 1.61414 0.62891   1
   2   2   2 1.64483 0.66682   1
  -3  -2  -2 9.56028 1.46917   2
  -3  -2  -2 7.38631 1.55568   5
  -3  -2  -2 6.00375 1.08955   1
  -3  -2  -2 7.08110 1.34605   3
  -4  -2  -2 15.1039 2.27099   3
  -4  -2  -2 14.4461 2.06352   2
  -4  -2  -2 18.9221 2.58293   5
  -5  -2  -2 2.90645 1.46119   3
  -5  -2  -2 1.99156 1.42159   2
  -5  -2  -2 1.72506 1.18718   5
  -5  -2  -2 2.71393 0.50728   8
  -6  -2  -2 31.0358 4.17668   5
  -6  -2  -2 29.3437 1.86565   8
  -7  -2  -2 2.34723 0.53922   8
  -8  -2  -2 12.6705 1.06105   8
  -9  -2  -2 11.4870 0.91971   8
  -9  -2  -2 10.5396 1.21288  13
  -9  -2  -2 9.92401 0.95183   9
   9   2   2 8.28078 0.93002   8
  11  -3  -2 2.62259 0.66433  17
  11  -3  -2 3.03013 0.55440   9
  10  -3  -2 -0.0091 0.48119   9
   9  -3  -2 54.5453 2.92480   9
   9  -3  -2 49.6086 2.93411  10
   9  -3  -2 52.2412 2.82068   8
   8  -3  -2 30.8442 3.70960   2
   8  -3  -2 29.2018 1.66840   9
   8  -3  -2 25.3355 2.23328  16
   8  -3  -2 26.9677 1.62072   8
   8  -3  -2 23.2414 3.22742   3
   8  -3  -2 31.3161 4.21184   7
   8  -3  -2 26.1440 1.72901  10
   7  -3  -2 38.9674 2.21975   9
   7  -3  -2 48.5407 4.71959   7
   7  -3  -2 38.4152 2.23821  10
   7  -3  -2 40.6936 2.19578   8
   7  -3  -2 38.7260 3.89284   6
   7  -3  -2 42.1209 2.97861  16
   7  -3  -2 43.3400 3.83872   3
   7  -3  -2 37.4396 3.66929   2
   6  -3  -2 31.5811 2.93927   3
   6  -3  -2 32.1759 2.91655   2
   6  -3  -2 36.2173 3.69996   7
   6  -3  -2 27.3770 3.05226   6
   5  -3  -2 26.8928 2.34660   3
   5  -3  -2 22.9335 2.23561   2
   5  -3  -2 26.4950 2.83341   7
   5  -3  -2 24.5536 2.59326   6
   4  -3  -2 22.5564 1.87193   3
   4  -3  -2 21.9280 2.14376   6
   4  -3  -2 20.2741 2.16369   7
   4  -3  -2 17.5112 1.55599   1
   4  -3  -2 20.0431 1.61402   1
   4  -3  -2 23.3344 1.84575   2
  -4   3   2 18.4566 1.62494   1
   3  -3  -2 1986.61 116.952   6
   3  -3  -2 1906.47 98.0393   1
   3  -3  -2 1902.98 115.072   7
   3  -3  -2 2086.49 117.178   3
   3  -3  -2 1824.20 107.664   2
   3  -3  -2 1818.62 116.692   3
   3  -3  -2 1873.44 98.0696   1
   3  -3  -2 2073.46 107.666   2
  -3   3   2 1992.04 98.1171   1
   2  -3  -2 316.529 19.0581   5
   2  -3  -2 310.131 18.5123   3
   2  -3  -2 306.380 18.8750   6
   2  -3  -2 307.366 17.0895   2
   2  -3  -2 305.086 18.5076   3
   2  -3  -2 275.334 18.3126   7
   2  -3  -2 291.840 17.1208   2
   2  -3  -2 297.452 15.5549   1
   2  -3  -2 311.611 15.6075   1
  -2   3   2 311.944 15.6112   1
  -2   3   2 310.485 15.5914   1
   1  -3  -2 90.2141 5.72103   2
   1  -3  -2 98.8806 5.23053   1
   1  -3  -2 99.1782 6.20538   3
   1  -3  -2 100.896 5.75650   2
   1  -3  -2 96.3948 6.44945   6
   1  -3  -2 98.6328 5.21787   1
   1  -3  -2 104.523 6.16608   3
   1  -3  -2 94.8939 6.68382   5
   1  -3  -2 91.8645 6.08070   7
  -1   3   2 104.603 5.24714   1
  -1   3   2 96.5774 5.24679   1
   0  -3  -2 15.0304 1.13583   1
   0  -3  -2 12.2953 1.23478   2
   0  -3  -2 15.2301 1.87974   5
   0  -3  -2 13.3866 1.25743   3
   0  -3  -2 14.4430 1.12077   1
   0  -3  -2 14.5224 1.59146   4
   0  -3  -2 13.9909 1.25431   2
   0  -3  -2 12.1863 1.31584   6
   0  -3  -2 14.4311 1.31673   3
   0   3   2 14.1566 1.16415   1
   0   3   2 15.5344 1.19530   1
  -1  -3  -2 215.799 11.7413   2
  -1  -3  -2 170.464 11.6101   2
  -1  -3  -2 190.862 12.5506   3
  -1  -3  -2 215.248 12.5869   3
  -1  -3  -2 202.225 13.0679   5
  -1  -3  -2 216.992 12.4153   4
  -1  -3  -2 179.365 12.3239   6
  -1  -3  -2 202.800 10.6590   1
  -1  -3  -2 193.227 10.6099   1
   1   3   2 214.958 10.7033   1
   1   3   2 203.134 10.6937   1
  -2  -3  -2 71.7984 5.30545   3
  -2  -3  -2 80.5420 5.12590   2
  -2  -3  -2 75.3418 5.76213   5
  -3  -3  -2 0.44006 0.81950   3
  -3  -3  -2 0.85107 0.82101   2
  -3  -3  -2 0.27213 0.93415   5
  -4  -3  -2 28.1017 3.36563   5
  -4  -3  -2 25.4734 2.92135   2
  -4  -3  -2 26.6868 1.55269   8
  -4  -3  -2 25.0111 1.58783   9
  -4  -3  -2 29.9593 3.09617   3
  -5  -3  -2 65.2447 5.56981   2
  -5  -3  -2 59.9019 5.65726   3
  -5  -3  -2 70.5011 6.03884   5
  -5  -3  -2 64.6754 3.43438   9
  -6  -3  -2 20.1728 3.50815   2
  -6  -3  -2 24.3718 1.71116   9
  -6  -3  -2 27.2972 1.67635   8
  -6  -3  -2 26.7268 4.11945   5
  -7  -3  -2 33.4267 1.92972   8
  -7  -3  -2 33.0389 2.66794  13
  -7  -3  -2 27.8719 1.91171   9
  -8  -3  -2 11.3654 0.87217   8
  -8  -3  -2 11.0357 0.99062   9
  -8  -3  -2 8.41970 1.26921  13
  -9  -3  -2 1.22149 0.67055  13
  -9  -3  -2 2.07698 0.52065   9
  11  -4  -2 14.1977 1.57313  17
  11  -4  -2 11.5024 1.07706  10
  10  -4  -2 -0.5941 0.80141  17
  10  -4  -2 0.66597 0.41218  10
  10  -4  -2 0.98629 0.49960   9
   9  -4  -2 41.8470 2.37648   9
   9  -4  -2 41.2466 3.20201  16
   9  -4  -2 39.8402 2.38403  10
   9  -4  -2 46.3159 3.36353  17
   8  -4  -2 371.032 24.5712   7
   8  -4  -2 381.208 17.4923  10
   8  -4  -2 376.155 17.3571   9
   8  -4  -2 377.327 17.8294   8
   8  -4  -2 372.931 22.7046  16
   8  -4  -2 344.189 23.7466   6
   8  -4  -2 341.632 23.4734   3
   8  -4  -2 358.761 22.0561   2
   7  -4  -2 3.16238 1.97471   7
   7  -4  -2 3.78472 0.49266  10
   7  -4  -2 4.19493 1.35306   2
   7  -4  -2 2.54660 1.06810   3
   7  -4  -2 3.53928 0.83824  16
   7  -4  -2 4.47202 1.31727   6
   7  -4  -2 3.98572 0.49627   9
   7  -4  -2 3.01574 0.39118   8
   6  -4  -2 39.2570 2.18407  10
   6  -4  -2 42.3695 3.00929  16
   6  -4  -2 37.7998 2.11225   8
   6  -4  -2 44.0021 3.46996   3
   6  -4  -2 44.3783 3.39564   2
   6  -4  -2 42.9038 3.99310   6
   6  -4  -2 41.2385 4.31777   7
   6  -4  -2 39.3192 2.14353   9
   6  -4  -2 47.2873 2.95427  14
   5  -4  -2 68.4139 5.59334   7
   5  -4  -2 72.2900 5.02511   3
   5  -4  -2 72.7731 4.77149   2
   5  -4  -2 72.4945 5.61413   6
   4  -4  -2 381.432 24.4460   3
   4  -4  -2 402.559 24.4677   3
   4  -4  -2 408.780 25.1231   6
   4  -4  -2 391.781 24.5751   7
   4  -4  -2 415.199 22.6368   2
   3  -4  -2 65.5370 3.74042   1
   3  -4  -2 71.3273 4.07264   2
   3  -4  -2 67.6936 3.69826   1
   3  -4  -2 73.0444 4.40334   3
   3  -4  -2 64.4632 4.68938   7
   3  -4  -2 72.1112 5.07400   5
   3  -4  -2 73.2096 5.11024   6
   3  -4  -2 68.1233 4.13129   2
   3  -4  -2 69.0685 4.36486   3
  -3   4   2 61.1204 3.68471   1
  -3   4   2 61.7376 3.72198   1
   2  -4  -2 31.3154 2.63421   6
   2  -4  -2 28.9706 1.89240   3
   2  -4  -2 26.8764 1.60873   1
   2  -4  -2 26.1696 2.19967   7
   2  -4  -2 28.2064 1.62265   1
   2  -4  -2 29.8760 1.91766   3
   2  -4  -2 30.4998 1.78520   2
   2  -4  -2 28.0817 2.68363   5
   2  -4  -2 31.2698 1.81527   2
  -2   4   2 28.4097 1.63306   1
  -2   4   2 27.3198 1.62121   1
   1  -4  -2 265.263 16.6011   5
   1  -4  -2 268.912 15.6666   3
   1  -4  -2 255.753 13.2220   1
   1  -4  -2 241.658 16.0893   6
   1  -4  -2 244.554 13.1820   1
   1  -4  -2 285.520 15.7024   4
   1  -4  -2 271.453 15.7268   3
   1  -4  -2 276.986 14.5292   2
   1  -4  -2 258.038 14.4872   2
  -1   4   2 244.021 13.1867   1
  -1   4   2 224.320 13.1997   1
   0  -4  -2 673.740 43.1587   6
   0  -4  -2 734.576 39.8384   2
   0  -4  -2 749.322 44.1142   5
   0  -4  -2 689.700 36.2316   1
   0  -4  -2 767.931 42.0528   4
   0  -4  -2 704.190 39.7896   2
   0  -4  -2 687.988 43.1193   3
   0  -4  -2 699.082 36.2836   1
   0  -4  -2 736.721 43.0802   3
   0   4   2 681.912 36.2883   1
  -1  -4  -2 203.272 14.1287   5
  -1  -4  -2 215.630 12.5016   2
  -1  -4  -2 220.876 13.3430   4
  -1  -4  -2 211.057 13.4070   3
  -2  -4  -2 0.77625 0.74999   5
  -2  -4  -2 -0.0068 0.59087   3
  -2  -4  -2 0.48532 0.68679   2
  -3  -4  -2 6.73965 1.47960   3
  -3  -4  -2 6.03297 0.97234  13
  -3  -4  -2 8.81542 2.18027   5
  -3  -4  -2 5.71932 0.59977   9
  -3  -4  -2 4.99932 0.59868  10
  -3  -4  -2 7.60133 1.49347   2
  -3  -4  -2 4.93226 0.51794   8
  -4  -4  -2 7.78709 1.88153   2
  -4  -4  -2 8.18523 2.23266   5
  -4  -4  -2 6.17242 0.66284   8
  -4  -4  -2 6.99477 1.11887  13
  -4  -4  -2 2.87114 1.47178   3
  -4  -4  -2 6.76495 0.70982   9
  -4  -4  -2 5.77581 0.66076  10
  -5  -4  -2 1.51615 1.40213   2
  -5  -4  -2 2.94970 0.54165  10
  -5  -4  -2 3.28010 0.52143   9
  -5  -4  -2 3.99012 1.00643  13
  -5  -4  -2 4.14614 0.60491   8
  -5  -4  -2 4.09014 1.76389   5
  -6  -4  -2 5.87845 0.62375   8
  -6  -4  -2 6.62068 0.74458   9
  -6  -4  -2 5.86304 0.81219  10
  -6  -4  -2 6.10984 1.02977  13
  -7  -4  -2 3.78090 0.86149  13
  -7  -4  -2 3.50774 0.41127   8
  -7  -4  -2 3.52350 0.66119   9
  -8  -4  -2 11.1878 1.25110  13
  -8  -4  -2 12.6534 1.00997   9
  11  -5  -2 3.89487 0.89028  17
  11  -5  -2 5.38621 0.70783  10
  10  -5  -2 155.554 9.53271  17
  10  -5  -2 161.714 7.71463  10
  10  -5  -2 148.528 9.96531  16
  10  -5  -2 158.988 7.54181   9
   9  -5  -2 109.587 5.51039  10
   9  -5  -2 110.241 7.08312  17
   9  -5  -2 104.117 7.18945  16
   9  -5  -2 112.197 5.39778   9
   8  -5  -2 10.3224 0.84595   9
   8  -5  -2 9.93256 2.22322   2
   8  -5  -2 5.80910 3.02652   7
   8  -5  -2 9.77440 1.51649  17
   8  -5  -2 9.57213 0.89567  10
   8  -5  -2 11.0554 1.43201  16
   8  -5  -2 8.14332 2.21990   6
   7  -5  -2 72.6568 3.60717  10
   7  -5  -2 60.7588 4.69708  17
   7  -5  -2 66.8634 3.51381   9
   7  -5  -2 68.5621 4.85755  16
   7  -5  -2 81.7241 4.83343  14
   7  -5  -2 74.3469 6.07454   6
   7  -5  -2 73.5413 5.15930   2
   7  -5  -2 74.0295 5.35512   3
   7  -5  -2 68.2842 4.79263  15
   7  -5  -2 67.3786 6.87128   7
   6  -5  -2 27.3890 2.27974  15
   6  -5  -2 29.2595 1.55009   9
   6  -5  -2 29.2799 1.62247  10
   6  -5  -2 31.8066 3.47324   6
   6  -5  -2 32.4828 2.28353  14
   6  -5  -2 32.5579 2.66062   3
   6  -5  -2 25.8810 2.27276  17
   6  -5  -2 30.0128 2.57191   2
   6  -5  -2 29.1286 2.35930  16
   6  -5  -2 25.8153 3.64308   7
   5  -5  -2 263.295 16.8045   6
   5  -5  -2 226.628 16.3154   7
   5  -5  -2 253.725 14.5948   2
   5  -5  -2 268.924 15.7932   3
   4  -5  -2 13.5476 0.98826   2
   4  -5  -2 14.0609 1.02595   3
   4  -5  -2 13.2044 1.04552   2
   4  -5  -2 8.45092 1.58122   7
   4  -5  -2 13.5991 1.02952   3
   4  -5  -2 12.8117 1.92380   6
   3  -5  -2 83.9303 6.35437   7
   3  -5  -2 99.1492 6.88291   6
   3  -5  -2 107.025 7.03811   5
   2  -5  -2 154.653 10.3948   7
   2  -5  -2 172.729 11.2754   5
   2  -5  -2 172.978 10.9895   6
   1  -5  -2 71.7437 4.91159   4
   1  -5  -2 61.7113 4.80812   6
   1  -5  -2 68.1578 5.34308   5
   0  -5  -2 4.68177 1.45195   5
   0  -5  -2 3.37972 0.61284   3
   0  -5  -2 2.63467 0.61992   3
   0  -5  -2 2.38624 0.58356   2
   0  -5  -2 3.34450 1.13705   4
   0  -5  -2 2.74912 0.61623   2
  -1  -5  -2 64.5184 5.63733   5
  -1  -5  -2 71.9322 4.61501   2
  -1  -5  -2 66.5413 4.74241   3
  -2  -5  -2 10.7985 1.04453  11
  -2  -5  -2 10.4447 0.77606   9
  -2  -5  -2 14.0221 2.63205   5
  -2  -5  -2 12.3472 1.37131  13
  -2  -5  -2 10.7759 1.77461   3
  -2  -5  -2 9.43837 1.16369  12
  -2  -5  -2 10.8915 1.42415  14
  -2  -5  -2 11.9657 1.69263   2
  -2  -5  -2 11.1019 0.83813  10
  -3  -5  -2 0.12782 0.35639   9
  -3  -5  -2 1.40238 1.70484   5
  -3  -5  -2 -0.8170 0.62989  13
  -3  -5  -2 -0.1483 0.49086  11
  -3  -5  -2 -0.8286 1.13719   2
  -3  -5  -2 0.10641 0.33446  10
  -3  -5  -2 0.09868 0.78751  14
  -3  -5  -2 0.12856 0.94955   3
  -3  -5  -2 -0.4458 0.43699  12
  -3  -5  -2 0.03128 0.15565   8
  -4  -5  -2 -2.4762 1.62125   5
  -4  -5  -2 0.35552 0.43601  10
  -4  -5  -2 0.94495 0.94576  14
  -4  -5  -2 0.15341 0.21876   8
  -4  -5  -2 -0.5283 1.27733   2
  -4  -5  -2 -0.7021 0.33037   9
  -4  -5  -2 0.15019 0.80822  13
  -5  -5  -2 1.84717 0.56968  10
  -5  -5  -2 2.43037 0.79621  13
  -5  -5  -2 1.96890 0.51093   9
  -6  -5  -2 0.33095 0.53159  10
  -6  -5  -2 0.43057 0.43737   9
  -6  -5  -2 -0.9299 0.80276  13
  -7  -5  -2 4.34594 0.50636   9
  -7  -5  -2 4.34893 0.69629  10
  -7  -5  -2 3.49727 0.95116  13
  -8  -5  -2 13.1132 1.18666  13
  11  -6  -2 0.51445 0.31736  10
  11  -6  -2 0.22081 0.51606  17
  11  -6  -2 0.26089 0.62730  16
  10  -6  -2 21.3361 2.02538  17
  10  -6  -2 19.8873 1.87870  16
  10  -6  -2 23.0930 1.45744  10
   9  -6  -2 18.6001 1.35512  10
   9  -6  -2 20.7474 1.97604  16
   9  -6  -2 20.9173 2.32760  17
   9  -6  -2 22.0453 1.19313   9
   8  -6  -2 -0.7260 1.70947   6
   8  -6  -2 0.55012 0.34716  10
   8  -6  -2 0.91514 0.94324  17
   8  -6  -2 0.40245 0.59992  16
   8  -6  -2 0.39937 0.26248   9
   8  -6  -2 0.07195 0.59310  15
   7  -6  -2 67.3483 4.41312   2
   7  -6  -2 65.6179 4.59640  16
   7  -6  -2 63.4111 3.31355  10
   7  -6  -2 67.9411 3.17980   9
   7  -6  -2 62.2827 5.98116   6
   7  -6  -2 64.0615 4.41981  17
   7  -6  -2 61.9029 4.55242  15
   7  -6  -2 74.6582 4.55561  14
   7  -6  -2 59.0317 4.52626   3
   6  -6  -2 73.3787 5.08444  17
   6  -6  -2 77.6304 5.44392  16
   6  -6  -2 86.3085 5.34209  14
   6  -6  -2 80.8974 5.40464  15
   6  -6  -2 77.8212 6.67483   6
   6  -6  -2 81.6807 3.93914  10
   5  -6  -2 12.1841 1.32997  14
   5  -6  -2 13.4749 1.24843  13
   5  -6  -2 12.5376 0.73688  10
   5  -6  -2 12.4419 1.38823  15
   5  -6  -2 10.4105 1.26326  17
   5  -6  -2 11.2468 1.39786  16
   5  -6  -2 14.8973 2.38927   6
   4  -6  -2 70.7715 4.63689  15
   4  -6  -2 66.1574 4.60951  16
   4  -6  -2 69.2528 4.59879  14
   4  -6  -2 61.9238 3.27922  10
   4  -6  -2 77.6117 5.75936   6
   4  -6  -2 72.9147 4.40635  13
   3  -6  -2 6.56492 1.57279   6
   3  -6  -2 8.17716 1.78397   5
   3  -6  -2 9.05632 1.11562  13
   2  -6  -2 215.969 14.5983   6
   2  -6  -2 234.468 15.1938   5
   1  -6  -2 102.580 6.08862  11
   1  -6  -2 99.8976 6.26538  13
   1  -6  -2 106.649 7.84416   5
   1  -6  -2 92.2178 4.76603  10
   1  -6  -2 103.448 6.50593  12
   0  -6  -2 2.55168 1.26339   5
   0  -6  -2 3.20386 0.77407  13
   0  -6  -2 4.09888 0.83711  14
   0  -6  -2 2.70133 0.36107  10
   0  -6  -2 3.58552 0.73400  12
   0  -6  -2 2.73831 0.62717  11
   0  -6  -2 3.66034 0.72995  18
  -1  -6  -2 23.0643 3.45172   5
  -1  -6  -2 19.2062 1.09632   9
  -1  -6  -2 20.1898 1.88474   3
  -1  -6  -2 21.9074 1.61778  11
  -1  -6  -2 19.3702 1.18797  10
  -1  -6  -2 21.2029 1.73679  12
  -1  -6  -2 21.0291 1.95091   2
  -1  -6  -2 19.3626 1.75075  13
  -1  -6  -2 21.2018 1.82345  14
  -2  -6  -2 -0.0170 0.88910   2
  -2  -6  -2 0.04299 0.28519   9
  -2  -6  -2 1.50623 0.80948  13
  -2  -6  -2 2.29798 0.87180  14
  -2  -6  -2 0.29382 1.70211   5
  -2  -6  -2 0.34714 0.53760  11
  -2  -6  -2 0.37469 0.31276  10
  -2  -6  -2 0.49272 0.42613  12
  -2  -6  -2 -0.5779 0.88041   3
  -3  -6  -2 43.3178 5.75434   5
  -3  -6  -2 49.2480 3.52177  13
  -3  -6  -2 45.2655 3.08704  11
  -3  -6  -2 38.8969 3.43312  14
  -3  -6  -2 42.4290 3.98522   2
  -3  -6  -2 47.4765 2.40754   9
  -3  -6  -2 42.1768 3.22476  12
  -3  -6  -2 47.0549 2.47714  10
  -4  -6  -2 33.0023 1.89273   9
  -4  -6  -2 31.8846 1.99230  10
  -4  -6  -2 38.8966 2.98456  13
  -5  -6  -2 70.0614 3.47129   9
  -5  -6  -2 68.9012 4.67975  13
  -5  -6  -2 66.6003 3.60450  10
  -6  -6  -2 60.0900 3.08866   9
  -6  -6  -2 60.2713 4.17625  13
  -6  -6  -2 68.8515 3.33426  10
  -7  -6  -2 7.80998 0.90855  13
  -7  -6  -2 6.31294 0.62285  10
  11  -7  -2 1.25666 0.54444  16
  11  -7  -2 1.14330 0.53521  17
  10  -7  -2 11.9616 0.91521  10
  10  -7  -2 12.7487 1.41605  16
  10  -7  -2 12.5877 1.46991  17
   9  -7  -2 5.73249 1.24516  16
   9  -7  -2 8.30491 0.71219  10
   9  -7  -2 7.37460 0.99336  15
   9  -7  -2 4.33363 1.24912  17
   8  -7  -2 0.09051 0.89013  17
   8  -7  -2 0.68791 0.64211  16
   8  -7  -2 -0.2007 0.33667  10
   8  -7  -2 0.50749 0.68928  15
   7  -7  -2 50.1027 3.64224  17
   7  -7  -2 44.0417 5.24502   6
   7  -7  -2 55.7100 3.65074  14
   7  -7  -2 49.4772 3.67048  15
   7  -7  -2 49.5287 2.56972  10
   7  -7  -2 49.5131 3.87018  16
   6  -7  -2 23.7051 2.08001  14
   6  -7  -2 22.9011 2.16204  15
   6  -7  -2 28.3962 2.03773  13
   6  -7  -2 22.9620 1.27334  10
   6  -7  -2 21.4391 3.33229   6
   6  -7  -2 24.7905 2.29850  16
   6  -7  -2 21.4748 2.03544  17
   5  -7  -2 13.5840 1.64341  16
   5  -7  -2 15.2295 1.60009  15
   5  -7  -2 16.7372 1.56928  14
   5  -7  -2 11.7961 1.38515  17
   5  -7  -2 17.3288 1.46734  13
   5  -7  -2 12.2224 2.42392   6
   5  -7  -2 13.1826 0.73927  10
   5  -7  -2 12.1803 1.39311  12
   4  -7  -2 694.222 42.6079  12
   4  -7  -2 696.847 42.5237  14
   4  -7  -2 718.686 40.7669  13
   4  -7  -2 706.284 42.9190  15
   4  -7  -2 661.216 42.4259  16
   3  -7  -2 44.2470 4.31947   5
   3  -7  -2 39.5282 2.96677  12
   3  -7  -2 40.4021 2.74840  11
   3  -7  -2 40.8551 3.04031  14
   3  -7  -2 38.6629 3.00458  15
   3  -7  -2 42.3115 2.93151  13
   3  -7  -2 39.1067 3.93613   6
   2  -7  -2 89.8478 5.62710  13
   2  -7  -2 82.0407 5.78114  15
   2  -7  -2 94.2837 5.48865  11
   2  -7  -2 92.5050 5.86712  12
   2  -7  -2 88.4345 7.15067   5
   2  -7  -2 84.7836 5.59152  18
   2  -7  -2 83.9043 5.83217  14
   1  -7  -2 5.73214 0.89188  14
   1  -7  -2 4.80653 0.38518  10
   1  -7  -2 4.87444 1.63467   5
   1  -7  -2 5.60246 0.87239  18
   1  -7  -2 4.05573 0.69198  11
   1  -7  -2 4.69902 0.89440  12
   1  -7  -2 4.74584 0.94384  13
   0  -7  -2 125.850 8.00857  12
   0  -7  -2 120.819 5.90857  10
   0  -7  -2 112.751 9.75774   5
   0  -7  -2 125.124 7.79384  13
   0  -7  -2 116.598 8.00806  14
   0  -7  -2 131.912 7.54384  11
  -1  -7  -2 84.2103 5.73810  12
  -1  -7  -2 87.7567 5.70107  13
  -1  -7  -2 83.3779 7.90985   5
  -1  -7  -2 76.8332 5.76132  14
  -1  -7  -2 89.4966 5.35025  11
  -1  -7  -2 85.9119 4.19448  10
  -2  -7  -2 27.5163 1.55211  10
  -2  -7  -2 26.4229 2.32515  13
  -2  -7  -2 24.5007 2.14248  12
  -2  -7  -2 26.5390 2.42655  14
  -2  -7  -2 23.1539 4.26971   5
  -2  -7  -2 26.4375 2.10923  11
  -3  -7  -2 16.6737 1.90443  13
  -3  -7  -2 11.7634 1.53708  12
  -3  -7  -2 14.4147 0.98764  10
  -4  -7  -2 6.77517 1.21468  13
  -4  -7  -2 5.52168 0.65883  10
  -5  -7  -2 52.0009 2.72487  10
  -5  -7  -2 51.1933 3.58361  13
  -6  -7  -2 3.28255 0.42541  10
  -6  -7  -2 3.59991 0.67277  13
  11  -8  -2 0.26910 0.47049  16
  10  -8  -2 5.12129 0.91169  16
  10  -8  -2 4.61034 0.85572  17
   9  -8  -2 137.079 8.69808  17
   9  -8  -2 145.996 9.27015  16
   8  -8  -2 0.10373 0.70719  15
   8  -8  -2 0.27673 0.89232  17
   8  -8  -2 0.08636 0.20113  10
   8  -8  -2 -0.2109 0.94467  16
   7  -8  -2 15.9284 1.63197  17
   7  -8  -2 17.8281 1.92339  15
   7  -8  -2 21.3713 1.91195  14
   7  -8  -2 18.1638 1.94352  16
   6  -8  -2 1.25495 0.71757  17
   6  -8  -2 0.25034 0.65800  13
   6  -8  -2 1.32683 0.77203  14
   6  -8  -2 1.95473 1.41528   6
   6  -8  -2 0.73664 0.91827  16
   6  -8  -2 1.04431 0.82708  15
   5  -8  -2 178.618 10.2972  13
   5  -8  -2 178.840 10.7595  14
   5  -8  -2 166.228 10.6905  12
   5  -8  -2 147.563 12.0386   6
   5  -8  -2 161.826 10.7965  16
   5  -8  -2 166.419 10.8708  15
   4  -8  -2 185.693 14.8691   6
   4  -8  -2 226.886 14.0257  15
   4  -8  -2 211.942 12.9754  11
   4  -8  -2 225.153 13.8872  16
   4  -8  -2 240.070 13.3653  13
   4  -8  -2 210.078 13.8333  12
   4  -8  -2 232.187 13.9168  14
   3  -8  -2 3.55877 0.75032  18
   3  -8  -2 4.13062 1.60432   5
   3  -8  -2 3.00326 0.83329  15
   3  -8  -2 4.27564 0.89168  12
   3  -8  -2 3.98815 0.72710  11
   3  -8  -2 3.24782 0.89118  14
   3  -8  -2 2.98183 0.83891  13
   2  -8  -2 0.10331 0.60909  18
   2  -8  -2 -0.5578 0.67121  13
   2  -8  -2 0.51062 0.57605  11
   2  -8  -2 0.33368 0.43865  12
   2  -8  -2 -0.7036 0.59767  15
   2  -8  -2 -0.6728 1.13828   5
   2  -8  -2 0.04368 0.65836  14
   1  -8  -2 194.283 15.2804   5
   1  -8  -2 198.626 13.4118  14
   1  -8  -2 220.431 13.4780  12
   1  -8  -2 229.358 12.6704  11
   1  -8  -2 209.879 12.9593  13
   0  -8  -2 97.6776 6.29983  12
   0  -8  -2 101.738 5.91083  11
   0  -8  -2 95.5978 6.19432  13
   0  -8  -2 93.3413 4.47144  10
   0  -8  -2 78.1967 8.04213   5
   0  -8  -2 83.0292 6.24972  14
  -1  -8  -2 0.30428 0.28578  10
  -1  -8  -2 0.70397 0.64310  11
  -1  -8  -2 0.66403 0.73829  12
  -1  -8  -2 1.19555 0.98194  13
  -1  -8  -2 0.55448 0.64307  14
  -2  -8  -2 2.44110 0.70686  12
  -2  -8  -2 2.72128 1.14802  13
  -2  -8  -2 2.08446 0.42812  10
  -3  -8  -2 0.92038 0.34072  10
  -3  -8  -2 0.12566 0.92282  13
  -3  -8  -2 0.90593 0.50753  12
  -4  -8  -2 0.94757 0.66501  13
  -4  -8  -2 1.36751 0.32733  10
  -5  -8  -2 4.25515 0.32783  10
  10  -9  -2 62.7175 4.27987  16
   9  -9  -2 0.10084 0.65310  16
   8  -9  -2 31.3619 2.51153  15
   8  -9  -2 31.2112 2.70907  16
   7  -9  -2 2.45765 0.96754  16
   7  -9  -2 2.18241 0.86277  15
   7  -9  -2 3.01155 0.89252  14
   6  -9  -2 151.454 8.77479  13
   6  -9  -2 142.261 9.16608  14
   6  -9  -2 135.936 9.25304  16
   6  -9  -2 135.800 9.26266  15
   5  -9  -2 12.3151 1.30934  12
   5  -9  -2 14.2693 1.58889  13
   5  -9  -2 13.9716 1.64972  14
   5  -9  -2 7.91808 1.34759  16
   5  -9  -2 14.0517 1.69439  15
   4  -9  -2 0.15349 0.69196  16
   4  -9  -2 1.69002 0.80275  14
   4  -9  -2 0.77608 0.77300  15
   4  -9  -2 1.81884 0.81100  13
   4  -9  -2 1.12611 0.58469  11
   4  -9  -2 1.02759 0.52836  12
   3  -9  -2 0.19661 0.73710  13
   3  -9  -2 0.32334 0.63842  18
   3  -9  -2 0.06288 0.56025  11
   3  -9  -2 -0.4426 0.60736  12
   3  -9  -2 -0.3564 0.68734  15
   3  -9  -2 -0.9164 0.69103  14
   2  -9  -2 42.5145 3.15315  13
   2  -9  -2 44.2340 3.04905  11
   2  -9  -2 41.7710 3.30510  14
   2  -9  -2 41.5769 3.18193  12
   1  -9  -2 2.80885 0.65944  11
   1  -9  -2 3.14893 0.85580  14
   1  -9  -2 2.47308 1.00333  13
   1  -9  -2 3.39035 0.77805  12
   0  -9  -2 13.9438 1.46988  11
   0  -9  -2 11.1450 1.42523  12
   0  -9  -2 9.04252 1.41929  14
   0  -9  -2 10.2945 1.54219  13
  -1  -9  -2 0.46568 0.70740  12
  -1  -9  -2 0.47785 0.94506  13
  -2  -9  -2 7.95480 1.21611  13
  -2  -9  -2 5.60749 0.89513  12
  -3  -9  -2 1.14439 0.56690  12
  -3  -9  -2 1.28658 0.65751  13
   9 -10  -2 6.38697 1.07824  16
   8 -10  -2 0.07032 0.72127  15
   8 -10  -2 -0.2616 0.95005  16
   7 -10  -2 41.4253 3.35499  16
   7 -10  -2 46.1705 3.21432  14
   6 -10  -2 2.14911 0.69792  15
   6 -10  -2 1.92474 0.83212  14
   6 -10  -2 1.09900 0.69823  16
   5 -10  -2 37.0896 2.81060  15
   5 -10  -2 30.6105 2.65458  16
   5 -10  -2 33.1198 2.71356  14
   5 -10  -2 32.1160 2.60378  13
   4 -10  -2 0.55361 0.61880  14
   4 -10  -2 0.24294 0.77134  13
   4 -10  -2 -0.1787 0.73682  15
   4 -10  -2 0.93500 0.56183  12
   3 -10  -2 1.12379 0.61842  14
   3 -10  -2 1.27750 0.75859  12
   3 -10  -2 -0.7977 0.74117  13
   2 -10  -2 16.0140 1.63054  12
   2 -10  -2 17.2003 1.84543  14
   2 -10  -2 17.5370 1.76215  13
   1 -10  -2 0.67095 0.59749  14
   1 -10  -2 0.69004 0.55110  12
   1 -10  -2 -0.4467 0.57634  13
   0 -10  -2 3.46576 0.76215  12
   0 -10  -2 2.04315 1.06339  13
  -1 -10  -2 5.80614 1.05708  13
  -1 -10  -2 5.25562 0.79244  12
  -2 -10  -2 6.94776 0.92740  13
  -2 -10  -2 6.03805 0.72585  12
   8 -11  -2 13.3077 1.36301  16
   7 -11  -2 0.52842 0.74775  16
   6 -11  -2 30.7707 2.34651  14
   5 -11  -2 75.6394 4.65977  13
   5 -11  -2 68.9285 4.82103  14
   4 -11  -2 4.31889 0.83901  14
   4 -11  -2 5.59126 1.01110  13
   3 -11  -2 13.7101 1.55390  14
   3 -11  -2 13.3582 1.41425  13
   3 -11  -2 13.6142 1.37930  12
   2 -11  -2 3.37472 0.83945  12
   2 -11  -2 3.65076 1.01161  13
   1 -11  -2 11.4890 1.35033  13
   1 -11  -2 11.2111 1.17746  12
   0 -11  -2 2.21447 0.49850  12
  -1 -11   3 8.94794 1.05045  12
   0 -11   3 0.59505 0.60525  12
   1 -11   3 14.9151 1.54380  12
   2 -11   3 48.9474 3.39520  18
   2 -11   3 49.2360 3.53848  12
   3 -11   3 4.62705 0.77111  18
   3 -11   3 3.39229 0.79794  12
   4 -11   3 14.5127 1.44331  18
   4 -11   3 14.8751 1.41074  17
   5 -11   3 2.24695 0.68713  17
   5 -11   3 2.11389 0.79559  16
   5 -11   3 1.68160 0.60958  18
   6 -11   3 48.3436 3.41014  17
   6 -11   3 53.8337 3.60107  16
   7 -11   3 81.4575 5.12552  16
   7 -11   3 71.4716 4.77720  17
   8 -11   3 17.5615 1.47755  16
  -2 -10   3 13.6201 1.47474  12
  -1 -10   3 10.2522 1.48299  12
   0 -10   3 90.6205 5.99607  12
   0 -10   3 80.5542 5.34575  11
   1 -10   3 117.077 7.30836  18
   1 -10   3 113.485 7.08029  11
   1 -10   3 112.160 7.62359  12
   2 -10   3 28.8225 2.24138  11
   2 -10   3 28.1030 2.29929  18
   2 -10   3 27.3823 2.34045  12
   3 -10   3 1.80819 0.61010  11
   3 -10   3 1.33565 0.86663  17
   3 -10   3 0.66892 0.66467  12
   3 -10   3 1.84000 0.65356  16
   3 -10   3 0.72370 0.80547  18
   4 -10   3 10.1628 1.17017  15
   4 -10   3 11.6475 1.36464  16
   4 -10   3 10.4840 1.22369  18
   4 -10   3 9.14796 1.31725  17
   4 -10   3 8.24429 1.03469  11
   5 -10   3 171.118 10.8566  16
   5 -10   3 167.069 10.6326  18
   5 -10   3 176.934 10.9248  15
   5 -10   3 166.296 10.2495  17
   6 -10   3 5.23629 1.20920  17
   6 -10   3 4.90022 1.11032  16
   6 -10   3 6.16176 0.91223  18
   6 -10   3 9.63431 1.12589  15
   7 -10   3 7.15552 1.16246  17
   7 -10   3 6.19594 1.00201  16
   8 -10   3 9.38601 1.14011  16
   8 -10   3 7.38865 1.27877  17
   9 -10   3 38.2357 2.53409  17
   9 -10   3 33.0136 2.50435  16
  -4  -9   3 57.2965 3.88415  13
  -4  -9   3 59.7696 3.98844  12
  -3  -9   3 1.07827 0.60445  12
  -3  -9   3 1.66865 0.88766  13
  -2  -9   3 19.8822 2.20070  12
  -2  -9   3 21.2376 2.13364  13
  -1  -9   3 6.06564 1.24347  13
  -1  -9   3 8.82771 1.30215  12
  -1  -9   3 7.62504 1.13814  11
   0  -9   3 153.173 10.6011  13
   0  -9   3 175.475 11.3124  12
   0  -9   3 179.922 10.5700  11
   0  -9   3 188.501 10.9393  18
   1  -9   3 7.76431 1.03448  17
   1  -9   3 6.27571 1.18172  12
   1  -9   3 5.29842 1.02947  13
   1  -9   3 6.64420 1.05716  18
   1  -9   3 7.34681 1.02924  11
   2  -9   3 50.7774 3.46737  11
   2  -9   3 50.2533 3.59060  18
   2  -9   3 49.5635 3.75566  12
   2  -9   3 50.8226 3.44920  17
   2  -9   3 49.5455 3.64381  16
   3  -9   3 10.4160 1.40919  16
   3  -9   3 13.0465 1.41065  17
   3  -9   3 12.8004 1.38512  18
   3  -9   3 8.41933 1.21606  12
   3  -9   3 12.6347 1.46074  15
   3  -9   3 11.8398 1.25912  11
   4  -9   3 39.7394 2.85676  15
   4  -9   3 35.1819 2.73426  18
   4  -9   3 34.0651 2.82961  17
   4  -9   3 37.2213 2.80243  16
   4  -9   3 33.7891 2.53336  11
   4  -9   3 33.9993 2.68288  14
   5  -9   3 14.0973 1.59371  17
   5  -9   3 15.3748 1.68692  15
   5  -9   3 12.6780 1.55309  18
   5  -9   3 13.4954 1.53210  16
   6  -9   3 46.2998 3.46644  16
   6  -9   3 43.8294 3.42348  18
   6  -9   3 47.4508 3.51480  15
   6  -9   3 47.4762 3.54091  17
   7  -9   3 26.9429 2.58214  17
   7  -9   3 25.1099 2.21880  16
   7  -9   3 26.4077 2.19091  15
   8  -9   3 0.48889 0.83134  16
   8  -9   3 -0.3118 0.99589  17
   9  -9   3 77.6637 5.39346  16
   9  -9   3 88.4965 5.30795  17
  10  -9   3 2.49999 0.62528  17
  -5  -8   3 2.32971 0.67489  12
  -5  -8   3 2.84821 0.71077  13
  -4  -8   3 6.10490 0.96085  12
  -4  -8   3 3.17573 0.89332  13
  -4  -8   3 4.74036 0.51768  10
  -3  -8   3 2.04437 0.72515  11
  -3  -8   3 2.25036 0.89299  13
  -3  -8   3 2.56751 0.81153  12
  -3  -8   3 2.50201 0.41019  10
  -2  -8   3 3.21883 1.10922  13
  -2  -8   3 3.45150 0.92759  12
  -2  -8   3 2.65942 0.38544  10
  -2  -8   3 3.33853 0.84794  11
  -1  -8   3 -0.5895 0.66274  11
  -1  -8   3 2.53280 2.11421   4
  -1  -8   3 -0.0756 0.56492  12
  -1  -8   3 -0.4198 0.22346  10
  -1  -8   3 0.66887 0.81787  18
  -1  -8   3 -1.0943 0.76689  13
   0  -8   3 7.85575 1.25811  18
   0  -8   3 8.40454 1.15703  11
   0  -8   3 9.63728 2.16232   4
   0  -8   3 11.1578 1.46780  12
   0  -8   3 8.52968 1.15380  13
   1  -8   3 9.16731 1.21968  16
   1  -8   3 10.2127 1.18234  17
   1  -8   3 11.2548 1.29956  12
   1  -8   3 10.8077 1.27402  18
   1  -8   3 6.67765 1.05619  13
   1  -8   3 8.00967 2.03689   4
   1  -8   3 9.99795 1.14989  11
   2  -8   3 68.4552 4.64824  18
   2  -8   3 67.6267 4.65952  16
   2  -8   3 70.7726 4.47012  11
   2  -8   3 71.0943 4.46478  17
   2  -8   3 64.3529 4.56790  15
   2  -8   3 63.4729 4.69389  12
   3  -8   3 49.4710 3.30485  17
   3  -8   3 46.4868 3.38646  18
   3  -8   3 45.7728 3.17787  11
   3  -8   3 48.4455 3.32692  15
   3  -8   3 40.4051 3.27863  12
   3  -8   3 45.9527 3.32270  16
   3  -8   3 43.1340 3.19958  14
   3  -8   3 44.1158 4.90919   7
   4  -8   3 4.49341 0.88538  15
   4  -8   3 4.21669 0.81871  14
   4  -8   3 3.63658 0.97614  16
   4  -8   3 4.52123 0.97416  18
   4  -8   3 3.18099 0.70425  11
   4  -8   3 4.04229 0.85021  17
   4  -8   3 2.17623 2.08705   7
   5  -8   3 21.6542 1.99415  16
   5  -8   3 23.9236 2.20520  17
   5  -8   3 23.4117 1.85219  14
   5  -8   3 20.5120 2.04271  15
   5  -8   3 17.8883 3.44970   7
   5  -8   3 21.5899 2.05402  18
   6  -8   3 89.9186 5.77437  17
   6  -8   3 81.0953 7.95898   7
   6  -8   3 94.0245 6.01711  15
   6  -8   3 85.4407 5.91270  18
   6  -8   3 88.8347 6.02014  16
   7  -8   3 8.52525 1.36074  17
   7  -8   3 14.4844 1.61900  16
   7  -8   3 10.7140 1.35105  15
   7  -8   3 10.6049 1.41895  18
   8  -8   3 15.1849 1.66949  16
   8  -8   3 19.4513 1.97130  17
   8  -8   3 15.9824 0.92307  10
   9  -8   3 1.12919 0.93343  17
   9  -8   3 0.80193 0.20337  10
   9  -8   3 0.66261 0.77832  16
  10  -8   3 4.18089 0.65023  16
  10  -8   3 7.38520 1.06133  17
  -6  -7   3 4.51613 0.83283  13
  -5  -7   3 1.56556 0.83484  13
  -5  -7   3 2.42660 0.69809  12
  -5  -7   3 1.00118 0.45390  10
  -4  -7   3 5.63040 1.22187  13
  -4  -7   3 4.65726 0.61190  10
  -4  -7   3 5.65790 1.10437  12
  -3  -7   3 55.8105 4.12268  13
  -3  -7   3 53.6458 2.80058  10
  -3  -7   3 53.0350 3.91263  12
  -3  -7   3 49.7784 3.58082  11
  -2  -7   3 4.60030 1.86225   4
  -2  -7   3 9.41612 0.74689  10
  -2  -7   3 7.18777 1.28744  13
  -2  -7   3 11.1044 1.36210  18
  -2  -7   3 10.1106 1.34701  12
  -2  -7   3 9.02937 1.10260  11
  -1  -7   3 15.5904 1.42001  11
  -1  -7   3 14.0098 0.90376  10
  -1  -7   3 14.9580 2.85960   4
  -1  -7   3 16.0748 1.74834  18
  -1  -7   3 14.9468 1.66254  13
  -1  -7   3 15.3104 1.59445  12
   0  -7   3 17.3550 1.70479  17
   0  -7   3 18.2546 0.99708  10
   0  -7   3 18.2808 1.67212  11
   0  -7   3 18.0314 1.70499  12
   0  -7   3 15.5909 1.60965  13
   0  -7   3 20.1053 1.70621  18
   0  -7   3 21.7233 2.99713   4
   1  -7   3 111.306 5.61766  10
   1  -7   3 119.677 8.67393   4
   1  -7   3 125.243 7.36893  11
   1  -7   3 120.642 7.81802  12
   1  -7   3 124.015 7.70204  16
   1  -7   3 103.087 7.29885  13
   1  -7   3 132.167 7.29701  17
   1  -7   3 126.475 7.59820  18
   2  -7   3 3.53568 1.28171   7
   2  -7   3 3.96705 0.84579  18
   2  -7   3 1.79846 1.22545   4
   2  -7   3 2.83268 0.73689  12
   2  -7   3 3.86914 0.75976  16
   2  -7   3 3.49172 0.74426  11
   2  -7   3 3.56331 0.82018  17
   2  -7   3 3.75996 0.73125  15
   3  -7   3 58.0061 4.00389  11
   3  -7   3 59.0385 4.13332  14
   3  -7   3 67.2349 4.35453  16
   3  -7   3 66.4060 4.29120  15
   3  -7   3 60.5104 4.16787  18
   3  -7   3 61.3558 5.63703   7
   3  -7   3 62.8657 4.09801  17
   4  -7   3 8.87747 1.06408  14
   4  -7   3 10.7657 1.32140  16
   4  -7   3 9.27567 1.14203  15
   4  -7   3 7.78494 2.23576   7
   4  -7   3 6.27916 1.05897  18
   4  -7   3 5.86659 0.86060  11
   4  -7   3 8.89335 1.16096  17
   5  -7   3 155.070 10.3150  18
   5  -7   3 165.244 9.96212  17
   5  -7   3 177.305 10.6300  15
   5  -7   3 159.171 7.82602  10
   5  -7   3 144.773 12.0094   7
   5  -7   3 167.501 10.5510  16
   5  -7   3 178.742 10.4721  14
   6  -7   3 419.695 23.6851  17
   6  -7   3 365.037 26.6313   7
   6  -7   3 389.574 24.6544  18
   6  -7   3 427.878 25.4075  15
   6  -7   3 408.180 19.1965  10
   6  -7   3 422.802 25.2183  16
   7  -7   3 20.8233 2.00835  18
   7  -7   3 22.8080 1.35630  10
   7  -7   3 18.9268 4.25927   7
   7  -7   3 22.5265 2.21692  16
   7  -7   3 26.2814 2.15666  15
   7  -7   3 25.9015 2.38539  17
   8  -7   3 16.6472 1.87519  16
   8  -7   3 18.0377 1.87526  17
   8  -7   3 16.8622 1.13388  10
   9  -7   3 10.1524 0.82004  10
   9  -7   3 7.60580 1.29875  17
   9  -7   3 11.1227 1.26959  16
  10  -7   3 13.6562 1.43282  17
  10  -7   3 13.5159 0.92077  10
  11  -7   3 -0.1136 0.44056  17
  11  -7   3 0.18489 0.15318  10
  -7  -6   3 3.12002 0.57103  10
  -7  -6   3 2.56008 0.91773  13
  -6  -6   3 7.29973 1.25403  13
  -6  -6   3 7.81418 1.03788  12
  -6  -6   3 7.61905 0.79496  10
  -5  -6   3 6.32628 0.66124   9
  -5  -6   3 6.33568 1.13182  12
  -5  -6   3 6.66549 0.82034  10
  -5  -6   3 7.81732 1.55387  13
  -4  -6   3 225.703 10.5665  10
  -4  -6   3 234.840 10.4367   9
  -4  -6   3 214.195 13.6035  13
  -4  -6   3 190.637 14.7517   4
  -4  -6   3 213.808 13.8717  12
  -3  -6   3 123.876 5.84637  10
  -3  -6   3 108.742 10.2151   5
  -3  -6   3 125.854 5.73369   9
  -3  -6   3 116.736 7.73927   2
  -3  -6   3 111.790 7.80036  12
  -3  -6   3 112.968 7.24817  11
  -3  -6   3 120.946 7.72042  13
  -3  -6   3 115.092 9.03865   4
  -2  -6   3 15.9296 1.04597  10
  -2  -6   3 16.2443 1.82025   2
  -2  -6   3 14.0079 1.69238  13
  -2  -6   3 12.0280 2.85723   5
  -2  -6   3 12.6379 1.70469   3
  -2  -6   3 15.6286 1.51704  11
  -2  -6   3 16.2175 1.55398  12
  -2  -6   3 16.3141 1.68657  18
  -2  -6   3 18.6051 2.85795   4
  -2  -6   3 15.7505 0.92870   9
  -1  -6   3 38.0711 2.73946  12
  -1  -6   3 29.1337 3.60407   5
  -1  -6   3 36.3437 1.74159   9
  -1  -6   3 36.9737 1.87245  10
  -1  -6   3 43.3636 2.61585  17
  -1  -6   3 36.3801 2.58008  11
  -1  -6   3 34.4497 2.46532   3
  -1  -6   3 32.8072 2.60160  13
  -1  -6   3 38.1663 3.65964   4
  -1  -6   3 39.6018 2.72024  18
  -1  -6   3 37.3284 2.36974   2
  -1  -6   3 30.2775 2.39376   2
  -1  -6   3 32.1694 2.47828   3
   0  -6   3 116.569 8.25224   4
   0  -6   3 112.195 7.06198  11
   0  -6   3 113.793 5.54357  10
   0  -6   3 115.954 7.54421  12
   0  -6   3 117.704 7.32358  18
   0  -6   3 121.595 6.99801  17
   1  -6   3 94.3875 5.87343  17
   1  -6   3 101.913 7.08648   4
   1  -6   3 95.1293 5.94193  11
   1  -6   3 104.713 7.27274   7
   1  -6   3 93.7733 6.14527  18
   2  -6   3 1.15963 0.90704   4
   2  -6   3 0.25725 0.57880  17
   2  -6   3 1.43654 1.13315   7
   3  -6   3 13.3470 1.38212  16
   3  -6   3 13.8585 1.23662  17
   3  -6   3 12.0821 1.26113  15
   3  -6   3 16.5505 2.54162   7
   3  -6   3 10.3708 1.73780   4
   3  -6   3 11.6976 1.17997  18
   4  -6   3 616.315 36.3922  17
   4  -6   3 634.785 29.8672  10
   4  -6   3 658.465 39.3162  15
   4  -6   3 660.886 38.9159  14
   4  -6   3 652.143 38.9433  16
   4  -6   3 587.814 38.0779  18
   4  -6   3 660.695 39.6712   7
   5  -6   3 30.6998 2.19718  14
   5  -6   3 29.1448 2.33388  16
   5  -6   3 27.5025 2.24676  17
   5  -6   3 24.7513 2.16021  18
   5  -6   3 27.9207 1.53064  10
   5  -6   3 31.5409 4.06515   7
   5  -6   3 28.0505 2.17776  15
   6  -6   3 18.9775 1.55317   2
   6  -6   3 20.0308 1.93606  17
   6  -6   3 20.9645 1.71837  15
   6  -6   3 18.5685 0.97142   9
   6  -6   3 20.2977 1.20104  10
   6  -6   3 22.3670 3.77363   7
   6  -6   3 19.8865 1.80523  16
   6  -6   3 21.1812 1.96162  18
   6  -6   3 16.3750 1.42803   3
   7  -6   3 16.2666 3.53188   7
   7  -6   3 17.6501 1.82644  16
   7  -6   3 17.5812 1.01133   9
   7  -6   3 13.5990 1.86113   2
   7  -6   3 16.7831 1.94334  17
   7  -6   3 16.1631 1.84912  18
   7  -6   3 17.2208 1.17806  10
   7  -6   3 17.8391 1.73901  15
   8  -6   3 34.4947 1.93107  10
   8  -6   3 33.1158 1.72757   9
   8  -6   3 29.6902 2.62042  16
   8  -6   3 31.1527 2.59812  17
   9  -6   3 57.9642 2.81175   9
   9  -6   3 59.1077 4.01250  17
   9  -6   3 58.5431 3.12059  10
  10  -6   3 2.26885 0.40441  10
  10  -6   3 1.29808 0.63188  17
  11  -6   3 0.74785 0.47163  17
  11  -6   3 0.77282 0.27576  10
  -8  -5   3 0.82468 0.58302  13
  -7  -5   3 16.3283 1.71796  13
  -7  -5   3 16.3335 1.22667  10
  -7  -5   3 15.6423 1.18739   9
  -6  -5   3 -0.5729 0.64414  12
  -6  -5   3 -0.7483 0.37873   9
  -6  -5   3 1.03701 0.81271  13
  -6  -5   3 0.41951 0.52038  10
  -5  -5   3 81.0883 3.91137   9
  -5  -5   3 74.9876 5.18203  12
  -5  -5   3 78.5768 3.96086  10
  -5  -5   3 78.8743 5.31897  13
  -5  -5   3 56.7327 6.61371   4
  -5  -5   3 62.2088 7.38117   5
  -4  -5   3 8.11749 0.53174   8
  -4  -5   3 10.6298 1.30906  12
  -4  -5   3 11.7735 0.97164  10
  -4  -5   3 10.9213 0.92904   9
  -4  -5   3 9.35823 2.15836   4
  -4  -5   3 10.4648 1.60489  13
  -4  -5   3 6.94812 1.87502   3
  -4  -5   3 8.91610 2.08374   2
  -4  -5   3 9.13968 3.12905   5
  -3  -5   3 27.5048 1.60969  10
  -3  -5   3 27.6494 1.54495   9
  -3  -5   3 30.9626 2.31574  18
  -3  -5   3 30.7019 2.83312   2
  -3  -5   3 27.7834 3.51867   4
  -3  -5   3 28.1116 2.28352  12
  -3  -5   3 23.5174 2.00314  11
  -3  -5   3 25.1537 2.77416   3
  -3  -5   3 25.9204 2.42161  13
  -3  -5   3 25.1458 3.90408   5
  -2  -5   3 110.350 6.94443   3
  -2  -5   3 94.5640 4.76044   9
  -2  -5   3 91.4913 6.03271  11
  -2  -5   3 97.8373 4.83378  10
  -2  -5   3 108.609 6.43955   2
  -2  -5   3 88.5760 6.44551  12
  -2  -5   3 106.412 7.35407   4
  -2  -5   3 88.7607 7.65377   5
  -2  -5   3 108.872 6.30379  18
  -1  -5   3 430.745 23.9276   2
  -1  -5   3 438.339 25.9178   3
  -1  -5   3 415.230 25.7891   4
  -1  -5   3 400.454 26.6937   5
   0  -5   3 16.3053 1.22721   3
   0  -5   3 14.3181 1.16699   2
   0  -5   3 16.4298 1.16312   2
   0  -5   3 11.6868 1.73686   5
   0  -5   3 13.2876 1.05951   1
   0  -5   3 18.0744 2.31320   4
   0  -5   3 14.6789 1.18865   3
   1  -5   3 11.5438 1.75116   7
   1  -5   3 6.19751 1.07682   5
   1  -5   3 9.27604 1.49277   4
   2  -5   3 49.3118 4.09556   7
   2  -5   3 42.3595 3.56100   4
   3  -5   3 154.497 10.3974   4
   3  -5   3 180.572 11.3687   7
   4  -5   3 27.8119 3.25008   7
   4  -5   3 32.6213 2.22455   2
   4  -5   3 29.5010 2.11129   2
   4  -5   3 28.8996 2.24672   3
   4  -5   3 29.3904 2.16636   3
   5  -5   3 218.620 13.9068  16
   5  -5   3 231.139 13.1696   2
   5  -5   3 214.988 13.6601  18
   5  -5   3 213.137 10.5050   9
   5  -5   3 211.794 13.0360  17
   5  -5   3 238.333 15.2459   7
   5  -5   3 227.594 14.0069  15
   5  -5   3 226.685 10.6314  10
   5  -5   3 235.008 14.0630   3
   6  -5   3 2.80882 0.97882   3
   6  -5   3 2.70992 0.74861  16
   6  -5   3 2.08350 0.42066  10
   6  -5   3 2.17443 1.14215   2
   6  -5   3 2.33678 0.66756  15
   6  -5   3 2.10763 0.39615   9
   6  -5   3 2.11683 1.33905   7
   6  -5   3 2.70023 0.80680  18
   6  -5   3 2.78803 0.62566  17
   7  -5   3 17.8257 1.18823   9
   7  -5   3 19.9801 1.31655  10
   7  -5   3 19.7576 3.63066   7
   7  -5   3 17.5494 1.75919  16
   7  -5   3 21.6559 2.72502   2
   7  -5   3 19.9942 1.65876  15
   7  -5   3 14.5067 2.14895   3
   7  -5   3 17.4728 1.91274  18
   7  -5   3 20.6647 1.91697  17
   8  -5   3 55.6223 3.92750  17
   8  -5   3 41.9050 5.82230   7
   8  -5   3 58.7129 3.08144  10
   8  -5   3 57.4397 2.93516   9
   9  -5   3 -0.5209 0.32357   9
   9  -5   3 0.03937 0.70535  17
   9  -5   3 0.46156 0.47937  10
  10  -5   3 1.46666 0.81321  17
  10  -5   3 0.35217 0.27581   9
  10  -5   3 -0.4262 0.45558  10
  11  -5   3 0.77210 0.42437  10
  11  -5   3 0.90462 0.53702  17
  -9  -4   3 2.70447 0.58906  13
  -8  -4   3 1.64655 0.57734   9
  -8  -4   3 -0.0146 0.60860  13
  -7  -4   3 5.09517 0.67732   9
  -7  -4   3 3.53400 0.75094  10
  -6  -4   3 0.54228 0.34966   8
  -6  -4   3 -0.1022 0.63320  12
  -6  -4   3 -0.0605 0.44908   9
  -6  -4   3 -1.0757 2.45187   5
  -6  -4   3 0.22419 0.53649  10
  -5  -4   3 0.33788 0.39921   9
  -5  -4   3 1.21717 1.65848   4
  -5  -4   3 -0.0558 1.31139   3
  -5  -4   3 0.05026 0.44969  10
  -5  -4   3 2.94656 2.38664   5
  -5  -4   3 -0.3078 1.35603   2
  -5  -4   3 -0.5252 0.35716   8
  -5  -4   3 0.58921 0.58092  12
  -4  -4   3 0.97697 0.56123  12
  -4  -4   3 1.06565 0.43134  10
  -4  -4   3 -1.2799 1.19816   4
  -4  -4   3 1.49371 0.42108   9
  -4  -4   3 1.87858 1.84900   5
  -4  -4   3 0.10504 0.97424   2
  -4  -4   3 0.84147 1.02920   3
  -4  -4   3 1.13039 0.32663   8
  -3  -4   3 65.7195 4.48768   2
  -3  -4   3 63.8404 4.69156   3
  -3  -4   3 57.0863 2.94886   9
  -3  -4   3 57.5951 4.73830   4
  -3  -4   3 66.2760 5.68716   5
  -3  -4   3 55.8462 2.97427   8
  -3  -4   3 53.6356 4.06327  12
  -2  -4   3 7.20888 1.58632   4
  -2  -4   3 9.36611 1.40521   3
  -2  -4   3 7.56311 1.80192   5
  -2  -4   3 9.11269 1.40767   2
  -1  -4   3 1.24735 0.82160   5
  -1  -4   3 1.45882 0.68552   3
  -1  -4   3 1.90145 0.92360   4
  -1  -4   3 1.88354 0.54267   2
   0   4  -3 281.709 14.9511   1
   0  -4   3 277.075 18.1222   5
   0  -4   3 288.960 17.7282   4
   0  -4   3 320.237 18.2635   7
   0  -4   3 277.977 14.9828   1
   0  -4   3 288.169 16.4657   2
   0  -4   3 300.083 17.7827   3
  -1   4  -3 60.6400 3.48930   1
  -1   4  -3 65.4619 3.53369   1
   1  -4   3 64.6593 4.86229   7
   1  -4   3 69.4273 4.14543   3
   1  -4   3 66.6930 4.63166   4
   1  -4   3 56.8755 4.33035   5
   1  -4   3 65.4167 4.13584   3
   1  -4   3 63.4662 3.51625   1
   1  -4   3 66.1081 3.88261   2
   1  -4   3 70.5973 3.86043   2
   1  -4   3 63.0988 3.49180   1
  -2   4  -3 900.679 46.6193   1
  -2   4  -3 877.639 46.5852   1
   2  -4   3 972.644 51.1859   2
   2  -4   3 903.004 53.9115   4
   2  -4   3 918.243 51.1545   2
   2  -4   3 966.104 55.4786   3
   2  -4   3 947.655 55.6848   3
   2  -4   3 941.372 55.4260   7
   2  -4   3 911.589 46.6127   1
   2  -4   3 869.773 46.5815   1
  -3   4  -3 58.8431 3.81996   1
   3  -4   3 64.0146 4.54208   4
   3  -4   3 75.1810 4.27983   2
   3  -4   3 61.1871 3.75542   1
   3  -4   3 64.0304 4.14522   2
   3  -4   3 74.5961 5.22355   7
   3  -4   3 66.5915 4.50671   3
   3  -4   3 72.8710 4.44219   3
   4  -4   3 76.7200 5.01383   2
   4  -4   3 76.4456 5.93142   7
   5  -4   3 97.2369 7.34409   7
   5  -4   3 96.0093 6.34662   2
   5  -4   3 95.7504 6.62851   3
   6  -4   3 19.9834 1.15168   8
   6  -4   3 18.4804 2.26935   3
   6  -4   3 18.7564 3.01564   7
   6  -4   3 20.5214 1.25544   9
   6  -4   3 19.9988 1.30821  10
   6  -4   3 22.9848 2.62325   2
   6  -4   3 21.6993 1.73249  15
   6  -4   3 19.9164 1.74938  17
   6  -4   3 17.6412 1.70342  16
   7  -4   3 1.42669 0.33424   8
   7  -4   3 1.32216 0.47813  10
   7  -4   3 1.38903 0.43096   9
   7  -4   3 -0.1406 1.29803   2
   7  -4   3 2.10598 1.73305   7
   7  -4   3 0.45095 0.63941  17
   7  -4   3 0.58456 1.03823   3
   8  -4   3 21.7586 1.42466   9
   8  -4   3 20.4316 1.79151  17
   8  -4   3 19.9550 1.48198  10
   8  -4   3 19.8567 1.17093   8
   8  -4   3 19.2468 3.46497   7
   8  -4   3 18.1100 1.96037  18
   9  -4   3 0.99780 0.46369   9
   9  -4   3 0.44294 0.54829  10
   9  -4   3 0.94465 0.77146  17
  10  -4   3 2.95165 0.44893   9
  10  -4   3 2.79220 0.72984  17
  10  -4   3 2.62866 0.63278  10
  11  -4   3 19.6222 1.07255   9
  11  -4   3 17.1059 1.51322  17
  -9  -3   3 5.69937 0.94153  13
  -8  -3   3 1.49606 0.47212   9
  -8  -3   3 0.50151 0.29075   8
  -7  -3   3 139.012 7.10064   9
  -7  -3   3 146.671 7.25549   8
  -6  -3   3 2.95085 0.78900  12
  -6  -3   3 3.17839 1.85294   3
  -6  -3   3 4.43708 0.70733   9
  -6  -3   3 3.82044 2.20007   5
  -6  -3   3 4.39298 0.60109   8
  -6  -3   3 3.36837 2.07291   2
  -5  -3   3 106.741 7.88032   4
  -5  -3   3 108.769 5.49840   9
  -5  -3   3 109.292 5.59147   8
  -5  -3   3 109.855 7.16850  12
  -5  -3   3 109.752 5.54843  10
  -5  -3   3 121.185 8.01625   2
  -5  -3   3 112.385 8.40496   3
  -4  -3   3 33.8201 2.90922   2
  -4  -3   3 27.5679 3.02805   3
  -4  -3   3 26.4920 2.92209   4
  -4  -3   3 25.7618 1.56462   8
  -3  -3   3 46.7406 3.47828   2
  -3  -3   3 37.4130 3.55148   4
  -3  -3   3 45.0603 3.65750   3
  -2  -3   3 9.99755 1.15706   1
  -2  -3   3 8.60100 1.24313   2
  -2  -3   3 8.18501 1.31772   4
  -2  -3   3 5.30832 0.94845   1
  -2  -3   3 8.76548 1.30535   3
   1   3  -3 9.31244 1.01129   1
   1   3  -3 7.07749 0.85616   1
  -1  -3   3 4.89196 0.87032   2
  -1  -3   3 7.85878 1.07697   3
  -1  -3   3 6.51544 0.83581   1
  -1  -3   3 7.56143 0.88402   1
  -1  -3   3 7.42214 1.17485   5
  -1  -3   3 7.30206 0.99604   2
  -1  -3   3 7.97046 1.04453   3
  -1  -3   3 8.70047 1.34892   4
   0   3  -3 230.688 11.6342   1
   0   3  -3 228.851 11.6920   1
   0  -3   3 221.490 13.6338   4
   0  -3   3 225.174 11.6428   1
   0  -3   3 207.677 12.7623   2
   0  -3   3 223.232 11.6087   1
   0  -3   3 241.138 13.8162   3
   0  -3   3 216.639 13.7569   3
   0  -3   3 232.398 14.0131   7
   0  -3   3 230.908 12.7655   2
   0  -3   3 200.425 13.8410   5
  -1   3  -3 210.390 10.3118   1
  -1   3  -3 203.598 10.2993   1
   1  -3   3 173.928 12.0819   5
   1  -3   3 192.599 12.0212   4
   1  -3   3 200.476 10.2736   1
   1  -3   3 198.757 10.2686   1
   1  -3   3 190.929 12.1628   3
   1  -3   3 196.028 12.4344   7
   1  -3   3 204.507 12.1517   3
   1  -3   3 195.073 11.2773   2
   1  -3   3 204.232 11.2854   2
  -2   3  -3 247.421 12.6249   1
  -2   3  -3 233.774 12.6320   1
   2  -3   3 232.757 12.6066   1
   2  -3   3 244.837 12.6156   1
   2  -3   3 225.510 13.8200   2
   2  -3   3 250.715 14.6049   4
   2  -3   3 249.979 13.8740   2
   2  -3   3 245.270 15.2236   7
   2  -3   3 239.170 14.9670   3
   2  -3   3 254.971 14.9381   3
  -3   3  -3 49.0633 2.99526   1
  -3   3  -3 47.0600 3.01478   1
   3  -3   3 48.2427 3.31781   4
   3  -3   3 50.5122 3.91399   7
   3  -3   3 50.3207 3.42350   3
   3  -3   3 41.1351 3.21471   2
   3  -3   3 44.0090 2.97304   1
   3  -3   3 54.4767 3.40334   2
   3  -3   3 45.5613 2.93313   1
   3  -3   3 48.4398 3.46964   3
   4  -3   3 30.7425 2.53022   3
   4  -3   3 30.4500 2.51850   2
   4  -3   3 26.4411 2.75902   7
   5  -3   3 117.847 7.62164   2
   5  -3   3 114.708 8.34250   7
   6  -3   3 129.279 6.80031   8
   6  -3   3 129.897 6.69867  10
   6  -3   3 154.557 9.25063   2
   6  -3   3 142.665 9.95405   7
   6  -3   3 136.946 8.17760  17
   6  -3   3 137.491 6.67362   9
   6  -3   3 138.812 9.52802   3
   7  -3   3 107.976 8.33650   3
   7  -3   3 118.647 6.87011  17
   7  -3   3 111.030 8.07545   2
   7  -3   3 111.785 8.77996   7
   7  -3   3 103.947 5.62187  10
   7  -3   3 115.140 5.67088   8
   7  -3   3 112.174 5.59672   9
   8  -3   3 11.9980 1.30196  17
   8  -3   3 11.4185 2.79006   7
   8  -3   3 9.87122 1.07188  10
   8  -3   3 12.8309 0.95770   8
   8  -3   3 10.8664 1.04445   9
   9  -3   3 74.6536 4.04632  10
   9  -3   3 80.2925 4.00180   9
   9  -3   3 70.3888 3.86201   8
   9  -3   3 77.8764 4.87877  17
  10  -3   3 5.72158 0.87464  17
  10  -3   3 5.80462 0.66719   9
  11  -3   3 0.03122 0.40158  17
  11  -3   3 0.35292 0.24434   9
  10   2  -3 0.13846 0.31431   8
 -10  -2   3 0.17094 0.54537  13
  -9  -2   3 28.9135 1.80640   8
  -8  -2   3 3.45701 0.67651   8
  -7  -2   3 1.61576 0.42921   8
  -6  -2   3 33.3926 3.61888   2
  -6  -2   3 36.2700 1.94379   8
  -6  -2   3 25.6320 2.31022  12
  -6  -2   3 32.0047 4.08116   3
  -5  -2   3 6.73547 1.57885   4
  -5  -2   3 8.59384 0.82381   8
  -5  -2   3 8.77866 1.81538   3
  -5  -2   3 6.39533 1.76318   2
  -4  -2   3 24.6667 2.73681   3
  -4  -2   3 22.0151 2.40237   4
  -4  -2   3 27.2238 2.66040   2
   3   2  -3 5.23029 0.97912   1
  -3  -2   3 5.45521 1.15584   3
  -3  -2   3 3.32607 0.97575   4
  -3  -2   3 5.60095 1.14974   2
  -3  -2   3 5.16773 0.99856   1
  -3  -2   3 4.68512 0.94597   1
   2   2  -3 4.09182 0.76946   1
   2   2  -3 2.88642 0.43753   6
   2   2  -3 2.65801 0.80614   2
   2   2  -3 2.32599 0.91802   3
   2   2  -3 3.79438 0.74475   1
  -2  -2   3 4.76669 0.96374   3
  -2  -2   3 5.48993 0.96306   2
  -2  -2   3 4.51772 0.74324   1
  -2  -2   3 4.24529 0.77949   1
  -2  -2   3 4.68639 0.97884   4
   1   2  -3 0.88066 0.45698   1
   1   2  -3 0.26850 0.38892   1
   1   2  -3 0.45288 0.49257   3
  -1  -2   3 -0.0059 0.40561   2
  -1  -2   3 0.67674 0.41902   1
  -1  -2   3 0.66745 0.56014   2
  -1  -2   3 -0.1833 0.42020   3
  -1  -2   3 0.53405 0.56821   4
  -1  -2   3 0.85315 0.53431   3
  -1  -2   3 1.28081 0.44518   1
   0   2  -3 11.9787 1.01743   1
   0   2  -3 11.5894 0.97682   1
   0  -2   3 10.4404 1.05794   3
   0  -2   3 10.8014 1.36774   7
   0  -2   3 8.96300 0.84801   5
   0  -2   3 10.1344 1.04250   2
   0  -2   3 9.75637 1.22107   4
   0  -2   3 10.2256 0.93415   1
   0  -2   3 10.3293 1.07888   2
   0  -2   3 10.7109 0.94086   1
   0  -2   3 10.2384 1.06831   3
  -1   2  -3 58.7812 3.38160   1
  -1   2  -3 60.9084 3.39676   1
   1  -2   3 57.0616 3.34487   1
   1  -2   3 61.1892 3.72108   2
   1  -2   3 59.5347 3.36570   1
   1  -2   3 61.3451 3.97371   3
   1  -2   3 58.3734 3.93368   4
   1  -2   3 56.5685 4.13854   7
   1  -2   3 52.0806 3.66155   2
   1  -2   3 63.4842 3.94029   3
  -2   2  -3 82.0162 4.64103   1
  -2   2  -3 85.1260 4.65682   1
   2  -2   3 84.3564 5.58963   7
   2  -2   3 77.8707 5.41240   3
   2  -2   3 68.7692 5.01500   2
   2  -2   3 83.4275 4.64157   1
   2  -2   3 84.0174 5.11456   2
   2  -2   3 86.9479 5.43164   3
   2  -2   3 87.5824 4.64996   1
  -3   2  -3 298.632 16.1080   1
  -3   2  -3 311.098 16.1153   1
   3  -2   3 328.230 19.0501   3
   3  -2   3 306.881 17.6822   2
   3  -2   3 306.840 18.9722   7
   3  -2   3 287.919 16.0595   1
   4  -2   3 24.7272 2.28176   3
   4  -2   3 22.7649 2.31001   7
   4  -2   3 24.2741 2.29214   2
   4  -2   3 20.8232 2.01979   1
   5  -2   3 6.17802 1.43957   3
   5  -2   3 8.14838 1.55659   2
   5  -2   3 5.95174 1.49420   7
   6  -2   3 24.6307 3.07887   7
   6  -2   3 19.5643 1.36304   9
   6  -2   3 18.7745 1.29761   8
   6  -2   3 22.1498 2.63900   3
   6  -2   3 22.1361 2.86452   2
   7  -2   3 10.0484 2.30358   7
   7  -2   3 2.77817 1.56718   3
   7  -2   3 7.18104 0.74276   8
   7  -2   3 5.92064 2.05652   2
   7  -2   3 6.53276 0.82590   9
   8  -2   3 181.626 8.91928   9
   8  -2   3 186.131 9.10614   8
   8  -2   3 173.273 13.0010   7
   9  -2   3 42.7859 2.32888   8
   9  -2   3 40.9508 2.87514  17
   9  -2   3 36.0407 2.37725   9
  10  -2   3 5.12286 0.82356  17
  10  -2   3 3.72179 0.44218   8
  10  -2   3 5.71194 0.66245   9
  11  -2   3 0.01971 0.26809   9
  11  -2   3 0.44554 0.43665  17
  10   1  -3 9.09255 0.87667   8
   9   1  -3 2.17548 0.50502   8
  -9  -1   3 2.55465 0.64950   8
  -8  -1   3 0.59747 0.41065   8
  -7  -1   3 0.49052 0.35059   8
  -6  -1   3 18.3689 1.25394   8
  -5  -1   3 4.42499 1.39251   2
  -5  -1   3 4.29143 1.23521   3
   4   1  -3 137.713 8.61207   1
  -4  -1   3 160.474 9.62101   2
  -4  -1   3 151.925 8.72354   1
  -4  -1   3 155.560 9.62519   4
  -4  -1   3 167.997 10.3383   3
  -4  -1   3 143.338 8.63448   1
   3   1  -3 432.235 22.1842   1
   3   1  -3 399.312 25.8178   6
   3   1  -3 436.800 26.2987   3
   3   1  -3 424.667 22.1782   1
   3   1  -3 395.311 24.3131   2
  -3  -1   3 432.692 25.2512   4
  -3  -1   3 446.987 24.4278   2
  -3  -1   3 437.156 22.2056   1
  -3  -1   3 415.325 22.1444   1
  -3  -1   3 441.057 26.3450   3
   2   1  -3 9103.88 439.281   1
   2   1  -3 8526.69 522.290   3
   2   1  -3 8799.76 439.379   1
   2   1  -3 8121.48 481.405   2
  -2  -1   3 8780.06 439.128   1
  -2  -1   3 8445.50 439.173   1
  -2  -1   3 8961.93 481.942   2
  -2  -1   3 8425.72 503.494   4
  -2  -1   3 8796.12 522.804   3
   1   1  -3 3594.50 174.649   1
   1   1  -3 3380.20 206.418   3
   1   1  -3 3551.52 174.558   1
   1   1  -3 3199.39 189.374   2
  -1  -1   3 3376.58 173.945   1
  -1  -1   3 3412.23 191.030   2
  -1  -1   3 3350.89 199.748   4
  -1  -1   3 3449.12 206.978   3
  -1  -1   3 3490.93 173.985   1
   0   1  -3 27.7445 1.79434   1
   0   1  -3 23.8689 1.94729   2
   0   1  -3 28.1238 1.82563   1
   0   1  -3 25.6777 2.06656   3
   0  -1   3 28.4847 2.06686   3
   0  -1   3 24.6030 2.03717   3
   0  -1   3 31.0195 1.82895   1
   0  -1   3 30.6105 1.81165   1
   0  -1   3 27.4330 2.00002   2
   0  -1   3 26.9449 2.11783   7
  -1   1  -3 1187.39 56.3748   1
  -1   1  -3 1055.44 67.0142   3
  -1   1  -3 1036.43 61.8405   2
  -1   1  -3 1163.45 56.3604   1
   1  -1   3 1143.17 56.3487   1
   1  -1   3 1074.92 66.9706   3
   1  -1   3 1137.84 61.8678   2
   1  -1   3 1065.15 65.9868   7
   1  -1   3 1141.68 56.3363   1
  -2   1  -3 116.567 7.85463   3
  -2   1  -3 129.920 6.71716   1
  -2   1  -3 111.645 7.31698   2
  -2   1  -3 120.950 6.67706   1
   2  -1   3 124.432 7.36022   2
   2  -1   3 119.623 7.77121   7
   2  -1   3 121.796 6.67073   1
   2  -1   3 121.132 6.67304   1
   2  -1   3 125.673 7.84969   3
  -3   1  -3 343.766 17.7679   1
  -3   1  -3 328.431 17.7442   1
  -3   1  -3 298.393 19.4385   2
  -3   1  -3 338.274 21.0514   3
   3  -1   3 362.601 21.0214   3
   3  -1   3 334.881 17.7359   1
   3  -1   3 327.773 17.7375   1
   3  -1   3 357.957 19.5593   2
   3  -1   3 350.742 20.7376   7
  -4   1  -3 175.858 10.4496   1
   4  -1   3 205.226 12.2455   7
   4  -1   3 194.475 11.5312   2
   4  -1   3 170.870 10.3926   1
   4  -1   3 197.473 12.3243   3
   5  -1   3 3.70020 1.21116   7
   5  -1   3 4.38497 1.32960   3
   5  -1   3 3.09804 1.23618   2
   6  -1   3 25.9826 2.98296   7
   6  -1   3 18.5187 2.81976   3
   6  -1   3 20.6312 2.88290   2
   6  -1   3 22.1263 1.44155   8
   7  -1   3 26.3226 1.72602   8
   7  -1   3 28.6423 3.80065   7
   8  -1   3 0.58165 0.37132   8
   9  -1   3 0.96348 0.52506   8
  10  -1   3 1.23136 0.43481   9
  10  -1   3 1.74976 0.43098   8
  10  -1   3 1.60671 0.58471  17
  10   0  -3 0.23835 0.46661   8
 -10   0   3 0.65042 0.41790   8
   9   0  -3 1.57664 0.57151   8
  -9   0   3 1.48633 0.66218   8
   8   0  -3 10.6275 0.96610   8
   7   0  -3 26.7638 1.73286   8
   5   0  -3 0.04854 0.82901   3
   5   0  -3 0.46821 0.90781   2
   4   0  -3 63.0391 4.28812   2
   4   0  -3 58.6643 3.83034   1
   4   0  -3 57.9601 3.77198   1
   4   0  -3 63.2602 4.18237   6
   4   0  -3 63.0914 4.40879   3
  -4   0   3 56.7276 3.78066   1
  -4   0   3 56.1216 4.23751   2
  -4   0   3 52.7400 3.92061   4
  -4   0   3 61.9961 4.50548   3
  -4   0   3 55.4187 3.83358   1
   3   0  -3 69.5501 4.35153   1
   3   0  -3 72.6807 4.82179   2
   3   0  -3 76.6159 5.12833   3
   3   0  -3 74.7050 4.93916   6
   3   0  -3 77.2058 4.40695   1
  -3   0   3 76.6929 4.47109   1
  -3   0   3 70.1544 4.74396   4
  -3   0   3 72.3445 4.88036   2
  -3   0   3 76.5517 5.21217   3
  -3   0   3 74.9782 4.39853   1
   2   0  -3 35.8346 2.20500   1
   2   0  -3 31.4185 2.49368   3
   2   0  -3 31.7475 2.39234   2
   2   0  -3 32.2586 2.39755   6
   2   0  -3 32.9151 2.17498   1
  -2   0   3 33.2668 2.21120   1
  -2   0   3 34.9579 2.50270   2
  -2   0   3 30.0193 2.51095   3
  -2   0   3 33.9664 2.20187   1
   1   0  -3 856.226 42.2990   1
   1   0  -3 843.187 50.3096   3
   1   0  -3 862.601 42.3108   1
   1   0  -3 788.254 46.4177   2
  -1   0   3 822.026 50.3026   3
  -1   0   3 859.337 42.2907   1
  -1   0   3 777.462 46.4163   2
  -1   0   3 851.395 42.3044   1
   0   0  -3 503.494 31.1192   3
   0   0  -3 520.169 31.1450   5
   0   0  -3 534.101 26.2156   1
   0   0  -3 477.712 28.7284   2
   0   0  -3 523.502 26.1927   1
   0   0   3 516.701 26.1873   1
   0   0   3 522.187 26.1777   1
   0   0   3 530.345 31.1202   3
   0   0   3 508.225 30.5051   7
   0   0   3 490.485 28.7416   2
  -1   0  -3 1406.41 68.9657   1
  -1   0  -3 1379.43 82.0360   3
  -1   0  -3 1329.56 75.7009   2
  -1   0  -3 1389.40 68.9594   1
  -1   0  -3 1316.22 82.3043   5
   1   0   3 1360.23 68.9607   1
   1   0   3 1427.27 82.0416   3
   1   0   3 1301.94 80.5977   7
   1   0   3 1326.41 75.7107   2
   1   0   3 1378.53 68.9458   1
  -2   0  -3 136.900 9.17353   3
  -2   0  -3 145.485 7.79616   1
  -2   0  -3 138.754 8.54813   2
  -2   0  -3 150.923 7.82769   1
   2   0   3 143.741 8.58893   2
   2   0   3 137.138 9.15119   3
   2   0   3 143.650 8.93365   7
   2   0   3 144.801 7.79717   1
   2   0   3 142.258 7.81044   1
  -3   0  -3 57.7116 3.78236   1
  -3   0  -3 60.8590 4.41208   3
  -3   0  -3 55.5403 4.16654   2
  -3   0  -3 55.4246 3.74371   1
   3   0   3 62.7416 4.40572   3
   3   0   3 59.8632 3.82549   1
   3   0   3 59.6245 3.80490   1
   3   0   3 58.8349 4.22068   2
  -4   0  -3 93.8239 6.59661   3
  -4   0  -3 80.4237 5.57188   1
  -4   0  -3 92.9269 6.25707   2
   4   0   3 84.1355 5.60916   1
   4   0   3 91.0230 5.67377   1
   4   0   3 92.9326 6.26394   2
   4   0   3 99.3870 6.63160   3
   6   0   3 108.149 8.08988   7
  -7   0  -3 0.72548 1.24528   5
   7   0   3 0.40099 0.44297   8
   7   0   3 1.37723 1.65622   7
   8   0   3 24.5729 1.72679   8
  -9   0  -3 14.7124 1.40913   8
   9   0   3 17.2221 1.34274   8
 -10   0  -3 7.77502 0.79610   8
  10   0   3 8.21659 0.89002  17
  10   0   3 8.18162 0.68544   8
  10  -1  -3 11.0906 1.00323   8
   9  -1  -3 8.80868 0.88479   8
   8  -1  -3 279.384 13.8260   8
   7  -1  -3 2.96992 0.46444   8
   6  -1  -3 0.43664 0.97121   2
   6  -1  -3 1.24638 0.95778   3
   5  -1  -3 36.4731 3.18230   3
   5  -1  -3 39.8181 3.20031   2
   5  -1  -3 36.2424 2.88680   1
   5  -1  -3 33.4681 3.01010   6
   4  -1  -3 -0.3262 0.49975   1
   4  -1  -3 -0.2355 0.54523   6
   4  -1  -3 0.60380 0.65533   3
   4  -1  -3 -0.0952 0.64931   2
   4  -1  -3 -0.3910 0.46411   1
  -4   1   3 -0.3853 0.77956   3
  -4   1   3 -0.0683 0.57909   1
   3  -1  -3 2.84869 0.79195   3
   3  -1  -3 4.77531 0.80300   6
   3  -1  -3 3.04201 0.66577   1
   3  -1  -3 2.93652 0.63196   1
   3  -1  -3 2.24341 0.74267   2
  -3   1   3 3.48596 0.75354   1
  -3   1   3 2.97163 0.54496   4
  -3   1   3 1.88647 0.77708   2
  -3   1   3 3.48130 0.88218   3
  -3   1   3 1.79040 0.65374   1
   2  -1  -3 49.6319 2.85216   1
   2  -1  -3 47.0872 3.30734   3
   2  -1  -3 47.5521 3.37291   6
   2  -1  -3 49.2684 2.86526   1
   2  -1  -3 47.6511 3.12736   2
  -2   1   3 50.6569 2.88821   1
  -2   1   3 48.1291 2.87563   1
  -2   1   3 45.8248 3.34328   3
  -2   1   3 41.2321 3.12538   2
   1  -1  -3 723.381 42.6216   5
   1  -1  -3 676.590 39.0951   2
   1  -1  -3 749.574 35.6563   1
   1  -1  -3 690.098 35.6123   1
   1  -1  -3 689.156 42.3563   3
  -1   1   3 755.142 35.6525   1
  -1   1   3 661.956 42.3452   3
  -1   1   3 639.954 39.1070   2
  -1   1   3 714.632 35.6450   1
   0  -1  -3 6.05517 0.73196   1
   0  -1  -3 4.22328 0.72584   5
   0  -1  -3 4.08582 0.59888   1
   0  -1  -3 4.20039 0.69632   2
   0  -1  -3 5.95782 0.83920   3
   0   1   3 3.93559 0.69258   2
   0   1   3 4.39881 0.76200   3
   0   1   3 5.68863 0.73242   1
   0   1   3 3.84611 0.60603   1
  -1  -1  -3 76.8594 5.18375   5
  -1  -1  -3 77.8182 4.38516   1
  -1  -1  -3 76.2840 5.11573   3
  -1  -1  -3 73.8351 4.35977   1
  -1  -1  -3 77.8781 4.84399   2
   1   1   3 80.3538 4.42633   1
   1   1   3 78.7937 4.40737   1
   1   1   3 74.6511 5.12492   3
   1   1   3 67.7162 4.81367   2
  -2  -1  -3 303.049 18.2227   5
  -2  -1  -3 301.122 15.3129   1
  -2  -1  -3 285.178 18.0762   3
  -2  -1  -3 274.535 15.2446   1
  -2  -1  -3 299.300 16.8149   2
   2   1   3 297.281 15.3322   1
   2   1   3 283.125 16.8425   2
   2   1   3 275.856 18.0659   3
   2   1   3 289.578 15.3144   1
  -3  -1  -3 27.3224 2.44702   2
  -3  -1  -3 26.1068 2.44628   3
  -3  -1  -3 22.8162 2.05562   1
  -3  -1  -3 29.6023 2.53421   5
  -3  -1  -3 22.3845 2.10747   1
   3   1   3 22.4641 2.40918   2
   3   1   3 22.2457 2.09426   1
   3   1   3 24.3421 2.42329   3
   3   1   3 22.9153 2.12588   1
  -4  -1  -3 135.970 9.41917   2
  -4  -1  -3 165.754 10.2920   5
  -4  -1  -3 143.082 10.0803   3
  -5  -1  -3 77.6969 6.28797   5
  -6  -1  -3 17.8355 2.78288   5
  -6  -1  -3 13.7514 1.10555   8
  -7  -1  -3 2.71542 0.56559   8
  -7  -1  -3 0.82946 1.52567   5
   7   1   3 1.28163 1.36192   7
  -8  -1  -3 4.23668 0.73137   8
   8   1   3 3.61251 0.73012   8
  -9  -1  -3 18.8169 1.42996   8
  -9  -1  -3 19.9641 1.69249  13
   9   1   3 19.0156 1.32931   8
 -10  -1  -3 2.37711 0.36725   8
  10   1   3 2.26429 0.43005   8
  11  -2  -3 -0.0281 0.64330  17
  10  -2  -3 3.73348 0.55725   8
  10  -2  -3 4.30707 0.68597   9
   9  -2  -3 0.22961 0.38359   9
   9  -2  -3 0.65512 0.32512   8
   8  -2  -3 2.44688 0.50473   8
   8  -2  -3 0.46038 1.04302   3
   8  -2  -3 1.32698 0.66489  16
   8  -2  -3 1.60944 0.44446   9
   8  -2  -3 1.15786 1.33863   2
   7  -2  -3 2.52175 0.47753   8
   7  -2  -3 1.70072 0.63289  16
   7  -2  -3 0.77949 1.15615   3
   7  -2  -3 2.33155 1.12764   2
   7  -2  -3 2.12609 0.41525   9
   6  -2  -3 0.78057 0.63664   6
   6  -2  -3 0.11629 0.84918   2
   6  -2  -3 1.21242 0.94968   3
   5  -2  -3 -0.4126 0.63999   2
   5  -2  -3 -0.3556 0.66764   6
   5  -2  -3 0.49780 0.51039   3
   4  -2  -3 25.6897 2.41763   6
   4  -2  -3 25.4314 2.23954   3
   4  -2  -3 22.4373 1.88677   1
   4  -2  -3 27.1451 2.21586   2
   4  -2  -3 24.9904 1.95617   1
  -4   2   3 24.3728 2.04917   1
   3  -2  -3 43.9857 3.19838   3
   3  -2  -3 46.7564 3.06953   2
   3  -2  -3 44.3912 2.74888   1
   3  -2  -3 45.6477 3.35612   6
   3  -2  -3 38.8509 3.18260   3
  -3   2   3 42.8635 2.80042   1
  -3   2   3 49.0518 2.87204   1
  -3   2   3 35.1869 3.22897   3
   2  -2  -3 247.524 12.9070   1
   2  -2  -3 255.858 15.5801   5
   2  -2  -3 258.753 14.1664   2
   2  -2  -3 215.134 14.1319   2
   2  -2  -3 247.294 15.4166   6
   2  -2  -3 260.516 12.8988   1
   2  -2  -3 219.176 15.2560   3
   2  -2  -3 248.418 15.2848   3
  -2   2   3 259.802 12.9499   1
  -2   2   3 261.521 12.9367   1
   1  -2  -3 57.9551 3.62047   2
   1  -2  -3 59.3937 3.28819   1
   1  -2  -3 57.4751 3.93795   6
   1  -2  -3 54.6578 3.85494   3
   1  -2  -3 56.7235 3.28247   1
   1  -2  -3 56.2337 3.82144   3
   1  -2  -3 55.9565 4.06708   5
   1  -2  -3 49.0228 3.57472   2
  -1   2   3 56.1101 3.29535   1
  -1   2   3 61.5116 3.30744   1
   0  -2  -3 32.8920 2.53869   2
   0  -2  -3 35.9799 2.69959   3
   0  -2  -3 36.3982 2.32956   1
   0  -2  -3 36.1223 2.57238   2
   0  -2  -3 39.0335 2.70279   3
   0  -2  -3 37.2248 2.31864   1
   0  -2  -3 38.9122 2.96445   5
   0   2   3 38.4138 2.36264   1
   0   2   3 37.8095 2.36972   1
   0   2   3 33.6774 2.70530   3
  -1  -2  -3 7.75854 0.96712   1
  -1  -2  -3 9.10231 1.39533   5
  -1  -2  -3 8.22009 0.99410   1
  -1  -2  -3 6.88438 1.11601   3
  -1  -2  -3 9.35766 1.21899   2
  -1  -2  -3 8.01649 1.16263   3
   1   2   3 7.17025 0.99642   1
   1   2   3 7.53266 1.02874   1
   1   2   3 5.04541 1.07204   2
   1   2   3 7.52717 1.17090   3
  -2  -2  -3 6.67302 1.10202   1
  -2  -2  -3 6.43144 1.05487   1
  -2  -2  -3 10.5748 1.40993   2
  -2  -2  -3 10.1955 1.58502   5
  -2  -2  -3 9.93237 1.41035   3
   2   2   3 10.1850 1.25467   1
   2   2   3 6.25605 1.07685   1
  -3  -2  -3 392.893 23.1660   5
  -3  -2  -3 313.124 19.2187   1
  -3  -2  -3 362.275 22.7657   3
  -3  -2  -3 382.194 21.2272   2
  -4  -2  -3 12.1874 2.02511   2
  -4  -2  -3 15.4451 2.25351   3
  -4  -2  -3 13.7500 2.20934   5
  -5  -2  -3 0.29696 1.14413   5
  -5  -2  -3 0.30679 0.98834   3
  -5  -2  -3 0.03507 0.39357   8
  -5  -2  -3 -1.1111 1.19518   2
  -6  -2  -3 5.66989 2.20668   5
  -7  -2  -3 46.5620 2.71121   8
  -8  -2  -3 11.6214 1.12192   8
  -8  -2  -3 11.4362 1.36567  13
  -9  -2  -3 0.50445 0.58122   9
  -9  -2  -3 0.65361 0.50753  13
  -9  -2  -3 0.75056 0.38718   8
   9   2   3 0.46796 0.51359   8
  11  -3  -3 -0.4809 0.46132   9
  11  -3  -3 -0.1170 0.66996  17
  10  -3  -3 29.1841 1.86505   9
   9  -3  -3 2.87488 0.61635   9
   9  -3  -3 2.86021 0.55541  10
   9  -3  -3 2.45111 0.83997  16
   9  -3  -3 3.18483 0.50028   8
   8  -3  -3 -0.6394 1.26814   3
   8  -3  -3 1.17392 0.50218  10
   8  -3  -3 1.44752 1.84231   7
   8  -3  -3 2.80416 0.54426   9
   8  -3  -3 0.84515 1.44294   2
   8  -3  -3 2.13002 0.63422  16
   8  -3  -3 2.77274 0.45526   8
   7  -3  -3 54.4722 4.49674   2
   7  -3  -3 51.8466 3.62919  16
   7  -3  -3 51.6992 2.75784   9
   7  -3  -3 53.1537 2.76515   8
   7  -3  -3 53.9067 4.57650   3
   7  -3  -3 47.9989 4.57217   6
   7  -3  -3 49.6346 2.78517  10
   7  -3  -3 55.9392 5.36519   7
   6  -3  -3 40.2863 3.22792   2
   6  -3  -3 33.6031 3.35140   6
   6  -3  -3 29.9697 1.82235   8
   6  -3  -3 37.6295 3.21225   3
   6  -3  -3 37.8634 3.92439   7
   5  -3  -3 0.16687 0.94179   7
   5  -3  -3 2.78222 0.88354   2
   5  -3  -3 1.75617 0.85203   6
   5  -3  -3 2.70353 0.86812   3
   4  -3  -3 4.35533 0.83804   1
   4  -3  -3 10.0339 1.48360   7
   4  -3  -3 8.29213 1.03007   1
   4  -3  -3 8.73982 1.18394   2
   4  -3  -3 8.56457 1.19395   3
   4  -3  -3 7.86789 1.44226   6
   3  -3  -3 597.129 36.0123   6
   3  -3  -3 573.764 35.6851   3
   3  -3  -3 595.239 35.6952   3
   3  -3  -3 566.644 30.0478   1
   3  -3  -3 576.181 30.0148   1
   3  -3  -3 654.886 36.3277   5
   3  -3  -3 526.102 32.9762   2
   3  -3  -3 632.442 32.9958   2
   3  -3  -3 566.638 35.1481   7
  -3   3   3 572.978 30.0630   1
  -3   3   3 597.597 30.0900   1
   2  -3  -3 240.063 15.7582   3
   2  -3  -3 247.347 14.6239   2
   2  -3  -3 258.134 13.2844   1
   2  -3  -3 261.602 15.7676   3
   2  -3  -3 221.019 15.3421   7
   2  -3  -3 260.030 13.3244   1
   2  -3  -3 263.234 16.0951   6
   2  -3  -3 262.193 16.2535   5
   2  -3  -3 272.442 14.6130   2
  -2   3   3 253.640 13.3233   1
  -2   3   3 278.241 13.3555   1
   1  -3  -3 1.76906 0.54012   1
   1  -3  -3 1.15873 0.85660   5
   1  -3  -3 1.90928 0.70928   6
   1  -3  -3 1.63476 0.53640   3
   1  -3  -3 2.25107 0.65950   3
   1  -3  -3 1.52995 0.52947   2
   1  -3  -3 1.79394 0.46004   1
   1  -3  -3 3.05030 0.70631   2
  -1   3   3 2.23124 0.50421   1
  -1   3   3 1.82921 0.47424   1
   0  -3  -3 8.17638 1.14229   6
   0  -3  -3 8.29917 0.96089   1
   0  -3  -3 6.20148 0.94453   2
   0  -3  -3 7.29359 1.04092   3
   0  -3  -3 7.91247 1.41854   5
   0  -3  -3 8.07553 1.03762   3
   0  -3  -3 7.09468 0.84426   1
   0  -3  -3 9.03559 1.13380   2
   0   3   3 6.98400 0.89962   1
   0   3   3 6.75065 0.95398   1
  -1  -3  -3 3.61370 0.76587   6
  -1  -3  -3 4.50294 0.83722   1
  -1  -3  -3 7.05561 1.29852   5
  -1  -3  -3 6.61195 1.08183   2
  -1  -3  -3 4.74850 0.81252   1
  -1  -3  -3 6.78020 1.08886   3
   1   3   3 4.11910 0.85522   1
   1   3   3 5.09396 0.88917   1
  -2  -3  -3 355.274 19.6932   2
  -2  -3  -3 316.777 21.5480   5
  -2  -3  -3 338.828 21.1132   3
  -3  -3  -3 27.8515 2.86083   3
  -3  -3  -3 28.5551 2.85505   2
  -3  -3  -3 29.5469 3.09831   5
  -4  -3  -3 20.9890 2.72256   2
  -4  -3  -3 17.5484 1.20888   9
  -4  -3  -3 16.3100 1.27901  10
  -4  -3  -3 20.6242 1.27181   8
  -4  -3  -3 19.5504 2.69877   3
  -4  -3  -3 23.5677 3.28450   5
  -5  -3  -3 20.6250 3.19532   5
  -5  -3  -3 15.8904 2.72679   3
  -5  -3  -3 16.2474 2.85566   2
  -5  -3  -3 16.4953 1.22127   8
  -5  -3  -3 15.7414 1.26243   9
  -6  -3  -3 23.4860 1.65197   9
  -6  -3  -3 23.4411 1.58174   8
  -6  -3  -3 19.2196 3.67970   5
  -6  -3  -3 25.7016 2.17836  13
  -7  -3  -3 1.82139 0.66126   9
  -7  -3  -3 2.74118 0.53685   8
  -7  -3  -3 0.96412 0.81547  13
  -8  -3  -3 -0.4885 0.27564   8
  -8  -3  -3 -0.8192 0.70352  13
  -8  -3  -3 0.14371 0.40414   9
  -9  -3  -3 5.63978 0.56719   9
  11  -4  -3 25.6389 1.99925  17
  11  -4  -3 24.3239 1.59089  10
  10  -4  -3 31.9660 1.88767  10
  10  -4  -3 27.6251 2.38527  16
  10  -4  -3 30.9500 1.79500   9
  10  -4  -3 31.8714 2.66857  17
   9  -4  -3 25.5972 1.68203  10
   9  -4  -3 23.3560 2.36586  17
   9  -4  -3 25.5663 1.62217   9
   9  -4  -3 25.0127 2.25710  16
   8  -4  -3 50.5455 2.55028   8
   8  -4  -3 50.6085 3.55412  16
   8  -4  -3 49.8123 2.60669   9
   8  -4  -3 41.3021 4.47447   6
   8  -4  -3 41.7858 4.34533   3
   8  -4  -3 41.7863 5.60025   7
   8  -4  -3 44.4742 4.42246   2
   8  -4  -3 51.5877 2.70224  10
   7  -4  -3 39.1197 2.91209  16
   7  -4  -3 33.6170 4.56711   7
   7  -4  -3 38.4660 4.02676   6
   7  -4  -3 37.6158 2.01856   8
   7  -4  -3 36.9328 2.09219  10
   7  -4  -3 39.4298 3.57981   2
   7  -4  -3 38.9947 2.08190   9
   6  -4  -3 1.32264 0.54297  14
   6  -4  -3 1.59333 0.34229   9
   6  -4  -3 0.76306 1.05863   6
   6  -4  -3 1.18275 0.53848  16
   6  -4  -3 1.03141 0.33793  10
   6  -4  -3 0.32501 0.77195   2
   6  -4  -3 1.15756 1.00696   7
   6  -4  -3 1.67514 0.82943   3
   6  -4  -3 1.25078 0.23221   8
   5  -4  -3 83.1148 6.49788   7
   5  -4  -3 90.3755 6.13230   3
   5  -4  -3 89.8574 5.74445   2
   5  -4  -3 89.5018 6.71115   6
   4  -4  -3 36.0759 2.66933   2
   4  -4  -3 38.3758 2.81457   3
   4  -4  -3 37.4830 3.30700   6
   4  -4  -3 34.3279 2.99925   7
   3  -4  -3 75.0396 5.55041   7
   3  -4  -3 93.4886 5.20398   2
   3  -4  -3 84.3519 4.71550   1
   3  -4  -3 82.3719 4.76470   1
   3  -4  -3 93.3369 5.61280   3
   3  -4  -3 92.7089 6.22840   5
   3  -4  -3 85.1141 5.26241   2
   3  -4  -3 90.7825 6.24009   6
   3  -4  -3 84.5454 5.55491   3
  -3   4   3 75.9984 4.71503   1
   2  -4  -3 10.4070 1.01799   3
   2  -4  -3 10.2042 0.99186   3
   2  -4  -3 11.7004 1.01380   2
   2  -4  -3 9.95531 1.03323   2
   2  -4  -3 10.1328 0.87719   1
   2  -4  -3 10.7066 1.55295   6
   2  -4  -3 8.39491 0.85298   1
   2  -4  -3 10.2469 1.63536   5
  -2   4   3 6.44445 0.80640   1
   1  -4  -3 14.6099 1.22748   1
   1  -4  -3 14.5324 1.41199   3
   1  -4  -3 15.6394 1.38364   2
   1  -4  -3 14.5517 1.67019   6
   1  -4  -3 15.7773 1.33717   2
   1  -4  -3 14.9294 1.34046   3
   1  -4  -3 14.6794 1.99212   5
   1  -4  -3 15.0514 1.17517   1
  -1   4   3 11.6986 1.21016   1
   0  -4  -3 972.651 61.6375   3
   0  -4  -3 1053.45 61.4217   3
   0  -4  -3 1072.72 62.5260   5
   0  -4  -3 949.466 61.4484   6
   0  -4  -3 984.623 56.7335   2
   0  -4  -3 1063.99 56.7904   2
  -1  -4  -3 182.292 11.6759   3
  -1  -4  -3 175.645 12.3912   5
  -1  -4  -3 188.007 10.9568   2
  -2  -4  -3 -0.6092 0.69073   2
  -2  -4  -3 0.19439 0.77176   5
  -2  -4  -3 0.34536 0.73537   3
  -3  -4  -3 5.07545 1.40930   2
  -3  -4  -3 5.32653 0.54473   8
  -3  -4  -3 5.29078 0.63685  10
  -3  -4  -3 5.11321 1.44272   3
  -3  -4  -3 4.33209 1.77866   5
  -3  -4  -3 5.01040 0.91717  13
  -3  -4  -3 5.46753 0.57018   9
  -4  -4  -3 18.3818 2.90186   3
  -4  -4  -3 27.5937 3.19963   2
  -4  -4  -3 23.7184 1.43966   8
  -4  -4  -3 22.3944 1.52265  10
  -4  -4  -3 24.1737 1.46251   9
  -4  -4  -3 23.7912 1.94979  13
  -4  -4  -3 20.5366 3.45592   5
  -5  -4  -3 36.2849 2.07749   8
  -5  -4  -3 34.8759 2.06774   9
  -5  -4  -3 38.1845 2.84338  13
  -5  -4  -3 32.6753 4.54642   5
  -5  -4  -3 34.4256 2.08459  10
  -6  -4  -3 0.00297 0.33374   8
  -6  -4  -3 0.39453 0.48649   9
  -6  -4  -3 -0.4131 0.49590  10
  -6  -4  -3 0.19688 0.77269  13
  -7  -4  -3 21.7055 1.89162  13
  -7  -4  -3 20.8832 1.16102   8
  -7  -4  -3 24.8663 1.53284   9
  -8  -4  -3 4.45039 0.56572   9
  -8  -4  -3 3.00130 0.66200  13
  11  -5  -3 0.81098 0.51115  10
  11  -5  -3 0.84923 0.70100  17
  10  -5  -3 14.0896 1.54833  17
  10  -5  -3 13.4777 0.99771   9
  10  -5  -3 11.7510 1.52894  16
  10  -5  -3 13.2444 1.14122  10
   9  -5  -3 285.861 13.6859  10
   9  -5  -3 290.996 13.5246   9
   9  -5  -3 290.381 16.8938  17
   9  -5  -3 272.266 17.7915  16
   8  -5  -3 110.332 5.34998   9
   8  -5  -3 101.968 8.63720   6
   8  -5  -3 109.520 7.24025  16
   8  -5  -3 103.314 7.52533   2
   8  -5  -3 111.243 5.43444  10
   8  -5  -3 110.073 7.01916  17
   7  -5  -3 0.43196 0.35001   9
   7  -5  -3 1.51131 1.44989   6
   7  -5  -3 1.32709 0.61570  15
   7  -5  -3 0.88289 0.57785  16
   7  -5  -3 1.40737 0.65227  14
   7  -5  -3 0.83834 2.10398   7
   7  -5  -3 0.40348 0.34251  10
   7  -5  -3 0.62708 0.75050  17
   7  -5  -3 0.93409 1.04577   3
   7  -5  -3 1.14572 1.16484   2
   6  -5  -3 -1.0640 1.24550   7
   6  -5  -3 1.35475 0.81393   2
   6  -5  -3 1.31322 0.52887  17
   6  -5  -3 1.02270 0.92434   6
   6  -5  -3 0.72339 0.55876  15
   6  -5  -3 1.85307 0.48835  14
   6  -5  -3 1.25103 0.30261   9
   6  -5  -3 1.83704 0.75706  16
   6  -5  -3 0.83250 0.69900   3
   5  -5  -3 219.523 11.9790   2
   5  -5  -3 190.396 9.59570   9
   5  -5  -3 209.493 13.8700   6
   5  -5  -3 202.132 12.7509  14
   5  -5  -3 214.491 12.9291   3
   5  -5  -3 197.110 12.7944  16
   5  -5  -3 212.658 12.2278  13
   5  -5  -3 199.970 9.70862  10
   5  -5  -3 200.304 12.8960  15
   4  -5  -3 10.9806 1.11110   3
   4  -5  -3 12.6515 1.08314   2
   4  -5  -3 10.4414 1.18789   2
   4  -5  -3 12.8779 1.97423   6
   4  -5  -3 13.3770 1.18888   3
   3  -5  -3 8.34818 1.58758   6
   3  -5  -3 8.59303 0.73081   2
   3  -5  -3 8.33795 1.69766   5
   3  -5  -3 9.27729 0.72917   3
   3  -5  -3 8.61767 0.70609   3
   3  -5  -3 8.90414 0.70309   2
   2  -5  -3 7.57883 0.57176   2
   2  -5  -3 7.18994 0.59561   3
   2  -5  -3 6.67327 0.55693   3
   2  -5  -3 7.05862 0.57042   2
   2  -5  -3 6.96745 1.40644   6
   2  -5  -3 6.93697 1.56050   5
   1  -5  -3 0.86444 0.38718   3
   1  -5  -3 0.46467 0.74541   5
   1  -5  -3 0.54076 0.40090   2
   1  -5  -3 1.46962 0.82088   6
   1  -5  -3 1.01484 0.42764   3
   1  -5  -3 0.58867 0.40356   2
   0  -5  -3 201.265 12.7039   3
   0  -5  -3 196.684 13.8283   5
   0  -5  -3 209.145 11.9116   2
  -1  -5  -3 128.983 8.35135  13
  -1  -5  -3 133.544 8.75418  12
  -1  -5  -3 138.822 8.14186  11
  -1  -5  -3 148.141 9.06584   3
  -1  -5  -3 129.088 8.79392  14
  -1  -5  -3 145.278 10.1535   5
  -1  -5  -3 133.018 6.51452   9
  -1  -5  -3 144.127 8.53975   2
  -1  -5  -3 134.718 6.57502  10
  -2  -5  -3 10.0284 0.77848   9
  -2  -5  -3 12.2724 1.59767  14
  -2  -5  -3 11.4283 1.63909   2
  -2  -5  -3 10.9368 1.18915  11
  -2  -5  -3 11.1036 1.73114   3
  -2  -5  -3 9.50417 2.36467   5
  -2  -5  -3 10.7383 1.30236  13
  -2  -5  -3 11.4950 0.85602  10
  -2  -5  -3 9.11346 1.03928  12
  -3  -5  -3 10.8555 0.87305   9
  -3  -5  -3 9.54483 1.54832  14
  -3  -5  -3 12.5781 2.57621   5
  -3  -5  -3 10.7611 0.64875   8
  -3  -5  -3 9.74036 1.17339  12
  -3  -5  -3 10.1574 1.93147   2
  -3  -5  -3 11.0951 0.94300  10
  -3  -5  -3 10.4321 1.95303   3
  -3  -5  -3 10.9109 1.24937  13
  -4  -5  -3 210.324 11.4601   8
  -4  -5  -3 230.877 15.1074  14
  -4  -5  -3 232.031 16.9259   5
  -4  -5  -3 256.231 11.3806   9
  -4  -5  -3 256.723 14.4342  13
  -4  -5  -3 240.592 11.4567  10
  -5  -5  -3 3.99878 0.70482  10
  -5  -5  -3 4.37084 1.16508  14
  -5  -5  -3 4.20343 1.00899  13
  -5  -5  -3 4.11400 0.64366   9
  -6  -5  -3 3.04476 0.55040  10
  -6  -5  -3 2.46832 0.55323   9
  -6  -5  -3 3.71069 0.87160  13
  -7  -5  -3 19.8121 1.84917  13
  -7  -5  -3 20.1240 1.42802  10
  -7  -5  -3 19.4188 1.16437   9
  11  -6  -3 0.80891 0.51663  17
  11  -6  -3 1.13056 0.35842  10
  11  -6  -3 -0.4068 0.64669  16
  10  -6  -3 4.61516 0.93223  17
  10  -6  -3 4.75524 0.63642  10
  10  -6  -3 4.45414 0.93283  16
   9  -6  -3 -0.0280 0.81974  16
   9  -6  -3 0.43734 0.65402  17
   9  -6  -3 -0.6061 0.34482  10
   9  -6  -3 -0.0588 0.27443   9
   8  -6  -3 -0.3213 0.24550   9
   8  -6  -3 -0.3022 0.58805  15
   8  -6  -3 2.50400 2.01831   6
   8  -6  -3 0.29512 0.86166  17
   8  -6  -3 -0.1958 0.32380  10
   8  -6  -3 1.39886 0.86710  16
   7  -6  -3 31.5982 4.21699   6
   7  -6  -3 37.8600 2.74070  14
   7  -6  -3 31.0613 2.85351   3
   7  -6  -3 34.7777 2.87746  16
   7  -6  -3 36.1825 1.93111  10
   7  -6  -3 36.0451 1.79699   9
   7  -6  -3 34.1541 2.71285  15
   7  -6  -3 35.8840 2.86932   2
   7  -6  -3 33.5689 2.73892  17
   6  -6  -3 236.127 15.0918  15
   6  -6  -3 253.085 14.9423  14
   6  -6  -3 213.795 13.9095  17
   6  -6  -3 243.485 11.3412  10
   6  -6  -3 246.998 15.0491  16
   6  -6  -3 238.690 16.3546   6
   5  -6  -3 125.216 6.04075  10
   5  -6  -3 123.649 8.17442  16
   5  -6  -3 124.240 8.19685  15
   5  -6  -3 129.329 7.73514  13
   5  -6  -3 132.909 9.39513   6
   5  -6  -3 124.283 8.09675  14
   4  -6  -3 32.9969 2.38977  12
   4  -6  -3 32.9203 2.32700  13
   4  -6  -3 29.8363 2.45394  15
   4  -6  -3 35.0462 3.53313   5
   4  -6  -3 28.9572 2.45128  16
   4  -6  -3 31.4348 1.61258  10
   4  -6  -3 35.1901 3.60383   6
   4  -6  -3 31.3531 2.45050  14
   3  -6  -3 74.7686 5.81698   5
   3  -6  -3 66.5659 4.70209  15
   3  -6  -3 75.3688 4.55375  13
   3  -6  -3 71.5595 4.68423  12
   3  -6  -3 70.3885 4.74510  14
   3  -6  -3 65.4057 5.60335   6
   3  -6  -3 68.1897 3.37410  10
   2  -6  -3 153.599 10.4167   6
   2  -6  -3 155.072 9.62814  12
   2  -6  -3 153.416 9.24940  13
   2  -6  -3 145.207 7.18542  10
   2  -6  -3 144.398 9.62700  14
   2  -6  -3 162.714 10.9345   5
   2  -6  -3 153.911 9.02210  11
   1  -6  -3 19.5639 1.12733  10
   1  -6  -3 20.9780 1.74524  12
   1  -6  -3 19.9946 1.75111  13
   1  -6  -3 24.8413 3.33023   5
   1  -6  -3 18.5611 1.80750  14
   1  -6  -3 21.8213 1.62324  11
   0  -6  -3 35.9511 2.79779  14
   0  -6  -3 36.4262 3.88967   5
   0  -6  -3 34.8740 1.86284  10
   0  -6  -3 35.7047 2.65392  12
   0  -6  -3 40.1374 2.49988  11
   0  -6  -3 37.0544 2.65367  13
   0  -6  -3 34.2602 1.71875   9
   0  -6  -3 38.5422 2.42084   2
   0  -6  -3 33.4569 2.54111   3
   0  -6  -3 29.8482 2.41531   3
  -1  -6  -3 38.9576 3.21561   3
  -1  -6  -3 38.7085 3.24196  14
  -1  -6  -3 41.6407 2.18990  10
  -1  -6  -3 39.5808 2.97170  12
  -1  -6  -3 38.6736 4.58407   5
  -1  -6  -3 41.0527 2.10471   9
  -1  -6  -3 42.3392 3.05674  13
  -1  -6  -3 43.9877 3.26214   2
  -1  -6  -3 44.7052 2.87426  11
  -2  -6  -3 40.4341 3.45418   2
  -2  -6  -3 37.8735 2.94468  13
  -2  -6  -3 38.4776 4.79867   5
  -2  -6  -3 37.6026 2.02167   9
  -2  -6  -3 38.0753 2.09585  10
  -2  -6  -3 35.3458 3.18222  14
  -2  -6  -3 41.1507 2.73541  11
  -2  -6  -3 34.2674 2.83718  12
  -3  -6  -3 4.25089 0.85920  12
  -3  -6  -3 6.01770 1.36665  14
  -3  -6  -3 4.85838 0.66426  10
  -3  -6  -3 6.07713 0.66658   9
  -3  -6  -3 7.30458 1.21754  13
  -3  -6  -3 4.67807 2.05853   5
  -4  -6  -3 8.25738 0.86416  10
  -4  -6  -3 8.13074 1.46845  14
  -4  -6  -3 8.27662 1.18891  13
  -4  -6  -3 9.68806 0.79788   9
  -5  -6  -3 1.77427 0.68596  13
  -5  -6  -3 0.97872 0.51344  10
  -5  -6  -3 0.69677 0.34721   9
  -6  -6  -3 44.4451 3.20790  13
  -6  -6  -3 44.0973 2.43441  10
  -6  -6  -3 46.0726 2.24403   9
  11  -7  -3 37.5375 2.45253  17
  11  -7  -3 34.1341 2.56623  16
  10  -7  -3 -0.0747 0.30624  10
  10  -7  -3 0.58950 0.56270  17
  10  -7  -3 0.93383 0.86050  16
   9  -7  -3 8.41500 1.33069  16
   9  -7  -3 8.59789 0.74336  10
   9  -7  -3 6.98418 1.11067  17
   9  -7  -3 8.00077 1.05352  15
   8  -7  -3 63.2333 4.38689  16
   8  -7  -3 56.1696 2.91776  10
   8  -7  -3 53.3196 3.86349  17
   8  -7  -3 55.4857 4.10516  15
   7  -7  -3 178.585 10.8704  16
   7  -7  -3 166.330 10.7657  15
   7  -7  -3 155.258 12.2435   6
   7  -7  -3 143.287 9.93684  17
   7  -7  -3 168.516 7.99293  10
   7  -7  -3 183.849 10.6921  14
   6  -7  -3 8.56588 0.64273  10
   6  -7  -3 12.5359 1.52965  16
   6  -7  -3 5.80084 2.06605   6
   6  -7  -3 9.75085 1.34525  15
   6  -7  -3 9.36429 1.19629  14
   6  -7  -3 11.2546 1.15575  13
   5  -7  -3 9.21578 1.24975  16
   5  -7  -3 8.22731 1.03564  12
   5  -7  -3 9.00121 1.02886  13
   5  -7  -3 7.60517 0.51325  10
   5  -7  -3 4.83809 1.94430   6
   5  -7  -3 7.98082 1.12280  14
   5  -7  -3 9.38474 1.17179  15
   4  -7  -3 80.8257 6.86183   5
   4  -7  -3 80.1072 5.51138  16
   4  -7  -3 84.7843 5.47924  12
   4  -7  -3 79.6380 6.78002   6
   4  -7  -3 87.2045 5.35328  13
   4  -7  -3 85.3724 5.58523  14
   4  -7  -3 78.9993 5.07598  11
   4  -7  -3 81.0735 5.61482  15
   3  -7  -3 124.470 7.42604  13
   3  -7  -3 119.912 7.76757  15
   3  -7  -3 125.443 7.70304  12
   3  -7  -3 117.739 7.72029  14
   3  -7  -3 124.764 9.16894   5
   3  -7  -3 120.184 7.17143  11
   3  -7  -3 106.484 8.63068   6
   3  -7  -3 109.749 5.56483  10
   2  -7  -3 8.25189 1.10553  15
   2  -7  -3 8.36458 0.96122  11
   2  -7  -3 8.17451 1.15393  13
   2  -7  -3 8.72964 2.07496   5
   2  -7  -3 7.94527 1.09091  12
   2  -7  -3 7.89946 0.50045  10
   2  -7  -3 8.41797 1.00688  18
   2  -7  -3 10.1960 1.29815  14
   1  -7  -3 39.1569 4.55987   5
   1  -7  -3 42.8823 3.07940  12
   1  -7  -3 44.3915 2.81691  11
   1  -7  -3 40.4473 2.08006  10
   1  -7  -3 38.0280 3.15347  14
   1  -7  -3 39.7673 2.94509  13
   0  -7  -3 3.41432 0.81925  12
   0  -7  -3 4.10030 0.93765  13
   0  -7  -3 3.62392 0.65583  11
   0  -7  -3 2.84182 2.08844   5
   0  -7  -3 2.07313 0.90303  14
   0  -7  -3 2.40120 0.38675  10
  -1  -7  -3 249.593 12.1277  10
  -1  -7  -3 256.753 16.0193  12
  -1  -7  -3 255.635 15.4617  13
  -1  -7  -3 249.499 16.1601  14
  -1  -7  -3 233.380 18.0578   5
  -1  -7  -3 275.496 15.0819  11
  -2  -7  -3 2.14938 0.78128  12
  -2  -7  -3 3.15482 0.48366  10
  -2  -7  -3 1.57180 1.82486   5
  -2  -7  -3 4.52139 0.96781  13
  -2  -7  -3 2.94563 1.16784  14
  -3  -7  -3 0.13774 0.82945  13
  -3  -7  -3 0.05186 0.91289  14
  -3  -7  -3 0.42079 0.37281  10
  -3  -7  -3 0.71126 0.62662  12
  -4  -7  -3 5.22869 0.65539  10
  -4  -7  -3 7.08844 1.11987  13
  -5  -7  -3 13.2958 0.97612  10
  -5  -7  -3 11.1107 1.36138  13
  -6  -7  -3 22.9293 1.25320  10
  -6  -7  -3 21.2711 1.64512  13
  11  -8  -3 5.29458 0.78713  16
  10  -8  -3 2.45528 0.89358  16
   9  -8  -3 7.09153 0.52797  10
   9  -8  -3 6.74247 1.33372  16
   9  -8  -3 4.56302 0.95304  15
   8  -8  -3 9.07912 0.62403  10
   8  -8  -3 8.28939 1.60863  16
   8  -8  -3 8.42860 1.28668  15
   8  -8  -3 10.7413 1.28719  14
   7  -8  -3 4.69275 1.02941  14
   7  -8  -3 6.22956 1.16945  15
   7  -8  -3 7.09112 1.23699  16
   6  -8  -3 12.5275 1.72677  16
   6  -8  -3 10.4750 1.44635  15
   6  -8  -3 13.5656 1.45949  13
   6  -8  -3 12.3356 1.49666  14
   6  -8  -3 6.57908 2.25763   6
   5  -8  -3 247.238 15.4390  14
   5  -8  -3 238.982 15.4702  16
   5  -8  -3 259.434 14.7857  13
   5  -8  -3 239.495 15.5878  15
   5  -8  -3 241.126 15.3814  12
   4  -8  -3 119.022 8.25555  16
   4  -8  -3 134.152 8.31334  12
   4  -8  -3 135.465 8.02101  13
   4  -8  -3 104.459 9.47469   6
   4  -8  -3 129.510 8.32889  14
   4  -8  -3 130.796 8.42948  15
   4  -8  -3 129.626 7.71403  11
   3  -8  -3 -0.0633 0.50883  14
   3  -8  -3 0.32316 1.15554   5
   3  -8  -3 0.02763 0.65870  13
   3  -8  -3 0.36740 0.53012  11
   3  -8  -3 0.49880 0.62497  12
   3  -8  -3 0.48107 0.70581  15
   2  -8  -3 71.5741 4.77164  13
   2  -8  -3 64.1670 6.37668   5
   2  -8  -3 76.4446 4.57659  11
   2  -8  -3 70.4265 4.97496  14
   2  -8  -3 62.1164 4.81363  15
   2  -8  -3 74.5174 4.85724  12
   1  -8  -3 147.934 9.17811  12
   1  -8  -3 144.518 8.88799  13
   1  -8  -3 130.520 6.61186  10
   1  -8  -3 124.555 10.8637   5
   1  -8  -3 142.420 9.22623  14
   1  -8  -3 152.235 8.59254  11
   0  -8  -3 67.7830 4.85047  12
   0  -8  -3 69.7724 4.80010  13
   0  -8  -3 58.2361 7.14135   5
   0  -8  -3 71.2169 3.47491  10
   0  -8  -3 70.2812 5.10401  14
   0  -8  -3 77.9155 4.65455  11
  -1  -8  -3 1.45227 0.35196  10
  -1  -8  -3 1.25688 0.57900  12
  -1  -8  -3 0.33244 0.87410  13
  -1  -8  -3 1.07535 0.73583  14
  -2  -8  -3 5.97508 0.92502  12
  -2  -8  -3 6.51627 1.11334  13
  -2  -8  -3 5.71582 1.06244  14
  -2  -8  -3 5.33368 0.60118  10
  -3  -8  -3 1.83808 0.71709  13
  -3  -8  -3 1.40335 0.37114  10
  -3  -8  -3 0.82173 0.49090  12
  -4  -8  -3 5.59843 0.89025  13
  -4  -8  -3 6.11762 0.56666  10
  10  -9  -3 28.9977 2.29222  16
   9  -9  -3 27.7515 2.41567  16
   8  -9  -3 2.66189 0.89344  15
   8  -9  -3 2.60067 0.89631  16
   7  -9  -3 0.59468 0.74181  14
   7  -9  -3 -0.3344 0.51170  15
   7  -9  -3 1.06607 0.96070  16
   6  -9  -3 107.569 7.44224  16
   6  -9  -3 113.092 7.36765  14
   6  -9  -3 122.815 7.04760  13
   6  -9  -3 100.769 7.37902  15
   5  -9  -3 0.89103 0.75458  13
   5  -9  -3 -0.4144 0.50273  15
   5  -9  -3 0.69906 0.60471  14
   5  -9  -3 0.41947 0.59967  16
   4  -9  -3 31.3179 2.51097  14
   4  -9  -3 29.6009 2.36557  13
   4  -9  -3 30.5871 2.62822  15
   4  -9  -3 29.3718 2.48520  12
   3  -9  -3 -0.1057 0.54276  11
   3  -9  -3 -0.0138 0.51049  12
   3  -9  -3 0.75103 0.80458  14
   3  -9  -3 0.33340 0.49589  15
   3  -9  -3 0.97957 0.76478  13
   2  -9  -3 8.47674 1.00430  11
   2  -9  -3 5.76509 1.17102  13
   2  -9  -3 7.56299 1.10244  12
   2  -9  -3 8.58155 1.36847  14
   1  -9  -3 90.1249 6.16166  14
   1  -9  -3 89.9967 6.04273  12
   1  -9  -3 89.6524 5.92284  13
   0  -9  -3 10.3763 1.46158  13
   0  -9  -3 8.66206 1.31423  14
   0  -9  -3 6.93399 1.15089  12
  -1  -9  -3 3.31966 0.75847  12
  -1  -9  -3 4.82547 1.14690  13
  -2  -9  -3 2.08815 0.69345  12
  -2  -9  -3 2.35362 0.78122  13
  -3  -9  -3 13.3627 1.30501  13
   9 -10  -3 17.9976 1.88738  16
   8 -10  -3 10.7061 1.27681  15
   8 -10  -3 11.4645 1.49158  16
   7 -10  -3 123.009 7.22754  14
   7 -10  -3 97.0666 7.29985  16
   6 -10  -3 16.7159 1.91110  15
   6 -10  -3 16.9058 1.82076  14
   5 -10  -3 19.1340 1.71674  13
   5 -10  -3 20.4129 2.03278  14
   5 -10  -3 16.5841 1.78684  15
   4 -10  -3 52.8728 3.91877  15
   4 -10  -3 52.6999 3.94006  12
   4 -10  -3 56.0107 3.98187  14
   4 -10  -3 58.4233 3.82108  13
   3 -10  -3 59.3072 4.22512  14
   3 -10  -3 60.2853 4.15466  12
   3 -10  -3 58.1489 4.06658  13
   2 -10  -3 83.4421 5.61769  14
   2 -10  -3 72.7437 5.35058  13
   2 -10  -3 85.1902 5.50311  12
   1 -10  -3 0.73778 0.92411  13
   1 -10  -3 0.10440 0.49913  12
   1 -10  -3 -0.1944 0.87076  14
   0 -10  -3 0.08914 0.65944  13
   0 -10  -3 0.55393 0.52393  12
  -1 -10  -3 5.97501 0.95898  13
  -1 -10  -3 4.90275 0.71033  12
  -2 -10  -3 0.24486 0.45516  13
   8 -11  -3 36.8003 2.76703  16
   7 -11  -3 0.79889 0.74465  16
   7 -11  -3 3.76287 0.72412  14
   6 -11  -3 1.43269 0.62023  14
   5 -11  -3 4.05214 0.75690  13
   5 -11  -3 4.39953 0.80637  15
   5 -11  -3 3.31838 0.99198  14
   4 -11  -3 93.8917 6.20581  14
   4 -11  -3 92.7025 5.94152  13
   3 -11  -3 0.23000 0.56847  13
   3 -11  -3 0.04817 0.58020  14
   2 -11  -3 6.55345 0.88289  12
   2 -11  -3 6.83335 0.97799  13
   2 -11  -3 5.23179 1.01583  14
   1 -11  -3 3.23783 0.63811  12
   1 -11  -3 3.21904 0.75410  13
   0 -11  -3 -0.0038 0.35845  12
   0 -11  -3 -0.5266 0.43657  13
   0 -11   4 9.32025 1.13672  12
   1 -11   4 0.38149 0.58236  12
   2 -11   4 11.4167 1.34002  12
   2 -11   4 15.6030 1.44236  18
   3 -11   4 35.5558 2.68997  18
   3 -11   4 32.4906 2.45183  11
   4 -11   4 2.77262 0.61148  11
   4 -11   4 3.12990 0.89001  17
   4 -11   4 5.43623 0.84359  18
   5 -11   4 2.49291 0.71382  17
   5 -11   4 2.08999 0.81996  18
   6 -11   4 35.9344 2.50262  17
   6 -11   4 31.4239 2.62021  18
   7 -11   4 28.6570 2.21261  16
   7 -11   4 29.7082 2.19417  17
  -2 -10   4 2.94874 0.81431  12
  -1 -10   4 16.6415 1.50836  11
  -1 -10   4 20.5023 2.15097  12
   0 -10   4 3.10225 1.11288  12
   1 -10   4 217.848 14.3832  12
   1 -10   4 224.127 13.8443  18
   1 -10   4 234.531 13.4941  11
   2 -10   4 38.3503 2.91214  11
   2 -10   4 35.9109 2.99691  12
   2 -10   4 37.5698 2.86663  18
   2 -10   4 39.1877 2.75627  17
   3 -10   4 6.29836 1.02676  11
   3 -10   4 5.20661 1.11357  17
   3 -10   4 5.21566 1.10207  18
   4 -10   4 28.2014 2.44968  18
   4 -10   4 27.4020 2.39287  17
   4 -10   4 26.3634 2.36496  16
   4 -10   4 24.7517 2.15261  11
   5 -10   4 88.6062 5.85616  18
   5 -10   4 85.4778 5.95142  16
   5 -10   4 91.4842 5.65281  17
   6 -10   4 44.2418 3.08999  17
   6 -10   4 40.6804 3.18009  18
   6 -10   4 40.4929 3.19609  16
   7 -10   4 13.1176 1.42488  16
   7 -10   4 13.0933 1.51342  17
   8 -10   4 2.56719 0.78789  17
   8 -10   4 2.98015 0.72026  16
   9 -10   4 0.38224 0.38731  16
   9 -10   4 0.42532 0.48515  17
  -4  -9   4 58.2102 3.94087  12
  -3  -9   4 8.88202 1.27021  12
  -2  -9   4 7.43829 0.96590  11
  -2  -9   4 9.79856 1.32359  12
  -1  -9   4 19.2307 1.80487  18
  -1  -9   4 18.9726 1.98472  12
  -1  -9   4 16.2217 1.62771  11
   0  -9   4 149.120 9.35822  11
   0  -9   4 156.950 10.1821  12
   0  -9   4 155.185 9.66178  18
   1  -9   4 84.5305 6.00305  12
   1  -9   4 89.8313 5.51932  17
   1  -9   4 83.5432 5.73876  18
   1  -9   4 85.0318 5.57431  11
   2  -9   4 55.4405 3.85483  18
   2  -9   4 53.0958 3.67507  11
   2  -9   4 46.5761 3.80495  12
   2  -9   4 52.8573 3.66139  17
   3  -9   4 0.82026 0.68212  11
   3  -9   4 0.29804 0.62244  17
   3  -9   4 1.08626 0.69018  16
   3  -9   4 0.89368 0.58789  18
   4  -9   4 3.87045 1.06290  18
   4  -9   4 3.44492 0.81201  11
   4  -9   4 5.07833 0.98852  17
   4  -9   4 4.08569 0.98133  15
   4  -9   4 4.85088 1.10203  16
   5  -9   4 5.15552 1.10309  15
   5  -9   4 8.21662 1.20752  16
   5  -9   4 8.42065 1.34913  17
   5  -9   4 7.92181 1.20349  18
   6  -9   4 12.0196 1.46310  15
   6  -9   4 13.9659 1.57123  18
   6  -9   4 9.93342 1.57576  17
   6  -9   4 13.4240 1.56910  16
   7  -9   4 2.57831 0.77254  18
   7  -9   4 2.75766 0.82977  16
   7  -9   4 1.52104 0.78242  17
   8  -9   4 171.428 9.95674  17
   8  -9   4 156.914 10.3347  16
   9  -9   4 50.9448 3.25928  17
   9  -9   4 44.5255 3.21779  16
  -5  -8   4 0.67249 0.69340  13
  -5  -8   4 1.11036 0.50706  12
  -4  -8   4 0.26417 0.82803  12
  -4  -8   4 0.39131 0.61190  13
  -4  -8   4 0.38575 0.31836  10
  -3  -8   4 17.3319 1.69297  13
  -3  -8   4 18.3310 1.09947  10
  -3  -8   4 15.9012 1.80138  12
  -3  -8   4 15.5599 1.62548  11
  -2  -8   4 4.41206 0.46656  10
  -2  -8   4 3.62642 0.75391  11
  -2  -8   4 4.11182 1.02875  13
  -2  -8   4 3.85521 0.92689  12
  -1  -8   4 125.774 8.37896  12
  -1  -8   4 126.873 7.97442  18
  -1  -8   4 120.941 7.65476  11
  -1  -8   4 122.923 5.94583  10
   0  -8   4 -0.6215 0.59931  11
   0  -8   4 0.20471 0.74822  17
   0  -8   4 -0.1230 0.76298  18
   0  -8   4 -0.0124 0.79925  12
   0  -8   4 0.76088 1.40319   4
   0  -8   4 0.05214 0.10926  10
   1  -8   4 12.0699 1.33157  17
   1  -8   4 10.6057 1.36698  12
   1  -8   4 4.83211 1.78899   4
   1  -8   4 10.6332 1.42094  18
   1  -8   4 11.1619 1.25098  11
   2  -8   4 20.4666 1.91796  15
   2  -8   4 22.3538 2.05444  16
   2  -8   4 22.2324 2.14371  18
   2  -8   4 21.6034 1.95269  11
   2  -8   4 19.9366 1.97141  12
   2  -8   4 23.5969 2.08889  17
   3  -8   4 4.05217 0.97971  18
   3  -8   4 2.90131 1.56733   7
   3  -8   4 3.34903 0.80510  17
   3  -8   4 3.41005 0.78561  11
   3  -8   4 4.10404 1.01737  16
   3  -8   4 3.40378 0.85271  15
   4  -8   4 113.007 7.33560  18
   4  -8   4 99.6593 6.94346  11
   4  -8   4 103.154 9.10258   7
   4  -8   4 119.211 7.50148  16
   4  -8   4 118.921 7.10612  17
   4  -8   4 121.624 7.49488  15
   5  -8   4 1.35273 2.31056   7
   5  -8   4 -0.2827 0.71870  15
   5  -8   4 -0.5573 0.56517  16
   5  -8   4 -1.0061 0.50941  18
   5  -8   4 0.06132 0.55062  17
   6  -8   4 0.31258 0.65997  17
   6  -8   4 -0.1590 0.84292  16
   6  -8   4 -0.3928 0.56147  18
   6  -8   4 1.07041 0.82021  15
   7  -8   4 0.58336 0.88791  16
   7  -8   4 1.27507 0.71610  18
   7  -8   4 1.23540 0.98228  17
   7  -8   4 0.99201 0.22004  10
   8  -8   4 3.57101 0.99167  16
   8  -8   4 4.22741 0.94212  17
   8  -8   4 2.79691 0.32752  10
   9  -8   4 42.5907 3.20789  16
   9  -8   4 48.7952 3.34868  17
  10  -8   4 2.92806 0.64636  17
  -6  -7   4 43.5544 3.34229  12
  -6  -7   4 55.6849 3.37407  13
  -5  -7   4 3.23494 1.02895  13
  -5  -7   4 2.08731 0.49412  10
  -5  -7   4 2.16464 0.85515  12
  -4  -7   4 8.65255 0.84656  10
  -4  -7   4 9.82624 1.33462  12
  -4  -7   4 9.55013 1.51227  13
  -3  -7   4 19.0956 1.94734  13
  -3  -7   4 20.0279 1.31668  10
  -3  -7   4 22.8228 2.25912  12
  -3  -7   4 19.2314 1.81265  11
  -2  -7   4 3.57506 1.00728  12
  -2  -7   4 1.78328 0.89255  13
  -2  -7   4 2.88416 0.44291  10
  -2  -7   4 2.69760 0.92458  18
  -2  -7   4 2.29120 0.61802  11
  -2  -7   4 3.28619 1.66450   4
  -1  -7   4 41.0656 4.61960   4
  -1  -7   4 42.1445 2.88782  11
  -1  -7   4 41.5445 2.98970  18
  -1  -7   4 34.4299 2.89757  13
  -1  -7   4 44.7738 3.30298  12
  -1  -7   4 40.6690 2.10613  10
   0  -7   4 17.1228 0.97889  10
   0  -7   4 18.2852 1.55873  17
   0  -7   4 18.2374 1.79878  18
   0  -7   4 17.3866 1.65339  11
   0  -7   4 16.8991 1.81070  12
   0  -7   4 14.4681 2.74614   4
   1  -7   4 3.77082 0.31745  10
   1  -7   4 4.27433 0.87282  17
   1  -7   4 4.26984 0.73796  11
   1  -7   4 3.83618 1.57198   4
   1  -7   4 4.51706 0.93012  18
   1  -7   4 4.31836 0.85466  12
   1  -7   4 5.09857 0.92898  16
   2  -7   4 1.25449 1.41776   4
   2  -7   4 4.29704 0.85895  18
   2  -7   4 3.01101 0.73247  12
   2  -7   4 3.71361 1.68147   7
   2  -7   4 3.14009 0.84093  16
   2  -7   4 3.26460 0.80766  17
   2  -7   4 2.49996 0.57619  15
   2  -7   4 2.39049 0.71972  11
   2  -7   4 2.26851 0.18613  10
   3  -7   4 55.1291 3.62908  16
   3  -7   4 53.2304 3.43463  17
   3  -7   4 46.2809 3.31857  11
   3  -7   4 51.4434 3.54502  18
   3  -7   4 47.3375 3.46874  15
   3  -7   4 45.6260 2.32816  10
   3  -7   4 52.6758 5.08129   7
   4  -7   4 0.83506 0.65454  15
   4  -7   4 0.02509 0.50414  11
   4  -7   4 1.23007 0.43924  14
   4  -7   4 1.45410 0.74502  17
   4  -7   4 0.84582 1.69440   7
   4  -7   4 0.63264 0.52242  18
   4  -7   4 0.77859 0.17961  10
   4  -7   4 1.06991 0.74232  16
   5  -7   4 50.4438 3.69321  18
   5  -7   4 48.3992 3.65983  16
   5  -7   4 47.8644 2.47480  10
   5  -7   4 54.4370 3.64647  15
   5  -7   4 41.7277 4.95625   7
   5  -7   4 48.7077 3.52106  17
   6  -7   4 33.4828 2.69635  16
   6  -7   4 28.9986 4.50967   7
   6  -7   4 33.9163 1.83501  10
   6  -7   4 34.6594 2.81485  17
   6  -7   4 35.4541 2.65325  15
   6  -7   4 34.0207 2.75444  18
   7  -7   4 12.9595 1.69251  18
   7  -7   4 16.8949 1.77387  15
   7  -7   4 15.2997 1.78558  16
   7  -7   4 14.8853 1.05232  10
   7  -7   4 13.7672 1.68699  17
   8  -7   4 -0.4401 0.80096  18
   8  -7   4 0.06483 0.32382  10
   8  -7   4 0.40095 0.62891  17
   8  -7   4 -1.1623 0.71720  16
   9  -7   4 24.7798 2.06710  16
   9  -7   4 28.7568 1.57495  10
   9  -7   4 26.5302 2.36982  17
  10  -7   4 6.42279 0.95924  17
  10  -7   4 6.79003 0.60862  10
  -7  -6   4 3.94659 0.51663  10
  -7  -6   4 2.63548 0.68108  13
  -6  -6   4 6.00609 1.22891  13
  -6  -6   4 7.50272 1.03648  12
  -6  -6   4 6.98972 0.75589  10
  -5  -6   4 -0.0826 0.71011  13
  -5  -6   4 0.40713 0.36314  10
  -5  -6   4 -0.5988 0.73302  12
  -5  -6   4 0.05429 0.33333   9
  -4  -6   4 135.655 8.53773  13
  -4  -6   4 136.050 6.38931   9
  -4  -6   4 135.396 6.51682  10
  -4  -6   4 117.838 8.62454  12
  -3  -6   4 0.13561 0.80136  13
  -3  -6   4 0.34016 0.56624  12
  -3  -6   4 1.04851 0.41569  10
  -3  -6   4 0.47754 0.59220  11
  -3  -6   4 0.81846 0.59206  18
  -3  -6   4 1.05783 1.33639   2
  -3  -6   4 0.15461 1.11207   3
  -3  -6   4 0.50419 1.85868   4
  -3  -6   4 0.78264 0.39168   9
  -2  -6   4 33.1356 2.54013  18
  -2  -6   4 32.1283 2.32745  11
  -2  -6   4 32.9023 1.68472   9
  -2  -6   4 27.8184 2.71287   3
  -2  -6   4 34.2931 2.70139  12
  -2  -6   4 27.9657 2.47506  13
  -2  -6   4 32.5418 1.77422  10
  -2  -6   4 31.7568 4.02021   4
  -2  -6   4 32.1192 2.73117   2
  -1  -6   4 49.6568 3.00584  17
  -1  -6   4 42.3258 2.20278  10
  -1  -6   4 42.3116 2.06866   9
  -1  -6   4 35.9199 2.98771  13
  -1  -6   4 44.3201 3.08515  18
  -1  -6   4 39.4131 2.97354   3
  -1  -6   4 42.1552 2.95883  11
  -1  -6   4 43.4845 2.87144   2
  -1  -6   4 43.4155 3.22239  12
  -1  -6   4 40.5385 4.21992   4
   0  -6   4 37.1820 2.00239  10
   0  -6   4 38.3906 2.74783  11
   0  -6   4 36.6649 3.85375   4
   0  -6   4 41.0204 2.82756  16
   0  -6   4 40.7013 2.99098  12
   0  -6   4 44.3141 2.79211  17
   0  -6   4 39.1673 2.88664  18
   1  -6   4 46.0377 2.31079  10
   1  -6   4 50.5142 4.45939   7
   1  -6   4 46.7415 3.08068  17
   1  -6   4 42.8963 4.03083   4
   1  -6   4 45.5483 3.26908  18
   1  -6   4 49.1035 3.31804  16
   1  -6   4 47.2014 3.14136  11
   2  -6   4 24.9750 2.00922  16
   2  -6   4 29.5894 3.54484   7
   2  -6   4 20.3504 1.81367  11
   2  -6   4 26.0246 2.78858   4
   2  -6   4 23.5700 1.81135  17
   2  -6   4 24.1554 1.24264  10
   2  -6   4 24.2022 1.88093  18
   3  -6   4 0.94949 0.89594   4
   3  -6   4 2.00642 0.65255  18
   3  -6   4 1.54890 0.57125  15
   3  -6   4 1.34143 0.46762  11
   3  -6   4 0.68780 0.58254  17
   3  -6   4 1.93346 0.26438  10
   3  -6   4 2.76468 0.78648  16
   3  -6   4 0.94237 0.97163   7
   4  -6   4 54.8459 3.86552  16
   4  -6   4 54.6467 2.73534  10
   4  -6   4 57.4687 5.14281   7
   4  -6   4 51.9250 3.79478  18
   4  -6   4 60.6298 3.83836  15
   4  -6   4 50.4775 3.57906  17
   5  -6   4 137.259 8.42552  15
   5  -6   4 128.193 8.29149  18
   5  -6   4 125.732 7.90790  17
   5  -6   4 128.099 6.28519  10
   5  -6   4 130.113 8.39914  16
   5  -6   4 131.743 9.99698   7
   6  -6   4 80.2936 3.94026   9
   6  -6   4 84.3882 4.14642  10
   6  -6   4 89.8541 5.54927  15
   6  -6   4 83.7483 5.34955  17
   6  -6   4 72.9736 5.39012   3
   6  -6   4 79.5667 5.22571   2
   6  -6   4 83.4979 7.46976   7
   6  -6   4 84.8745 5.60970  18
   6  -6   4 83.3310 5.53799  16
   7  -6   4 10.8549 0.75063   9
   7  -6   4 6.93535 2.84154   7
   7  -6   4 6.69021 1.62006   2
   7  -6   4 11.1602 1.45322  17
   7  -6   4 9.28098 1.48273  18
   7  -6   4 12.2413 0.94250  10
   7  -6   4 12.6449 1.53429  16
   8  -6   4 0.34144 0.39566  10
   8  -6   4 0.18316 0.76486  18
   8  -6   4 0.25202 0.29204   9
   8  -6   4 0.82335 0.81551  17
   8  -6   4 0.04067 0.70650  16
   9  -6   4 33.9253 2.73955  17
   9  -6   4 32.4804 1.94716  10
  10  -6   4 4.06785 0.50527  10
  10  -6   4 4.37359 0.81304  17
  11  -6   4 4.78860 0.66622  17
  11  -6   4 4.37674 0.44153  10
  -8  -5   4 0.08129 0.52962  13
  -7  -5   4 1.96782 0.51180   9
  -7  -5   4 3.58770 0.58534  10
  -7  -5   4 3.15960 0.88611  13
  -6  -5   4 17.1776 1.26874   9
  -6  -5   4 17.4300 1.40166  10
  -6  -5   4 18.2999 1.95608  13
  -6  -5   4 15.8358 1.66226  12
  -5  -5   4 34.3894 5.64759   5
  -5  -5   4 44.6459 3.34024  13
  -5  -5   4 41.9635 2.32106   9
  -5  -5   4 38.3091 3.11256  12
  -5  -5   4 41.8976 2.40847  10
  -4  -5   4 38.7498 2.16852  10
  -4  -5   4 38.7783 4.51238   4
  -4  -5   4 39.0214 2.08486   9
  -4  -5   4 42.9046 3.84980   2
  -4  -5   4 34.5506 2.84083  12
  -4  -5   4 25.4379 4.66134   5
  -4  -5   4 38.2956 3.14032  13
  -4  -5   4 32.0784 3.73908   3
  -3  -5   4 35.6069 2.68612  12
  -3  -5   4 34.1540 2.52839  18
  -3  -5   4 31.8114 3.77062   4
  -3  -5   4 30.6520 2.64705  13
  -3  -5   4 30.0970 2.28279  11
  -3  -5   4 33.0748 3.09635   2
  -3  -5   4 31.6247 3.98710   5
  -3  -5   4 33.6231 3.25454   3
  -3  -5   4 32.3163 1.79329   9
  -3  -5   4 32.6424 1.87532  10
  -2  -5   4 41.4222 2.21849   9
  -2  -5   4 44.1198 2.29525  10
  -2  -5   4 47.6772 3.44178   2
  -2  -5   4 45.2282 4.23884   4
  -2  -5   4 46.0166 3.20483  12
  -2  -5   4 42.6852 3.04757  18
  -2  -5   4 42.4036 2.89660  11
  -2  -5   4 44.5560 3.66034   3
  -2  -5   4 39.8739 4.04210   5
  -1  -5   4 321.188 20.6492   4
  -1  -5   4 340.607 19.0502   2
  -1  -5   4 331.691 20.5555   3
   0  -5   4 71.7216 4.25217   2
   0  -5   4 74.1009 4.59242   3
   0  -5   4 70.3746 5.32898   4
   0  -5   4 64.8416 4.29622   2
   0  -5   4 63.0238 4.49234   3
   1  -5   4 59.3930 4.75773   7
   1  -5   4 57.4562 3.42379   2
   1  -5   4 54.5889 4.40228   4
   1  -5   4 56.9849 3.64059   3
   2  -5   4 6.34665 0.59293   2
   2  -5   4 7.15207 0.61562   2
   2  -5   4 6.72169 0.58192   3
   2  -5   4 7.03578 0.61966   3
   2  -5   4 7.82927 1.57832   7
   2  -5   4 6.37394 1.36766   4
   3  -5   4 19.7734 1.46513   2
   3  -5   4 17.6694 2.55898   7
   3  -5   4 17.2687 1.46859   3
   3  -5   4 16.9608 2.15724   4
   4  -5   4 56.0681 2.85645  10
   4  -5   4 55.7054 2.78757   9
   4  -5   4 59.3532 3.88730  15
   4  -5   4 59.9534 3.97131   3
   4  -5   4 50.8938 3.64248  17
   4  -5   4 60.1700 5.11916   7
   4  -5   4 59.5352 3.88137   2
   5  -5   4 0.51297 0.99014   7
   5  -5   4 0.24198 0.59396  16
   5  -5   4 0.45914 0.24455   9
   5  -5   4 -0.1148 0.65274   3
   5  -5   4 0.35904 0.43439  17
   5  -5   4 0.01457 0.63128   2
   5  -5   4 0.41888 0.54624  15
   5  -5   4 0.15608 0.64184  18
   5  -5   4 0.16283 0.28697  10
   6  -5   4 0.48931 0.34316  10
   6  -5   4 -0.3143 0.38916  15
   6  -5   4 0.10752 0.88012   3
   6  -5   4 -0.5728 0.57522  16
   6  -5   4 -0.0823 0.26956   9
   6  -5   4 0.47260 0.58603  17
   6  -5   4 0.11407 1.43951   7
   6  -5   4 -0.1226 0.91498   2
   6  -5   4 0.03111 0.67211  18
   7  -5   4 80.8623 4.05588  10
   7  -5   4 70.3898 5.21637  16
   7  -5   4 81.6047 5.06008  17
   7  -5   4 76.3951 5.41860  18
   7  -5   4 82.8871 3.95616   9
   7  -5   4 73.6042 7.14907   7
   8  -5   4 1.27315 0.47459  10
   8  -5   4 1.13251 0.66779  18
   8  -5   4 0.55514 0.37947   9
   8  -5   4 0.49329 0.54369  17
   9  -5   4 0.93856 0.49865  10
   9  -5   4 0.45135 0.55686  17
   9  -5   4 0.48150 0.35072   9
  10  -5   4 0.30873 0.54415  17
  10  -5   4 0.21996 0.25462   9
  10  -5   4 0.06550 0.47383  10
  11  -5   4 0.74643 0.45120  17
  11  -5   4 0.04527 0.24286  10
  -9  -4   4 0.10895 0.64880  13
  -8  -4   4 21.4876 2.11894  13
  -8  -4   4 21.4782 1.47711   9
  -7  -4   4 18.0100 1.51167  10
  -7  -4   4 20.7668 1.96556  12
  -7  -4   4 17.5540 1.31451   9
  -6  -4   4 10.2811 0.85483   8
  -6  -4   4 9.26297 0.90225   9
  -6  -4   4 7.95602 2.70503   5
  -6  -4   4 7.41076 1.17323  12
  -6  -4   4 10.5615 1.04369  10
  -5  -4   4 3.91811 0.62280   9
  -5  -4   4 2.94721 2.60151   5
  -5  -4   4 4.49967 0.63109  10
  -5  -4   4 2.02557 1.62436   3
  -5  -4   4 2.61710 1.91252   4
  -5  -4   4 3.37451 1.75237   2
  -5  -4   4 3.86084 0.86423  12
  -5  -4   4 4.67648 0.55290   8
  -4  -4   4 42.6303 2.29530   8
  -4  -4   4 43.4691 4.11091   3
  -4  -4   4 40.3619 2.36049  10
  -4  -4   4 42.1153 3.17322  12
  -4  -4   4 42.5245 4.24000   4
  -4  -4   4 48.2850 3.99724   2
  -4  -4   4 39.7422 5.26213   5
  -4  -4   4 42.6237 2.31910   9
  -3  -4   4 23.5784 1.44288  10
  -3  -4   4 25.8897 3.62829   5
  -3  -4   4 24.6311 1.37330   8
  -3  -4   4 25.6386 2.97820   4
  -3  -4   4 25.6518 2.58482   2
  -3  -4   4 22.1222 1.38452   9
  -3  -4   4 24.4775 2.64050   3
  -2  -4   4 441.322 24.5421   2
  -2  -4   4 419.922 27.0927   5
  -2  -4   4 421.854 26.5092   3
  -2  -4   4 423.714 26.0283   4
  -1  -4   4 7.23008 1.49002   4
  -1  -4   4 7.35236 1.27059   5
  -1  -4   4 9.85310 1.35102   3
   0   4  -4 20.5117 1.64190   1
   0  -4   4 22.8361 1.66694   1
   0  -4   4 20.0155 1.80099   2
   0  -4   4 17.8707 1.81933   5
   0  -4   4 26.4875 1.95587   3
   0  -4   4 24.3863 2.44361   4
   0  -4   4 28.2069 2.66797   7
   0  -4   4 20.9059 1.87971   3
   0  -4   4 27.5308 1.90953   2
  -1   4  -4 121.056 7.17196   1
   1  -4   4 131.739 7.92392   2
   1  -4   4 144.252 7.93795   2
   1  -4   4 131.899 8.49308   3
   1  -4   4 130.726 7.20994   1
   1  -4   4 140.121 8.78750   4
   1  -4   4 147.730 9.14091   7
   1  -4   4 125.676 7.17359   1
   1  -4   4 142.438 8.49858   3
  -2   4  -4 992.940 54.5247   1
   2  -4   4 1054.44 59.8452   2
   2  -4   4 1117.01 64.6198   7
   2  -4   4 1015.25 54.4950   1
   2  -4   4 1064.39 64.8569   3
   2  -4   4 1065.24 62.9209   4
   2  -4   4 1119.93 64.8212   3
   2  -4   4 1167.09 59.9022   2
   3  -4   4 295.784 18.9354   7
   3  -4   4 271.023 17.9909   4
   3  -4   4 312.977 17.1873   2
   3  -4   4 310.805 18.4361   3
   4  -4   4 6.13388 1.10702   3
   4  -4   4 4.56202 1.22105   7
   4  -4   4 5.33395 1.09037   2
   5  -4   4 8.77937 1.64953   2
   5  -4   4 10.4452 1.18740  15
   5  -4   4 11.2522 1.14726  17
   5  -4   4 11.1914 2.19222   7
   5  -4   4 8.78568 0.71695   9
   5  -4   4 8.48343 0.61676   8
   5  -4   4 8.27026 0.77610  10
   6  -4   4 27.6335 2.97644   2
   6  -4   4 24.4734 2.15925  16
   6  -4   4 29.1674 1.55069   8
   6  -4   4 26.4966 2.16925  17
   6  -4   4 28.4505 2.89753   3
   6  -4   4 28.4442 1.70265  10
   6  -4   4 34.3131 4.13349   7
   6  -4   4 28.9971 1.63891   9
   7  -4   4 8.94049 0.81943   9
   7  -4   4 8.61129 2.43473   7
   7  -4   4 5.02356 1.77190   2
   7  -4   4 7.19407 1.08624  17
   7  -4   4 7.42838 0.64091   8
   7  -4   4 8.03888 0.86002  10
   7  -4   4 6.27510 1.67616   3
   8  -4   4 41.5403 2.94516  17
   8  -4   4 39.8515 2.11001   8
   8  -4   4 42.0431 2.44917  10
   8  -4   4 39.1918 3.20992  18
   8  -4   4 42.7158 2.34724   9
   8  -4   4 40.6368 5.13183   7
   9  -4   4 0.00652 0.49128  10
   9  -4   4 -0.2005 0.43814   9
   9  -4   4 -0.8353 0.69024  17
  10  -4   4 29.1513 1.83253  10
  10  -4   4 26.9073 1.59303   9
  10  -4   4 29.3191 2.16045  17
  11  -4   4 38.3220 1.69181   9
  11  -4   4 27.8882 2.19682  17
  -9  -3   4 2.44838 0.76436  13
  -8  -3   4 18.5827 1.24949   8
  -8  -3   4 17.4301 1.33231   9
  -7  -3   4 105.008 5.24917   8
  -7  -3   4 103.582 5.17897   9
  -7  -3   4 94.4194 6.64969  12
  -6  -3   4 -1.4210 1.95874   5
  -6  -3   4 -2.1764 1.12974   3
  -6  -3   4 0.28011 0.39538   8
  -6  -3   4 0.45885 1.33830   2
  -6  -3   4 0.27611 0.34649   9
  -6  -3   4 0.07762 0.40360  12
  -5  -3   4 32.4485 1.90369   9
  -5  -3   4 30.5155 3.45557   3
  -5  -3   4 36.7726 1.94135   8
  -5  -3   4 28.7691 1.90633  10
  -5  -3   4 36.0805 2.60861  12
  -5  -3   4 30.4733 3.34320   2
  -5  -3   4 30.0116 3.53009   4
  -4  -3   4 1.58319 0.84923   3
  -4  -3   4 1.90276 0.94111   2
  -4  -3   4 1.69143 0.38079   8
  -4  -3   4 1.81470 1.19264   4
  -3  -3   4 194.504 11.9165   2
  -3  -3   4 200.258 12.8208   3
  -3  -3   4 191.239 12.5260   4
  -2  -3   4 81.8857 5.73102   4
  -2  -3   4 76.7128 5.27767   2
  -2  -3   4 81.7013 5.66168   3
   1   3  -4 16.4756 1.52860   1
   1   3  -4 14.6601 1.43858   1
  -1  -3   4 16.5791 1.46235   1
  -1  -3   4 18.8151 2.00820   4
  -1  -3   4 20.5053 1.79391   3
  -1  -3   4 16.9447 1.49454   1
  -1  -3   4 19.3284 1.69026   2
  -1  -3   4 15.5595 1.64712   5
   0   3  -4 26.2907 1.94375   1
   0   3  -4 28.4133 1.91287   1
   0  -3   4 26.3806 2.14515   3
   0  -3   4 29.9622 2.20360   3
   0  -3   4 27.6796 2.57054   7
   0  -3   4 22.6557 1.91902   5
   0  -3   4 22.6869 2.02290   2
   0  -3   4 28.2768 1.88918   1
   0  -3   4 30.6840 2.14497   2
   0  -3   4 29.7784 2.47716   4
   0  -3   4 29.4018 1.90770   1
  -1   3  -4 29.6789 2.05173   1
  -1   3  -4 31.6871 2.08120   1
   1  -3   4 30.2250 2.03166   1
   1  -3   4 33.3540 2.29555   2
   1  -3   4 28.8862 2.32204   3
   1  -3   4 28.5675 1.99173   1
   1  -3   4 32.4852 2.58320   4
   1  -3   4 26.2839 2.19160   2
   1  -3   4 33.9564 2.83615   7
   1  -3   4 30.2991 2.30523   3
  -2   3  -4 326.659 17.1924   1
  -2   3  -4 338.816 17.1925   1
   2  -3   4 330.058 17.1537   1
   2  -3   4 288.982 18.7746   2
   2  -3   4 347.719 19.8354   4
   2  -3   4 310.504 20.3287   3
   2  -3   4 338.472 20.4828   7
   2  -3   4 319.093 17.1461   1
   2  -3   4 348.925 18.8705   2
   2  -3   4 349.067 20.3219   3
   3  -3   4 77.6300 4.99180   2
   3  -3   4 78.8884 5.65355   7
   3  -3   4 79.2417 5.14749   4
   3  -3   4 78.7088 5.21440   3
   3  -3   4 66.5362 4.43415   1
   3  -3   4 71.5673 4.49482   1
   4  -3   4 1.69217 0.75224   3
   4  -3   4 0.88728 0.73876   2
   4  -3   4 2.64100 1.16947   7
   5  -3   4 12.4934 0.88190   8
   5  -3   4 14.3590 2.34985   7
   5  -3   4 14.9269 2.04102   2
   5  -3   4 15.0828 2.08147   3
   6  -3   4 12.7440 2.08648   3
   6  -3   4 11.6770 0.91729  10
   6  -3   4 9.84541 2.07631   7
   6  -3   4 10.8759 0.86422   8
   6  -3   4 14.1189 2.22327   2
   6  -3   4 11.7044 0.98558   9
   6  -3   4 10.2313 1.19753  17
   7  -3   4 1.20856 0.42176  10
   7  -3   4 1.71986 0.41932   8
   7  -3   4 0.09039 1.65681   7
   7  -3   4 0.96408 0.47426   9
   7  -3   4 0.98511 1.60037   2
   7  -3   4 1.35802 0.54981  17
   7  -3   4 0.30437 1.29822   3
   8  -3   4 30.8319 1.99565  10
   8  -3   4 29.5751 1.94469   9
   8  -3   4 30.3888 1.78726   8
   8  -3   4 33.1413 2.36069  17
   8  -3   4 22.4972 4.06111   7
   9  -3   4 0.69114 0.54305   9
   9  -3   4 0.25581 0.28195   8
   9  -3   4 0.91394 0.60308  17
  10  -3   4 1.78492 0.53022   9
  10  -3   4 1.62561 0.62056  17
  11  -3   4 6.00222 0.48728   9
  -9  -2   4 10.5535 1.15910   9
  -9  -2   4 13.0989 1.06108   8
  -8  -2   4 15.3542 1.30846   8
  -7  -2   4 0.21215 0.34881   8
  -6  -2   4 46.7357 2.50623   8
  -6  -2   4 34.9068 4.83014   3
  -5  -2   4 10.8023 2.12142   2
  -5  -2   4 7.83178 1.72112   4
  -5  -2   4 11.1340 2.24079   3
  -5  -2   4 10.9433 0.84398   8
  -4  -2   4 1845.04 102.884   2
  -4  -2   4 1814.23 111.402   3
  -4  -2   4 1856.66 107.282   4
   3   2  -4 269.670 15.4240   1
  -3  -2   4 292.419 17.6523   4
  -3  -2   4 302.921 18.2999   3
   2   2  -4 108.852 6.33717   1
   2   2  -4 116.400 6.41555   1
  -2  -2   4 111.344 6.97467   2
  -2  -2   4 105.806 6.30568   1
  -2  -2   4 113.102 7.46032   3
  -2  -2   4 112.949 7.27022   4
  -2  -2   4 112.317 6.35804   1
   1   2  -4 11.1370 1.23329   1
   1   2  -4 10.3836 1.16798   1
   1   2  -4 10.8866 1.44911   3
  -1  -2   4 12.6168 1.22489   1
  -1  -2   4 13.2061 1.46728   3
  -1  -2   4 13.9756 1.54493   4
  -1  -2   4 12.7166 1.42044   2
   0   2  -4 41.1066 2.55737   1
   0   2  -4 39.2837 2.57662   1
   0   2  -4 32.5942 2.91456   3
   0  -2   4 41.4961 3.06073   7
   0  -2   4 38.0037 2.48121   1
   0  -2   4 41.2395 2.92169   3
   0  -2   4 43.5841 2.82578   2
   0  -2   4 41.7163 3.01569   4
   0  -2   4 35.3740 2.87920   3
   0  -2   4 42.3252 2.54260   1
  -1   2  -4 26.6588 1.83928   1
  -1   2  -4 20.8286 2.04328   3
  -1   2  -4 26.5192 1.82135   1
   1  -2   4 24.0143 2.21377   7
   1  -2   4 26.3319 1.79660   1
   1  -2   4 24.3573 2.04392   3
   1  -2   4 25.2521 1.75467   1
   1  -2   4 27.1209 2.04125   3
   1  -2   4 19.3485 1.86427   2
   1  -2   4 24.6858 1.97533   2
  -2   2  -4 0.09794 0.53020   1
  -2   2  -4 -0.3961 0.27056   5
  -2   2  -4 0.30692 0.55888   1
   2  -2   4 0.39265 0.58518   1
   2  -2   4 -0.8488 0.32905   1
   2  -2   4 0.02797 0.63985   3
   2  -2   4 1.14696 0.72237   2
   2  -2   4 0.68516 0.82417   7
   2  -2   4 0.25215 0.62119   3
  -3   2  -4 21.0355 1.88183   1
  -3   2  -4 23.4954 2.01240   1
   3  -2   4 25.4903 2.25373   2
   3  -2   4 28.3832 2.52761   7
   3  -2   4 23.3159 1.99788   1
   3  -2   4 27.7636 2.23610   3
   3  -2   4 22.4144 1.89103   1
   4  -2   4 0.27107 0.56471   2
   4  -2   4 1.59663 0.76697   7
   4  -2   4 1.36035 0.79619   3
   5  -2   4 35.1412 3.26196   2
   5  -2   4 36.5955 3.45846   7
   5  -2   4 37.6567 3.45874   3
   6  -2   4 291.607 19.4576   3
   6  -2   4 284.044 14.6234   8
   6  -2   4 320.129 19.5393   7
   6  -2   4 321.362 18.4312   2
   6  -2   4 286.601 14.1878   9
   7  -2   4 18.3827 2.99343   7
   7  -2   4 19.7764 1.40582   9
   7  -2   4 18.0040 1.23881   8
   7  -2   4 14.2518 2.75171   3
   7  -2   4 15.3470 2.92308   2
   8  -2   4 426.784 23.3658  17
   8  -2   4 400.599 19.7951   8
   8  -2   4 386.127 19.2028   9
   9  -2   4 -0.0236 0.67713  17
   9  -2   4 -0.1786 0.36069   8
   9  -2   4 -0.5650 0.48782   9
  10  -2   4 3.43924 0.52840   9
  10  -2   4 2.49909 0.62419  17
  10  -2   4 3.57135 0.34583   8
  10   1  -4 0.37753 0.34058   8
   9   1  -4 36.3609 2.27482   8
  -9  -1   4 37.8518 2.23787   8
  -8  -1   4 -0.3728 0.49448   8
  -7  -1   4 11.7979 1.01135   8
  -6  -1   4 8.31311 0.85642   8
  -5  -1   4 1.79372 1.19932   2
  -5  -1   4 3.07681 1.35477   3
   4   1  -4 132.774 8.52323   1
  -4  -1   4 154.596 10.1696   3
  -4  -1   4 156.893 9.62200   4
  -4  -1   4 167.193 9.65593   2
  -4  -1   4 143.939 8.66023   1
   3   1  -4 29.5645 2.69681   3
   3   1  -4 33.4423 2.42266   1
   3   1  -4 29.8014 2.34758   1
   3   1  -4 25.6418 2.56589   2
   3   1  -4 29.6477 2.35198   6
  -3  -1   4 31.5434 2.77391   3
  -3  -1   4 31.5902 2.57094   4
  -3  -1   4 36.1522 2.80060   2
  -3  -1   4 33.9058 2.47929   1
  -3  -1   4 32.8071 2.38950   1
   2   1  -4 867.097 43.8223   1
   2   1  -4 888.372 43.8212   1
   2   1  -4 827.312 52.0351   3
   2   1  -4 810.348 48.0706   2
  -2  -1   4 879.293 43.8246   1
  -2  -1   4 856.526 52.0470   3
  -2  -1   4 860.411 50.1264   4
  -2  -1   4 879.974 48.1332   2
  -2  -1   4 847.772 43.7866   1
   1   1  -4 1423.76 86.6746   3
   1   1  -4 1344.34 79.9428   2
   1   1  -4 1488.68 72.8485   1
   1   1  -4 1457.10 72.8681   1
  -1  -1   4 1387.11 72.7964   1
  -1  -1   4 1444.14 86.6469   3
  -1  -1   4 1493.84 80.0064   2
  -1  -1   4 1455.11 72.8384   1
   0   1  -4 193.593 10.0657   1
   0   1  -4 176.007 11.8905   3
   0   1  -4 190.889 10.1014   1
   0   1  -4 175.722 11.0260   2
   0  -1   4 190.098 10.0429   1
   0  -1   4 195.443 11.8830   3
   0  -1   4 194.893 11.7469   7
   0  -1   4 195.107 11.0615   2
   0  -1   4 194.323 10.0552   1
  -1   1  -4 331.182 22.8700   5
  -1   1  -4 362.171 23.1887   3
  -1   1  -4 396.836 19.5932   1
  -1   1  -4 394.858 19.5909   1
  -1   1  -4 352.688 21.4570   2
   1  -1   4 402.086 21.5099   2
   1  -1   4 373.757 19.5278   1
   1  -1   4 367.253 22.8113   7
   1  -1   4 397.527 19.5790   1
   1  -1   4 396.596 23.1577   3
  -2   1  -4 10.8056 1.09830   1
  -2   1  -4 7.00793 1.13724   2
  -2   1  -4 8.77210 0.98573   5
  -2   1  -4 10.0099 1.30508   3
  -2   1  -4 11.5268 1.20159   1
   2  -1   4 10.7438 1.35815   7
   2  -1   4 9.01375 1.05503   1
   2  -1   4 8.85168 1.06909   1
   2  -1   4 10.2394 1.29368   2
   2  -1   4 9.74007 1.18764   3
  -3   1  -4 669.792 42.7493   3
  -3   1  -4 653.362 39.5058   2
  -3   1  -4 703.188 36.0252   1
  -3   1  -4 698.385 36.0190   1
   3  -1   4 738.797 39.5872   2
   3  -1   4 746.341 42.1098   7
   3  -1   4 664.184 35.9710   1
   3  -1   4 680.586 35.9867   1
   3  -1   4 727.856 42.7188   3
   4  -1   4 16.3422 1.90127   7
   4  -1   4 16.5058 2.13836   2
   4  -1   4 16.7937 2.13881   3
   4  -1   4 14.9365 1.81856   1
   5  -1   4 76.8332 5.83201   2
   5  -1   4 79.5933 6.01059   7
   5  -1   4 76.3268 6.02425   3
   6  -1   4 29.4754 3.60791   3
   6  -1   4 35.4025 3.76552   7
   6  -1   4 34.1421 2.01506   8
   7  -1   4 46.5739 2.71594   8
   7  -1   4 47.9892 4.72094   7
   8  -1   4 1.92090 0.49099   8
   9  -1   4 6.01812 0.90240  17
   9  -1   4 4.41015 0.70154   8
 -10   1  -4 7.32439 0.87154   8
  10  -1   4 8.41565 0.97859  17
  10  -1   4 9.73669 0.71913   8
  10  -1   4 9.73936 0.85097   9
  10   0  -4 2.10079 0.43664   8
 -10   0   4 1.89234 0.60810   8
   9   0  -4 16.6226 1.31369   8
  -9   0   4 13.7530 1.38960   8
   8   0  -4 3.81360 0.59223   8
   7   0  -4 56.0927 3.11607   8
   5   0  -4 0.97208 0.91584   3
   5   0  -4 -1.1871 0.84611   2
   4   0  -4 24.2230 2.16428   6
   4   0  -4 26.5042 2.39301   3
   4   0  -4 25.3821 2.05785   1
   4   0  -4 20.0564 1.95093   1
   4   0  -4 24.0181 2.24818   2
  -4   0   4 23.6760 2.47338   3
  -4   0   4 24.8514 2.10019   1
  -4   0   4 23.3094 2.31245   2
  -4   0   4 19.4154 2.02270   1
  -4   0   4 22.2600 1.98171   4
   3   0  -4 192.800 11.4731   2
   3   0  -4 204.897 10.4771   1
   3   0  -4 195.215 12.2817   3
   3   0  -4 192.065 12.1043   6
   3   0  -4 187.456 10.3899   1
  -3   0   4 182.381 10.3937   1
  -3   0   4 191.799 11.5159   2
  -3   0   4 201.756 10.5140   1
  -3   0   4 189.812 11.6622   4
  -3   0   4 185.340 12.2847   3
   2   0  -4 34.0219 2.30221   1
   2   0  -4 33.8287 2.24497   1
   2   0  -4 32.7574 2.64598   3
   2   0  -4 32.1386 2.45589   2
  -2   0   4 32.2269 2.25174   1
  -2   0   4 31.8739 2.50321   2
  -2   0   4 31.5905 2.66761   3
  -2   0   4 34.0990 2.31207   1
   1   0  -4 100.923 5.27747   1
   1   0  -4 87.2503 5.74169   2
   1   0  -4 91.8737 6.15064   3
   1   0  -4 94.6678 5.25669   1
  -1   0   4 94.3495 5.25969   1
  -1   0   4 92.2612 6.12982   3
  -1   0   4 92.3670 5.20711   1
  -1   0   4 92.3748 5.78281   2
   0   0  -4 289.531 17.4431   2
   0   0  -4 302.521 18.8576   3
   0   0  -4 306.624 18.7485   5
   0   0  -4 309.446 15.9109   1
   0   0  -4 309.396 15.9380   1
   0   0   4 308.222 15.9079   1
   0   0   4 304.464 15.8871   1
   0   0   4 318.010 18.8560   3
   0   0   4 296.714 17.4593   2
   0   0   4 310.191 18.3937   7
  -1   0  -4 311.771 20.3873   5
  -1   0  -4 333.850 20.5124   3
  -1   0  -4 358.703 17.3591   1
  -1   0  -4 320.224 18.9957   2
  -1   0  -4 333.167 17.3095   1
   1   0   4 337.399 17.3292   1
   1   0   4 336.742 20.4859   3
   1   0   4 341.486 17.3071   1
   1   0   4 333.469 19.0393   2
   1   0   4 315.917 19.9922   7
  -2   0  -4 298.381 18.2530   3
  -2   0  -4 296.763 15.4340   1
  -2   0  -4 287.251 16.9377   2
  -2   0  -4 296.295 18.1501   5
  -2   0  -4 291.880 15.4217   1
   2   0   4 285.200 17.7759   7
   2   0   4 297.432 18.2311   3
   2   0   4 280.653 16.9402   2
   2   0   4 287.661 15.4255   1
   2   0   4 292.756 15.4256   1
  -3   0  -4 12.6242 1.51879   5
  -3   0  -4 11.6210 1.63768   3
  -3   0  -4 10.6167 1.62114   2
  -3   0  -4 10.2141 1.41820   1
  -3   0  -4 10.5235 1.33829   1
   3   0   4 10.5079 1.45027   1
   3   0   4 12.5790 1.62870   3
   3   0   4 9.53428 1.32469   1
   3   0   4 11.9119 1.55212   7
   3   0   4 11.5872 1.69773   2
  -4   0  -4 54.7357 4.12251   5
   4   0   4 47.0974 4.17738   3
   4   0   4 52.3891 4.09712   7
   4   0   4 46.9769 4.08729   2
  -5   0  -4 30.6288 3.21777   5
   5   0   4 30.5591 3.15119   7
   6   0   4 140.624 7.48598   8
   6   0   4 160.469 10.6265   7
  -7   0  -4 48.2319 4.93548   5
   7   0   4 49.6235 5.09642   7
   7   0   4 51.9354 2.93296   8
  -8   0  -4 9.78719 1.00578   8
   8   0   4 9.40857 1.01345   8
  -9   0  -4 2.46522 0.54288   8
   9   0   4 1.26295 0.70933  17
   9   0   4 2.58680 0.58572   8
 -10   0  -4 24.0201 1.52464   8
  10   0   4 24.0211 1.36746   8
  10  -1  -4 2.46985 0.46328   8
   9  -1  -4 13.4454 1.16824   8
   8  -1  -4 450.388 22.4545   8
   8  -1  -4 467.774 28.1945  16
   7  -1  -4 7.30209 0.77259   8
   6  -1  -4 22.6514 2.84584   2
   6  -1  -4 21.1097 2.63936   3
   5  -1  -4 0.10469 0.62515   6
   5  -1  -4 1.19304 0.86241   3
   5  -1  -4 0.27388 0.82840   2
   5  -1  -4 1.91646 0.93090   1
   4  -1  -4 -0.1640 0.52399   1
   4  -1  -4 0.08645 0.43591   1
   4  -1  -4 0.17476 0.58852   6
   4  -1  -4 0.20965 0.46338   2
   4  -1  -4 0.14078 0.59388   3
  -4   1   4 -0.5175 0.43902   1
  -4   1   4 0.32107 0.46100   4
  -4   1   4 0.12360 0.65122   1
   3  -1  -4 782.612 44.2612   2
   3  -1  -4 773.509 40.3204   1
   3  -1  -4 822.223 47.8455   6
   3  -1  -4 831.912 47.9200   3
   3  -1  -4 791.640 40.3189   1
  -3   1   4 783.943 40.3540   1
  -3   1   4 744.135 44.3141   2
  -3   1   4 747.222 47.9292   3
  -3   1   4 809.102 40.3923   1
   2  -1  -4 2.61326 0.81835   2
   2  -1  -4 2.15881 0.65207   1
   2  -1  -4 2.96600 0.82936   3
   2  -1  -4 3.18536 0.72258   1
  -2   1   4 2.68444 0.85565   3
  -2   1   4 2.21029 0.71356   1
  -2   1   4 1.99989 0.68386   1
  -2   1   4 2.46046 0.88429   2
   1  -1  -4 362.087 18.5067   1
   1  -1  -4 379.352 22.0441   5
   1  -1  -4 354.766 20.2917   2
   1  -1  -4 373.454 21.9487   3
   1  -1  -4 349.137 18.4632   1
  -1   1   4 360.900 18.4853   1
  -1   1   4 320.624 20.2758   2
  -1   1   4 344.738 21.9030   3
  -1   1   4 362.567 18.5001   1
   0  -1  -4 21.6712 1.94734   3
   0  -1  -4 22.1613 1.71428   1
   0  -1  -4 22.6952 1.71935   1
   0  -1  -4 22.3057 1.93085   2
   0  -1  -4 22.0015 1.92551   5
   0   1   4 19.4266 1.47812   7
   0   1   4 21.0283 1.91578   3
   0   1   4 27.5683 1.79243   1
   0   1   4 19.2781 1.88743   2
   0   1   4 23.0574 1.74202   1
  -1  -1  -4 7.81556 1.14973   3
  -1  -1  -4 7.92426 0.99941   1
  -1  -1  -4 6.59472 1.08856   2
  -1  -1  -4 8.62534 1.04843   1
  -1  -1  -4 6.31833 1.09010   5
   1   1   4 7.27386 1.15947   3
   1   1   4 6.10707 0.97736   1
   1   1   4 6.08716 0.97978   1
   1   1   4 5.87180 1.11233   2
   1   1   4 5.62872 0.75101   7
  -2  -1  -4 0.87304 0.63117   1
  -2  -1  -4 -0.6985 0.61393   3
  -2  -1  -4 0.92835 0.51299   1
  -2  -1  -4 0.61478 0.57816   2
  -2  -1  -4 0.59618 0.55469   5
   2   1   4 0.00125 0.43084   7
   2   1   4 0.81771 0.78548   2
   2   1   4 0.43200 0.69501   3
   2   1   4 1.00057 0.53408   1
   2   1   4 0.41799 0.63237   1
  -3  -1  -4 6.33534 1.31892   5
  -3  -1  -4 6.40641 1.34917   3
  -3  -1  -4 4.88410 1.25008   2
  -3  -1  -4 3.35616 0.98980   1
   3   1   4 4.94537 1.15919   1
  -4  -1  -4 169.436 11.9475   3
  -4  -1  -4 176.336 11.2401   2
  -4  -1  -4 187.684 12.1115   5
  -5  -1  -4 5.13173 0.63270   8
  -5  -1  -4 4.50973 1.59777   5
   5   1   4 4.08714 1.36910   7
  -6  -1  -4 0.17598 0.28082   8
  -6  -1  -4 0.86296 1.06181   5
   6   1   4 0.29569 1.36278   7
  -7  -1  -4 12.6416 1.11284   8
  -7  -1  -4 12.3892 2.75413   5
  -8  -1  -4 13.2514 1.30260   8
   8   1   4 14.2661 1.32192   8
  -9  -1  -4 2.19324 0.55372   8
   9   1   4 3.13411 0.51658   8
  11  -2  -4 20.8777 1.82114  17
  11  -2  -4 20.3663 1.40362   9
  10  -2  -4 20.9171 1.59031   9
  10  -2  -4 24.2745 1.46095   8
   9  -2  -4 17.4458 1.29286   9
   9  -2  -4 17.7296 1.20678   8
   9  -2  -4 16.9461 1.75613  16
   8  -2  -4 10.9355 1.03728   9
   8  -2  -4 13.3480 1.48260  16
   8  -2  -4 7.27323 2.23600   3
   8  -2  -4 12.5380 1.04819   8
   8  -2  -4 11.7577 2.58426   2
   7  -2  -4 33.8253 1.88933   8
   7  -2  -4 31.3119 1.92318   9
   7  -2  -4 33.7872 3.57748   2
   7  -2  -4 31.7107 3.51500   3
   6  -2  -4 36.0591 3.39524   6
   6  -2  -4 41.2135 3.51202   3
   6  -2  -4 39.7084 3.34301   2
   6  -2  -4 31.5842 1.95093   8
   5  -2  -4 601.215 38.5503   6
   5  -2  -4 628.574 35.7200   2
   5  -2  -4 647.753 38.5956   3
   4  -2  -4 622.684 35.3668   6
   4  -2  -4 544.781 29.6288   1
   4  -2  -4 603.477 35.2206   3
   4  -2  -4 597.479 32.5768   2
   4  -2  -4 515.543 29.6168   1
  -4   2   4 556.010 29.7375   1
   3  -2  -4 44.1929 3.19047   3
   3  -2  -4 41.1350 2.71687   1
   3  -2  -4 44.4319 3.05414   2
   3  -2  -4 40.5998 3.30728   6
   3  -2  -4 36.3728 2.65582   1
  -3   2   4 42.5922 2.81076   1
  -3   2   4 37.2140 2.73679   1
   2  -2  -4 160.549 8.52452   1
   2  -2  -4 173.686 9.42202   2
   2  -2  -4 130.078 9.99371   3
   2  -2  -4 173.725 10.3332   5
   2  -2  -4 157.696 10.1852   6
   2  -2  -4 160.003 10.0780   3
  -2   2   4 157.319 8.56241   1
  -2   2   4 140.032 10.0466   3
  -2   2   4 171.901 8.59860   1
   1  -2  -4 64.8423 4.70919   5
   1  -2  -4 65.2740 4.56440   3
   1  -2  -4 71.6318 4.37419   2
   1  -2  -4 60.3263 4.58321   3
   1  -2  -4 71.5058 3.95961   1
  -1   2   4 69.4992 3.95419   1
  -1   2   4 70.7512 3.98322   1
  -1   2   4 59.6890 4.55896   3
   0  -2  -4 201.388 12.3765   3
   0  -2  -4 190.515 10.4781   1
   0  -2  -4 203.292 12.6325   5
   0  -2  -4 198.692 11.5278   2
   0  -2  -4 197.736 10.4802   1
   0   2   4 197.645 10.5276   1
   0   2   4 171.226 12.3310   3
   0   2   4 208.705 10.5330   1
  -1  -2  -4 67.9406 4.52548   3
  -1  -2  -4 60.4764 3.84188   1
  -1  -2  -4 67.1026 4.30630   2
  -1  -2  -4 53.7487 3.75631   1
  -1  -2  -4 62.5438 4.66308   5
   1   2   4 57.2636 3.86883   1
   1   2   4 61.1392 3.90295   1
  -2  -2  -4 24.8748 2.39242   3
  -2  -2  -4 24.3036 2.20604   1
  -2  -2  -4 29.5672 2.53062   2
  -2  -2  -4 28.5049 2.69179   5
   2   2   4 23.5679 2.15256   1
  -3  -2  -4 485.154 30.7376   5
  -3  -2  -4 494.357 28.2840   2
  -3  -2  -4 485.031 30.4421   3
  -4  -2  -4 3.76263 1.37680   2
  -4  -2  -4 1.46672 1.24561   5
  -4  -2  -4 2.42461 0.48497   8
  -4  -2  -4 0.81908 1.14215   3
  -5  -2  -4 96.4978 7.13972   5
  -5  -2  -4 85.3756 4.38569   8
  -5  -2  -4 69.8534 6.73182   3
  -5  -2  -4 81.0660 6.72650   2
  -6  -2  -4 2.48735 2.07853   5
  -6  -2  -4 5.39727 0.74473   8
  -7  -2  -4 7.47989 1.08163  13
  -7  -2  -4 9.06621 0.92484   8
  -8  -2  -4 19.3004 1.74045  13
  -8  -2  -4 22.9053 1.46260   8
  -9  -2  -4 0.78939 0.25726   8
  -9  -2  -4 0.60471 0.40015   9
   9   2   4 1.17346 0.39217   8
  11  -3  -4 1.20217 0.69417  17
  10  -3  -4 154.203 7.62990   9
  10  -3  -4 156.573 7.66643   8
   9  -3  -4 11.0159 0.99934  10
   9  -3  -4 9.81828 1.37968  16
   9  -3  -4 13.2421 0.95812   8
   9  -3  -4 11.8848 1.12116   9
   8  -3  -4 0.17356 1.05293   2
   8  -3  -4 0.40906 0.34850   8
   8  -3  -4 -0.2864 0.41443  10
   8  -3  -4 0.26779 1.38860   7
   8  -3  -4 0.83830 1.35412   3
   8  -3  -4 -0.0365 0.27751   9
   8  -3  -4 0.38235 0.65961  16
   7  -3  -4 0.36988 1.20454   6
   7  -3  -4 0.54074 0.37527   9
   7  -3  -4 -0.0297 1.03079   2
   7  -3  -4 0.93731 0.65402  16
   7  -3  -4 0.14289 0.38698  10
   7  -3  -4 0.05691 0.97692   3
   7  -3  -4 1.32423 0.35416   8
   7  -3  -4 2.05756 1.71055   7
   6  -3  -4 386.633 23.2424   3
   6  -3  -4 348.859 17.2239   9
   6  -3  -4 377.035 23.4622   6
   6  -3  -4 334.267 17.7842   8
   6  -3  -4 398.749 21.7030   2
   5  -3  -4 31.6568 2.87290   3
   5  -3  -4 31.2560 2.75959   2
   5  -3  -4 33.0174 3.09407   6
   4  -3  -4 7.87821 1.33437   7
   4  -3  -4 9.35759 1.36636   3
   4  -3  -4 9.05021 1.57664   6
   4  -3  -4 9.31116 1.30656   2
   3  -3  -4 65.5980 4.08496   1
   3  -3  -4 75.9318 4.55343   2
   3  -3  -4 67.4694 4.77595   3
   3  -3  -4 59.9300 4.47425   7
   3  -3  -4 74.9569 5.18013   6
   3  -3  -4 75.8824 5.19538   5
   3  -3  -4 70.2364 4.10024   1
  -3   3   4 62.0109 4.08713   1
  -3   3   4 72.1378 4.17174   1
   2  -3  -4 48.6457 3.54685   2
   2  -3  -4 51.7873 3.19594   1
   2  -3  -4 51.0274 4.00660   6
   2  -3  -4 50.2614 3.20541   1
   2  -3  -4 46.6853 3.70555   3
   2  -3  -4 55.6957 3.74029   3
   2  -3  -4 56.3549 4.13097   5
   2  -3  -4 58.6829 3.58998   2
  -2   3   4 47.5326 3.19424   1
  -2   3   4 52.6866 3.22067   1
   1  -3  -4 108.693 7.89045   2
   1  -3  -4 135.766 7.28022   1
   1  -3  -4 134.897 8.95477   5
   1  -3  -4 143.409 8.55443   3
   1  -3  -4 123.348 8.56124   3
   1  -3  -4 127.663 7.23181   1
   1  -3  -4 142.747 8.03143   2
   1  -3  -4 142.572 8.81985   6
  -1   3   4 133.223 7.27759   1
  -1   3   4 131.988 7.29419   1
   0  -3  -4 73.1925 5.22462   5
   0  -3  -4 70.1689 4.53108   2
   0  -3  -4 63.4215 4.04430   1
   0  -3  -4 72.8942 4.76685   3
   0  -3  -4 67.7141 4.11313   1
   0  -3  -4 70.9675 4.95085   6
   0   3   4 64.0602 4.09214   1
   0   3   4 60.1300 4.06657   1
  -1  -3  -4 70.4147 5.58216   5
  -1  -3  -4 76.0967 5.00257   2
  -1  -3  -4 73.8324 5.25406   3
  -2  -3  -4 61.4162 5.16460   5
  -2  -3  -4 61.5709 4.61210   2
  -2  -3  -4 66.2921 4.86493   3
  -3  -3  -4 1.25155 1.08709   5
  -3  -3  -4 -1.1456 0.87588   2
  -3  -3  -4 0.27772 0.90182   3
  -3  -3  -4 0.12753 0.30909   8
  -4  -3  -4 43.9322 2.56105  10
  -4  -3  -4 51.1637 4.42484   2
  -4  -3  -4 45.3373 2.53829   9
  -4  -3  -4 46.2285 3.21589  13
  -4  -3  -4 46.0659 4.44602   3
  -4  -3  -4 44.6286 2.54125   8
  -4  -3  -4 53.1320 4.73984   5
  -5  -3  -4 23.0032 3.20833   2
  -5  -3  -4 21.2398 1.50989   9
  -5  -3  -4 24.8117 1.51272   8
  -5  -3  -4 17.8538 3.11053   3
  -5  -3  -4 26.6749 2.09213  13
  -5  -3  -4 24.7988 3.72312   5
  -6  -3  -4 0.25079 0.44656   8
  -6  -3  -4 0.61934 0.55897  13
  -6  -3  -4 0.23926 0.55481   9
  -7  -3  -4 0.47349 0.57047   9
  -7  -3  -4 1.45043 0.61694  13
  -7  -3  -4 0.41995 0.41004   8
  -8  -3  -4 0.38207 0.51141  13
  -8  -3  -4 0.17214 0.27088   8
  -8  -3  -4 -1.1152 0.51880   9
  11  -4  -4 49.5486 2.82426  10
  11  -4  -4 53.9199 2.74611   9
  11  -4  -4 54.2157 3.54076  17
  10  -4  -4 9.73736 1.35323  16
  10  -4  -4 9.94191 0.95181  10
  10  -4  -4 9.98461 0.94973   9
  10  -4  -4 7.97897 1.25720  17
   9  -4  -4 18.3078 1.96400  17
   9  -4  -4 17.6177 1.27881   9
   9  -4  -4 15.9260 0.96081   8
   9  -4  -4 17.5313 1.86718  16
   9  -4  -4 17.3708 1.33052  10
   8  -4  -4 28.9711 5.19779   7
   8  -4  -4 43.6096 2.29900   9
   8  -4  -4 41.4553 3.18983  16
   8  -4  -4 39.1318 4.08614   2
   8  -4  -4 34.0693 4.27232   6
   8  -4  -4 39.4627 4.00889   3
   8  -4  -4 42.5951 2.18791   8
   8  -4  -4 40.3067 2.29681  10
   7  -4  -4 12.9773 0.97781   9
   7  -4  -4 12.0618 2.47269   6
   7  -4  -4 11.6546 2.05040   3
   7  -4  -4 12.1152 2.00645   2
   7  -4  -4 14.7719 1.39789  14
   7  -4  -4 13.6972 0.88161   8
   7  -4  -4 12.7829 2.85478   7
   7  -4  -4 13.5815 1.40625  16
   6  -4  -4 23.5458 1.34428   9
   6  -4  -4 24.3966 2.01185  16
   6  -4  -4 22.1853 1.81154  14
   6  -4  -4 22.6382 2.75662   6
   6  -4  -4 24.4000 2.47136   3
   6  -4  -4 19.8488 1.84362  15
   6  -4  -4 23.9652 1.36996  10
   6  -4  -4 22.2281 2.54171   2
   6  -4  -4 21.2918 1.23088   8
   6  -4  -4 20.1059 3.04139   7
   5  -4  -4 231.830 15.0964   6
   5  -4  -4 237.959 13.5204   2
   5  -4  -4 230.034 14.4959   3
   5  -4  -4 206.567 14.5214   7
   4  -4  -4 194.747 11.3530   2
   4  -4  -4 192.952 12.2229   3
   4  -4  -4 186.435 12.7775   6
   3  -4  -4 364.644 21.5540   3
   3  -4  -4 346.769 19.9116   2
   3  -4  -4 338.540 22.1531   5
   3  -4  -4 345.141 22.0684   6
   2  -4  -4 40.5509 2.80733   3
   2  -4  -4 40.0863 3.44197   5
   2  -4  -4 40.6365 2.70850   2
   2  -4  -4 38.5458 3.27222   6
   2  -4  -4 31.5117 2.38624   1
   2  -4  -4 31.8544 2.70432   2
   2  -4  -4 36.4122 2.84764   3
   1  -4  -4 240.585 14.2863   3
   1  -4  -4 213.718 14.5989   6
   1  -4  -4 226.399 15.0134   5
   1  -4  -4 229.802 13.3099   2
   0  -4  -4 249.408 16.3368   6
   0  -4  -4 261.080 15.0642   2
   0  -4  -4 254.386 16.8772   5
   0  -4  -4 263.080 16.1509   3
  -1  -4  -4 108.246 7.22217   3
  -1  -4  -4 103.241 6.80008   2
  -1  -4  -4 102.741 7.82827   5
  -2  -4  -4 7.75730 0.99882  13
  -2  -4  -4 7.66938 1.75724   5
  -2  -4  -4 8.81693 1.59321   3
  -2  -4  -4 7.02983 0.69370  10
  -2  -4  -4 6.22880 0.61068   8
  -2  -4  -4 7.65228 0.68246   9
  -2  -4  -4 8.26999 1.59259   2
  -3  -4  -4 4.59369 0.59890   9
  -3  -4  -4 5.28715 0.87725  13
  -3  -4  -4 4.69664 1.48166   2
  -3  -4  -4 3.96233 1.77615   5
  -3  -4  -4 4.61814 0.53810   8
  -3  -4  -4 5.34772 1.55961   3
  -3  -4  -4 5.19272 0.63440  10
  -4  -4  -4 -0.1032 0.28598  10
  -4  -4  -4 0.37566 0.33663   8
  -4  -4  -4 -0.4138 1.29008   2
  -4  -4  -4 0.54330 1.56960   5
  -4  -4  -4 -0.4960 1.29916   3
  -4  -4  -4 0.61361 0.51715  13
  -4  -4  -4 0.07071 0.37799   9
  -5  -4  -4 26.4525 1.63843   8
  -5  -4  -4 24.7883 2.23255  13
  -5  -4  -4 26.7587 1.75186  10
  -5  -4  -4 25.9865 1.63653   9
  -5  -4  -4 22.4075 3.77998   5
  -6  -4  -4 15.4375 1.54055  13
  -6  -4  -4 13.5164 1.18109  10
  -6  -4  -4 15.6498 1.02733   8
  -6  -4  -4 15.2000 1.26949   9
  -7  -4  -4 2.10267 0.45472   9
  -7  -4  -4 2.99424 0.73602  13
  -8  -4  -4 5.14761 0.53405   9
  -8  -4  -4 3.81167 0.63670  13
  11  -5  -4 3.61100 0.62346  10
  11  -5  -4 3.79808 0.70042  16
  11  -5  -4 5.53020 0.79780  17
  11  -5  -4 6.06101 0.50602   9
  10  -5  -4 0.66515 0.78848  17
  10  -5  -4 -0.4269 0.53701  16
  10  -5  -4 0.18562 0.33390   9
  10  -5  -4 0.07948 0.46500  10
   9  -5  -4 123.354 6.09182  10
   9  -5  -4 125.478 8.09490  16
   9  -5  -4 120.672 7.64144  17
   9  -5  -4 118.860 5.96975   9
   8  -5  -4 11.2599 0.93397   9
   8  -5  -4 13.4394 1.52301  17
   8  -5  -4 12.1834 1.44721  16
   8  -5  -4 12.4855 1.02301  10
   8  -5  -4 8.91377 2.43287   6
   7  -5  -4 32.5082 3.03551   2
   7  -5  -4 33.6972 2.69230  16
   7  -5  -4 29.8864 2.50889  15
   7  -5  -4 33.4401 2.46389  14
   7  -5  -4 28.3073 2.49244  17
   7  -5  -4 33.2266 4.10276   6
   7  -5  -4 28.9861 3.02619   3
   7  -5  -4 30.7336 1.73475   9
   7  -5  -4 33.1936 1.82772  10
   6  -5  -4 1.39270 0.34586  10
   6  -5  -4 1.38029 0.91152   3
   6  -5  -4 0.84962 0.54166  14
   6  -5  -4 0.77783 0.30415   9
   6  -5  -4 0.75464 0.71125  16
   6  -5  -4 0.99296 1.28212   6
   6  -5  -4 -0.4073 0.77831   2
   6  -5  -4 0.83172 0.60464  15
   5  -5  -4 2.51067 0.66917  16
   5  -5  -4 1.72748 0.64932   2
   5  -5  -4 3.03244 0.37953  10
   5  -5  -4 3.85221 0.69145  13
   5  -5  -4 2.20547 1.24946   6
   5  -5  -4 2.05860 0.52146  14
   5  -5  -4 1.50701 0.65073  15
   5  -5  -4 2.59354 0.89942   3
   5  -5  -4 2.43002 0.28832   9
   4  -5  -4 156.835 9.24868   2
   4  -5  -4 149.987 10.8878   6
   4  -5  -4 162.395 10.0156   3
   3  -5  -4 0.51882 0.38509   2
   3  -5  -4 0.40924 0.40723   3
   3  -5  -4 0.37619 0.49703   2
   3  -5  -4 -0.2187 0.34230   3
   3  -5  -4 0.78848 0.88393   5
   3  -5  -4 0.67550 0.91892   6
   2  -5  -4 0.27710 0.39366   2
   2  -5  -4 0.27583 0.82207   6
   2  -5  -4 0.07662 0.39726   3
   2  -5  -4 0.60514 0.52718   2
   2  -5  -4 0.39006 0.39025   3
   2  -5  -4 0.96474 0.78431   5
   1  -5  -4 31.8832 2.46677   3
   1  -5  -4 34.1554 2.48586   2
   1  -5  -4 32.9260 3.32953   5
   1  -5  -4 29.2545 2.98329   6
   0  -5  -4 7.52215 1.20627   3
   0  -5  -4 8.11737 1.25693  14
   0  -5  -4 7.96187 0.90763  11
   0  -5  -4 7.46097 1.66935   5
   0  -5  -4 6.41518 0.57605   9
   0  -5  -4 5.67867 0.56811  10
   0  -5  -4 8.52435 1.28666   2
  -1  -5  -4 29.1476 1.57563   9
  -1  -5  -4 28.4784 2.05505  11
  -1  -5  -4 26.9695 1.59358  10
  -1  -5  -4 31.6655 2.84408   2
  -1  -5  -4 26.8859 2.59291   3
  -1  -5  -4 27.6842 2.10280  13
  -1  -5  -4 25.7060 2.13672  12
  -1  -5  -4 29.2241 3.33899   5
  -1  -5  -4 30.1694 2.50432  14
  -2  -5  -4 32.8246 2.98592  14
  -2  -5  -4 33.4816 1.85791   9
  -2  -5  -4 40.2797 3.32722   2
  -2  -5  -4 32.3915 3.19379   3
  -2  -5  -4 30.8368 2.46359  12
  -2  -5  -4 33.8091 2.48434  13
  -2  -5  -4 37.6586 3.97869   5
  -2  -5  -4 34.3193 1.88328  10
  -3  -5  -4 159.822 12.2446   5
  -3  -5  -4 173.101 7.97111   9
  -3  -5  -4 155.546 7.99963   8
  -3  -5  -4 167.960 10.1162  13
  -3  -5  -4 162.380 11.3722   3
  -3  -5  -4 170.624 8.05157  10
  -3  -5  -4 171.614 10.8083   2
  -3  -5  -4 154.994 10.8297  14
  -4  -5  -4 64.5656 5.04630  14
  -4  -5  -4 70.5338 4.72724  13
  -4  -5  -4 72.3659 3.62538   9
  -4  -5  -4 70.4496 3.68892  10
  -4  -5  -4 65.8721 6.53263   5
  -5  -5  -4 3.40669 0.67286  10
  -5  -5  -4 2.45930 1.15016  14
  -5  -5  -4 3.48681 0.59113   9
  -5  -5  -4 1.91729 0.91136  13
  -6  -5  -4 31.8045 1.93826  10
  -6  -5  -4 29.8898 2.44392  13
  -6  -5  -4 34.6255 1.89972   9
  -7  -5  -4 -0.0601 0.41899  13
  -7  -5  -4 0.65514 0.37487  10
  -7  -5  -4 0.34898 0.31244   9
  11  -6  -4 7.63240 0.95743  16
  11  -6  -4 5.22511 0.76490  17
  11  -6  -4 7.70842 0.69661  10
  10  -6  -4 2.48386 0.67980  17
  10  -6  -4 2.72351 0.80131  16
  10  -6  -4 3.06546 0.54223  10
   9  -6  -4 1.81337 0.48545  10
   9  -6  -4 2.70886 0.37048   9
   9  -6  -4 2.07948 0.88696  17
   9  -6  -4 2.94001 0.85835  16
   8  -6  -4 -0.2132 0.72377  17
   8  -6  -4 -0.2116 0.64208  16
   8  -6  -4 -0.7727 1.29076   6
   8  -6  -4 0.32609 0.62080  15
   8  -6  -4 0.33857 0.32529   9
   8  -6  -4 0.19489 0.34516  10
   7  -6  -4 4.39601 1.28202   2
   7  -6  -4 6.24415 1.12866  16
   7  -6  -4 6.24914 0.97601  15
   7  -6  -4 5.11040 0.57441  10
   7  -6  -4 5.53989 0.51648   9
   7  -6  -4 5.43821 2.08603   6
   7  -6  -4 3.03742 1.09809   3
   7  -6  -4 4.99136 0.92389  14
   6  -6  -4 753.522 45.6192  15
   6  -6  -4 674.029 44.6942   3
   6  -6  -4 728.565 46.3912   6
   6  -6  -4 729.675 34.3354   9
   6  -6  -4 768.601 45.1666  14
   6  -6  -4 780.317 45.2675  16
   5  -6  -4 184.189 10.4147  13
   5  -6  -4 167.320 11.0012  15
   5  -6  -4 171.993 10.8779  14
   5  -6  -4 163.357 12.1726   6
   5  -6  -4 167.891 10.9464  16
   4  -6  -4 25.8307 2.00000  12
   4  -6  -4 23.4560 2.06227  14
   4  -6  -4 27.8319 3.44081   6
   4  -6  -4 23.9297 1.30944  10
   4  -6  -4 23.9814 2.07964  15
   4  -6  -4 22.2090 2.07223  16
   4  -6  -4 23.3393 1.84672  13
   4  -6  -4 28.2318 3.20412   5
   3  -6  -4 6.29076 0.97391  15
   3  -6  -4 7.10329 0.90327  13
   3  -6  -4 5.78377 0.48245  10
   3  -6  -4 5.82865 1.53029   5
   3  -6  -4 5.92775 0.76735  11
   3  -6  -4 5.82210 1.51155   6
   3  -6  -4 6.90468 0.93897  12
   3  -6  -4 6.23934 0.91421  14
   2  -6  -4 118.064 7.18787  12
   2  -6  -4 114.164 7.22624  14
   2  -6  -4 100.823 7.18410  15
   2  -6  -4 110.403 8.48892   5
   2  -6  -4 111.453 5.33431  10
   2  -6  -4 104.197 8.04505   6
   2  -6  -4 110.954 6.90494  13
   2  -6  -4 114.104 6.71006  11
   1  -6  -4 98.4137 7.21385  15
   1  -6  -4 112.716 6.97989  13
   1  -6  -4 110.038 7.32123  14
   1  -6  -4 115.582 7.21842  12
   1  -6  -4 115.393 8.75963   5
   1  -6  -4 119.525 6.77443  11
   0  -6  -4 45.6197 3.13922  12
   0  -6  -4 45.0926 3.18158   2
   0  -6  -4 46.3882 3.30506  14
   0  -6  -4 46.5096 2.95316  11
   0  -6  -4 39.8775 2.98984  13
   0  -6  -4 41.7634 2.15159   9
   0  -6  -4 41.9688 2.24839  10
   0  -6  -4 39.3473 3.11719   3
   0  -6  -4 43.9837 4.49973   5
  -1  -6  -4 44.5149 2.27054   9
  -1  -6  -4 51.9583 3.07204  11
  -1  -6  -4 44.0054 2.34094  10
  -1  -6  -4 41.6951 3.52049   2
  -1  -6  -4 43.2846 3.55652  14
  -1  -6  -4 40.2840 3.14638  12
  -1  -6  -4 43.5020 3.18507  13
  -1  -6  -4 40.5147 3.46571   3
  -1  -6  -4 40.5687 4.76574   5
  -2  -6  -4 4.53318 1.57094   3
  -2  -6  -4 7.50144 1.04673  12
  -2  -6  -4 8.76710 0.81364  10
  -2  -6  -4 11.2048 1.70910  14
  -2  -6  -4 5.39848 1.42679   2
  -2  -6  -4 7.41050 2.17910   5
  -2  -6  -4 9.31374 1.20138  13
  -2  -6  -4 8.87624 0.72347   9
  -3  -6  -4 124.941 9.18045  14
  -3  -6  -4 137.961 6.65994   9
  -3  -6  -4 141.176 6.77773  10
  -3  -6  -4 142.361 8.64697  13
  -4  -6  -4 32.6396 2.78450  13
  -4  -6  -4 35.4860 3.09314  14
  -4  -6  -4 35.8713 2.06519  10
  -4  -6  -4 34.0229 1.91681   9
  -5  -6  -4 0.33084 0.47921  10
  -5  -6  -4 -0.1836 0.76247  13
  -5  -6  -4 0.45153 0.37348   9
  -6  -6  -4 17.9635 1.10483  10
  -6  -6  -4 15.3257 0.81249   9
  -6  -6  -4 16.0595 1.41479  13
  11  -7  -4 123.964 7.88936  16
  10  -7  -4 11.3497 1.54552  16
  10  -7  -4 14.1090 0.94388  10
   9  -7  -4 4.52497 1.04754  16
   9  -7  -4 2.51479 0.80310  15
   9  -7  -4 3.42205 0.48441  10
   8  -7  -4 0.35734 0.67649  14
   8  -7  -4 0.42789 0.30565  10
   8  -7  -4 0.13737 0.54522  15
   8  -7  -4 0.93139 1.06812  16
   7  -7  -4 118.690 7.42655  14
   7  -7  -4 110.444 7.53015  15
   7  -7  -4 122.744 7.74674  16
   7  -7  -4 96.6432 8.83295   6
   7  -7  -4 109.621 5.48361  10
   6  -7  -4 292.166 14.1179  10
   6  -7  -4 322.271 17.8729  13
   6  -7  -4 269.807 20.1040   6
   6  -7  -4 309.336 18.8265  16
   6  -7  -4 303.859 18.6373  14
   6  -7  -4 288.570 18.8455  15
   5  -7  -4 39.1457 3.15336  15
   5  -7  -4 39.6973 3.18062  16
   5  -7  -4 39.6000 4.55209   6
   5  -7  -4 42.4743 2.92841  13
   5  -7  -4 38.8795 3.05169  14
   4  -7  -4 21.1920 1.97770  14
   4  -7  -4 21.4089 1.13626  10
   4  -7  -4 20.6103 2.04526  15
   4  -7  -4 22.2109 1.90575  13
   4  -7  -4 24.1589 1.96364  12
   4  -7  -4 21.6954 3.15702   6
   4  -7  -4 22.0076 3.32953   5
   4  -7  -4 18.9142 1.83081  16
   3  -7  -4 144.411 10.5537   5
   3  -7  -4 139.703 9.04394  14
   3  -7  -4 133.056 6.62086  10
   3  -7  -4 140.905 8.64891  13
   3  -7  -4 148.935 8.41248  11
   3  -7  -4 143.317 8.99534  12
   3  -7  -4 127.063 10.1140   6
   3  -7  -4 138.050 9.10223  15
   2  -7  -4 126.004 8.24931  14
   2  -7  -4 113.559 8.17770  15
   2  -7  -4 124.658 7.85911  13
   2  -7  -4 123.543 6.00649  10
   2  -7  -4 133.942 7.63121  11
   2  -7  -4 133.167 8.15623  12
   2  -7  -4 125.492 9.79138   5
   1  -7  -4 5.92038 1.19841  14
   1  -7  -4 7.12331 2.28829   5
   1  -7  -4 6.24701 0.91525  11
   1  -7  -4 6.01321 0.56834  10
   1  -7  -4 7.16532 1.03197  13
   1  -7  -4 6.94456 1.05148  12
   0  -7  -4 28.9456 2.43487  12
   0  -7  -4 32.5241 2.24046  11
   0  -7  -4 29.9425 2.76882  14
   0  -7  -4 27.7488 4.40987   5
   0  -7  -4 29.8674 2.48527  13
   0  -7  -4 29.3230 1.66184  10
  -1  -7  -4 7.57735 1.23943  13
  -1  -7  -4 8.66516 1.11052  12
  -1  -7  -4 8.69506 0.81225  10
  -1  -7  -4 9.30492 1.59010  14
  -1  -7  -4 3.25802 2.30612   5
  -2  -7  -4 2.26305 0.59989  12
  -2  -7  -4 0.91595 1.20792  14
  -2  -7  -4 2.12360 0.85256  13
  -2  -7  -4 1.72609 0.42355  10
  -3  -7  -4 0.02591 0.33985  10
  -3  -7  -4 -0.0815 0.55129  13
  -3  -7  -4 -0.0449 1.06207  14
  -4  -7  -4 4.35512 0.56977  10
  -4  -7  -4 4.01914 0.80592  13
  -5  -7  -4 62.0465 4.04634  13
  11  -8  -4 0.43159 0.44491  16
  10  -8  -4 18.0249 1.94145  16
   9  -8  -4 1.23026 1.00814  16
   9  -8  -4 0.60858 0.55929  15
   9  -8  -4 0.57915 0.26298  10
   8  -8  -4 51.5564 3.43901  14
   8  -8  -4 46.0476 2.35292  10
   8  -8  -4 43.1212 3.53318  15
   8  -8  -4 48.1735 3.85206  16
   7  -8  -4 13.5582 1.76747  16
   7  -8  -4 10.2045 1.35640  14
   7  -8  -4 10.2640 0.63580  10
   7  -8  -4 11.4335 1.39259  15
   6  -8  -4 13.0112 1.83512  16
   6  -8  -4 15.6730 1.81913  15
   6  -8  -4 16.4293 1.65612  13
   6  -8  -4 16.3854 1.75222  14
   5  -8  -4 5.28532 0.92197  13
   5  -8  -4 5.47865 1.98488   6
   5  -8  -4 5.88768 1.08003  16
   5  -8  -4 5.29786 0.99996  15
   5  -8  -4 4.01591 1.01872  14
   4  -8  -4 19.0994 1.68911  12
   4  -8  -4 17.5001 1.64703  13
   4  -8  -4 17.9884 1.77111  14
   4  -8  -4 11.5747 2.89732   6
   4  -8  -4 18.2234 1.79729  15
   3  -8  -4 30.5363 2.63314  14
   3  -8  -4 28.7701 4.15274   5
   3  -8  -4 30.7616 2.71522  15
   3  -8  -4 35.8483 2.65452  13
   3  -8  -4 34.9249 2.67479  12
   2  -8  -4 59.1118 3.92980  13
   2  -8  -4 46.1247 5.69348   5
   2  -8  -4 60.0091 4.26664  14
   2  -8  -4 51.1396 4.04107  15
   2  -8  -4 60.5561 4.09269  12
   1  -8  -4 7.19794 2.79815   5
   1  -8  -4 16.8073 1.93396  14
   1  -8  -4 14.5274 1.48209  12
   1  -8  -4 15.0733 1.70104  13
   1  -8  -4 13.8466 0.82496  10
   0  -8  -4 51.2853 3.55606  12
   0  -8  -4 45.8510 2.41461  10
   0  -8  -4 46.6728 3.51166  13
   0  -8  -4 44.7236 3.80745  14
  -1  -8  -4 7.01446 0.62945  10
  -1  -8  -4 7.25452 1.31366  14
  -1  -8  -4 6.50271 1.08028  13
  -1  -8  -4 5.00183 0.98159  12
  -2  -8  -4 16.4529 1.57712  13
  -2  -8  -4 13.7167 1.35595  12
  -2  -8  -4 11.3109 1.67149  14
  -3  -8  -4 3.05866 0.91923  13
  -4  -8  -4 1.99689 0.75049  13
  -4  -8  -4 2.90119 0.34884  10
  10  -9  -4 25.8427 2.11942  16
   9  -9  -4 17.9766 1.82905  16
   8  -9  -4 -0.7844 0.49007  15
   8  -9  -4 -0.4386 0.68078  14
   8  -9  -4 0.50186 1.00748  16
   6  -9  -4 5.98543 0.91018  13
   6  -9  -4 3.71378 1.06525  15
   6  -9  -4 2.76527 1.05181  16
   6  -9  -4 3.39236 1.00102  14
   5  -9  -4 12.3113 1.61104  15
   5  -9  -4 9.40165 1.38319  16
   5  -9  -4 13.9322 1.70187  14
   5  -9  -4 14.3945 1.42973  13
   4  -9  -4 3.02284 0.83341  14
   4  -9  -4 5.10361 0.96907  12
   4  -9  -4 3.55391 0.92219  13
   4  -9  -4 4.31581 0.96283  15
   3  -9  -4 1.54201 0.93722  14
   3  -9  -4 0.20293 0.76782  15
   3  -9  -4 1.26361 0.55653  12
   3  -9  -4 0.97683 0.57285  13
   2  -9  -4 -0.2023 0.77261  13
   2  -9  -4 0.50277 0.95976  14
   2  -9  -4 1.30312 0.59000  12
   1  -9  -4 22.2818 2.00477  13
   1  -9  -4 24.0092 1.97573  12
   1  -9  -4 18.4549 2.15742  14
   0  -9  -4 11.2643 1.71337  14
   0  -9  -4 10.1005 1.42719  13
   0  -9  -4 11.6394 1.31555  12
  -1  -9  -4 24.9136 2.48313  14
  -1  -9  -4 26.4447 2.09587  12
  -1  -9  -4 28.7521 2.39085  13
  -2  -9  -4 10.6238 1.27652  13
  -2  -9  -4 8.52408 0.94877  12
  -3  -9  -4 -0.1329 0.43511  13
   9 -10  -4 0.48849 0.66008  16
   9 -10  -4 0.59594 0.45938  15
   8 -10  -4 25.5783 2.03795  15
   8 -10  -4 22.9920 2.33492  16
   7 -10  -4 91.2749 6.09033  15
   7 -10  -4 81.0211 6.05607  16
   7 -10  -4 98.4101 6.00921  14
   6 -10  -4 5.62509 0.97074  15
   6 -10  -4 2.11257 0.89804  14
   5 -10  -4 9.10203 1.24256  13
   5 -10  -4 9.50219 1.37140  15
   5 -10  -4 11.1264 1.42268  14
   4 -10  -4 2.05163 0.87231  15
   4 -10  -4 1.63160 0.65548  13
   4 -10  -4 2.62637 0.81057  14
   3 -10  -4 39.4472 2.99503  13
   3 -10  -4 38.2888 2.89388  12
   3 -10  -4 38.8784 3.07523  14
   2 -10  -4 35.8203 3.08792  14
   2 -10  -4 37.4247 2.84646  12
   2 -10  -4 35.6589 2.72473  13
   1 -10  -4 8.92052 1.40024  14
   1 -10  -4 7.55671 0.98396  12
   1 -10  -4 5.93616 1.13931  13
   0 -10  -4 1.33919 0.71089  12
   0 -10  -4 1.58801 0.67959  13
   0 -10  -4 1.80081 0.71797  14
  -1 -10  -4 2.01879 0.60575  13
  -1 -10  -4 1.97314 0.49845  12
   8 -11  -4 0.85646 0.43002  15
   7 -11  -4 85.3530 5.66567  15
   6 -11  -4 1.91299 0.66241  15
   6 -11  -4 1.29688 0.78336  14
   5 -11  -4 3.49514 0.75747  15
   5 -11  -4 4.34033 0.77143  13
   5 -11  -4 3.47001 0.83931  14
   4 -11  -4 17.4966 1.71766  14
   4 -11  -4 18.1673 1.58882  13
   3 -11  -4 25.2109 1.82440  13
   3 -11  -4 17.8003 1.86711  14
   2 -11  -4 0.06419 0.53370  14
   2 -11  -4 -0.2085 0.47397  13
   1 -11  -4 5.07245 0.78408  13
   1 -11   5 -0.2983 0.49506  12
   1 -11   5 -0.4081 0.47405  11
   2 -11   5 18.1483 1.67257  11
   2 -11   5 19.6674 1.72816  18
   3 -11   5 58.6612 3.95730  11
   3 -11   5 61.7939 4.08674  18
   4 -11   5 2.04754 0.57281  11
   4 -11   5 1.99492 0.71278  18
   4 -11   5 2.14751 0.65789  17
   5 -11   5 5.65542 1.01151  17
   5 -11   5 5.19885 0.86593  18
   6 -11   5 5.42278 0.84176  17
   6 -11   5 4.54881 0.93078  18
   7 -11   5 38.9736 2.64905  17
  -2 -10   5 28.1861 2.29758  12
  -1 -10   5 2.09798 0.79418  12
  -1 -10   5 -1.3033 0.62806  11
   0 -10   5 17.1514 1.88706  12
   0 -10   5 18.4049 1.91591  18
   1 -10   5 63.4523 4.04533  11
   1 -10   5 61.8725 4.11429  18
   1 -10   5 52.9013 4.24324  12
   2 -10   5 25.2510 2.12130  18
   2 -10   5 20.7008 2.11590  12
   2 -10   5 24.6795 1.99949  17
   2 -10   5 24.9080 2.24654  11
   3 -10   5 37.8272 2.96657  11
   3 -10   5 37.9090 3.10719  18
   3 -10   5 40.7663 2.96588  17
   4 -10   5 18.4184 2.05531  18
   4 -10   5 16.1782 1.56136  11
   4 -10   5 16.5246 1.69502  16
   4 -10   5 19.5593 1.74541  17
   5 -10   5 24.5515 2.24121  16
   5 -10   5 23.0726 2.17108  18
   5 -10   5 24.8341 2.28640  17
   6 -10   5 44.6572 3.33637  16
   6 -10   5 44.6050 3.29509  17
   6 -10   5 44.3502 3.44167  18
   7 -10   5 15.9858 1.79205  17
   7 -10   5 12.7594 1.37371  16
   7 -10   5 12.7460 1.40995  18
   8 -10   5 0.92977 0.64614  17
   8 -10   5 0.69713 0.52922  16
  -4  -9   5 0.55744 0.50427  12
  -3  -9   5 4.78582 0.90041  12
  -2  -9   5 10.6784 1.21168  11
  -2  -9   5 13.5905 1.73449  12
  -1  -9   5 0.65102 0.71727  11
  -1  -9   5 0.56753 0.72597  12
  -1  -9   5 -0.2751 0.59247  18
   0  -9   5 107.844 7.50588  12
   0  -9   5 108.997 7.09771  18
   0  -9   5 110.121 6.91024  11
   1  -9   5 23.3085 2.26591  18
   1  -9   5 19.4192 2.11658  12
   1  -9   5 25.8289 2.23440  17
   1  -9   5 24.7248 2.22759  11
   2  -9   5 1.98621 0.83682  12
   2  -9   5 4.99276 1.12296  18
   2  -9   5 5.61702 0.92289  11
   2  -9   5 5.04895 0.94408  17
   3  -9   5 5.17803 1.02225  18
   3  -9   5 5.57697 0.92642  11
   3  -9   5 4.69055 1.10484  17
   3  -9   5 5.19526 1.10022  16
   4  -9   5 85.4170 5.85745  11
   4  -9   5 95.6909 6.29771  16
   4  -9   5 93.9369 5.97919  17
   4  -9   5 96.8107 6.29086  18
   5  -9   5 3.73067 0.94760  17
   5  -9   5 5.37219 1.09556  18
   5  -9   5 5.69802 1.04497  16
   6  -9   5 7.10321 1.32484  16
   6  -9   5 6.24297 1.16257  17
   6  -9   5 7.70248 1.43492  18
   7  -9   5 15.7084 1.80325  18
   7  -9   5 18.4947 1.89429  16
   7  -9   5 17.8201 1.77929  17
   8  -9   5 18.1045 1.93680  17
   8  -9   5 16.4489 1.72242  16
   9  -9   5 129.107 7.11342  17
   9  -9   5 107.756 7.37011  16
  -5  -8   5 14.1064 0.82945  10
  -5  -8   5 13.4973 1.47359  12
  -4  -8   5 19.6777 1.20645  10
  -4  -8   5 20.5463 2.08663  12
  -3  -8   5 1.44782 0.35786  10
  -3  -8   5 1.31345 0.53734  11
  -3  -8   5 0.63417 0.97271  12
  -2  -8   5 2.97595 0.79954  18
  -2  -8   5 2.68079 0.39590  10
  -2  -8   5 1.83142 0.78606  11
  -2  -8   5 3.43467 0.97537  12
  -1  -8   5 140.754 6.79276  10
  -1  -8   5 138.864 8.73630  11
  -1  -8   5 149.166 9.55540  12
  -1  -8   5 139.829 9.00570  18
   0  -8   5 6.94060 0.48233  10
   0  -8   5 6.76280 1.13565  17
   0  -8   5 3.23614 2.40851   4
   0  -8   5 7.88019 1.08268  11
   0  -8   5 8.60974 1.28595  18
   0  -8   5 7.72427 1.36934  12
   1  -8   5 28.9530 2.42104  18
   1  -8   5 24.5915 2.38900  12
   1  -8   5 20.9002 3.65549   4
   1  -8   5 23.7037 2.24322  11
   1  -8   5 26.8403 2.13792  17
   2  -8   5 1.21136 0.75186  11
   2  -8   5 1.97181 2.04491   4
   2  -8   5 2.88845 0.91935  16
   2  -8   5 2.11631 0.63012  12
   2  -8   5 1.84166 0.71025  18
   2  -8   5 2.03343 0.72572  17
   3  -8   5 97.2351 8.82754   7
   3  -8   5 108.109 6.87307  11
   3  -8   5 109.125 7.18993  18
   3  -8   5 112.629 6.86262  17
   3  -8   5 113.002 7.24251  16
   4  -8   5 463.405 26.5765  15
   4  -8   5 448.194 24.7188  17
   4  -8   5 380.480 27.5513   7
   4  -8   5 449.496 26.3716  16
   4  -8   5 432.995 25.8961  18
   4  -8   5 375.563 24.8849  11
   5  -8   5 49.1474 3.71091  18
   5  -8   5 35.1950 5.36307   7
   5  -8   5 52.3472 3.54977  15
   5  -8   5 45.5237 3.55847  16
   5  -8   5 40.5482 3.36353  17
   6  -8   5 1.63695 0.93454  16
   6  -8   5 1.00583 0.99395  18
   6  -8   5 0.74082 0.66465  17
   7  -8   5 1.47388 0.78993  18
   7  -8   5 1.84197 0.26793  10
   7  -8   5 2.02074 0.78652  16
   7  -8   5 0.65049 0.65572  17
   8  -8   5 27.7466 2.44415  18
   8  -8   5 31.2708 1.56978  10
   8  -8   5 31.1846 2.41253  16
   8  -8   5 33.8232 2.65760  17
   9  -8   5 3.71916 0.67068  16
   9  -8   5 3.84749 0.80576  17
  10  -8   5 2.76004 0.53725  17
  -6  -7   5 42.6947 3.32056  13
  -6  -7   5 60.1643 3.55821  12
  -5  -7   5 27.1433 1.58180  10
  -5  -7   5 25.3362 2.16247  12
  -5  -7   5 21.9943 1.98897  13
  -4  -7   5 6.65863 1.25614  12
  -4  -7   5 4.66229 1.12786  13
  -4  -7   5 4.92139 0.64406  10
  -3  -7   5 20.8952 1.33216  10
  -3  -7   5 17.0843 1.67286  11
  -3  -7   5 22.7055 2.12552  12
  -2  -7   5 60.2001 4.09309  11
  -2  -7   5 61.4397 4.29778  18
  -2  -7   5 68.4969 4.76057  12
  -2  -7   5 53.4585 5.93299   4
  -2  -7   5 61.5147 3.16969  10
  -1  -7   5 26.6203 2.23606  11
  -1  -7   5 34.4903 2.80667  12
  -1  -7   5 31.0991 4.02969   4
  -1  -7   5 29.3204 1.62863  10
  -1  -7   5 30.3218 2.37501  18
   0  -7   5 27.2914 2.41147  12
   0  -7   5 24.8526 1.41982  10
   0  -7   5 27.0822 3.66347   4
   0  -7   5 27.2738 2.07830  17
   0  -7   5 26.5199 2.32281  18
   0  -7   5 26.6246 2.17325  11
   1  -7   5 -0.0508 0.16092  10
   1  -7   5 -0.3342 0.61735  17
   1  -7   5 0.75990 1.44765   4
   1  -7   5 0.09720 0.68625  16
   1  -7   5 0.67699 0.62316  11
   1  -7   5 -0.4518 0.55634  12
   1  -7   5 -0.7740 0.60334  18
   2  -7   5 268.024 15.6133  11
   2  -7   5 253.763 17.1056   4
   2  -7   5 272.810 16.4058  16
   2  -7   5 273.329 17.7293   7
   2  -7   5 275.082 15.3882  17
   2  -7   5 278.915 16.4877  15
   2  -7   5 267.197 16.1258  18
   2  -7   5 221.426 16.4056  12
   2  -7   5 260.578 12.3731  10
   3  -7   5 28.8141 2.23036  16
   3  -7   5 24.3559 2.13185  11
   3  -7   5 28.1128 3.75134   7
   3  -7   5 27.2051 2.34189  18
   3  -7   5 28.3815 2.14861  15
   3  -7   5 27.9227 2.26038  17
   3  -7   5 25.7226 1.39173  10
   4  -7   5 16.7903 3.20042   7
   4  -7   5 15.2711 1.56508  11
   4  -7   5 19.8476 1.66452  15
   4  -7   5 16.0960 1.70490  18
   4  -7   5 19.6584 1.72448  16
   4  -7   5 19.1819 1.85117  17
   4  -7   5 16.4463 1.00118  10
   5  -7   5 32.1259 4.71033   7
   5  -7   5 37.6891 2.91093  17
   5  -7   5 40.4910 2.94015  16
   5  -7   5 36.0329 1.97799  10
   5  -7   5 37.9766 3.14401  18
   5  -7   5 38.1434 2.95397  15
   6  -7   5 53.0589 3.84834  16
   6  -7   5 52.4119 2.68881  10
   6  -7   5 49.7856 5.64508   7
   6  -7   5 50.9460 3.62953  17
   6  -7   5 51.3954 4.04575  18
   7  -7   5 3.25540 0.84523  16
   7  -7   5 3.42278 1.12376  18
   7  -7   5 2.57429 0.80631  17
   7  -7   5 3.28368 0.46383  10
   8  -7   5 1.02883 0.83853  17
   8  -7   5 1.47821 0.71065  18
   8  -7   5 1.92887 0.43072  10
   8  -7   5 0.91019 0.80936  16
   9  -7   5 1.31739 0.29829  10
   9  -7   5 0.20597 0.81210  17
  10  -7   5 2.73739 0.34546  10
  10  -7   5 2.86916 0.63500  17
  -7  -6   5 24.6367 1.99383  13
  -6  -6   5 0.15701 0.30227   9
  -6  -6   5 0.33392 0.64239  13
  -6  -6   5 0.11355 0.71391  12
  -6  -6   5 -0.3909 0.45612  10
  -5  -6   5 18.0565 1.16023   9
  -5  -6   5 17.4757 1.24059  10
  -5  -6   5 17.8837 1.99878  12
  -5  -6   5 14.3422 1.81589  13
  -4  -6   5 0.37202 0.45850  10
  -4  -6   5 -0.5543 0.85915  13
  -4  -6   5 -0.2008 0.33334   9
  -4  -6   5 0.03105 0.55182  12
  -3  -6   5 233.586 14.0321  12
  -3  -6   5 200.066 12.9435  11
  -3  -6   5 222.518 10.5008  10
  -3  -6   5 198.173 14.7874   4
  -3  -6   5 212.147 13.3093   2
  -3  -6   5 225.848 13.3725  18
  -3  -6   5 224.307 10.3585   9
  -2  -6   5 1.01795 0.94218   2
  -2  -6   5 1.82796 0.40649  10
  -2  -6   5 1.94244 0.57489  11
  -2  -6   5 1.56432 0.33278   9
  -2  -6   5 1.84822 0.84487   3
  -2  -6   5 1.54781 0.74963  18
  -2  -6   5 1.71053 0.70613  12
  -2  -6   5 1.39643 1.68342   4
  -1  -6   5 2.37766 0.30010   9
  -1  -6   5 2.33829 0.73697  17
  -1  -6   5 1.78473 0.61686  11
  -1  -6   5 0.71675 0.69755   2
  -1  -6   5 2.17423 1.54028   4
  -1  -6   5 2.14705 0.35326  10
  -1  -6   5 3.41265 0.88492  12
  -1  -6   5 2.07534 0.76732  18
  -1  -6   5 1.74733 0.71651   3
   0  -6   5 4.81442 0.85259  17
   0  -6   5 2.79536 1.51851   4
   0  -6   5 4.92518 0.80455  11
   0  -6   5 4.91688 0.47260  10
   0  -6   5 5.25062 0.95533  12
   0  -6   5 6.11338 0.97749  18
   1  -6   5 205.996 13.5187   7
   1  -6   5 176.456 12.3773  12
   1  -6   5 196.792 9.35032  10
   1  -6   5 205.821 13.1860   4
   1  -6   5 193.674 12.1030  18
   1  -6   5 191.355 11.7285  11
   1  -6   5 207.141 12.3333  16
   1  -6   5 206.583 11.5760  17
   2  -6   5 44.0504 3.12432  11
   2  -6   5 49.6217 3.33399  16
   2  -6   5 44.6584 4.07622   4
   2  -6   5 46.9413 3.14562  17
   2  -6   5 45.9104 3.22953  15
   2  -6   5 42.9473 3.18800  18
   2  -6   5 49.3344 4.63072   7
   2  -6   5 45.8838 2.31709  10
   3  -6   5 75.1902 6.10133   4
   3  -6   5 83.9959 6.80472   7
   3  -6   5 81.0061 5.09247  17
   3  -6   5 82.4599 5.34196  18
   3  -6   5 78.4790 3.94082  10
   3  -6   5 84.7979 5.38693  15
   3  -6   5 85.4349 5.37315  16
   3  -6   5 74.9414 5.06440  11
   4  -6   5 20.2794 1.78516  17
   4  -6   5 17.3244 1.70491  18
   4  -6   5 17.7665 2.94521   7
   4  -6   5 18.0050 1.65707  16
   4  -6   5 21.1286 1.75135  15
   4  -6   5 17.4897 1.11294  10
   5  -6   5 91.1499 5.83285  17
   5  -6   5 90.2399 4.36808   9
   5  -6   5 81.7971 5.81914   3
   5  -6   5 96.1158 4.60460  10
   5  -6   5 92.6790 7.87494   7
   5  -6   5 91.4587 6.23875  18
   5  -6   5 96.2844 6.18840  16
   5  -6   5 91.9081 5.54561   2
   5  -6   5 105.453 6.22000  15
   6  -6   5 93.2689 5.97603   2
   6  -6   5 90.5694 6.28945  18
   6  -6   5 91.2100 5.76800  17
   6  -6   5 89.1828 7.78775   7
   6  -6   5 94.6012 4.39831   9
   6  -6   5 94.3455 4.57835  10
   6  -6   5 94.6412 6.06907  16
   6  -6   5 78.6608 6.08062   3
   7  -6   5 0.36343 0.73351  17
   7  -6   5 0.64143 0.55949  16
   7  -6   5 1.26978 1.58204   7
   7  -6   5 0.29049 0.31219   9
   7  -6   5 0.63228 0.38962  10
   7  -6   5 0.51508 0.94196  18
   8  -6   5 4.68906 0.62966  10
   8  -6   5 4.66862 0.42051   9
   8  -6   5 3.61494 1.08463  18
   8  -6   5 3.40440 0.83992  17
   9  -6   5 0.64666 0.43294  10
   9  -6   5 -0.2544 0.55515  17
  10  -6   5 4.69514 0.51867  10
  10  -6   5 4.09656 0.74943  17
  -8  -5   5 4.10441 0.67560  13
  -7  -5   5 4.37177 0.51724   9
  -7  -5   5 2.10380 0.96116  13
  -7  -5   5 2.55738 0.65673  10
  -7  -5   5 2.93926 0.81879  12
  -6  -5   5 0.54870 0.81898  12
  -6  -5   5 0.96847 0.43724  10
  -6  -5   5 -0.3803 0.93020  13
  -6  -5   5 0.49813 0.46557   9
  -5  -5   5 12.1598 1.09529  10
  -5  -5   5 10.9045 1.59682  13
  -5  -5   5 8.89368 1.33515  12
  -5  -5   5 11.4973 1.00396   9
  -4  -5   5 0.16879 1.30969   3
  -4  -5   5 1.22041 1.33874   2
  -4  -5   5 0.69384 0.88243  13
  -4  -5   5 -0.3931 0.71905  12
  -4  -5   5 0.60777 0.44784  10
  -4  -5   5 0.17497 1.88276   4
  -4  -5   5 0.87788 0.40843   9
  -3  -5   5 32.5285 2.51903  11
  -3  -5   5 32.9273 3.38766   3
  -3  -5   5 37.0111 2.65044  18
  -3  -5   5 34.1904 2.00720  10
  -3  -5   5 34.9534 3.30935   2
  -3  -5   5 35.1178 4.10823   4
  -3  -5   5 38.6465 2.92348  12
  -3  -5   5 37.4916 1.93704   9
  -3  -5   5 31.2290 2.66621  13
  -2  -5   5 6.80545 1.29579   2
  -2  -5   5 7.29458 1.93238   4
  -2  -5   5 8.40101 1.20876  12
  -2  -5   5 8.31407 0.72140  10
  -2  -5   5 6.59981 0.98521  18
  -2  -5   5 8.00601 1.56712   3
  -2  -5   5 7.59832 0.62947   9
  -2  -5   5 7.43965 0.95276  11
  -1  -5   5 66.3047 3.95945  17
  -1  -5   5 64.4193 4.34150  12
  -1  -5   5 56.8597 3.94333  11
  -1  -5   5 63.8338 4.48976   3
  -1  -5   5 57.2929 3.02242   9
  -1  -5   5 63.3481 4.21527   2
  -1  -5   5 62.2627 3.11042  10
  -1  -5   5 62.3161 5.14412   4
   0  -5   5 164.559 10.1744   3
   0  -5   5 152.036 10.6409   4
   1  -5   5 37.6232 3.58191   7
   1  -5   5 39.4355 2.79534   3
   1  -5   5 36.3102 2.70030   2
   1  -5   5 41.3154 2.63558   2
   1  -5   5 35.7849 2.74298   3
   1  -5   5 38.7114 3.58394   4
   2  -5   5 207.889 12.4987   3
   2  -5   5 210.785 13.5233   7
   2  -5   5 183.713 11.5821   2
   2  -5   5 204.227 12.9740   4
   2  -5   5 219.797 11.6641   2
   2  -5   5 184.888 12.4893   3
   3  -5   5 175.136 9.34828   2
   3  -5   5 162.666 10.9979   7
   3  -5   5 142.296 7.47678  10
   3  -5   5 159.045 9.87240   3
   3  -5   5 144.027 10.1699   4
   4  -5   5 -0.2508 0.57700   3
   4  -5   5 0.49627 0.55654  15
   4  -5   5 0.16005 0.58742  16
   4  -5   5 0.33441 0.21794   9
   4  -5   5 0.02140 0.72960   2
   4  -5   5 0.30251 0.26249  10
   4  -5   5 -0.0226 0.52278  17
   4  -5   5 0.79562 0.88474   7
   4  -5   5 1.10656 0.66781  18
   5  -5   5 0.17759 0.58526  17
   5  -5   5 0.34152 0.51098  18
   5  -5   5 0.25527 1.39165   7
   5  -5   5 -0.1479 0.94839   2
   5  -5   5 0.65358 0.69790   3
   5  -5   5 0.24743 0.61178  16
   5  -5   5 0.19239 0.31301  10
   5  -5   5 0.93887 0.49187  15
   5  -5   5 0.13804 0.31847   9
   6  -5   5 29.0419 3.85328   7
   6  -5   5 29.2174 2.85165   2
   6  -5   5 24.7236 2.13724  16
   6  -5   5 27.0921 1.59723  10
   6  -5   5 21.6373 2.39680  18
   6  -5   5 27.0929 2.18942  17
   6  -5   5 26.3584 1.50689   9
   6  -5   5 22.5033 2.62609   3
   7  -5   5 0.25171 0.85326  18
   7  -5   5 1.31156 0.73161  17
   7  -5   5 0.89190 0.46726  10
   7  -5   5 0.94388 2.05448   7
   7  -5   5 1.18010 0.39828   9
   8  -5   5 10.3574 1.24764  17
   8  -5   5 8.60737 1.29048  18
   8  -5   5 8.49872 0.81548   9
   8  -5   5 8.88675 0.88164  10
   9  -5   5 4.61382 0.86385  18
   9  -5   5 4.19185 0.85457  17
   9  -5   5 4.92786 0.53998   9
   9  -5   5 4.90820 0.72532  10
  10  -5   5 1.38455 0.52345  10
  10  -5   5 2.15741 0.65230  17
  10  -5   5 1.57575 0.26270   9
  -9  -4   5 4.04736 0.62856  13
  -8  -4   5 2.27339 0.46946   9
  -8  -4   5 0.72155 0.64836  13
  -7  -4   5 25.2810 2.44644  12
  -7  -4   5 30.3294 1.99004  10
  -7  -4   5 31.3075 1.67058   8
  -7  -4   5 28.4232 1.87227   9
  -6  -4   5 4.90125 0.67536   9
  -6  -4   5 7.17719 1.04768  12
  -6  -4   5 4.57657 0.56217   8
  -6  -4   5 5.74112 0.81041  10
  -5  -4   5 3.51440 0.66885  10
  -5  -4   5 4.06664 1.78858   3
  -5  -4   5 2.51745 1.67089   2
  -5  -4   5 3.88615 0.82552  12
  -5  -4   5 4.28378 0.65479   9
  -5  -4   5 3.15462 0.49099   8
  -5  -4   5 1.06525 2.49848   5
  -5  -4   5 1.81026 2.01120   4
  -4  -4   5 39.1794 2.11060   8
  -4  -4   5 40.5583 2.23278  10
  -4  -4   5 38.6278 3.80894   2
  -4  -4   5 35.4565 4.83048   5
  -4  -4   5 36.4954 4.09200   4
  -4  -4   5 36.8335 2.13834   9
  -4  -4   5 37.7449 3.92370   3
  -3  -4   5 8.83441 0.85280  10
  -3  -4   5 9.09866 0.68741   8
  -3  -4   5 8.65714 1.75491   3
  -3  -4   5 10.6415 2.11747   4
  -3  -4   5 10.2093 1.75140   2
  -3  -4   5 8.73930 0.76354   9
  -3  -4   5 7.50876 2.08180   5
  -2  -4   5 155.495 10.6043   4
  -2  -4   5 143.755 10.6798   5
  -2  -4   5 156.161 9.76745   2
  -2  -4   5 177.958 10.6517   3
  -1  -4   5 4.23161 1.31706   4
  -1  -4   5 7.03094 1.26155   3
  -1  -4   5 6.86108 1.15873   2
   0  -4   5 203.660 13.4092   4
   0  -4   5 206.393 13.7273   7
   0  -4   5 224.599 12.4514   2
   0  -4   5 210.919 13.3683   3
   1  -4   5 6.56693 1.34203   4
   1  -4   5 7.80727 1.51857   7
   1  -4   5 6.85317 1.03433   2
   1  -4   5 6.92798 0.99817   3
   2  -4   5 33.7150 3.31573   7
   2  -4   5 31.1716 2.97350   4
   2  -4   5 33.8652 2.65513   3
   2  -4   5 32.6912 2.55980   2
   3  -4   5 1260.92 76.5799   7
   3  -4   5 1271.92 71.2088   2
   3  -4   5 1230.67 74.5813   4
   3  -4   5 1328.50 77.0608   3
   4  -4   5 35.1666 3.03093   2
   4  -4   5 37.8009 3.76556   7
   4  -4   5 36.4577 3.06555   3
   5  -4   5 3.97372 1.19759   3
   5  -4   5 4.12091 0.78808  17
   5  -4   5 3.72933 0.77362  16
   5  -4   5 4.02520 1.54265   7
   5  -4   5 4.65989 0.54600   9
   5  -4   5 5.11225 0.45492   8
   5  -4   5 5.42354 1.35650   2
   5  -4   5 4.49172 0.57944  10
   6  -4   5 -1.5235 1.30587   7
   6  -4   5 0.78023 0.29760   8
   6  -4   5 1.04670 1.19845   2
   6  -4   5 -0.6544 0.82298   3
   6  -4   5 0.79676 0.59713  17
   6  -4   5 0.57746 0.37003   9
   6  -4   5 0.03501 0.37564  10
   7  -4   5 164.925 9.73211  17
   7  -4   5 164.666 8.00646  10
   7  -4   5 169.079 7.97786   8
   7  -4   5 154.398 12.0206   7
   7  -4   5 160.001 7.89153   9
   7  -4   5 148.860 10.7755   2
   8  -4   5 1.21942 0.51750   9
   8  -4   5 1.35523 0.61518  17
   8  -4   5 1.90062 0.93449  18
   8  -4   5 1.91349 0.59557  10
   8  -4   5 1.26104 0.18627   8
   9  -4   5 -0.2242 0.74423  17
   9  -4   5 -0.4999 0.48911  10
   9  -4   5 0.36762 0.72213  18
   9  -4   5 0.28009 0.44555   9
  10  -4   5 8.38132 0.97215  17
  10  -4   5 7.95925 0.84508  10
  10  -4   5 7.44833 0.64312   9
  -9  -3   5 -0.1133 0.59474  13
  -9  -3   5 0.37594 0.55263   9
  -9  -3   5 1.11323 0.25144   8
  -8  -3   5 8.20980 0.79336   8
  -8  -3   5 6.35129 0.88862   9
  -7  -3   5 20.2923 1.39367   8
  -7  -3   5 17.5817 1.75003  12
  -7  -3   5 18.8152 1.40565   9
  -6  -3   5 9.85973 2.21341   2
  -6  -3   5 3.50489 2.26962   3
  -6  -3   5 9.68001 0.92638   9
  -6  -3   5 10.2947 0.94450   8
  -5  -3   5 9.54561 2.32658   3
  -5  -3   5 13.2492 2.46940   4
  -5  -3   5 12.7657 1.09870   9
  -5  -3   5 12.3853 1.01180   8
  -5  -3   5 13.0252 1.18412  10
  -5  -3   5 12.0474 2.40329   2
  -4  -3   5 136.797 6.97454   8
  -4  -3   5 145.346 9.93888   3
  -4  -3   5 150.511 9.37358   2
  -4  -3   5 145.450 9.69190   4
  -4  -3   5 131.000 6.79936   9
  -3  -3   5 45.3862 3.59552   2
  -3  -3   5 41.2057 3.74764   3
  -3  -3   5 40.4889 3.75070   4
  -2  -3   5 96.5227 6.58876   3
  -2  -3   5 89.5974 6.53551   4
  -2  -3   5 93.0572 6.14508   2
  -1  -3   5 86.0256 5.60221   3
  -1  -3   5 69.5562 5.26400   5
  -1  -3   5 77.7301 5.63528   4
  -1  -3   5 90.6123 5.31669   2
  -1  -3   5 76.5696 4.73111   1
   0   3  -5 10.9606 1.24918   1
   0   3  -5 11.5964 1.33645   1
   0  -3   5 14.2216 1.66865   7
   0  -3   5 14.6848 1.49913   2
   0  -3   5 13.9772 1.80945   4
   0  -3   5 10.5107 1.21497   1
   0  -3   5 12.9606 1.42988   3
   0  -3   5 12.1351 1.29176   1
  -1   3  -5 238.276 13.0876   1
  -1   3  -5 242.287 13.0966   1
   1  -3   5 224.753 12.9924   1
   1  -3   5 244.322 15.3706   3
   1  -3   5 234.392 13.0335   1
   1  -3   5 262.495 14.3787   2
   1  -3   5 254.742 15.5684   7
   1  -3   5 270.759 15.2724   4
   2  -3   5 101.742 6.25000   4
   2  -3   5 84.3266 5.15491   1
   2  -3   5 77.2600 5.10394   1
   2  -3   5 90.7913 6.00522   3
   2  -3   5 91.1571 5.70477   2
   2  -3   5 86.3240 6.31080   7
   3  -3   5 0.47226 0.72095   2
   3  -3   5 1.22390 0.82219   4
   3  -3   5 0.55865 0.71414   7
   3  -3   5 0.51282 0.62357   3
   4  -3   5 15.5466 1.92931   3
   4  -3   5 15.4501 2.36901   7
   4  -3   5 14.6414 1.96481   2
   5  -3   5 107.738 5.60638  10
   5  -3   5 125.958 8.49988   7
   5  -3   5 106.224 5.66484   8
   5  -3   5 114.230 5.57226   9
   5  -3   5 104.476 6.77735  17
   5  -3   5 131.593 8.26772   3
   5  -3   5 122.767 7.85149   2
   6  -3   5 189.042 13.1656   7
   6  -3   5 182.694 9.14934  10
   6  -3   5 185.211 11.0445  17
   6  -3   5 188.825 12.2253   2
   6  -3   5 189.055 9.08380   9
   6  -3   5 192.540 9.30241   8
   7  -3   5 61.8449 3.48364  10
   7  -3   5 65.4642 3.41125   9
   7  -3   5 52.6459 5.48132   3
   7  -3   5 62.9187 6.19285   7
   7  -3   5 69.3298 4.26838  17
   7  -3   5 61.5978 5.48244   2
   7  -3   5 67.6742 3.42069   8
   8  -3   5 9.06014 0.81139   8
   8  -3   5 8.89332 0.95623   9
   8  -3   5 10.2864 0.99856  10
   8  -3   5 8.60716 1.20012  17
   9  -3   5 -0.1566 0.71870  17
   9  -3   5 0.02579 0.49734  18
   9  -3   5 0.12395 0.22134   8
   9  -3   5 0.37408 0.52309   9
  10  -3   5 3.53863 0.56552   9
  10  -3   5 3.53402 0.64637  17
 -10  -2   5 3.29319 0.33576   8
  -9  -2   5 0.32235 0.48307   9
  -9  -2   5 0.37292 0.31876   8
  -8  -2   5 9.00310 0.93619   8
  -7  -2   5 1.57646 0.66007  12
  -7  -2   5 2.22002 0.58835   8
  -6  -2   5 12.7615 1.10251   8
  -5  -2   5 76.4665 6.08759   3
  -5  -2   5 82.1970 5.95423   2
  -5  -2   5 66.1897 3.73147   9
  -5  -2   5 72.1518 3.79846   8
  -4  -2   5 2967.08 171.392   4
  -4  -2   5 2888.17 164.194   2
  -4  -2   5 2986.46 177.959   3
  -3  -2   5 506.571 28.9715   1
  -3  -2   5 537.760 33.1412   4
  -3  -2   5 576.677 34.4198   3
  -3  -2   5 602.930 31.9593   2
   2   2  -5 152.028 8.78682   1
  -2  -2   5 165.843 10.3617   3
  -2  -2   5 143.108 8.69193   1
  -2  -2   5 172.421 9.74098   2
  -2  -2   5 166.692 10.0853   4
  -2  -2   5 147.023 8.74147   1
   1   2  -5 16.2042 1.52705   1
   1   2  -5 15.0278 1.56871   1
  -1  -2   5 17.1249 1.86067   4
  -1  -2   5 16.0167 1.53699   1
  -1  -2   5 15.3679 1.45298   1
  -1  -2   5 15.0331 1.73841   2
  -1  -2   5 17.2411 1.79238   3
   0   2  -5 4.38567 0.86095   1
   0   2  -5 5.18742 0.86684   1
   0  -2   5 5.40530 1.10452   7
   0  -2   5 5.52874 0.79175   1
   0  -2   5 4.64314 0.83568   1
   0  -2   5 4.34717 0.94187   2
   0  -2   5 5.74480 0.94562   3
  -1   2  -5 152.062 8.49027   1
  -1   2  -5 154.877 8.53564   1
   1  -2   5 162.083 9.34111   2
   1  -2   5 161.332 9.95811   3
   1  -2   5 147.229 8.43698   1
   1  -2   5 152.750 9.97679   7
   1  -2   5 153.658 8.46773   1
  -2   2  -5 635.570 32.9030   1
  -2   2  -5 635.953 32.9138   1
   2  -2   5 588.175 32.8001   1
   2  -2   5 677.432 36.1344   2
   2  -2   5 679.864 38.9921   3
   2  -2   5 599.095 32.8257   1
   2  -2   5 645.915 38.5582   7
   3  -2   5 29.8174 2.66724   3
   3  -2   5 30.8061 2.68778   2
   3  -2   5 27.0715 2.39197   1
   3  -2   5 29.2094 2.81984   7
   4  -2   5 1.84353 0.89568   7
   4  -2   5 2.58273 1.07998   2
   4  -2   5 1.26644 0.84885   3
   5  -2   5 53.2474 4.40857   2
   5  -2   5 52.6479 4.47151   3
   5  -2   5 47.1487 2.72599   8
   5  -2   5 56.6971 4.69592   7
   6  -2   5 3.16081 1.59660   2
   6  -2   5 1.87637 0.52650   9
   6  -2   5 1.46889 0.48842  17
   6  -2   5 1.75396 1.37225   7
   6  -2   5 2.16505 0.47690   8
   7  -2   5 -0.7760 1.62342   3
   7  -2   5 -1.5841 1.99089   2
   7  -2   5 0.33558 0.44369   8
   7  -2   5 0.11832 0.51720   9
   7  -2   5 -0.2009 1.75300   7
   7  -2   5 0.40653 0.63765  17
   8  -2   5 19.6053 1.44038   9
   8  -2   5 21.0267 1.46204   8
   8  -2   5 22.1674 1.96661  17
   9  -2   5 -0.1716 0.32195   8
   9  -2   5 0.63107 0.53247  17
   9  -2   5 -0.3796 0.48241   9
  10  -2   5 0.54019 0.35127   9
  10   1  -5 13.1623 1.11006   8
 -10  -1   5 13.3174 0.97831   8
   9   1  -5 7.65614 0.82378   8
  -9  -1   5 10.1173 0.99682   8
  -8  -1   5 4.47884 0.71394   8
  -7  -1   5 2.36874 0.50583   8
  -6  -1   5 61.2459 3.35216   8
  -5  -1   5 0.89601 1.20305   2
  -5  -1   5 0.33963 0.82560   3
   4   1  -5 15.2187 1.88161   1
  -4  -1   5 19.3285 2.12966   1
  -4  -1   5 23.0797 2.37264   3
  -4  -1   5 21.6299 2.32264   2
  -4  -1   5 21.5846 2.17800   4
   3   1  -5 346.013 22.7317   6
   3   1  -5 346.887 21.4598   2
   3   1  -5 371.530 19.6132   1
   3   1  -5 375.145 19.6039   1
   3   1  -5 367.904 23.1704   3
  -3  -1   5 386.021 23.2192   3
  -3  -1   5 392.051 21.5954   2
  -3  -1   5 393.308 22.3010   4
  -3  -1   5 375.888 19.6324   1
  -3  -1   5 351.277 19.5466   1
   2   1  -5 104.866 7.15601   3
   2   1  -5 91.5297 6.62121   2
   2   1  -5 107.723 6.11175   1
   2   1  -5 109.196 6.13553   1
  -2  -1   5 102.970 6.05034   1
  -2  -1   5 102.911 6.72258   2
  -2  -1   5 104.452 6.10301   1
  -2  -1   5 117.146 6.93847   4
  -2  -1   5 107.492 7.16410   3
   1   1  -5 0.63625 0.67354   2
   1   1  -5 1.63587 0.67516   1
   1   1  -5 0.68703 0.60657   1
   1   1  -5 0.90668 0.74808   3
  -1  -1   5 1.45839 0.62874   1
  -1  -1   5 0.22640 0.51226   1
  -1  -1   5 1.05924 0.73783   2
  -1  -1   5 1.11860 0.71456   3
   0   1  -5 149.547 7.98992   1
   0   1  -5 128.294 8.65670   2
   0   1  -5 133.010 9.30328   3
   0   1  -5 149.894 7.94651   1
   0  -1   5 150.925 8.73758   2
   0  -1   5 140.840 7.86513   1
   0  -1   5 151.064 9.15134   7
   0  -1   5 149.054 9.28977   3
   0  -1   5 140.808 7.88452   1
  -1   1  -5 192.915 9.98008   1
  -1   1  -5 167.066 10.8507   2
  -1   1  -5 182.338 11.7261   3
  -1   1  -5 185.008 9.92782   1
  -1   1  -5 165.803 11.1819   5
   1  -1   5 189.638 9.91843   1
   1  -1   5 181.187 9.88482   1
   1  -1   5 200.823 11.6784   3
   1  -1   5 184.184 11.4576   7
   1  -1   5 182.318 10.8684   2
  -2   1  -5 108.151 6.32761   1
  -2   1  -5 100.855 6.95415   5
  -2   1  -5 107.318 7.40138   3
  -2   1  -5 95.0932 6.89700   2
  -2   1  -5 108.054 6.33935   1
   2  -1   5 106.624 6.29225   1
   2  -1   5 107.868 6.32953   1
   2  -1   5 119.513 7.04963   2
   2  -1   5 123.705 7.43622   3
   2  -1   5 115.502 7.28351   7
  -3   1  -5 3.51387 0.94736   1
  -3   1  -5 3.30754 0.77886   5
   3  -1   5 3.69486 0.91167   3
   3  -1   5 4.20064 1.13507   7
   3  -1   5 5.30082 1.07961   1
   3  -1   5 1.04827 0.91665   2
  -4   1  -5 -0.2844 0.64603   5
   4  -1   5 -0.0559 0.73792   2
   4  -1   5 0.34800 0.83246   3
   4  -1   5 0.60349 0.84030   7
   5  -1   5 40.9711 2.37172   8
   5  -1   5 50.8066 4.08058   7
   5  -1   5 43.2406 4.05563   2
   5  -1   5 39.4576 3.86424   3
   6  -1   5 42.2589 4.37499   7
   6  -1   5 43.0601 2.48325   8
   7  -1   5 43.6636 2.53672   8
   7  -1   5 38.8099 4.74673   7
   8  -1   5 7.98665 0.83725   8
   8  -1   5 7.89024 1.00300  17
   9  -1   5 10.6012 1.07221   9
   9  -1   5 11.4495 0.99541   8
   9  -1   5 10.5703 1.14052  17
 -10   1  -5 1.01839 0.39942   8
  10  -1   5 2.93065 0.32557   8
  10  -1   5 3.94848 0.51439   9
 -11   0   5 4.06225 0.50406   8
  10   0  -5 34.9315 2.01352   8
 -10   0   5 31.4718 2.00158   8
   9   0  -5 0.22032 0.35892   8
  -9   0   5 0.54310 0.41987   8
   8   0  -5 0.21858 0.47277   8
   7   0  -5 0.08723 0.41388   8
   5   0  -5 -0.5247 1.00325   2
   5   0  -5 -0.0040 0.99772   3
   4   0  -5 5.15300 1.20435   3
   4   0  -5 4.18929 1.02468   1
   4   0  -5 2.30473 0.86840   1
   4   0  -5 2.79572 0.79702   6
   4   0  -5 3.21897 1.08511   2
  -4   0   5 2.54736 0.96950   1
  -4   0   5 3.73351 1.30697   2
  -4   0   5 4.84255 1.26562   3
  -4   0   5 3.14282 0.84977   4
   3   0  -5 142.217 8.83975   2
   3   0  -5 151.450 9.47266   3
   3   0  -5 141.338 9.23813   6
   3   0  -5 140.892 8.02412   1
   3   0  -5 136.721 7.99766   1
  -3   0   5 139.708 8.06543   1
  -3   0   5 144.862 9.49254   3
  -3   0   5 152.016 8.95805   4
  -3   0   5 135.146 8.86348   2
  -3   0   5 135.821 8.00522   1
   2   0  -5 51.2927 3.24237   1
   2   0  -5 53.5905 3.28209   1
   2   0  -5 48.7639 3.72242   3
   2   0  -5 51.5530 3.61387   2
  -2   0   5 46.6457 3.16805   1
  -2   0   5 49.8176 3.75494   3
  -2   0   5 45.5907 3.61254   2
  -2   0   5 48.7250 3.27787   1
   1   0  -5 12.7540 1.56089   3
   1   0  -5 10.5777 1.24457   1
   1   0  -5 11.4534 1.28332   1
   1   0  -5 10.6521 1.43128   2
  -1   0   5 11.5136 1.46058   2
  -1   0   5 10.8267 1.23222   1
  -1   0   5 11.0197 1.27886   1
  -1   0   5 11.0347 1.44662   3
   0   0  -5 197.820 12.4300   3
   0   0  -5 186.922 11.5391   2
   0   0  -5 201.167 12.2102   5
   0   0  -5 197.619 10.5513   1
   0   0  -5 194.260 10.5185   1
   0   0   5 195.343 10.4905   1
   0   0   5 198.794 12.3859   3
   0   0   5 196.833 10.5291   1
   0   0   5 190.934 11.5606   2
   0   0   5 193.618 11.9809   7
  -1   0  -5 20.6890 1.77714   1
  -1   0  -5 23.8325 2.07915   3
  -1   0  -5 22.9450 2.12713   2
  -1   0  -5 23.6121 1.92086   1
  -1   0  -5 20.9065 1.85075   5
   1   0   5 23.5221 2.03178   3
   1   0   5 23.4735 1.80576   1
   1   0   5 20.6820 2.11615   2
   1   0   5 20.2355 1.83158   7
   1   0   5 21.4692 1.86488   1
  -2   0  -5 272.398 16.9857   5
  -2   0  -5 267.678 14.5314   1
  -2   0  -5 280.019 17.1699   3
  -2   0  -5 264.788 14.5206   1
  -2   0  -5 271.338 15.9832   2
   2   0   5 261.599 14.4997   1
   2   0   5 269.157 14.5647   1
   2   0   5 274.189 17.1336   3
   2   0   5 278.746 16.0457   2
   2   0   5 269.008 16.6643   7
  -3   0  -5 24.1680 2.24718   5
  -3   0  -5 19.7273 2.11843   1
  -3   0  -5 22.1335 2.48501   2
  -3   0  -5 20.9182 2.46602   3
   3   0   5 24.3070 2.52803   2
   3   0   5 28.3214 2.34358   7
   3   0   5 22.4054 2.40548   3
   3   0   5 20.4340 2.16395   1
   3   0   5 20.6619 2.24625   1
  -4   0  -5 0.88423 0.80574   5
   4   0   5 1.62116 1.07322   3
   4   0   5 0.51688 0.77927   7
  -5   0  -5 27.4600 3.14265   5
   5   0   5 31.1847 3.21828   7
   6   0   5 6.11469 1.90213   7
   6   0   5 6.10263 0.71540   8
   7   0   5 27.2910 1.85064   8
  -8   0  -5 14.0100 1.30630   8
   8   0   5 12.4063 1.09544   8
  -9   0  -5 1.30875 0.43426   8
   9   0   5 0.94213 0.48151   8
 -10   0  -5 0.04462 0.24221   8
  10   0   5 -0.0011 0.16087   8
  11  -1  -5 0.75243 0.38040   9
  11  -1  -5 0.77110 0.26372   8
 -11   1   5 0.29031 0.33836   8
  10  -1  -5 -0.2024 0.42845   8
   9  -1  -5 3.68387 0.57834   8
   8  -1  -5 73.7857 3.98933   8
   7  -1  -5 60.7153 3.30208   8
   6  -1  -5 0.98438 0.38664   8
   6  -1  -5 0.28945 1.13108   2
   6  -1  -5 0.27041 0.73316   3
   5  -1  -5 120.209 8.37233   6
   5  -1  -5 125.277 8.56771   3
   5  -1  -5 121.796 8.04788   2
   4  -1  -5 137.430 8.81080   3
   4  -1  -5 139.232 8.30935   2
   4  -1  -5 138.739 8.74364   6
   4  -1  -5 123.078 7.48217   1
  -4   1   5 119.117 8.06359   4
  -4   1   5 122.184 7.53396   1
   3  -1  -5 39.6296 3.01121   3
   3  -1  -5 33.7324 2.48025   1
   3  -1  -5 36.9392 2.89793   6
   3  -1  -5 34.5242 2.54843   1
   3  -1  -5 38.1656 2.89045   2
  -3   1   5 29.7530 2.76680   2
  -3   1   5 33.3709 2.58633   1
  -3   1   5 32.5228 2.51557   1
  -3   1   5 32.8805 2.99760   3
   2  -1  -5 60.3319 4.19462   3
   2  -1  -5 58.2323 3.56411   1
   2  -1  -5 57.3659 3.93844   2
   2  -1  -5 56.5166 3.56907   1
  -2   1   5 55.0478 4.16430   3
  -2   1   5 58.3784 3.59833   1
  -2   1   5 48.5809 3.93661   2
  -2   1   5 55.1794 3.58227   1
   1  -1  -5 1.29016 0.64913   5
   1  -1  -5 1.05019 0.72516   2
   1  -1  -5 0.54817 0.51016   3
   1  -1  -5 1.38792 0.50896   1
   1  -1  -5 1.21970 0.60035   1
  -1   1   5 1.33048 0.67263   1
  -1   1   5 0.41205 0.69179   2
  -1   1   5 0.91567 0.47314   1
  -1   1   5 0.31802 0.48813   3
   0  -1  -5 125.914 7.40681   2
   0  -1  -5 122.617 7.82250   5
   0  -1  -5 120.955 7.85945   3
   0  -1  -5 119.245 6.69572   1
   0  -1  -5 125.534 6.72325   1
   0   1   5 112.497 7.79358   3
   0   1   5 124.530 6.73166   1
   0   1   5 122.871 6.70984   1
   0   1   5 104.819 7.19213   7
   0   1   5 112.651 7.35287   2
  -1  -1  -5 300.667 18.3993   3
  -1  -1  -5 290.477 15.5688   1
  -1  -1  -5 308.332 18.4439   5
  -1  -1  -5 294.898 15.5847   1
  -1  -1  -5 298.327 17.1093   2
   1   1   5 276.425 17.1081   2
   1   1   5 295.246 15.6073   1
   1   1   5 268.858 17.6664   7
   1   1   5 311.712 15.6388   1
   1   1   5 289.507 18.3921   3
  -2  -1  -5 3.20488 0.99510   5
  -2  -1  -5 3.53066 0.92202   3
  -2  -1  -5 2.92990 0.84432   1
  -2  -1  -5 2.60539 1.06624   2
  -2  -1  -5 3.90171 0.98689   1
   2   1   5 2.95614 0.81571   7
   2   1   5 2.84095 0.95077   1
   2   1   5 2.43548 0.75023   1
   2   1   5 4.70767 1.04868   3
   2   1   5 4.42110 1.21443   2
  -3  -1  -5 9.68574 1.62785   3
  -3  -1  -5 10.7040 1.79819   2
  -3  -1  -5 10.9068 1.75677   5
   3   1   5 8.52612 1.34886   7
  -4  -1  -5 19.4049 2.74767   2
  -4  -1  -5 22.5062 2.73842   3
  -4  -1  -5 23.8036 2.55359   5
   4   1   5 19.0767 2.29619   7
  -5  -1  -5 46.9655 4.15673   5
  -5  -1  -5 40.2051 2.39395   8
   5   1   5 35.1700 3.74927   7
  -6  -1  -5 64.7105 6.14455   5
  -6  -1  -5 66.4401 3.61995   8
  -7  -1  -5 0.53355 0.42765   8
  -8  -1  -5 6.63346 0.81785   8
   8   1   5 6.35050 0.76736   8
  -9  -1  -5 1.51908 0.45907   8
   9   1   5 0.75068 0.36202   8
  11  -2  -5 0.50840 0.43734  17
  11  -2  -5 1.17569 0.38609   9
  10  -2  -5 2.30177 0.52360   9
  10  -2  -5 2.47663 0.41153   8
   9  -2  -5 14.3857 1.11779   8
   9  -2  -5 13.4196 1.21459   9
   9  -2  -5 12.3733 1.39789  16
   8  -2  -5 3.47837 0.90580  16
   8  -2  -5 6.26341 0.72438   8
   8  -2  -5 5.36903 0.75346   9
   8  -2  -5 2.37192 1.83926   3
   7  -2  -5 1.55737 1.40084   2
   7  -2  -5 0.75165 0.38322   8
   7  -2  -5 0.26820 1.17147   3
   7  -2  -5 0.95130 0.43874   9
   6  -2  -5 0.15731 0.23155   8
   6  -2  -5 -0.1914 0.98375   2
   6  -2  -5 0.42398 0.68294   6
   6  -2  -5 -0.3195 0.84695   3
   5  -2  -5 1039.14 62.3381   3
   5  -2  -5 1022.52 62.3432   6
   5  -2  -5 999.745 57.6153   2
   4  -2  -5 12.4949 1.61042   3
   4  -2  -5 15.8905 1.92130   6
   4  -2  -5 13.4174 1.52242   1
   4  -2  -5 15.7320 1.69963   2
   3  -2  -5 1.23274 0.66469   1
   3  -2  -5 0.97978 0.72086   3
   3  -2  -5 1.02668 0.54325   1
   3  -2  -5 1.89687 0.78782   2
   3  -2  -5 0.42643 0.74264   6
  -3   2   5 0.94256 0.61110   1
  -3   2   5 2.45323 0.77840   1
   2  -2  -5 82.5823 5.50578   3
   2  -2  -5 72.8130 4.65700   1
   2  -2  -5 91.2127 5.72431   5
   2  -2  -5 75.7532 4.66708   1
   2  -2  -5 81.5637 5.65743   6
   2  -2  -5 79.2479 5.15800   2
  -2   2   5 73.1076 4.68045   1
  -2   2   5 77.6195 4.70206   1
   1  -2  -5 13.6450 1.40198   1
   1  -2  -5 14.4408 1.60618   2
   1  -2  -5 12.5209 1.36420   1
   1  -2  -5 12.4302 1.50942   3
   1  -2  -5 13.9325 1.72915   5
  -1   2   5 11.3059 1.34639   1
  -1   2   5 10.6921 1.31505   1
   0  -2  -5 535.692 29.3196   2
   0  -2  -5 500.224 26.6566   1
   0  -2  -5 494.902 26.6543   1
   0  -2  -5 522.494 31.8980   5
   0  -2  -5 542.845 31.6435   3
   0   2   5 505.133 26.6718   1
   0   2   5 498.799 26.6811   1
  -1  -2  -5 112.129 6.60584   2
  -1  -2  -5 92.0751 5.83710   1
  -1  -2  -5 91.2385 5.87412   1
  -1  -2  -5 102.284 6.86164   3
  -1  -2  -5 100.971 7.03758   5
   1   2   5 100.458 5.94062   1
  -2  -2  -5 17.5945 2.12076   2
  -2  -2  -5 15.8712 2.20484   5
  -2  -2  -5 16.7660 2.22662   3
  -3  -2  -5 10.5749 2.00073   5
  -3  -2  -5 10.4653 1.88920   2
  -3  -2  -5 11.3766 1.89415   3
  -4  -2  -5 156.100 7.93854   8
  -4  -2  -5 164.685 11.3264   5
  -4  -2  -5 151.780 11.1038   3
  -4  -2  -5 161.538 10.5692   2
  -5  -2  -5 4.03534 0.82677  13
  -5  -2  -5 4.17462 1.60085   5
  -5  -2  -5 5.68664 0.65674   8
  -6  -2  -5 -0.5467 1.29003   5
  -6  -2  -5 1.47835 0.58866   8
  -6  -2  -5 0.69174 0.49247  13
  -7  -2  -5 1.32405 0.54824   8
  -7  -2  -5 0.66992 0.49502  13
  -8  -2  -5 31.5098 1.88080   8
  -9  -2  -5 5.72790 0.45859   8
  -9  -2  -5 6.70225 0.66841   9
   9   2   5 6.01898 0.64350   8
  11  -3  -5 28.1972 2.04933  17
  10  -3  -5 45.3287 2.32020   8
  10  -3  -5 41.0015 3.25664  16
  10  -3  -5 44.9185 2.46354   9
   9  -3  -5 45.7146 2.68054   9
   9  -3  -5 46.3543 2.72628  10
   9  -3  -5 48.1692 2.58944   8
   9  -3  -5 49.9620 3.61178  16
   8  -3  -5 0.29240 1.21263   2
   8  -3  -5 0.15329 0.44442  10
   8  -3  -5 0.19771 0.68532  16
   8  -3  -5 1.47748 2.09555   7
   8  -3  -5 1.05318 0.45213   8
   8  -3  -5 0.05790 0.29418   9
   7  -3  -5 54.7606 4.80527   2
   7  -3  -5 56.8233 2.99806   8
   7  -3  -5 56.7865 2.99577   9
   7  -3  -5 59.4743 5.53897   7
   7  -3  -5 54.1730 5.08432   6
   7  -3  -5 55.4395 4.96036   3
   6  -3  -5 20.9166 1.27732   8
   6  -3  -5 21.0171 1.31534   9
   6  -3  -5 25.0282 2.82913   2
   6  -3  -5 24.5284 2.64575   3
   6  -3  -5 22.7180 2.90734   6
   6  -3  -5 18.8446 1.33057  10
   5  -3  -5 12.6190 1.78046   2
   5  -3  -5 12.3620 2.04974   6
   5  -3  -5 10.6253 1.69408   3
   4  -3  -5 23.6852 2.27613   3
   4  -3  -5 21.3453 2.50071   6
   4  -3  -5 21.8440 2.17681   2
   3  -3  -5 1.53444 0.89627   6
   3  -3  -5 -0.0981 0.55530   3
   3  -3  -5 0.11517 0.57613   2
   3  -3  -5 -0.2871 0.46079   5
   2  -3  -5 1444.52 83.8026   3
   2  -3  -5 1411.83 84.5121   5
   2  -3  -5 1441.55 77.4034   2
   2  -3  -5 1325.80 70.4754   1
   2  -3  -5 1423.41 83.9939   6
   2  -3  -5 1269.11 70.4265   1
   1  -3  -5 823.836 46.4399   2
   1  -3  -5 851.091 50.8301   5
   1  -3  -5 762.614 42.2591   1
   1  -3  -5 759.462 42.2495   1
   1  -3  -5 873.341 50.2470   3
   1  -3  -5 883.158 50.5100   6
   0  -3  -5 41.2593 3.73783   5
   0  -3  -5 42.6745 3.32874   2
   0  -3  -5 44.7735 3.45532   3
  -1  -3  -5 3.12114 1.00928   3
  -1  -3  -5 1.13135 0.79045   5
  -1  -3  -5 3.67267 1.07092   2
  -2  -3  -5 1.42580 0.97008   3
  -2  -3  -5 1.34257 0.86928   5
  -2  -3  -5 1.28240 0.93139   2
  -3  -3  -5 2.16537 0.43278   8
  -3  -3  -5 1.24226 0.41734  10
  -3  -3  -5 0.89081 1.17363   5
  -3  -3  -5 1.92115 0.58570  13
  -3  -3  -5 1.55634 1.26281   2
  -3  -3  -5 1.83404 0.46416   9
  -3  -3  -5 2.61786 1.19101   3
  -4  -3  -5 -0.0654 1.30264   3
  -4  -3  -5 0.77927 1.44597   5
  -4  -3  -5 0.73530 1.39049   2
  -4  -3  -5 0.36828 0.41674   9
  -4  -3  -5 0.85571 0.39559   8
  -4  -3  -5 1.50852 0.51317  13
  -5  -3  -5 38.7774 2.90245  13
  -5  -3  -5 38.3988 2.27783   9
  -5  -3  -5 36.5406 4.37123   5
  -5  -3  -5 41.2257 4.32036   2
  -5  -3  -5 41.4243 2.27970   8
  -6  -3  -5 -0.1467 0.50908   9
  -6  -3  -5 -0.5495 0.67257  13
  -6  -3  -5 -0.3079 0.42808   8
  -7  -3  -5 10.5394 1.21820  13
  -7  -3  -5 12.3684 1.18503   9
  -7  -3  -5 14.1015 0.99884   8
  -8  -3  -5 5.26372 0.36761   8
  -8  -3  -5 5.00367 0.66520   9
  11  -4  -5 81.0773 4.19049  10
  11  -4  -5 87.3918 4.05967   9
  11  -4  -5 74.9725 4.97810  17
  10  -4  -5 20.8409 1.84282  17
  10  -4  -5 20.9579 2.05954  16
  10  -4  -5 23.6911 1.46140   9
  10  -4  -5 21.2321 1.53897  10
   9  -4  -5 2.78757 0.58158   9
   9  -4  -5 1.61641 0.55096  10
   9  -4  -5 2.77619 0.28155   8
   9  -4  -5 1.98899 0.72267  17
   9  -4  -5 2.68803 0.81659  16
   8  -4  -5 0.40759 0.77119  17
   8  -4  -5 0.76834 0.30633   8
   8  -4  -5 0.05376 0.27695  10
   8  -4  -5 -0.4692 0.35389   9
   8  -4  -5 -2.8656 1.34131   2
   8  -4  -5 0.57770 0.56777  16
   8  -4  -5 1.05842 1.31473   6
   7  -4  -5 240.205 11.4451  10
   7  -4  -5 234.050 14.7412   2
   7  -4  -5 232.287 11.6174   8
   7  -4  -5 250.159 15.0111  16
   7  -4  -5 235.895 15.7137   3
   7  -4  -5 233.398 11.3334   9
   7  -4  -5 238.239 16.2210   6
   6  -4  -5 20.6728 1.79159  16
   6  -4  -5 18.7018 1.17765   9
   6  -4  -5 22.0065 2.55891   2
   6  -4  -5 17.3670 1.69053  15
   6  -4  -5 22.5909 3.03451   6
   6  -4  -5 19.2874 1.11415   8
   6  -4  -5 18.6371 2.28394   3
   6  -4  -5 17.5514 1.20814  10
   6  -4  -5 18.6778 1.60001  14
   5  -4  -5 0.55218 0.30798  10
   5  -4  -5 0.33955 0.66337   3
   5  -4  -5 0.31860 0.21180   8
   5  -4  -5 0.02832 1.00577   6
   5  -4  -5 0.49982 0.66223   2
   5  -4  -5 0.88588 0.27398   9
   4  -4  -5 62.2772 5.10804   6
   4  -4  -5 62.3206 4.62183   3
   4  -4  -5 63.6604 4.35700   2
   3  -4  -5 2.13198 0.81207   3
   3  -4  -5 2.24726 1.05217   6
   3  -4  -5 2.30739 1.14832   5
   3  -4  -5 2.43967 0.82738   2
   2  -4  -5 196.896 13.0494   3
   2  -4  -5 209.288 13.6147   6
   2  -4  -5 205.017 13.7094   5
   2  -4  -5 213.686 12.2387   2
   1  -4  -5 128.408 8.25603   3
   1  -4  -5 120.600 7.76440   2
   1  -4  -5 123.531 8.87375   5
   1  -4  -5 125.725 8.72919   6
   0  -4  -5 -0.3720 0.70874   3
   0  -4  -5 0.06704 0.64971   5
   0  -4  -5 0.84999 0.91445   6
   0  -4  -5 1.08003 0.82958   2
  -1  -4  -5 0.46766 0.91333   2
  -1  -4  -5 -0.6374 0.93422   5
  -1  -4  -5 3.17793 1.07830   3
  -1  -4  -5 0.38383 0.24373   8
  -2  -4  -5 141.779 7.21815  10
  -2  -4  -5 159.406 9.73787   2
  -2  -4  -5 162.731 10.3141   3
  -2  -4  -5 157.110 10.9148   5
  -2  -4  -5 133.708 9.00740  13
  -2  -4  -5 147.708 7.17130   9
  -2  -4  -5 150.084 7.37763   8
  -3  -4  -5 17.3883 1.63863  13
  -3  -4  -5 18.4621 1.20142   8
  -3  -4  -5 18.3955 3.02381   5
  -3  -4  -5 20.0626 2.76234   2
  -3  -4  -5 18.7169 2.62090   3
  -3  -4  -5 17.8594 1.28401  10
  -3  -4  -5 17.9766 1.25614   9
  -4  -4  -5 13.4495 1.02068   8
  -4  -4  -5 8.33828 2.37877   2
  -4  -4  -5 12.0638 1.45220  13
  -4  -4  -5 13.9696 1.05360  10
  -4  -4  -5 12.4199 1.09165   9
  -4  -4  -5 10.4658 2.67668   5
  -5  -4  -5 29.3262 1.91622  10
  -5  -4  -5 29.5719 1.74316   8
  -5  -4  -5 29.4866 2.29283  13
  -5  -4  -5 28.1238 1.78143   9
  -6  -4  -5 5.42150 0.78205   9
  -6  -4  -5 6.24695 0.59180   8
  -6  -4  -5 5.93912 1.04217  13
  -7  -4  -5 6.24810 0.92155  14
  -7  -4  -5 5.71283 0.81159  13
  -7  -4  -5 6.12987 0.66563   9
  -8  -4  -5 3.57699 0.37186   9
  11  -5  -5 1.23681 0.54886  17
  11  -5  -5 2.56871 0.45136  10
  11  -5  -5 2.06608 0.28782   9
  11  -5  -5 1.85976 0.60645  16
  10  -5  -5 1.40587 0.90968  16
  10  -5  -5 1.08734 0.58101  17
  10  -5  -5 1.45628 0.38835   9
  10  -5  -5 1.96824 0.43587  10
   9  -5  -5 2.97752 0.52496  10
   9  -5  -5 2.02834 0.98381  16
   9  -5  -5 1.91124 0.84494  17
   9  -5  -5 2.43124 0.48512   9
   8  -5  -5 48.1574 4.06881  15
   8  -5  -5 62.0469 3.15070  10
   8  -5  -5 61.2520 3.04338   9
   8  -5  -5 65.0270 4.32360  16
   8  -5  -5 51.4551 5.73060   6
   7  -5  -5 6.31067 1.00497  15
   7  -5  -5 6.90266 0.64152   9
   7  -5  -5 8.72374 2.30649   6
   7  -5  -5 5.51362 1.47101   2
   7  -5  -5 4.33356 1.33079   3
   7  -5  -5 8.53920 0.79521  10
   7  -5  -5 7.52526 1.22262  16
   7  -5  -5 5.54580 0.91247  14
   6  -5  -5 109.124 6.87998   2
   6  -5  -5 99.8071 8.07180   6
   6  -5  -5 104.312 7.28123   3
   6  -5  -5 103.236 5.09698  10
   6  -5  -5 99.3884 6.67093  14
   6  -5  -5 107.496 6.91319  16
   6  -5  -5 98.6373 6.81687  15
   6  -5  -5 103.581 5.00600   9
   5  -5  -5 80.0644 5.03013   2
   5  -5  -5 72.7682 5.30584   3
   5  -5  -5 77.3341 4.68214  13
   5  -5  -5 71.7494 3.58684   9
   5  -5  -5 76.2250 5.05042  16
   5  -5  -5 75.0060 6.21903   6
   5  -5  -5 74.6886 3.68051  10
   5  -5  -5 72.9851 4.99601  15
   5  -5  -5 64.2150 4.83933  14
   4  -5  -5 39.8946 1.99493   9
   4  -5  -5 40.8872 2.72071  13
   4  -5  -5 40.4927 3.12981   3
   4  -5  -5 40.6424 4.04223   6
   4  -5  -5 44.6299 2.99688   2
   4  -5  -5 39.0210 2.06186  10
   4  -5  -5 37.0895 2.91699  15
   4  -5  -5 36.4328 2.84980  14
   3  -5  -5 20.6442 1.92679   3
   3  -5  -5 21.3061 2.51412   5
   3  -5  -5 21.6136 1.86573   2
   3  -5  -5 19.9010 1.20410  10
   3  -5  -5 21.3524 2.54379   6
   2  -5  -5 5.40496 0.96672   2
   2  -5  -5 2.59791 1.23221   6
   2  -5  -5 5.68855 0.99865   3
   2  -5  -5 5.48230 1.60797   5
   1  -5  -5 71.9233 4.70503   2
   1  -5  -5 63.6115 4.62755  14
   1  -5  -5 63.3792 3.33685   9
   1  -5  -5 73.7753 5.88395   5
   1  -5  -5 69.8416 5.44787   6
   1  -5  -5 73.3821 4.88270   3
   0  -5  -5 148.584 7.19627   9
   0  -5  -5 158.878 9.96318   3
   0  -5  -5 161.381 11.0512   5
   0  -5  -5 168.836 9.50743   2
   0  -5  -5 145.752 9.51171  12
   0  -5  -5 146.490 9.69462  14
   0  -5  -5 137.258 9.13356  13
   0  -5  -5 149.455 7.26145  10
  -1  -5  -5 33.8361 2.60663  13
  -1  -5  -5 36.4476 1.99671   9
  -1  -5  -5 36.2201 2.68493  12
  -1  -5  -5 39.6452 3.39747   3
  -1  -5  -5 37.3366 2.97602  14
  -1  -5  -5 39.2816 2.06411  10
  -1  -5  -5 38.5308 4.16177   5
  -1  -5  -5 39.8261 3.37296   2
  -2  -5  -5 -0.5151 0.96652   3
  -2  -5  -5 0.39790 1.13225   5
  -2  -5  -5 1.00203 1.22213   2
  -2  -5  -5 0.65158 0.46972  13
  -2  -5  -5 0.81410 0.38750  10
  -2  -5  -5 0.06845 1.00493  14
  -2  -5  -5 0.54209 0.16453   8
  -2  -5  -5 0.11857 0.30401   9
  -3  -5  -5 1.35505 1.40258   5
  -3  -5  -5 1.87082 0.24179   8
  -3  -5  -5 1.24775 0.44793   9
  -3  -5  -5 2.10653 1.48098   2
  -3  -5  -5 2.73555 0.70422  13
  -3  -5  -5 1.72142 0.41179  10
  -3  -5  -5 1.48029 1.23332  14
  -4  -5  -5 148.363 9.70290  14
  -4  -5  -5 136.077 8.89348  13
  -4  -5  -5 147.332 7.05249   9
  -4  -5  -5 143.910 7.14051  10
  -5  -5  -5 84.8120 4.39583  10
  -5  -5  -5 78.2960 5.41319  13
  -5  -5  -5 85.3587 4.28153   9
  -5  -5  -5 89.3955 5.94654  14
  -6  -5  -5 3.73714 0.55091   9
  -6  -5  -5 3.25774 0.81349  13
  -6  -5  -5 2.62071 0.93659  14
  -6  -5  -5 5.06602 0.64748  10
  -7  -5  -5 0.80196 0.24628   9
  -7  -5  -5 0.49826 0.48789  10
  11  -6  -5 2.24673 0.36769  10
  11  -6  -5 1.41820 0.72790  16
  10  -6  -5 5.41632 0.66342  10
  10  -6  -5 5.60065 1.14675  16
   9  -6  -5 41.3334 2.11266   9
   9  -6  -5 41.5762 2.33117  10
   9  -6  -5 41.3349 3.27839  16
   8  -6  -5 3.25079 0.41258   9
   8  -6  -5 4.13364 0.92616  15
   8  -6  -5 2.68300 0.49595  10
   8  -6  -5 3.54735 0.81069  14
   8  -6  -5 3.80273 1.01635  16
   7  -6  -5 13.0362 1.63509  16
   7  -6  -5 10.1154 1.24013  14
   7  -6  -5 9.34374 0.69356   9
   7  -6  -5 10.0903 1.29549  15
   7  -6  -5 8.97914 1.51924   2
   7  -6  -5 8.07212 2.45236   6
   6  -6  -5 279.683 16.3643  16
   6  -6  -5 265.155 12.2620  10
   6  -6  -5 256.957 16.0710  14
   6  -6  -5 260.522 14.9148   2
   6  -6  -5 239.848 16.0670   3
   6  -6  -5 239.331 17.6106   6
   6  -6  -5 255.327 16.2835  15
   6  -6  -5 256.718 12.0596   9
   5  -6  -5 0.27642 0.54872  16
   5  -6  -5 0.32374 0.14393   9
   5  -6  -5 0.24642 0.53704  13
   5  -6  -5 0.61189 0.55165   2
   5  -6  -5 -0.2043 0.95357   6
   5  -6  -5 0.24693 0.60130  14
   5  -6  -5 0.54723 0.26206  10
   5  -6  -5 0.53818 0.51293  15
   5  -6  -5 0.39765 0.53024   3
   4  -6  -5 -0.8064 0.59520  16
   4  -6  -5 1.02062 1.24838   5
   4  -6  -5 0.87980 0.56598  12
   4  -6  -5 0.22269 0.61396  14
   4  -6  -5 -0.9680 1.22287   6
   4  -6  -5 0.51314 0.53996  13
   4  -6  -5 0.21121 0.22010  10
   4  -6  -5 -0.8348 0.55158  15
   3  -6  -5 7.77637 1.05000  15
   3  -6  -5 8.00014 1.00887  12
   3  -6  -5 7.31170 0.94262  13
   3  -6  -5 6.44170 0.59764  10
   3  -6  -5 7.41311 1.13430  14
   3  -6  -5 6.08279 1.59322   6
   3  -6  -5 9.22098 2.06391   5
   2  -6  -5 7.23153 0.42174   9
   2  -6  -5 6.07885 0.72714   3
   2  -6  -5 7.64399 1.05993  13
   2  -6  -5 7.79735 1.12135  15
   2  -6  -5 8.51887 0.61741  10
   2  -6  -5 10.1049 2.22259   5
   2  -6  -5 5.91781 1.83195   6
   2  -6  -5 7.28282 0.85691   3
   2  -6  -5 8.49784 0.84038   2
   2  -6  -5 8.72092 1.18821  14
   2  -6  -5 6.99654 0.78558   2
   2  -6  -5 8.34497 0.95488  12
   1  -6  -5 635.376 29.3231  10
   1  -6  -5 605.500 36.6296  13
   1  -6  -5 621.030 37.9051   3
   1  -6  -5 602.472 38.3081  14
   1  -6  -5 649.960 39.8586   5
   1  -6  -5 560.676 38.5033  15
   1  -6  -5 673.082 35.1359   2
   1  -6  -5 651.805 38.3101  12
   1  -6  -5 624.316 29.0451   9
   0  -6  -5 9.84953 1.50408   2
   0  -6  -5 10.4418 1.22581  12
   0  -6  -5 10.6675 0.79295  10
   0  -6  -5 12.2202 1.60143  14
   0  -6  -5 9.43493 1.22996  13
   0  -6  -5 9.36880 0.69873   9
   0  -6  -5 10.4885 2.65855   5
   0  -6  -5 7.43247 1.30235   3
  -1  -6  -5 2.53639 1.24878   2
  -1  -6  -5 2.81642 0.47332  10
  -1  -6  -5 3.52891 1.00226  14
  -1  -6  -5 3.11734 0.46306   9
  -1  -6  -5 1.93692 0.64596  12
  -1  -6  -5 3.84122 1.90665   5
  -1  -6  -5 1.98455 0.75081  13
  -1  -6  -5 2.11579 1.07698   3
  -2  -6  -5 48.1146 3.56272  12
  -2  -6  -5 52.8121 2.74114  10
  -2  -6  -5 48.1720 4.15373  14
  -2  -6  -5 52.9114 2.67812   9
  -2  -6  -5 48.9084 5.27537   5
  -2  -6  -5 49.5065 3.52721  13
  -3  -6  -5 12.7026 1.91422  14
  -3  -6  -5 10.9849 1.44971  13
  -3  -6  -5 12.7874 0.96880  10
  -3  -6  -5 11.6565 0.94181   9
  -4  -6  -5 24.4180 1.57917  10
  -4  -6  -5 22.1451 2.14430  13
  -4  -6  -5 22.7421 1.40156   9
  -4  -6  -5 24.4512 2.54612  14
  -5  -6  -5 12.1738 1.32841  13
  -5  -6  -5 14.8840 1.14719  10
  -5  -6  -5 13.4699 0.86933   9
  -5  -6  -5 13.4334 1.66159  14
  -6  -6  -5 5.24941 0.54299  10
  -6  -6  -5 3.58997 0.69819  13
  11  -7  -5 18.3146 1.59558  16
  11  -7  -5 18.6599 1.06243  10
  10  -7  -5 4.90947 0.54087  10
  10  -7  -5 4.32431 1.07085  16
   9  -7  -5 0.73199 0.34615  10
   9  -7  -5 1.10781 0.54089  15
   9  -7  -5 0.44629 0.67426  16
   8  -7  -5 4.59197 1.00244  15
   8  -7  -5 3.87656 1.27693  16
   8  -7  -5 7.01904 0.96098  14
   8  -7  -5 5.43280 0.57809  10
   7  -7  -5 245.872 14.6777  14
   7  -7  -5 225.905 14.8685  15
   7  -7  -5 224.173 11.1143  10
   7  -7  -5 238.809 14.9850  16
   6  -7  -5 116.418 9.71466   6
   6  -7  -5 122.028 8.31529  16
   6  -7  -5 135.794 7.77243  13
   6  -7  -5 117.991 8.19887  15
   6  -7  -5 124.497 8.12296  14
   5  -7  -5 5.08722 1.83527   6
   5  -7  -5 5.99091 1.00516  13
   5  -7  -5 6.03913 1.07145  14
   5  -7  -5 6.89081 1.18161  15
   5  -7  -5 6.51183 0.52805  10
   5  -7  -5 7.02634 1.29622  16
   4  -7  -5 54.1217 3.68113  12
   4  -7  -5 51.3335 2.55891  10
   4  -7  -5 46.4944 5.07704   5
   4  -7  -5 42.8498 3.63848  16
   4  -7  -5 51.1679 3.76156  14
   4  -7  -5 49.9402 3.54232  13
   4  -7  -5 62.4386 3.88255  15
   4  -7  -5 44.6861 5.21934   6
   3  -7  -5 170.561 12.9486   5
   3  -7  -5 175.662 8.51825  10
   3  -7  -5 178.946 11.5526  15
   3  -7  -5 175.843 11.4418  14
   3  -7  -5 193.879 11.4217  12
   3  -7  -5 184.952 10.9560  13
   3  -7  -5 165.331 12.7696   6
   2  -7  -5 251.464 16.2153  14
   2  -7  -5 264.736 16.1389  12
   2  -7  -5 241.916 16.2598  15
   2  -7  -5 277.317 12.2004  10
   2  -7  -5 255.480 15.4705  13
   2  -7  -5 246.482 17.8071   5
   1  -7  -5 0.37955 0.25750  10
   1  -7  -5 -0.3717 0.67667  13
   1  -7  -5 0.40030 0.47072  12
   1  -7  -5 1.50545 0.95080  14
   1  -7  -5 -0.9779 1.49551   5
   0  -7  -5 1.11727 1.98742   5
   0  -7  -5 1.67414 0.42296  10
   0  -7  -5 1.19294 0.59446  13
   0  -7  -5 2.02784 0.63919  12
   0  -7  -5 1.06378 1.08399  14
  -1  -7  -5 0.35577 1.14842  14
  -1  -7  -5 0.25992 0.65738  12
  -1  -7  -5 -1.1535 1.40816   5
  -1  -7  -5 0.16945 0.71871  13
  -1  -7  -5 0.08298 0.32906  10
  -2  -7  -5 0.14686 0.34273  10
  -2  -7  -5 0.04983 0.75150  13
  -2  -7  -5 1.14955 0.62633  12
  -2  -7  -5 2.10727 0.98270  14
  -3  -7  -5 19.0355 1.73258  13
  -3  -7  -5 19.8311 1.27130  10
  -3  -7  -5 14.8673 2.02905  14
  -4  -7  -5 1.19233 0.55757  13
  -4  -7  -5 0.95884 0.87886  14
  -4  -7  -5 0.97500 0.41392  10
  -5  -7  -5 2.61639 0.55343  13
  11  -8  -5 15.5821 1.36986  16
  10  -8  -5 -0.4318 0.57690  16
   9  -8  -5 0.77676 0.24351  10
   9  -8  -5 0.83769 1.04555  16
   9  -8  -5 0.52562 0.54682  15
   8  -8  -5 149.224 9.10920  14
   8  -8  -5 144.705 9.51405  16
   8  -8  -5 139.256 6.74290  10
   8  -8  -5 133.612 9.19832  15
   7  -8  -5 1.12176 0.24319  10
   7  -8  -5 1.00525 0.66451  15
   7  -8  -5 1.42675 0.64297  14
   7  -8  -5 1.04716 1.12507  16
   6  -8  -5 27.0401 1.40485  10
   6  -8  -5 26.6356 2.49579  16
   6  -8  -5 27.8621 2.44048  14
   6  -8  -5 29.4420 2.59075  15
   6  -8  -5 31.5788 2.26547  13
   5  -8  -5 2.02511 0.97695  16
   5  -8  -5 3.07559 1.03661  15
   5  -8  -5 2.89010 0.85162  13
   5  -8  -5 3.96461 0.98499  14
   5  -8  -5 0.83013 2.38166   6
   4  -8  -5 118.428 7.71581  12
   4  -8  -5 117.040 7.96219  15
   4  -8  -5 122.027 7.47076  13
   4  -8  -5 114.558 7.83205  14
   3  -8  -5 61.2439 4.44430  15
   3  -8  -5 65.9679 4.19520  13
   3  -8  -5 52.6488 2.82208  10
   3  -8  -5 66.7697 4.30435  12
   3  -8  -5 62.4089 4.44772  14
   3  -8  -5 54.0238 5.94894   5
   2  -8  -5 19.2444 2.14985  15
   2  -8  -5 24.2189 2.36508  14
   2  -8  -5 23.9009 1.98125  13
   2  -8  -5 24.6354 2.13228  12
   2  -8  -5 21.3827 3.90947   5
   2  -8  -5 22.0436 1.18534  10
   1  -8  -5 0.56790 0.24962  10
   1  -8  -5 1.06814 0.73125  13
   1  -8  -5 -0.1999 0.92260  14
   1  -8  -5 0.67379 0.71271  12
   0  -8  -5 2.28925 1.21126  14
   0  -8  -5 3.00757 0.40914  10
   0  -8  -5 5.28171 0.86526  12
   0  -8  -5 3.36301 0.92279  13
  -1  -8  -5 16.3341 1.80038  13
  -1  -8  -5 13.9786 2.09352  14
  -1  -8  -5 16.7145 1.66680  12
  -1  -8  -5 16.0539 1.04752  10
  -2  -8  -5 2.54998 0.73363  13
  -2  -8  -5 2.45428 0.41874  10
  -2  -8  -5 3.07776 0.97642  14
  -2  -8  -5 2.48310 0.56025  12
  -3  -8  -5 3.60210 0.42872  10
  -3  -8  -5 4.11365 1.01439  14
  -3  -8  -5 3.58879 0.76491  13
  -4  -8  -5 21.2062 1.61691  13
  -4  -8  -5 22.0039 1.12920  10
  10  -9  -5 11.1115 1.24398  16
   9  -9  -5 31.4436 2.58640  16
   8  -9  -5 0.08976 0.71599  16
   8  -9  -5 0.07922 0.48857  14
   8  -9  -5 -0.1761 0.50300  15
   7  -9  -5 53.2980 3.90044  15
   7  -9  -5 55.4474 3.69843  14
   7  -9  -5 42.6073 3.93863  16
   6  -9  -5 20.9537 1.93366  14
   6  -9  -5 22.2422 1.99942  13
   6  -9  -5 18.2942 2.09918  16
   6  -9  -5 21.0687 2.28329  15
   5  -9  -5 2.43314 0.91525  14
   5  -9  -5 2.26977 1.06033  15
   5  -9  -5 1.58315 0.83450  13
   4  -9  -5 128.697 7.65907  13
   4  -9  -5 115.315 8.04851  14
   4  -9  -5 120.022 8.17165  15
   3  -9  -5 14.3035 1.69892  14
   3  -9  -5 14.4712 1.52521  13
   3  -9  -5 12.7492 1.57822  15
   3  -9  -5 15.1066 1.52871  12
   2  -9  -5 0.48963 0.80765  13
   2  -9  -5 0.54002 0.77818  12
   2  -9  -5 1.59423 0.87851  14
   1  -9  -5 15.1709 2.03318  14
   1  -9  -5 17.6965 1.83867  12
   1  -9  -5 17.0062 1.70901  13
   0  -9  -5 10.6509 1.29211  13
   0  -9  -5 10.6647 1.56151  14
   0  -9  -5 10.4763 1.27186  12
  -1  -9  -5 1.58806 0.62331  13
  -1  -9  -5 0.25167 0.42443  12
  -1  -9  -5 2.01924 0.81887  14
  -2  -9  -5 0.25029 0.50251  13
   9 -10  -5 0.50254 0.45025  15
   9 -10  -5 0.75179 0.57531  16
   8 -10  -5 16.0605 1.55520  15
   7 -10  -5 24.5690 2.09183  14
   7 -10  -5 19.3793 1.92817  16
   7 -10  -5 23.2650 2.02575  15
   6 -10  -5 38.5182 2.97616  14
   6 -10  -5 40.5292 3.14293  15
   5 -10  -5 0.44807 0.65735  14
   5 -10  -5 1.28394 0.98182  15
   5 -10  -5 1.10745 0.59193  13
   4 -10  -5 1.73152 0.93190  15
   4 -10  -5 3.15618 0.78098  13
   4 -10  -5 2.11340 0.95784  14
   3 -10  -5 -1.9066 0.86452  14
   3 -10  -5 0.64086 0.71618  13
   2 -10  -5 26.6900 2.14964  12
   2 -10  -5 27.6254 2.16269  13
   2 -10  -5 26.4855 2.42879  14
   1 -10  -5 0.91024 0.68523  12
   1 -10  -5 1.15612 0.79720  14
   1 -10  -5 -0.0370 0.73718  13
   0 -10  -5 0.52800 0.43882  12
   0 -10  -5 -1.1359 0.81597  14
   0 -10  -5 0.28884 0.48640  13
  -1 -10  -5 0.12028 0.40351  13
   7 -11  -5 22.4536 1.85993  15
   7 -11  -5 20.9232 1.74334  14
   6 -11  -5 6.34760 0.93496  14
   6 -11  -5 5.16196 0.89707  15
   5 -11  -5 49.3353 3.71812  14
   5 -11  -5 57.2689 3.76671  15
   4 -11  -5 21.0458 2.02012  14
   4 -11  -5 25.4797 1.85768  13
   3 -11  -5 39.0658 2.67508  13
   3 -11  -5 38.2307 2.90257  14
   2 -11  -5 0.37185 0.61247  14
   2 -11  -5 0.84682 0.45829  13
   0 -11   6 10.0462 1.04344  11
   1 -11   6 1.88260 0.61653  11
   2 -11   6 12.3648 1.34896  18
   2 -11   6 13.5808 1.54271  11
   3 -11   6 55.2234 3.67683  18
   3 -11   6 50.3412 3.58182  11
   4 -11   6 6.03850 0.87579  17
   4 -11   6 7.98684 1.09349  18
   5 -11   6 37.6378 2.57711  17
   5 -11   6 35.4547 2.73316  18
   6 -11   6 0.47427 0.56462  18
   6 -11   6 0.57028 0.51035  17
  -2 -10   6 22.8800 1.73305  11
  -2 -10   6 26.1484 2.09902  12
  -1 -10   6 57.4408 3.67965  11
  -1 -10   6 52.2116 4.09746  12
   0 -10   6 28.7562 2.59365  12
   0 -10   6 33.1104 2.44233  18
   0 -10   6 32.2788 2.39610  11
   1 -10   6 4.55428 0.90777  11
   1 -10   6 3.27838 0.98885  18
   1 -10   6 5.06852 0.94624  12
   2 -10   6 37.8216 3.08042  18
   2 -10   6 39.8204 3.06579  11
   3 -10   6 -0.1699 0.58930  18
   3 -10   6 1.08324 0.65407  11
   3 -10   6 0.90147 0.62222  17
   4 -10   6 30.0923 2.44571  18
   4 -10   6 28.4378 2.36126  17
   4 -10   6 24.7920 2.11786  11
   5 -10   6 13.3073 1.43018  16
   5 -10   6 12.3775 1.46609  17
   5 -10   6 13.7244 1.65591  18
   6 -10   6 32.5607 2.51106  16
   6 -10   6 28.0666 2.51839  18
   6 -10   6 31.4454 2.51025  17
   7 -10   6 59.6259 3.73164  16
   7 -10   6 48.4536 3.72593  18
   8 -10   6 0.08024 0.42531  17
  -4  -9   6 3.08850 0.66705  12
  -3  -9   6 12.7534 1.42573  12
  -3  -9   6 8.51594 0.96999  11
  -2  -9   6 -0.0974 0.66520  11
  -2  -9   6 -0.0164 0.64420  12
  -1  -9   6 3.21679 1.22941  12
  -1  -9   6 3.71144 1.04181  18
  -1  -9   6 3.78585 0.93164  11
   0  -9   6 -0.9648 0.58831  12
   0  -9   6 0.09449 0.53798  11
   0  -9   6 -0.0978 0.85324  18
   1  -9   6 0.19923 0.84261  11
   1  -9   6 -0.0801 0.59329  18
   1  -9   6 -0.0528 0.81293  12
   1  -9   6 -0.1486 0.58635  17
   2  -9   6 32.4245 2.68748  18
   2  -9   6 33.0967 2.81483  11
   2  -9   6 35.9675 2.78826  17
   3  -9   6 0.20346 0.58063  17
   3  -9   6 0.99576 0.80518  11
   3  -9   6 -0.1218 0.63780  18
   4  -9   6 -0.3059 0.60864  17
   4  -9   6 -0.3666 0.65435  11
   4  -9   6 0.63543 0.95619  16
   4  -9   6 -0.3172 0.65998  18
   5  -9   6 1.04508 1.10467  18
   5  -9   6 2.03322 0.78735  17
   5  -9   6 1.43782 0.72460  16
   6  -9   6 16.3207 2.03731  18
   6  -9   6 19.1330 1.83031  17
   6  -9   6 19.6601 1.98534  16
   7  -9   6 8.59048 1.44154  18
   7  -9   6 11.0671 1.28365  16
   7  -9   6 13.5885 1.41388  17
   8  -9   6 1.04095 0.59775  18
   8  -9   6 1.50383 0.57399  16
   8  -9   6 1.22025 0.62313  17
   9  -9   6 61.5994 3.84165  17
  -5  -8   6 25.7229 2.13412  12
  -5  -8   6 26.1293 1.35868  10
  -4  -8   6 0.12008 0.90212  12
  -4  -8   6 0.40456 0.29372  10
  -3  -8   6 2.76087 0.47664  10
  -3  -8   6 3.37918 0.95347  12
  -3  -8   6 2.71244 0.65117  11
  -2  -8   6 0.83440 0.80210  12
  -2  -8   6 1.02668 0.31018  10
  -2  -8   6 1.84819 0.65378  11
  -2  -8   6 0.89571 0.87983  18
  -1  -8   6 12.5489 1.72233  12
  -1  -8   6 9.19610 1.37556  18
  -1  -8   6 10.9267 0.75013  10
  -1  -8   6 11.5856 1.34857  11
   0  -8   6 31.5731 2.75668  18
   0  -8   6 32.5094 2.82910  12
   0  -8   6 34.4213 1.69645  10
   0  -8   6 31.1685 2.66442  11
   1  -8   6 1.01507 0.78835  12
   1  -8   6 0.62535 0.84148  17
   1  -8   6 1.05451 0.64062  11
   1  -8   6 0.91369 0.15393  10
   1  -8   6 2.22038 0.92206  18
   1  -8   6 -0.2972 2.20994   4
   2  -8   6 -2.7145 2.05602   4
   2  -8   6 -0.0501 0.73702  11
   2  -8   6 0.68214 0.85352  18
   2  -8   6 -0.2550 0.78220  16
   2  -8   6 -0.0254 0.77536  17
   3  -8   6 125.575 7.70517  17
   3  -8   6 130.811 8.23525  16
   3  -8   6 124.901 8.18168  18
   3  -8   6 116.885 9.97261   7
   3  -8   6 124.833 7.88260  11
   4  -8   6 77.6073 5.10071  16
   4  -8   6 74.8620 5.18118  18
   4  -8   6 74.5765 4.85032  17
   4  -8   6 65.2830 4.74965  11
   4  -8   6 65.6761 7.07523   7
   5  -8   6 9.58479 1.23508  17
   5  -8   6 7.39150 1.31862  16
   5  -8   6 6.85701 1.36196  18
   6  -8   6 13.9025 1.65693  16
   6  -8   6 13.6247 1.84240  18
   6  -8   6 12.0225 0.74157  10
   6  -8   6 14.5016 1.62512  17
   7  -8   6 42.1909 3.68712  18
   7  -8   6 46.2073 3.34912  16
   7  -8   6 49.3100 3.41980  17
   7  -8   6 46.0611 2.29198  10
   8  -8   6 0.81480 0.89420  18
   8  -8   6 -0.2119 0.68932  16
   8  -8   6 -0.0565 0.19221  10
   8  -8   6 -0.0100 0.58570  17
   9  -8   6 3.47300 0.69861  17
  -6  -7   6 65.9823 3.33341  10
  -6  -7   6 66.9712 4.43665  12
  -5  -7   6 25.7998 1.52891  10
  -5  -7   6 25.2341 2.21554  12
  -4  -7   6 18.2503 1.28979  10
  -4  -7   6 19.1483 2.17935  12
  -3  -7   6 0.52243 0.94325  12
  -3  -7   6 0.31071 0.37516  10
  -3  -7   6 -0.9774 0.55102  11
  -2  -7   6 13.0663 1.39353  18
  -2  -7   6 10.7597 0.88218  10
  -2  -7   6 9.06346 1.25112  11
  -2  -7   6 10.9696 1.67839  12
  -2  -7   6 10.9618 2.56954   4
  -1  -7   6 43.0581 3.48479  12
  -1  -7   6 37.7626 2.94714  18
  -1  -7   6 40.9058 3.00661  11
  -1  -7   6 40.2002 2.13334  10
  -1  -7   6 35.5499 4.70506   4
   0  -7   6 0.05969 0.64358  11
   0  -7   6 -0.5741 0.68354  18
   0  -7   6 -0.6452 1.72681   4
   0  -7   6 0.35841 0.75269  17
   0  -7   6 0.51866 0.79007  12
   0  -7   6 0.27136 0.24409  10
   1  -7   6 4.70058 0.91956  11
   1  -7   6 4.31426 0.83691  12
   1  -7   6 5.07686 1.72427   4
   1  -7   6 4.86831 1.03458  18
   1  -7   6 4.28091 0.42013  10
   1  -7   6 4.58062 0.93008  17
   2  -7   6 272.633 18.4768   7
   2  -7   6 293.458 17.0625  16
   2  -7   6 267.719 12.9054  10
   2  -7   6 274.602 15.9387  17
   2  -7   6 273.955 16.7435  18
   2  -7   6 260.008 17.9585   4
   2  -7   6 267.118 16.2421  11
   3  -7   6 112.321 6.89322  17
   3  -7   6 116.270 7.33102  16
   3  -7   6 114.685 5.38032  10
   3  -7   6 112.973 7.23473  18
   3  -7   6 101.696 6.93707  11
   3  -7   6 105.472 8.87181   7
   4  -7   6 50.3104 3.49850  16
   4  -7   6 48.4297 3.60871  18
   4  -7   6 44.7649 2.35298  10
   4  -7   6 44.6341 3.29154  17
   4  -7   6 41.2811 3.17944  11
   4  -7   6 44.3593 5.13382   7
   5  -7   6 0.88871 0.91197  16
   5  -7   6 0.13479 1.50698   7
   5  -7   6 0.54444 0.59778  17
   5  -7   6 0.70272 0.36701  10
   5  -7   6 1.39263 0.81255  18
   6  -7   6 12.7395 0.99174  10
   6  -7   6 14.0960 1.61640  16
   6  -7   6 11.5618 1.51071  17
   6  -7   6 15.7547 1.87500  18
   7  -7   6 70.8675 5.65296  18
   7  -7   6 85.1530 5.37365  17
   7  -7   6 81.4461 5.53797  16
   7  -7   6 88.5412 4.14815  10
   8  -7   6 4.02107 0.91570  18
   8  -7   6 3.62935 0.44000  10
   8  -7   6 3.75043 0.96878  17
   8  -7   6 2.30406 0.67904  16
   9  -7   6 4.29425 0.50095  10
   9  -7   6 5.39989 0.83170  18
   9  -7   6 5.48959 0.87766  17
  10  -7   6 16.6937 1.48170  17
  10  -7   6 20.9261 1.03808  10
  -7  -6   6 35.2291 2.70838  12
  -7  -6   6 43.3617 2.14114  10
  -6  -6   6 6.00775 0.67281  10
  -6  -6   6 5.94867 0.54875   9
  -6  -6   6 6.10627 0.97947  12
  -5  -6   6 9.74355 1.34757  12
  -5  -6   6 9.37509 0.89758   9
  -5  -6   6 8.82454 0.94113  10
  -4  -6   6 54.9101 2.91656   9
  -4  -6   6 59.5015 4.22450  12
  -4  -6   6 53.5612 3.01530  10
  -3  -6   6 48.0248 2.45329   9
  -3  -6   6 46.8107 3.40399  18
  -3  -6   6 38.5009 4.74392   4
  -3  -6   6 43.9329 3.19527  11
  -3  -6   6 50.8791 3.81546  12
  -3  -6   6 47.1759 2.57617  10
  -2  -6   6 84.8130 5.47119  11
  -2  -6   6 73.5988 6.00043   3
  -2  -6   6 86.5135 5.59507  18
  -2  -6   6 88.6920 5.89595   2
  -2  -6   6 88.4497 4.19984   9
  -2  -6   6 95.8415 6.07741  12
  -2  -6   6 87.2338 4.31360  10
  -2  -6   6 69.5175 7.00922   4
  -1  -6   6 12.3991 1.38507  17
  -1  -6   6 10.8835 0.79914  10
  -1  -6   6 7.94890 2.02402   4
  -1  -6   6 10.7296 0.69085   9
  -1  -6   6 10.0519 1.13190  11
  -1  -6   6 10.9499 1.49844  12
  -1  -6   6 6.40954 1.19257   3
  -1  -6   6 10.8678 1.28722  18
  -1  -6   6 8.44297 1.32387   2
   0  -6   6 3.70989 0.79647  11
   0  -6   6 2.91138 0.72261   3
   0  -6   6 4.89405 0.76921  17
   0  -6   6 4.81181 0.92779  18
   0  -6   6 4.40411 0.80612   2
   0  -6   6 3.72566 0.90058  12
   0  -6   6 4.04492 0.35903   9
   0  -6   6 3.42126 1.67844   4
   0  -6   6 4.64338 0.48784  10
   1  -6   6 38.5145 1.93519  10
   1  -6   6 34.6403 2.73801  18
   1  -6   6 38.0564 2.62963  17
   1  -6   6 29.7214 2.67911  12
   1  -6   6 36.8154 3.77635   4
   1  -6   6 38.1561 2.70159  16
   1  -6   6 36.4700 3.85851   7
   1  -6   6 35.9348 2.58693  11
   2  -6   6 33.8705 1.80112  10
   2  -6   6 32.9992 3.89759   7
   2  -6   6 34.3620 2.52287  11
   2  -6   6 35.5019 2.54514  16
   2  -6   6 31.2974 3.84524   4
   2  -6   6 31.8868 2.45818  17
   2  -6   6 31.0992 2.56874  18
   3  -6   6 11.4473 1.33783  18
   3  -6   6 14.6935 1.50766  16
   3  -6   6 10.2900 2.17606   4
   3  -6   6 12.2643 0.82365  10
   3  -6   6 12.0686 1.32906  11
   3  -6   6 11.5233 1.25752  17
   3  -6   6 12.5064 2.54704   7
   4  -6   6 1.24999 0.18867   9
   4  -6   6 0.94670 0.54181   2
   4  -6   6 1.43835 0.77253  18
   4  -6   6 1.23213 0.57813  11
   4  -6   6 1.36968 0.32561  10
   4  -6   6 -0.0798 1.44904   7
   4  -6   6 1.22106 0.57076  16
   4  -6   6 -0.0110 0.61378  17
   4  -6   6 0.73827 0.45279   3
   5  -6   6 58.4410 4.14084  18
   5  -6   6 57.8996 5.60815   7
   5  -6   6 50.6376 3.95070   3
   5  -6   6 58.4361 3.86608  17
   5  -6   6 59.9581 4.03436  16
   5  -6   6 55.8403 2.76479   9
   5  -6   6 59.7829 2.97482  10
   5  -6   6 50.0948 3.88372   2
   6  -6   6 2.59374 1.12265  18
   6  -6   6 2.00857 0.48330  10
   6  -6   6 3.45833 0.90988  17
   6  -6   6 3.26271 0.92261  16
   6  -6   6 1.80296 2.05096   7
   6  -6   6 1.10664 1.16343   2
   6  -6   6 4.10833 0.43471   9
   7  -6   6 2.56275 0.38940   9
   7  -6   6 2.10529 0.69915  17
   7  -6   6 0.36932 0.73067  16
   7  -6   6 1.76952 0.48554  10
   7  -6   6 0.61485 0.96961  18
   8  -6   6 11.8927 0.95554  10
   8  -6   6 12.4191 0.73322   9
   8  -6   6 13.3067 1.44035  17
   8  -6   6 10.4083 1.57714  18
   9  -6   6 2.13699 0.81083  18
   9  -6   6 3.36302 0.55509  10
   9  -6   6 4.49561 0.82329  17
  10  -6   6 52.7805 3.45467  17
  10  -6   6 54.3552 2.75665  10
  -8  -5   6 0.49901 0.26375   9
  -8  -5   6 0.18040 0.47253  10
  -7  -5   6 1.16327 0.56547  12
  -7  -5   6 1.60927 0.47536  10
  -7  -5   6 0.22355 0.42186   9
  -7  -5   6 1.48836 0.82211  13
  -6  -5   6 32.1683 1.87728   9
  -6  -5   6 31.1600 2.00851  10
  -6  -5   6 29.6477 2.60768  13
  -6  -5   6 30.8749 2.69315  12
  -5  -5   6 0.35738 0.45837   9
  -5  -5   6 -0.9742 0.44084  10
  -5  -5   6 -0.2426 0.87553  13
  -5  -5   6 1.07334 0.77484  12
  -4  -5   6 10.5458 1.48287  12
  -4  -5   6 9.42726 0.87319   9
  -4  -5   6 10.4430 0.98050  10
  -4  -5   6 9.44365 2.31872   4
  -4  -5   6 6.97467 1.90963   2
  -3  -5   6 30.3402 3.42825   3
  -3  -5   6 36.1830 2.72998  12
  -3  -5   6 30.7894 1.78919   9
  -3  -5   6 29.2012 2.35576  11
  -3  -5   6 29.8264 2.32347  18
  -3  -5   6 32.3431 3.67569   4
  -3  -5   6 33.3911 1.89133  10
  -2  -5   6 3.59258 0.54318  10
  -2  -5   6 4.72873 1.06297  12
  -2  -5   6 3.94065 0.76624  11
  -2  -5   6 4.50744 0.49580   9
  -2  -5   6 4.63494 0.84002  18
  -2  -5   6 4.00238 1.67370   4
  -2  -5   6 5.40331 1.25118   2
  -2  -5   6 4.15045 1.18825   3
  -1  -5   6 38.3986 3.97822   4
  -1  -5   6 35.9302 2.74974  18
  -1  -5   6 38.6775 2.12239  10
  -1  -5   6 38.4880 3.23140   3
  -1  -5   6 43.1142 3.25337   2
  -1  -5   6 39.8207 2.05814   9
  -1  -5   6 42.0639 3.11737  12
  -1  -5   6 44.5115 2.78052  17
  -1  -5   6 35.8428 2.72928  11
   0  -5   6 250.119 15.0777   3
   0  -5   6 252.005 15.5597   4
   0  -5   6 232.539 11.2200   9
   0  -5   6 227.209 14.0669  11
   0  -5   6 240.120 13.8294  17
   0  -5   6 240.149 11.3504  10
   0  -5   6 220.785 14.4849  18
   0  -5   6 253.948 14.0323   2
   1  -5   6 85.4719 6.37185   7
   1  -5   6 80.3466 5.16088  16
   1  -5   6 81.7902 5.09147   2
   1  -5   6 76.7724 3.85818  10
   1  -5   6 78.6451 5.35343   3
   1  -5   6 82.4654 6.23500   4
   1  -5   6 72.9979 3.76964   9
   1  -5   6 74.3685 4.89018  11
   2  -5   6 6.66138 0.56495   9
   2  -5   6 7.29595 1.13230   3
   2  -5   6 8.67767 1.08189  16
   2  -5   6 6.81377 1.78315   4
   2  -5   6 7.15621 0.61125  10
   2  -5   6 8.78254 1.74771   7
   2  -5   6 8.23961 1.05816  17
   2  -5   6 7.61817 1.18946   2
   2  -5   6 7.11449 1.00382  18
   3  -5   6 0.57218 0.55623  17
   3  -5   6 1.00656 0.64142  16
   3  -5   6 0.29724 0.72401   2
   3  -5   6 -0.6144 1.24364   7
   3  -5   6 1.12281 0.35066  10
   3  -5   6 -0.3928 0.96303   4
   3  -5   6 0.95782 0.52847  18
   3  -5   6 0.34788 0.50469   3
   3  -5   6 0.98140 0.30808   9
   4  -5   6 52.5662 3.97040   2
   4  -5   6 52.3449 2.65464  10
   4  -5   6 46.7378 3.29937  17
   4  -5   6 51.1938 3.51136  16
   4  -5   6 49.3187 4.99227   7
   4  -5   6 49.9710 3.89568   3
   4  -5   6 49.4845 2.57748   9
   4  -5   6 51.6084 3.66803  18
   5  -5   6 14.0736 1.49460  17
   5  -5   6 13.9917 1.04028  10
   5  -5   6 15.4199 2.88103   7
   5  -5   6 14.8277 1.60870  18
   5  -5   6 16.0293 2.05120   2
   5  -5   6 12.2014 1.45373  16
   5  -5   6 13.7301 0.95926   9
   6  -5   6 86.8102 5.46423  17
   6  -5   6 79.0932 5.63737  16
   6  -5   6 89.7753 4.29222   9
   6  -5   6 78.9096 7.24395   7
   6  -5   6 88.8691 4.40401  10
   6  -5   6 79.7670 6.16095   2
   6  -5   6 91.8705 6.02286  18
   7  -5   6 20.0171 3.77951   7
   7  -5   6 25.9869 2.21838  17
   7  -5   6 25.4922 2.40950  18
   7  -5   6 29.3698 1.73077  10
   7  -5   6 24.4303 1.54862   9
   8  -5   6 0.52858 0.37750   9
   8  -5   6 0.07634 0.53147  17
   8  -5   6 0.99291 0.67537  18
   8  -5   6 0.27661 0.45933  10
   9  -5   6 43.6836 3.19012  17
   9  -5   6 46.5335 2.52786  10
   9  -5   6 45.6268 3.35139  18
   9  -5   6 45.4107 2.34699   9
  10  -5   6 5.50228 0.73506  17
  10  -5   6 3.94927 0.50766  10
  -9  -4   6 49.9163 2.50411   9
  -8  -4   6 0.61983 0.53555   9
  -8  -4   6 1.59339 0.81459  13
  -7  -4   6 1.89960 0.69776  10
  -7  -4   6 -0.0163 0.75333  12
  -7  -4   6 0.02216 0.51823   9
  -7  -4   6 1.14351 0.70974  13
  -7  -4   6 1.09131 0.33266   8
  -6  -4   6 3.83636 0.56882   8
  -6  -4   6 4.03017 0.70555   9
  -6  -4   6 3.51501 0.73476  10
  -6  -4   6 3.78995 0.94599  12
  -5  -4   6 8.90757 2.28543   2
  -5  -4   6 6.88522 0.80198  10
  -5  -4   6 8.77536 1.22103  12
  -5  -4   6 6.29583 0.67116   8
  -5  -4   6 7.29061 0.82947   9
  -4  -4   6 44.8054 4.88075   4
  -4  -4   6 52.2020 2.73968   9
  -4  -4   6 48.6781 2.78353  10
  -4  -4   6 56.9616 3.86960  12
  -4  -4   6 50.1269 2.69428   8
  -4  -4   6 44.9149 4.66301   3
  -4  -4   6 50.4141 4.53301   2
  -3  -4   6 3.40295 1.32169   3
  -3  -4   6 3.76230 0.43674   8
  -3  -4   6 5.72336 1.44648   2
  -3  -4   6 4.59997 0.56199   9
  -3  -4   6 2.67281 1.45974   4
  -3  -4   6 3.04771 0.65956  11
  -3  -4   6 3.45066 0.56270  10
  -2  -4   6 6.28341 1.56989   4
  -2  -4   6 5.12811 0.56306   9
  -2  -4   6 6.53475 1.38844   2
  -2  -4   6 5.97904 1.38585   3
  -2  -4   6 5.55625 0.50004   8
  -1  -4   6 10.7928 1.52569   2
  -1  -4   6 8.72116 1.40959   3
  -1  -4   6 7.45124 1.74010   4
   0  -4   6 10.7652 1.48542   2
   0  -4   6 11.0205 1.92016   7
   0  -4   6 15.9774 2.20842   4
   0  -4   6 10.5644 1.54105   3
   1  -4   6 59.7087 5.10266   7
   1  -4   6 65.1306 4.62170   3
   1  -4   6 65.5933 4.46748   2
   1  -4   6 67.6212 5.14085   4
   2  -4   6 92.6993 6.00050   2
   2  -4   6 97.3942 6.78908   4
   2  -4   6 89.6886 6.30511   3
   2  -4   6 87.2239 6.81645   7
   3  -4   6 2.80927 1.20450   7
   3  -4   6 3.27996 1.23553   4
   3  -4   6 3.77614 0.97198   3
   3  -4   6 5.60041 1.31148   2
   4  -4   6 53.9348 2.80487  10
   4  -4   6 50.5283 2.71994   8
   4  -4   6 51.8026 2.73678   9
   4  -4   6 55.5391 4.81738   7
   4  -4   6 59.9008 4.27410   2
   4  -4   6 50.6132 3.45741  17
   4  -4   6 53.6965 3.77470  18
   4  -4   6 61.0323 4.37926   3
   5  -4   6 51.3562 4.42943   3
   5  -4   6 53.9263 4.41153   2
   5  -4   6 57.4600 2.84540  10
   5  -4   6 50.8480 3.45045  17
   5  -4   6 51.6655 2.77426   9
   5  -4   6 52.3341 2.74234   8
   5  -4   6 54.4507 4.98927   7
   6  -4   6 28.6730 1.56864   8
   6  -4   6 29.7616 4.15404   7
   6  -4   6 27.6379 1.64494   9
   6  -4   6 28.6659 1.77594  10
   6  -4   6 28.3613 3.41116   2
   6  -4   6 25.2339 2.08460  17
   7  -4   6 12.4484 3.17678   7
   7  -4   6 19.1885 1.13370   8
   7  -4   6 18.7504 1.37891   9
   7  -4   6 20.0544 2.17052  18
   7  -4   6 19.0957 1.44064  10
   7  -4   6 19.2855 1.85095  17
   8  -4   6 4.11921 0.77108  10
   8  -4   6 6.72362 1.22813  18
   8  -4   6 6.39531 1.05954  17
   8  -4   6 6.16416 0.74903   9
   9  -4   6 11.2286 1.05274  10
   9  -4   6 11.1295 1.25284  17
   9  -4   6 11.8995 1.30984  18
   9  -4   6 12.3894 0.97954   9
  10  -4   6 8.02548 0.90349  17
  10  -4   6 8.10620 0.63936   9
  10  -4   6 7.24761 0.77848  10
  -9  -3   6 3.01012 0.65945  13
  -9  -3   6 4.20177 0.55128   9
  -8  -3   6 8.48464 0.88580   9
  -7  -3   6 41.7628 3.20399  12
  -7  -3   6 38.2931 2.45937   9
  -7  -3   6 42.1420 2.37795   8
  -6  -3   6 207.593 10.1800   9
  -6  -3   6 210.150 10.4295   8
  -6  -3   6 186.404 13.8758   2
  -6  -3   6 223.920 13.3849  12
  -5  -3   6 116.402 5.59477   8
  -5  -3   6 103.025 8.47149   3
  -5  -3   6 109.570 8.12091   2
  -5  -3   6 98.1355 8.06910   4
  -5  -3   6 110.386 5.50073   9
  -4  -3   6 219.999 12.8357   2
  -4  -3   6 212.845 13.2894   4
  -4  -3   6 182.298 9.64196  10
  -4  -3   6 212.875 13.7097   3
  -4  -3   6 196.800 9.59369   9
  -4  -3   6 189.952 9.84281   8
  -3  -3   6 5.83562 1.59557   4
  -3  -3   6 5.65616 1.46181   2
  -3  -3   6 5.82792 1.53475   3
  -2  -3   6 0.80438 0.86747   3
  -2  -3   6 1.24852 1.00575   4
  -2  -3   6 1.68866 0.94501   2
  -1  -3   6 12.9718 1.75252   3
  -1  -3   6 13.7083 2.02592   4
  -1  -3   6 12.8055 1.73586   2
   0  -3   6 0.80274 0.70583   4
   0  -3   6 0.76370 0.71176   7
   0  -3   6 0.91352 0.74197   2
   0  -3   6 0.36882 0.64055   3
   1  -3   6 118.729 8.24104   7
   1  -3   6 127.154 8.22657   4
   1  -3   6 113.402 7.95842   3
   1  -3   6 123.626 7.58952   2
   2  -3   6 0.55948 0.94779   4
   2  -3   6 1.59379 0.99306   7
   2  -3   6 -0.5597 0.60240   2
   2  -3   6 0.12636 0.60604   3
   3  -3   6 190.743 11.8574   2
   3  -3   6 197.630 12.8962   7
   3  -3   6 194.232 12.6543   3
   4  -3   6 27.3533 2.70420   2
   4  -3   6 22.7715 1.36929   8
   4  -3   6 23.1828 2.58648   3
   4  -3   6 23.9472 2.91733   7
   5  -3   6 1.39679 0.47297   9
   5  -3   6 1.57888 0.57945  17
   5  -3   6 5.19644 1.48389   2
   5  -3   6 1.43703 0.46366  10
   5  -3   6 1.83163 0.37407   8
   5  -3   6 1.14867 1.05850   3
   5  -3   6 2.69276 1.49547   7
   6  -3   6 563.205 33.3590   2
   6  -3   6 552.652 32.4303  17
   6  -3   6 563.622 26.8694  10
   6  -3   6 576.822 35.7409   7
   6  -3   6 594.551 27.5758   8
   6  -3   6 555.740 26.6973   9
   7  -3   6 2.23307 0.60605  10
   7  -3   6 2.07089 2.07028   7
   7  -3   6 1.44057 0.58476  17
   7  -3   6 1.82383 0.40973   8
   7  -3   6 1.41116 0.43208   9
   8  -3   6 7.47223 0.70776   8
   8  -3   6 9.74165 0.95783   9
   8  -3   6 8.12887 0.89402  10
   8  -3   6 6.47950 1.04840  17
   9  -3   6 0.00049 0.65488  17
   9  -3   6 0.20151 0.16730   8
   9  -3   6 0.22773 0.67383  18
   9  -3   6 -1.0389 0.43037   9
  10  -3   6 17.5597 1.08425   9
  10   2  -6 -0.1099 0.28999   8
 -10  -2   6 -0.3373 0.40273   9
 -10  -2   6 -0.1720 0.17688   8
 -10  -2   6 -0.0847 0.47366  13
  -9  -2   6 0.74581 0.62057   9
  -9  -2   6 1.55135 0.37026   8
  -8  -2   6 25.6393 1.70040   8
  -8  -2   6 23.0755 2.14489  12
  -7  -2   6 11.2682 1.11545   8
  -6  -2   6 0.47826 0.35409   8
  -5  -2   6 42.8312 2.34336   8
  -5  -2   6 38.3021 4.00095   3
  -5  -2   6 38.1276 2.33384   9
  -5  -2   6 42.5401 4.20243   2
  -4  -2   6 799.067 49.3699   3
  -3  -2   6 1332.51 75.9680   2
  -3  -2   6 1371.27 82.2537   3
  -2  -2   6 41.8445 3.40398   2
  -2  -2   6 42.2823 3.40480   4
  -2  -2   6 38.2056 3.03342   1
  -2  -2   6 42.0892 3.50445   3
   1   2  -6 0.67654 0.69309   1
  -1  -2   6 1.98138 0.86986   3
  -1  -2   6 2.78963 0.95109   2
  -1  -2   6 0.95209 0.64874   1
  -1  -2   6 1.23187 0.60251   1
  -1  -2   6 2.67958 0.96601   4
   0   2  -6 0.35185 0.44200   1
   0   2  -6 0.08192 0.57073   1
   0  -2   6 0.42091 0.50762   1
   0  -2   6 0.80381 0.49277   1
   0  -2   6 0.84947 0.59258   7
   0  -2   6 0.60698 0.54726   2
   0  -2   6 -0.5111 0.52379   3
  -1   2  -6 9.84796 1.40069   1
   1  -2   6 11.8540 1.68157   7
   1  -2   6 9.20259 1.28919   1
   1  -2   6 12.5514 1.62780   3
   1  -2   6 12.0173 1.43527   1
   1  -2   6 12.1277 1.62370   2
   2  -2   6 21.4581 2.16989   3
   2  -2   6 20.7771 2.26783   7
   2  -2   6 21.8338 2.22351   2
   2  -2   6 17.3297 1.89164   1
   3  -2   6 18.8885 2.32784   2
   3  -2   6 20.8622 2.37367   7
   3  -2   6 18.3531 2.17967   3
   4  -2   6 193.510 11.9137   2
   4  -2   6 179.662 12.4903   3
   4  -2   6 191.043 12.5754   7
   5  -2   6 2.70281 0.47315   8
   5  -2   6 1.86336 0.41273   9
   5  -2   6 3.74032 1.42928   3
   5  -2   6 0.36460 0.86749   2
   5  -2   6 1.28510 0.53133  17
   5  -2   6 1.55037 1.24584   7
   6  -2   6 16.3503 2.94796   2
   6  -2   6 19.0891 1.38777   9
   6  -2   6 17.4623 1.51777  17
   6  -2   6 17.6691 2.94850   7
   6  -2   6 14.6302 2.80369   3
   6  -2   6 19.6418 1.33692   8
   7  -2   6 39.1388 2.43323   9
   7  -2   6 39.8006 2.92528  17
   7  -2   6 42.7338 2.42108   8
   8  -2   6 12.2395 1.09620   9
   8  -2   6 14.1320 1.08021   8
   8  -2   6 12.9119 1.49440  17
   9  -2   6 21.7693 1.31415   8
   9  -2   6 23.0789 1.56641   9
  10  -2   6 19.5927 1.19880   9
  10   1  -6 1.37351 0.37953   8
 -10  -1   6 0.16883 0.31280   8
   9   1  -6 15.7362 1.32486   8
  -9  -1   6 16.4305 1.23376   8
  -8  -1   6 6.97238 0.81948   8
  -7  -1   6 2.29504 0.59987   8
  -6  -1   6 2.32247 0.57318   8
  -4  -1   6 0.70591 1.01896   2
  -4  -1   6 1.10586 0.93553   4
  -4  -1   6 1.34787 0.90164   3
   3   1  -6 26.7259 2.41120   6
   3   1  -6 22.9150 2.26188   1
  -3  -1   6 24.9048 2.37390   1
  -3  -1   6 27.2835 2.73171   3
  -3  -1   6 25.2552 2.66051   2
  -3  -1   6 28.1757 2.56002   4
   2   1  -6 7.84344 1.25049   1
   2   1  -6 9.76088 1.53430   2
   2   1  -6 10.0073 1.51279   3
   2   1  -6 8.31545 1.20187   1
  -2  -1   6 11.6648 1.61567   4
  -2  -1   6 10.4269 1.52647   3
  -2  -1   6 8.17781 1.15269   1
  -2  -1   6 9.60578 1.36585   1
  -2  -1   6 9.47171 1.53906   2
   1   1  -6 208.886 13.3355   2
   1   1  -6 220.118 12.1583   1
   1   1  -6 228.060 12.2326   1
   1   1  -6 223.970 14.4037   3
  -1  -1   6 222.561 12.1406   1
  -1  -1   6 235.462 13.3739   2
  -1  -1   6 243.402 14.3571   3
  -1  -1   6 212.928 12.0946   1
   0   1  -6 129.899 8.87494   3
   0   1  -6 130.991 7.54597   1
   0   1  -6 135.776 7.62142   1
   0   1  -6 118.411 8.24829   2
   0  -1   6 141.052 8.63138   7
   0  -1   6 135.511 8.79505   3
   0  -1   6 135.823 7.53896   1
   0  -1   6 125.911 7.45755   1
   0  -1   6 142.694 8.34790   2
  -1   1  -6 158.718 11.3519   3
  -1   1  -6 169.329 9.67854   1
  -1   1  -6 162.068 10.6177   2
  -1   1  -6 178.557 9.72069   1
   1  -1   6 178.936 9.68688   1
   1  -1   6 185.735 10.6673   2
   1  -1   6 178.312 11.2840   3
   1  -1   6 174.880 9.63464   1
   1  -1   6 183.041 11.1104   7
  -2   1  -6 147.508 8.71603   1
   2  -1   6 164.772 9.65906   2
   2  -1   6 161.648 9.96911   7
   2  -1   6 142.239 8.63899   1
   2  -1   6 148.701 8.71388   1
   2  -1   6 152.009 10.1298   3
   3  -1   6 24.4921 2.53302   7
   3  -1   6 25.8110 2.52568   3
   3  -1   6 26.8699 2.75449   2
   3  -1   6 22.6584 2.48008   1
   4  -1   6 499.119 28.3915   2
   4  -1   6 465.201 30.3071   3
   4  -1   6 486.683 29.8824   7
   5  -1   6 67.9855 5.90471   2
   5  -1   6 74.0474 3.90794   8
   5  -1   6 72.3541 5.97162   3
   5  -1   6 77.7348 6.04059   7
   6  -1   6 0.52058 1.60319   7
   6  -1   6 -0.3069 0.41720   8
   7  -1   6 8.04567 0.84288   8
   8  -1   6 74.3992 3.99257   8
   9  -1   6 0.08426 0.38943   9
   9  -1   6 -0.0350 0.22346   8
  11   0  -6 -0.1796 0.22848   8
 -11   0   6 -0.2621 0.34510   8
  10   0  -6 184.245 8.57319   8
 -10   0   6 158.317 8.57102   8
   9   0  -6 6.51387 0.82016   8
  -9   0   6 7.11665 0.91738   8
   8   0  -6 0.12974 0.49259   8
   7   0  -6 5.69003 0.76313   8
   4   0  -6 8.33244 1.33744   6
   4   0  -6 8.66139 1.64457   3
   4   0  -6 6.69853 1.31837   2
  -4   0   6 8.03750 1.74763   3
  -4   0   6 8.61804 1.34827   4
  -4   0   6 4.98592 1.33297   2
   3   0  -6 22.7573 2.11606   1
   3   0  -6 23.1951 2.11939   6
   3   0  -6 21.2098 2.28675   2
   3   0  -6 23.6095 2.28813   3
   3   0  -6 18.6607 1.86686   1
  -3   0   6 22.1879 2.40213   2
  -3   0   6 18.0065 1.86160   1
  -3   0   6 23.8388 2.32566   3
  -3   0   6 22.9912 2.15487   4
  -3   0   6 23.0073 2.16008   1
   2   0  -6 16.6396 1.64112   1
   2   0  -6 19.9631 2.04811   2
   2   0  -6 17.6676 1.72498   1
   2   0  -6 17.8899 1.92660   3
  -2   0   6 16.3302 1.62691   1
  -2   0   6 18.0728 1.80339   1
  -2   0   6 19.7841 2.14635   2
  -2   0   6 18.5903 1.92667   3
   1   0  -6 4.95350 1.11890   2
   1   0  -6 4.78918 0.95920   1
   1   0  -6 7.04466 1.27315   3
   1   0  -6 5.54319 1.05163   1
  -1   0   6 5.60460 0.97756   1
  -1   0   6 4.95398 1.08000   3
  -1   0   6 5.87637 1.01273   1
  -1   0   6 4.31527 1.09249   2
   0   0  -6 101.175 6.13247   1
   0   0  -6 104.101 6.78805   2
   0   0  -6 105.580 7.22718   3
   0   0  -6 105.934 6.21071   1
   0   0  -6 108.142 6.87042   5
   0   0   6 103.566 6.12384   1
   0   0   6 97.5189 6.09934   1
   0   0   6 106.811 7.16360   3
   0   0   6 113.082 6.81061   7
   0   0   6 104.634 6.79611   2
  -1   0  -6 12.7672 1.78915   2
  -1   0  -6 12.8432 1.55029   1
  -1   0  -6 14.5074 1.63632   1
  -1   0  -6 12.0743 1.33511   5
  -1   0  -6 13.9955 1.83245   3
   1   0   6 13.8912 1.61305   1
   1   0   6 11.8761 1.38049   7
   1   0   6 12.3570 1.74089   2
   1   0   6 11.3233 1.45586   1
   1   0   6 15.3305 1.74102   3
  -2   0  -6 8.11586 1.51076   3
  -2   0  -6 8.16170 1.26887   1
  -2   0  -6 8.32626 1.22354   5
  -2   0  -6 8.92610 1.46813   2
  -2   0  -6 6.07127 1.22293   1
   2   0   6 6.86447 1.31851   2
   2   0   6 8.24833 1.28840   1
   2   0   6 9.77171 1.61238   3
   2   0   6 5.45949 1.19448   1
   2   0   6 8.69469 1.35392   7
  -3   0  -6 10.6103 1.56611   5
   3   0   6 11.2503 1.90031   3
   3   0   6 8.92811 1.49908   7
   3   0   6 12.3781 1.87163   2
  -4   0  -6 18.4181 2.09955   5
   4   0   6 17.5792 2.35790   7
   5   0   6 47.6138 2.84910   8
   6   0   6 47.2771 2.77540   8
   7   0   6 19.6626 1.50769   8
  -8   0  -6 1.86626 0.62860   8
   8   0   6 2.34115 0.57878   8
  -9   0  -6 8.64777 0.84334   8
   9   0   6 9.53658 0.75790   8
  11  -1  -6 0.42721 0.23079   8
  11  -1  -6 0.21470 0.31934   9
 -11   1   6 -0.2649 0.28854   8
  10  -1  -6 9.07084 0.89198   8
   9  -1  -6 41.1082 2.43097   8
   9  -1  -6 41.0993 3.04023  16
   8  -1  -6 18.4387 1.40487   8
   7  -1  -6 69.7325 3.75248   8
   6  -1  -6 131.840 6.91176   8
   6  -1  -6 134.418 9.83901   3
   6  -1  -6 151.683 9.55472   2
   5  -1  -6 29.0753 2.78125   2
   5  -1  -6 25.3199 2.72106   6
   5  -1  -6 24.5401 2.82790   3
   4  -1  -6 8.70032 1.49352   2
   4  -1  -6 8.91976 1.55748   6
   4  -1  -6 7.34618 1.22601   1
   4  -1  -6 11.2745 1.72939   3
  -4   1   6 8.31174 1.32251   4
   3  -1  -6 16.3075 1.75120   1
   3  -1  -6 17.6342 1.96830   6
   3  -1  -6 15.4560 1.91987   3
   3  -1  -6 17.7768 1.95006   2
   3  -1  -6 12.6952 1.62797   1
  -3   1   6 14.9546 1.74707   1
   2  -1  -6 2.07881 0.72848   1
   2  -1  -6 1.95716 0.82341   3
   2  -1  -6 1.62470 0.83301   2
   2  -1  -6 2.09769 0.76166   1
  -2   1   6 1.36156 0.73609   1
  -2   1   6 1.69576 0.77916   1
  -2   1   6 1.14260 0.84405   2
  -2   1   6 1.13119 0.84148   3
   1  -1  -6 11.0369 1.57539   3
   1  -1  -6 12.8650 1.45741   5
   1  -1  -6 10.3636 1.36615   1
   1  -1  -6 10.3708 1.45706   2
   1  -1  -6 10.2426 1.26364   1
  -1   1   6 10.2395 1.33799   1
  -1   1   6 9.45761 1.45568   2
  -1   1   6 10.5534 1.30396   1
  -1   1   6 9.93577 1.54430   3
   0  -1  -6 40.9391 3.15858   2
   0  -1  -6 38.3697 3.03044   5
   0  -1  -6 35.1765 2.66915   1
   0  -1  -6 38.3834 2.78652   1
   0  -1  -6 39.0246 3.19389   3
   0   1   6 36.3674 3.11770   3
   0   1   6 36.9002 3.12376   2
   0   1   6 35.4408 2.67852   1
   0   1   6 38.1779 2.80390   1
  -1  -1  -6 341.758 19.1989   2
  -1  -1  -6 322.804 17.4520   1
  -1  -1  -6 321.159 17.4451   1
  -1  -1  -6 334.214 20.5893   3
  -1  -1  -6 345.664 20.5754   5
   1   1   6 321.590 17.4416   1
   1   1   6 316.787 20.5704   3
   1   1   6 309.832 19.1568   2
   1   1   6 324.426 17.4731   1
  -2  -1  -6 3.63509 1.01466   5
  -2  -1  -6 1.95233 1.10579   3
  -2  -1  -6 1.88937 1.02738   1
  -2  -1  -6 3.60209 1.10940   2
   2   1   6 1.73434 1.01904   1
  -3  -1  -6 89.5702 6.45701   2
  -3  -1  -6 90.2375 6.62233   5
  -3  -1  -6 88.9519 6.71304   3
  -4  -1  -6 3.60882 0.61557   8
  -4  -1  -6 3.97967 1.39489   5
  -5  -1  -6 125.565 6.47347   8
  -6  -1  -6 7.54265 0.91793   8
  -7  -1  -6 7.58024 0.83266   8
   7   1   6 6.41319 0.86546   8
  -8  -1  -6 1.86488 0.55334   8
   8   1   6 1.28007 0.41892   8
  -9  -1  -6 3.12509 0.42217   8
   9   1   6 3.14559 0.49452   8
  11  -2  -6 -0.0598 0.30054   9
  11  -2  -6 0.18708 0.50522  17
  10  -2  -6 4.25340 0.67755   9
  10  -2  -6 4.49861 0.54562   8
  10  -2  -6 3.27079 0.84381  16
   9  -2  -6 0.62177 0.51737   9
   9  -2  -6 -0.8289 0.67549  16
   9  -2  -6 -0.3699 0.40733   8
   8  -2  -6 163.761 8.36717   9
   8  -2  -6 178.243 8.61331   8
   7  -2  -6 8.88072 0.87632   8
   7  -2  -6 6.41536 1.99397   3
   7  -2  -6 8.99020 0.89064   9
   7  -2  -6 7.97384 2.24066   2
   6  -2  -6 40.6124 2.30094   8
   6  -2  -6 40.3844 2.30149   9
   6  -2  -6 46.3372 4.04511   2
   6  -2  -6 41.6526 3.99141   3
   6  -2  -6 42.1452 4.02993   6
   5  -2  -6 1.63145 0.82494   6
   5  -2  -6 2.91998 1.17383   3
   5  -2  -6 1.20798 0.77969   2
   4  -2  -6 4.25637 1.03899   2
   4  -2  -6 4.33878 1.17575   3
   4  -2  -6 4.17293 1.21723   6
   3  -2  -6 96.2600 6.67054   6
   3  -2  -6 82.7128 5.47125   1
   3  -2  -6 93.2449 6.09362   2
   3  -2  -6 95.1222 6.52583   3
   2  -2  -6 113.072 7.17409   5
   2  -2  -6 94.6063 5.97664   1
   2  -2  -6 104.167 7.02655   3
   2  -2  -6 94.0550 5.98730   1
   2  -2  -6 106.210 6.65744   2
  -2   2   6 98.3583 6.02062   1
   1  -2  -6 305.896 18.7971   5
   1  -2  -6 307.725 18.6721   3
   1  -2  -6 281.679 15.7688   1
   1  -2  -6 280.961 15.7780   1
   1  -2  -6 308.439 17.3898   2
  -1   2   6 289.935 15.7957   1
   0  -2  -6 118.465 7.46620   2
   0  -2  -6 121.506 8.04984   5
   0  -2  -6 108.786 6.73917   1
   0  -2  -6 122.679 7.97076   3
   0   2   6 108.989 6.77398   1
  -1  -2  -6 14.5226 1.85928   1
  -1  -2  -6 14.8443 2.02191   5
  -1  -2  -6 18.0127 2.18883   3
  -1  -2  -6 14.4607 2.04780   2
  -2  -2  -6 184.068 11.8528   3
  -2  -2  -6 170.143 11.8401   5
  -2  -2  -6 171.083 11.0389   2
  -3  -2  -6 57.6469 3.23044   8
  -3  -2  -6 61.5053 5.05735   3
  -3  -2  -6 60.4143 4.93970   2
  -3  -2  -6 66.3187 5.17555   5
  -4  -2  -6 13.4215 1.02592   8
  -4  -2  -6 13.6981 2.50132   2
  -4  -2  -6 14.8513 2.38237   5
  -4  -2  -6 12.2607 2.32185   3
  -5  -2  -6 28.3370 1.76826   8
  -5  -2  -6 21.1795 3.35252   5
  -6  -2  -6 4.05268 0.69553   8
  -7  -2  -6 0.29933 0.47436   8
  -8  -2  -6 39.4658 2.26101   9
  -8  -2  -6 39.4811 2.12671   8
   8   2   6 36.8762 2.21836   8
  11  -3  -6 0.03963 0.39235  17
  11  -3  -6 -0.1694 0.41663   9
  10  -3  -6 47.2764 2.64095   9
  10  -3  -6 46.9302 2.42629   8
  10  -3  -6 47.7231 3.27821  17
  10  -3  -6 46.8450 3.41305  16
   9  -3  -6 0.52639 0.35266   8
   9  -3  -6 1.00859 0.64858  16
   9  -3  -6 1.05262 0.43537   9
   8  -3  -6 12.0003 0.99390   8
   8  -3  -6 12.4308 1.14276  10
   8  -3  -6 12.3007 1.12142   9
   8  -3  -6 12.7719 1.59232  16
   7  -3  -6 33.7579 3.75367   2
   7  -3  -6 31.7901 3.63096   3
   7  -3  -6 35.0859 1.95540   8
   7  -3  -6 30.0622 3.81607   6
   7  -3  -6 34.7001 1.99434   9
   6  -3  -6 84.4147 6.10998   2
   6  -3  -6 80.8424 6.59677   6
   6  -3  -6 79.7816 4.15620   8
   6  -3  -6 82.5336 6.32445   3
   6  -3  -6 81.2352 4.11190   9
   5  -3  -6 219.481 13.8713   3
   5  -3  -6 226.783 13.0249   2
   5  -3  -6 216.271 14.2005   6
   5  -3  -6 189.002 10.2825   8
   4  -3  -6 3.80544 1.09886   6
   4  -3  -6 2.69681 0.94222   2
   4  -3  -6 2.71439 0.95159   3
   3  -3  -6 28.6830 2.48357   2
   3  -3  -6 23.7148 2.44652   3
   3  -3  -6 26.6846 2.72454   5
   3  -3  -6 23.8427 2.70223   6
   2  -3  -6 732.429 39.5632   2
   2  -3  -6 703.377 43.1192   5
   2  -3  -6 670.622 42.8947   6
   2  -3  -6 679.532 42.6275   3
   1  -3  -6 56.6572 4.39089   6
   1  -3  -6 46.1325 3.79982   2
   1  -3  -6 50.9189 4.19114   5
   1  -3  -6 52.0268 4.03022   3
   0  -3  -6 15.5991 2.01547   2
   0  -3  -6 15.7348 1.94974   3
   0  -3  -6 16.3419 2.29349   5
  -1  -3  -6 17.0231 2.53091   5
  -1  -3  -6 18.0183 2.33790   2
  -1  -3  -6 20.8137 2.36396   3
  -2  -3  -6 41.9910 3.55872   3
  -2  -3  -6 31.8213 1.92802   8
  -2  -3  -6 31.7082 1.91480   9
  -2  -3  -6 36.3615 3.63636   5
  -2  -3  -6 39.7451 3.46931   2
  -3  -3  -6 63.4852 5.19615   3
  -3  -3  -6 63.0130 5.30911   5
  -3  -3  -6 60.3744 3.11633   8
  -3  -3  -6 52.0215 3.75669  13
  -3  -3  -6 64.8698 4.95505   2
  -3  -3  -6 56.8773 3.03940   9
  -3  -3  -6 54.1808 3.03664  10
  -4  -3  -6 16.5288 2.83933   2
  -4  -3  -6 11.3877 2.58182   3
  -4  -3  -6 17.4920 1.26673   8
  -4  -3  -6 17.6405 1.49149  13
  -4  -3  -6 17.5839 1.31172   9
  -4  -3  -6 15.6161 2.91553   5
  -5  -3  -6 0.63381 0.66674  13
  -5  -3  -6 2.69892 0.57370   8
  -5  -3  -6 2.41896 0.54432   9
  -5  -3  -6 1.44968 1.64315   5
  -6  -3  -6 4.20727 0.61198   8
  -6  -3  -6 3.62126 0.63208   9
  -7  -3  -6 4.84881 0.72735   9
  -7  -3  -6 5.31736 0.56167   8
  -8  -3  -6 4.28796 0.72303  14
  -8  -3  -6 3.48057 0.45253   9
  11  -4  -6 192.808 9.20945  10
  11  -4  -6 187.214 9.03022   9
  10  -4  -6 7.03517 0.72798   9
  10  -4  -6 6.07502 1.12928  16
  10  -4  -6 7.92311 0.81546  10
   9  -4  -6 25.0621 1.56561   9
   9  -4  -6 22.1220 1.53409  10
   9  -4  -6 23.0300 2.12657  16
   8  -4  -6 -2.2521 1.88863   6
   8  -4  -6 1.41493 0.70562  16
   8  -4  -6 1.73976 0.51509  10
   8  -4  -6 1.62866 0.34443   8
   8  -4  -6 1.63849 0.48224   9
   7  -4  -6 6.44022 1.73554   3
   7  -4  -6 7.90834 0.79952  10
   7  -4  -6 8.30121 0.67671   8
   7  -4  -6 7.72443 1.82558   2
   7  -4  -6 7.54918 0.74561   9
   7  -4  -6 4.74988 0.91110  15
   7  -4  -6 6.57238 2.17449   6
   7  -4  -6 7.89921 1.33676  16
   6  -4  -6 313.352 19.2270   3
   6  -4  -6 305.019 17.9078   2
   6  -4  -6 286.525 14.0368   9
   6  -4  -6 302.417 14.1669  10
   6  -4  -6 303.440 19.7881   6
   6  -4  -6 281.755 18.5668  15
   6  -4  -6 293.769 14.4464   8
   5  -4  -6 28.7252 1.62989   9
   5  -4  -6 31.2307 2.92786   3
   5  -4  -6 27.9870 1.57520   8
   5  -4  -6 29.8160 1.67952  10
   5  -4  -6 29.2602 2.33803  15
   5  -4  -6 28.8912 2.80107   2
   5  -4  -6 32.9701 3.39621   6
   4  -4  -6 101.603 7.69453   6
   4  -4  -6 104.375 7.11752   3
   4  -4  -6 98.3724 6.70663   2
   3  -4  -6 0.73754 0.72147   5
   3  -4  -6 0.18129 0.75679   2
   3  -4  -6 0.59388 0.66965   6
   3  -4  -6 -0.0780 0.59300   3
   2  -4  -6 54.1643 4.08578   2
   2  -4  -6 58.2675 4.86932   6
   2  -4  -6 55.0873 4.73302   5
   2  -4  -6 56.4781 4.28089   3
   1  -4  -6 8.09971 1.43664   2
   1  -4  -6 7.00570 1.53450   6
   1  -4  -6 7.33473 1.32353   3
   1  -4  -6 5.53565 1.51761   5
   0  -4  -6 17.9084 2.70167   5
   0  -4  -6 14.5939 1.73389  14
   0  -4  -6 16.1241 1.02755   8
   0  -4  -6 19.2088 2.15127   3
   0  -4  -6 18.8412 2.22251   2
   0  -4  -6 18.5961 2.56772   6
  -1  -4  -6 110.488 5.39345   9
  -1  -4  -6 108.761 5.41810  10
  -1  -4  -6 122.857 7.99720   3
  -1  -4  -6 99.0308 6.75905  13
  -1  -4  -6 109.254 5.51809   8
  -1  -4  -6 113.723 8.39053   5
  -1  -4  -6 115.798 7.54058   2
  -2  -4  -6 197.212 9.40522   8
  -2  -4  -6 194.897 13.5308   5
  -2  -4  -6 184.284 9.13006   9
  -2  -4  -6 200.250 12.2311   2
  -2  -4  -6 174.863 11.4272  13
  -2  -4  -6 200.721 12.9640   3
  -2  -4  -6 187.122 9.19290  10
  -3  -4  -6 0.86583 0.97497   3
  -3  -4  -6 0.18977 0.34362   8
  -3  -4  -6 0.04638 0.38620   9
  -3  -4  -6 0.23649 0.41585  10
  -3  -4  -6 0.28381 1.64715   5
  -3  -4  -6 0.07436 1.42110   2
  -3  -4  -6 -0.0908 0.56727  13
  -4  -4  -6 36.7787 2.16906   9
  -4  -4  -6 34.6038 2.17759  10
  -4  -4  -6 38.1032 2.09922   8
  -4  -4  -6 27.7343 4.45562   5
  -4  -4  -6 35.2575 2.71422  13
  -5  -4  -6 2.29503 0.89024  13
  -5  -4  -6 0.79685 0.56170  10
  -5  -4  -6 1.72367 0.60780   9
  -5  -4  -6 1.71478 0.42574   8
  -6  -4  -6 2.12189 0.27972   8
  -6  -4  -6 2.40705 0.60212   9
  -6  -4  -6 2.94724 1.00818  14
  -6  -4  -6 2.55135 0.75807  13
  -7  -4  -6 16.8268 1.12736   9
  -7  -4  -6 14.6671 1.39807  14
  11  -5  -6 6.52527 0.44549   9
  11  -5  -6 5.63114 0.86904  16
  11  -5  -6 7.21503 0.66550  10
  10  -5  -6 5.71923 0.73041  10
  10  -5  -6 5.31511 0.57563   9
  10  -5  -6 5.78022 1.12593  16
   9  -5  -6 2.81224 1.08281  16
   9  -5  -6 3.85114 0.55454   9
   9  -5  -6 3.66277 0.62148  10
   8  -5  -6 223.513 15.5034  15
   8  -5  -6 245.127 11.8769  10
   8  -5  -6 264.309 15.6774  16
   8  -5  -6 253.720 11.7406   9
   7  -5  -6 185.574 13.6719   3
   7  -5  -6 210.505 14.7703   6
   7  -5  -6 210.682 9.90477   9
   7  -5  -6 208.918 12.9731  14
   7  -5  -6 208.015 10.0263  10
   7  -5  -6 200.487 12.9112   2
   7  -5  -6 194.307 13.1826  15
   7  -5  -6 238.656 13.4347  16
   6  -5  -6 16.6980 1.91030  16
   6  -5  -6 15.1255 0.99180   9
   6  -5  -6 14.8639 2.79845   6
   6  -5  -6 14.1367 2.07223   3
   6  -5  -6 14.0254 1.98119   2
   6  -5  -6 16.3604 1.67400  15
   6  -5  -6 14.4243 1.05819  10
   6  -5  -6 13.4526 1.34466  14
   5  -5  -6 15.4979 1.51976  15
   5  -5  -6 16.0105 1.66948  16
   5  -5  -6 17.3770 2.00016   3
   5  -5  -6 17.1413 1.47493  13
   5  -5  -6 14.5603 1.49173  14
   5  -5  -6 15.9713 1.06053  10
   5  -5  -6 16.1286 2.67208   6
   5  -5  -6 15.4040 0.98303   9
   5  -5  -6 17.2264 2.06105   2
   4  -5  -6 150.650 10.3380   6
   4  -5  -6 136.719 9.02483  15
   4  -5  -6 144.574 8.51125  13
   4  -5  -6 136.522 6.75500  10
   4  -5  -6 155.430 9.40835   3
   4  -5  -6 129.037 8.96186  16
   4  -5  -6 137.676 6.66436   9
   4  -5  -6 127.341 8.87497  14
   4  -5  -6 151.362 8.75508   2
   3  -5  -6 119.477 5.83754   9
   3  -5  -6 120.579 8.17964   3
   3  -5  -6 122.487 8.99338   5
   3  -5  -6 127.803 9.20883   6
   3  -5  -6 133.669 7.75976   2
   3  -5  -6 115.271 5.90976  10
   3  -5  -6 122.984 7.97876  15
   3  -5  -6 109.159 7.81862  14
   3  -5  -6 132.836 7.83102  12
   2  -5  -6 -0.0318 1.10469   6
   2  -5  -6 -0.3314 0.30772  13
   2  -5  -6 -0.0749 0.20390   9
   2  -5  -6 0.18207 0.26128  10
   2  -5  -6 0.40306 0.62552   2
   2  -5  -6 -0.1726 0.56728  14
   2  -5  -6 0.57519 0.49913  12
   2  -5  -6 -0.2470 0.59170  15
   2  -5  -6 0.20527 0.71976   5
   2  -5  -6 -0.3638 0.55752   3
   1  -5  -6 38.2782 4.08156   5
   1  -5  -6 42.8175 3.41939   2
   1  -5  -6 38.7480 3.01765  15
   1  -5  -6 43.6501 3.39445   3
   1  -5  -6 40.2611 2.79035  12
   1  -5  -6 39.0930 2.06113   9
   1  -5  -6 36.6281 4.02697   6
   1  -5  -6 39.4259 2.11252  10
   1  -5  -6 35.0376 2.71274  13
   1  -5  -6 38.7986 2.93845  14
   0  -5  -6 34.2123 2.59373  12
   0  -5  -6 32.3126 2.66248  15
   0  -5  -6 39.1000 3.38843   3
   0  -5  -6 36.4911 1.97861  10
   0  -5  -6 37.7774 1.94307   9
   0  -5  -6 34.7222 2.89858  14
   0  -5  -6 40.4478 3.32988   2
   0  -5  -6 35.8580 4.02537   5
   0  -5  -6 32.5447 2.48375  13
  -1  -5  -6 84.9509 5.84630  12
  -1  -5  -6 84.6660 5.69778  13
  -1  -5  -6 91.5807 4.53152  10
  -1  -5  -6 97.9286 6.75767   3
  -1  -5  -6 88.9115 7.52143   5
  -1  -5  -6 85.9013 4.46913   9
  -1  -5  -6 95.4838 6.59832   2
  -1  -5  -6 97.1883 6.31562  14
  -2  -5  -6 77.0339 5.98694   2
  -2  -5  -6 80.2305 5.72553  14
  -2  -5  -6 73.2482 5.04510  13
  -2  -5  -6 80.7399 3.96222   9
  -2  -5  -6 69.0932 6.11742   3
  -2  -5  -6 70.0601 6.72301   5
  -2  -5  -6 84.8719 4.04096  10
  -3  -5  -6 3.65388 2.29934   5
  -3  -5  -6 4.28765 0.95623  13
  -3  -5  -6 7.55171 1.39061  14
  -3  -5  -6 4.77571 0.69734  10
  -3  -5  -6 5.03581 0.67996   9
  -4  -5  -6 135.188 6.51571  10
  -4  -5  -6 136.715 8.81918  14
  -4  -5  -6 125.138 8.09627  13
  -4  -5  -6 124.278 6.37072   9
  -5  -5  -6 2.63934 0.55000   9
  -5  -5  -6 4.41611 0.60867  10
  -5  -5  -6 2.13192 0.80790  13
  -5  -5  -6 3.78547 1.12501  14
  -6  -5  -6 2.49789 0.44047   9
  -6  -5  -6 2.06954 0.65592  14
  -6  -5  -6 2.62086 0.48534  10
  11  -6  -6 10.7785 0.83985  10
  11  -6  -6 8.48508 1.05255  16
  10  -6  -6 11.7238 1.43505  16
  10  -6  -6 12.4364 0.92842  10
   9  -6  -6 119.385 5.81455  10
   9  -6  -6 113.766 5.57046   9
   9  -6  -6 118.210 7.82521  16
   8  -6  -6 53.8704 3.78258  14
   8  -6  -6 57.6620 2.77560   9
   8  -6  -6 50.1990 3.89642  15
   8  -6  -6 54.8199 2.92983  10
   8  -6  -6 57.0504 4.32671  16
   7  -6  -6 53.3610 3.77466  14
   7  -6  -6 58.0947 4.16245  16
   7  -6  -6 49.5149 3.88910  15
   7  -6  -6 52.7429 2.81263  10
   7  -6  -6 45.4477 5.56394   6
   7  -6  -6 54.7633 2.67887   9
   6  -6  -6 0.80309 1.02826   2
   6  -6  -6 0.56207 0.28186   9
   6  -6  -6 0.66797 0.34802  10
   6  -6  -6 1.35729 0.96765  16
   6  -6  -6 0.27750 0.62396  14
   6  -6  -6 1.19485 0.76720  15
   6  -6  -6 -0.8110 1.03581   6
   6  -6  -6 -0.8489 0.85279   3
   5  -6  -6 11.5283 1.14431  13
   5  -6  -6 9.80886 1.29083  14
   5  -6  -6 9.75036 1.35540  15
   5  -6  -6 12.9308 2.80752   6
   5  -6  -6 10.2590 0.65064   9
   5  -6  -6 11.6877 1.56088  16
   5  -6  -6 9.61913 1.33336   2
   5  -6  -6 10.9321 0.85953  10
   5  -6  -6 8.34019 1.36218   3
   4  -6  -6 34.6930 2.70278   3
   4  -6  -6 36.3404 1.92459  10
   4  -6  -6 35.4073 4.34948   6
   4  -6  -6 36.7574 2.89943  15
   4  -6  -6 34.2025 2.69367  14
   4  -6  -6 35.6765 2.56881   2
   4  -6  -6 35.2897 1.75396   9
   4  -6  -6 36.4873 2.58551  13
   4  -6  -6 32.2836 2.75261  16
   3  -6  -6 32.3134 2.25951  12
   3  -6  -6 27.5812 1.44608   9
   3  -6  -6 30.4766 3.59290   5
   3  -6  -6 25.9224 2.26086   3
   3  -6  -6 22.5329 3.60327   6
   3  -6  -6 28.1562 2.40163  14
   3  -6  -6 29.2923 2.19519  13
   3  -6  -6 28.9718 1.59632  10
   3  -6  -6 28.6270 2.21583   2
   3  -6  -6 29.3574 2.52478  15
   2  -6  -6 43.5223 3.31641  15
   2  -6  -6 41.3463 2.22959  10
   2  -6  -6 40.6610 4.61010   6
   2  -6  -6 41.3451 2.92689  13
   2  -6  -6 41.6164 3.15938  14
   2  -6  -6 40.0762 3.13075   3
   2  -6  -6 43.1051 3.10452   2
   2  -6  -6 45.0228 3.10286  12
   2  -6  -6 42.8753 4.50914   5
   2  -6  -6 41.7665 2.10147   9
   1  -6  -6 44.7969 3.54939  14
   1  -6  -6 47.3436 3.33636  13
   1  -6  -6 48.7711 2.42218   9
   1  -6  -6 48.2440 3.64828   2
   1  -6  -6 46.6245 3.67460   3
   1  -6  -6 49.1128 3.38722  12
   1  -6  -6 46.4147 3.58674  15
   1  -6  -6 47.8183 4.79820   5
   1  -6  -6 50.0973 2.54134  10
   0  -6  -6 5.71759 0.82665  12
   0  -6  -6 5.09685 1.19075  14
   0  -6  -6 2.48712 1.14896   3
   0  -6  -6 5.47747 1.40664   2
   0  -6  -6 3.33838 1.61746   5
   0  -6  -6 5.07580 0.52141   9
   0  -6  -6 5.86535 0.95684  13
  -1  -6  -6 25.1368 2.62856  14
  -1  -6  -6 24.2817 1.46098  10
  -1  -6  -6 24.8121 2.08474  13
  -1  -6  -6 22.5545 3.61996   5
  -1  -6  -6 25.7993 1.44312   9
  -1  -6  -6 20.8749 2.61045   2
  -1  -6  -6 22.1089 1.89633  12
  -2  -6  -6 10.9235 3.05438   5
  -2  -6  -6 15.2774 1.07650   9
  -2  -6  -6 15.4748 2.09481  14
  -2  -6  -6 14.5953 1.60228  13
  -2  -6  -6 16.2099 1.17905  10
  -3  -6  -6 82.8968 4.22891   9
  -3  -6  -6 95.2046 6.28110  14
  -3  -6  -6 79.9862 5.52202  13
  -3  -6  -6 84.0739 4.33197  10
  -4  -6  -6 44.1192 3.47173  14
  -4  -6  -6 45.0288 2.52852  10
  -4  -6  -6 41.7284 3.10849  13
  -4  -6  -6 47.0620 2.35380   9
  -5  -6  -6 1.74402 0.27058   9
  -5  -6  -6 2.11852 0.70019  14
  -5  -6  -6 2.27279 0.53397  10
  -5  -6  -6 1.57372 0.50210  13
  -6  -6  -6 2.62693 0.37201  10
  11  -7  -6 6.40227 0.50112  10
  11  -7  -6 7.01534 0.95674  16
  10  -7  -6 0.29234 0.29933  10
  10  -7  -6 -0.8622 0.54114  16
   9  -7  -6 5.75616 1.01689  15
   9  -7  -6 7.53240 0.63271  10
   9  -7  -6 7.19681 1.35136  16
   8  -7  -6 2.16931 0.71722  14
   8  -7  -6 2.41283 0.42619  10
   8  -7  -6 3.57022 1.05525  16
   8  -7  -6 1.69756 0.71568  15
   7  -7  -6 35.1935 2.79291  14
   7  -7  -6 35.1878 3.24173  16
   7  -7  -6 33.2147 1.93381  10
   7  -7  -6 38.8398 3.02989  15
   6  -7  -6 94.7158 8.79361   6
   6  -7  -6 98.2093 7.09405  16
   6  -7  -6 104.590 5.03635  10
   6  -7  -6 104.236 6.82257  14
   6  -7  -6 105.145 7.01131  15
   5  -7  -6 28.3807 2.51284  14
   5  -7  -6 27.3952 2.60153  16
   5  -7  -6 34.1234 2.41095  13
   5  -7  -6 24.0425 4.06826   6
   5  -7  -6 29.6322 1.62920  10
   5  -7  -6 30.8461 2.69338  15
   4  -7  -6 56.4002 2.88625  10
   4  -7  -6 58.0590 3.90886  13
   4  -7  -6 57.1844 5.77329   6
   4  -7  -6 57.8030 4.30301  15
   4  -7  -6 57.0945 4.10285  14
   3  -7  -6 119.663 8.17605  14
   3  -7  -6 117.024 9.58265   5
   3  -7  -6 122.303 6.00017  10
   3  -7  -6 128.728 8.34222  15
   3  -7  -6 132.424 8.07045  12
   3  -7  -6 115.948 9.93286   6
   2  -7  -6 44.8919 3.08835  12
   2  -7  -6 41.4178 3.36021  14
   2  -7  -6 42.7640 2.21138  10
   2  -7  -6 36.4077 4.66737   5
   2  -7  -6 36.9869 3.27138  15
   2  -7  -6 41.8468 2.98583  13
   1  -7  -6 16.2099 1.60007  13
   1  -7  -6 20.0202 1.80218  12
   1  -7  -6 18.0808 1.14768  10
   1  -7  -6 16.9842 1.92234  14
   1  -7  -6 13.1555 3.08079   5
   0  -7  -6 -0.4818 0.99024  14
   0  -7  -6 -0.4152 0.28389  10
   0  -7  -6 -2.7703 1.82776   5
   0  -7  -6 0.49727 0.71871  13
   0  -7  -6 -0.3574 0.43539  12
  -1  -7  -6 -0.0150 0.47096  13
  -1  -7  -6 -0.1065 0.29379  10
  -1  -7  -6 -0.3755 0.55942  12
  -1  -7  -6 -0.4491 1.13831  14
  -2  -7  -6 22.4976 1.58426  10
  -2  -7  -6 31.9089 2.74873  14
  -2  -7  -6 30.8098 2.33199  13
  -3  -7  -6 13.6396 1.65220  14
  -3  -7  -6 10.5300 0.92620  10
  -3  -7  -6 10.7418 1.32216  13
  -4  -7  -6 1.67699 0.65274  14
  -4  -7  -6 2.33031 0.69384  13
  -4  -7  -6 1.80636 0.40958  10
  -5  -7  -6 2.25152 0.35496  10
  10  -8  -6 -0.0853 0.63423  16
   9  -8  -6 -0.5600 0.63161  16
   9  -8  -6 0.41006 0.20854  10
   9  -8  -6 0.09827 0.48029  15
   8  -8  -6 3.54447 0.83378  14
   8  -8  -6 3.64559 0.38061  10
   8  -8  -6 4.50567 1.18011  16
   8  -8  -6 3.81458 0.85023  15
   7  -8  -6 43.1443 3.25530  14
   7  -8  -6 42.0808 3.42614  15
   7  -8  -6 45.6525 2.17417  10
   7  -8  -6 37.2751 3.45136  16
   6  -8  -6 6.16291 1.31857  16
   6  -8  -6 8.31912 0.54854  10
   6  -8  -6 7.79473 1.32541  15
   6  -8  -6 7.16661 1.20551  14
   5  -8  -6 2.22446 0.77341  13
   5  -8  -6 1.65288 0.84698  14
   5  -8  -6 1.77032 1.04148  15
   4  -8  -6 0.63940 0.68817  13
   4  -8  -6 0.55630 0.18581  10
   4  -8  -6 0.55394 0.95717  15
   4  -8  -6 0.69510 0.65275  14
   3  -8  -6 74.5539 5.32135  14
   3  -8  -6 74.9412 5.31494  15
   3  -8  -6 75.5517 3.60689  10
   3  -8  -6 71.9073 4.93833  13
   3  -8  -6 74.0662 5.13124  12
   2  -8  -6 2.15372 0.32689  10
   2  -8  -6 1.79462 0.64785  12
   2  -8  -6 2.04567 1.04900  14
   2  -8  -6 2.82788 0.87558  13
   2  -8  -6 0.75740 0.87916  15
   1  -8  -6 9.80327 1.25371  12
   1  -8  -6 11.5548 1.35820  13
   1  -8  -6 11.7176 0.80999  10
   1  -8  -6 9.66806 1.66052  14
   0  -8  -6 6.77840 0.96021  12
   0  -8  -6 7.21143 1.54533  14
   0  -8  -6 4.75462 0.51604  10
   0  -8  -6 5.97575 1.07231  13
  -1  -8  -6 4.66541 0.84240  13
  -1  -8  -6 3.15955 1.39220  14
  -1  -8  -6 4.07191 0.71851  12
  -1  -8  -6 3.88329 0.48119  10
  -2  -8  -6 3.44615 0.44808  10
  -2  -8  -6 4.10420 0.77237  13
  -2  -8  -6 3.45546 1.00944  14
  -3  -8  -6 10.3114 1.15474  13
  -3  -8  -6 13.9304 0.82084  10
  -3  -8  -6 13.5197 1.35861  14
  10  -9  -6 2.46452 0.61301  16
   8  -9  -6 69.6833 4.33305  14
   8  -9  -6 54.5053 4.52328  16
   8  -9  -6 64.5790 4.46764  15
   7  -9  -6 2.11452 0.99168  15
   7  -9  -6 2.44539 0.89822  14
   7  -9  -6 3.92386 1.13113  16
   6  -9  -6 22.0340 2.32120  15
   6  -9  -6 20.2530 2.05890  14
   5  -9  -6 65.8984 4.34851  13
   5  -9  -6 66.2303 4.84978  15
   5  -9  -6 60.1096 4.48402  14
   4  -9  -6 59.1057 3.95934  13
   4  -9  -6 55.1811 4.20990  14
   4  -9  -6 61.0835 4.49528  15
   3  -9  -6 21.5885 1.84485  13
   3  -9  -6 19.2153 2.17574  15
   3  -9  -6 20.7920 2.32329  14
   2  -9  -6 -0.2538 1.01963  14
   2  -9  -6 -1.2203 0.68329  13
   2  -9  -6 1.00159 0.57541  12
   1  -9  -6 25.3731 2.71369  14
   1  -9  -6 25.4229 2.08879  12
   1  -9  -6 25.0186 2.07239  13
   0  -9  -6 21.3775 2.29722  14
   0  -9  -6 26.2128 2.12745  13
   0  -9  -6 24.8382 2.05724  12
  -1  -9  -6 1.32407 0.75674  14
  -1  -9  -6 1.34049 0.57847  13
  -2  -9  -6 0.55117 0.58338  13
   9 -10  -6 52.7080 3.57653  15
   8 -10  -6 0.93721 0.54959  16
   8 -10  -6 0.00509 0.50796  15
   7 -10  -6 4.99393 0.95054  14
   7 -10  -6 6.72828 1.05292  15
   6 -10  -6 30.6587 2.51602  14
   6 -10  -6 34.9816 2.87879  15
   5 -10  -6 17.2090 1.74671  14
   5 -10  -6 16.8174 1.82620  15
   5 -10  -6 18.9936 1.59831  13
   4 -10  -6 14.8555 1.42181  13
   4 -10  -6 16.9962 1.66681  14
   4 -10  -6 11.6035 1.53902  15
   3 -10  -6 17.0043 1.79879  14
   3 -10  -6 15.9806 1.66642  13
   2 -10  -6 4.38069 1.03122  14
   2 -10  -6 2.95155 0.81366  13
   1 -10  -6 48.6889 3.80063  14
   1 -10  -6 55.2497 3.50151  13
   0 -10  -6 1.70441 0.85754  14
   0 -10  -6 1.63748 0.50210  13
   6 -11  -6 -0.5215 0.49211  14
   6 -11  -6 -0.2054 0.47101  15
   5 -11  -6 14.0551 1.39023  15
   5 -11  -6 11.7868 1.34907  14
   4 -11  -6 6.77776 1.00869  14
   4 -11  -6 4.96181 0.71136  13
   3 -11  -6 1.03207 0.63803  14
   3 -11  -6 -0.0578 0.42168  13
   2 -11  -6 6.61744 0.77376  13
   1 -11   7 16.2735 1.41821  11
   2 -11   7 -0.1756 0.45522  11
   2 -11   7 0.03615 0.58968  18
   3 -11   7 14.0626 1.39596  18
   3 -11   7 11.4237 1.22985  11
   4 -11   7 105.245 6.55048  18
   4 -11   7 99.5506 6.15807  17
   5 -11   7 3.78845 0.71094  17
   5 -11   7 6.88415 0.96408  18
   6 -11   7 0.12130 0.45544  17
  -1 -10   7 36.7934 2.97739  12
   0 -10   7 28.0772 2.21195  11
   0 -10   7 30.4531 2.23589  18
   0 -10   7 26.6375 2.34036  12
   1 -10   7 -0.7686 0.79777  11
   1 -10   7 -0.5839 0.57722  18
   2 -10   7 16.5165 1.66090  18
   2 -10   7 14.5242 1.66067  11
   3 -10   7 2.13269 0.68978  17
   3 -10   7 0.09828 0.91804  18
   3 -10   7 2.42744 0.92351  11
   4 -10   7 1.70241 0.87434  17
   4 -10   7 0.03552 0.98682  18
   4 -10   7 0.77871 0.75588  11
   5 -10   7 24.5807 2.07929  17
   5 -10   7 19.3445 2.09655  18
   6 -10   7 30.1808 2.14332  17
   6 -10   7 25.5632 2.32888  18
   7 -10   7 80.9966 5.36013  18
   7 -10   7 83.5963 5.05975  17
  -3  -9   7 58.4831 3.90242  12
  -3  -9   7 51.1109 3.41519  11
  -2  -9   7 3.09640 1.16668  12
  -2  -9   7 1.72598 0.76454  11
  -1  -9   7 8.94352 1.22157  18
  -1  -9   7 5.58800 1.40682  12
  -1  -9   7 7.35975 1.15578  11
   0  -9   7 9.18236 1.37961  12
   0  -9   7 7.73001 1.13551  18
   0  -9   7 8.41981 1.17940  11
   1  -9   7 9.10443 1.34646  11
   1  -9   7 8.03551 1.16346  12
   1  -9   7 7.76408 1.28628  18
   2  -9   7 179.627 11.6616  18
   2  -9   7 191.680 11.0705  17
   2  -9   7 186.684 11.4312  11
   3  -9   7 8.60175 1.23226  18
   3  -9   7 6.06341 1.22620  11
   3  -9   7 10.3609 1.23783  17
   4  -9   7 -1.2123 0.96567  18
   4  -9   7 0.04589 0.88787  17
   4  -9   7 0.02302 0.73824  11
   5  -9   7 2.81770 1.00298  16
   5  -9   7 4.48116 0.88090  17
   5  -9   7 5.37825 1.35410  18
   6  -9   7 22.0678 1.81954  16
   6  -9   7 16.3411 2.06559  18
   6  -9   7 19.2059 1.96570  17
   7  -9   7 17.8247 1.49375  16
   7  -9   7 16.8967 1.51875  17
   7  -9   7 11.4419 1.60231  18
   8  -9   7 0.92545 0.53619  18
   8  -9   7 0.28239 0.48421  17
  -5  -8   7 4.94650 0.74254  12
  -5  -8   7 3.41061 0.31796  10
  -4  -8   7 9.65503 0.74943  10
  -4  -8   7 11.5113 1.40075  12
  -3  -8   7 24.1252 2.45097  12
  -3  -8   7 21.6941 1.27283  10
  -3  -8   7 18.9360 1.66962  11
  -2  -8   7 20.6925 1.96074  11
  -2  -8   7 20.0152 1.83127  18
  -2  -8   7 17.8549 2.26512  12
  -2  -8   7 21.6372 1.24178  10
  -1  -8   7 11.1456 1.45949  11
  -1  -8   7 15.1810 0.92334  10
  -1  -8   7 11.6725 1.50426  18
  -1  -8   7 12.5809 1.85948  12
   0  -8   7 52.8659 3.72215  11
   0  -8   7 49.7818 2.51082  10
   0  -8   7 46.6123 3.57789  18
   0  -8   7 50.6470 3.98381  12
   1  -8   7 22.2076 1.18586  10
   1  -8   7 18.9764 2.09090  12
   1  -8   7 25.1907 1.97528  17
   1  -8   7 22.6573 2.07635  11
   1  -8   7 20.6145 2.20914  18
   2  -8   7 1.23695 0.69758  11
   2  -8   7 0.53463 0.15566  10
   2  -8   7 -0.0006 0.78609  17
   2  -8   7 0.27091 0.63242  18
   3  -8   7 12.3321 1.53034  18
   3  -8   7 9.82030 0.56265  10
   3  -8   7 11.1683 1.44711  17
   3  -8   7 10.8636 1.36962  11
   3  -8   7 12.2919 1.53909  16
   4  -8   7 104.433 6.39626  17
   4  -8   7 107.852 6.73580  16
   4  -8   7 98.7622 4.77858  10
   4  -8   7 94.8461 6.37368  11
   4  -8   7 99.5907 6.76405  18
   5  -8   7 7.46642 0.54394  10
   5  -8   7 7.24941 1.43976  18
   5  -8   7 6.87545 1.20920  17
   5  -8   7 8.68989 1.19701  16
   6  -8   7 2.54008 0.34122  10
   6  -8   7 3.19454 1.21046  18
   6  -8   7 2.58567 0.72936  17
   6  -8   7 3.20679 0.82175  16
   7  -8   7 3.09032 0.71743  16
   7  -8   7 1.43374 1.07208  18
   7  -8   7 2.73118 0.75761  17
   7  -8   7 2.90133 0.32208  10
   8  -8   7 0.42660 0.58835  18
   8  -8   7 0.00421 0.42650  16
   8  -8   7 0.83683 0.59905  17
   9  -8   7 4.04940 0.69060  17
  -6  -7   7 8.56246 0.69908  10
  -6  -7   7 10.4972 1.08744  12
  -5  -7   7 19.3574 1.86017  12
  -5  -7   7 19.4889 1.30333  10
  -4  -7   7 2.89323 0.54018  10
  -4  -7   7 3.66895 0.98645  12
  -3  -7   7 14.8536 1.52442  11
  -3  -7   7 19.8318 2.36958  12
  -3  -7   7 17.5822 1.21458  10
  -2  -7   7 -0.0618 0.64057  11
  -2  -7   7 0.29155 0.35283  10
  -2  -7   7 -0.8536 0.71975  18
  -2  -7   7 0.13231 0.74404  12
  -1  -7   7 137.326 6.55438  10
  -1  -7   7 131.647 8.34857  11
  -1  -7   7 138.159 9.17039  12
  -1  -7   7 136.809 8.55686  18
  -1  -7   7 121.727 10.1415   4
   0  -7   7 41.2066 3.14401  18
   0  -7   7 38.3508 4.61043   4
   0  -7   7 42.9980 2.26131  10
   0  -7   7 43.7113 3.13009  11
   0  -7   7 48.9100 3.19026  17
   0  -7   7 38.9123 3.43344  12
   1  -7   7 0.23781 0.30325  10
   1  -7   7 0.16005 0.73871  11
   1  -7   7 0.36745 0.56363  18
   1  -7   7 -2.8760 1.77486   4
   1  -7   7 -0.4124 0.59845  12
   1  -7   7 0.06034 0.52339  17
   2  -7   7 -1.0789 1.09296   7
   2  -7   7 0.68435 0.76940  11
   2  -7   7 0.21577 0.59420  16
   2  -7   7 -0.0213 0.71666  18
   2  -7   7 0.24538 1.36748   4
   2  -7   7 -0.7126 0.71259  17
   2  -7   7 0.15373 0.24022  10
   3  -7   7 177.525 10.2450  17
   3  -7   7 172.222 12.6506   7
   3  -7   7 188.435 10.9560  16
   3  -7   7 175.326 10.4949  11
   3  -7   7 143.381 8.16511  10
   3  -7   7 175.353 10.8438  18
   4  -7   7 0.51931 0.30079  10
   4  -7   7 1.13040 0.91609  16
   4  -7   7 -0.3538 0.64702  11
   4  -7   7 -0.3979 0.49417  17
   4  -7   7 0.15791 0.90979  18
   4  -7   7 0.41808 1.93968   7
   5  -7   7 3.15645 0.46088  10
   5  -7   7 4.18731 1.25319  18
   5  -7   7 2.86411 0.92209  17
   5  -7   7 2.09746 0.98040  16
   5  -7   7 1.04633 2.25594   7
   6  -7   7 2.45585 0.93368  16
   6  -7   7 2.32947 0.92177  17
   6  -7   7 4.31961 1.08688  18
   6  -7   7 2.03728 0.41367  10
   7  -7   7 0.24221 0.31800  10
   7  -7   7 1.22236 0.82478  17
   7  -7   7 0.30005 0.75009  16
   7  -7   7 0.84265 0.82050  18
   8  -7   7 1.73416 0.77860  18
   8  -7   7 2.43034 0.42205  10
   8  -7   7 1.89411 0.84842  17
   9  -7   7 0.17022 0.19312  10
   9  -7   7 -0.0233 0.48958  18
   9  -7   7 -0.0769 0.48291  17
  -7  -6   7 -0.3840 0.37078  12
  -7  -6   7 0.76414 0.32736  10
  -6  -6   7 -0.0085 0.46182  10
  -6  -6   7 0.97033 0.63418  12
  -6  -6   7 0.35594 0.25580   9
  -5  -6   7 15.7269 1.97231  12
  -5  -6   7 15.0087 1.03857   9
  -5  -6   7 15.4114 1.28462  10
  -4  -6   7 0.26469 0.93629  12
  -4  -6   7 0.89143 0.38452   9
  -4  -6   7 0.41642 0.46346  10
  -3  -6   7 85.4992 4.15075   9
  -3  -6   7 75.1122 7.42971   4
  -3  -6   7 93.6293 6.04281  12
  -3  -6   7 86.0461 4.28345  10
  -3  -6   7 75.4755 5.32019  11
  -3  -6   7 80.0890 5.38575  18
  -2  -6   7 7.27228 0.76169  10
  -2  -6   7 3.97962 1.46296   2
  -2  -6   7 6.92572 2.41364   4
  -2  -6   7 6.06886 1.37644  12
  -2  -6   7 8.30167 0.73412   9
  -2  -6   7 7.27726 1.07729  11
  -2  -6   7 5.58655 0.98824  18
  -1  -6   7 21.8633 3.56051   4
  -1  -6   7 22.8274 1.92210  18
  -1  -6   7 22.9568 1.30055   9
  -1  -6   7 23.4858 1.42545  10
  -1  -6   7 18.7415 2.21808   3
  -1  -6   7 22.4509 1.99774  11
  -1  -6   7 22.9600 2.38873   2
  -1  -6   7 26.4576 2.05916  17
  -1  -6   7 23.5247 2.37722  12
   0  -6   7 27.3614 2.25182  18
   0  -6   7 30.9466 1.52232   9
   0  -6   7 25.4443 2.28276  11
   0  -6   7 31.7298 4.12512   4
   0  -6   7 25.1547 2.37154   3
   0  -6   7 27.6865 2.40571  12
   0  -6   7 29.3198 2.44631   2
   0  -6   7 31.0723 2.30168  17
   0  -6   7 29.2391 1.64347  10
   1  -6   7 51.1616 2.65873  10
   1  -6   7 51.4869 3.66991  18
   1  -6   7 55.0648 5.25162   4
   1  -6   7 51.6312 3.47134  17
   1  -6   7 52.1800 5.07213   7
   1  -6   7 53.4347 3.61304  11
   1  -6   7 47.0550 3.57565   3
   2  -6   7 9.50607 0.57904   9
   2  -6   7 6.40610 0.92706   3
   2  -6   7 9.69181 1.10724  17
   2  -6   7 10.7746 1.25910  11
   2  -6   7 9.76201 2.43996   4
   2  -6   7 7.62870 2.22865   7
   2  -6   7 8.84074 1.14805  18
   2  -6   7 8.98065 1.08850   2
   2  -6   7 9.67353 0.80705  10
   2  -6   7 12.4059 1.41247  16
   3  -6   7 0.17887 0.63450   2
   3  -6   7 0.02595 0.73919  18
   3  -6   7 -0.0579 0.20618   9
   3  -6   7 0.43410 0.68035  17
   3  -6   7 -0.0554 0.53404   3
   3  -6   7 -1.1352 1.42042   7
   3  -6   7 0.41280 0.76602  16
   3  -6   7 0.66950 1.76373   4
   3  -6   7 0.88989 0.53012  11
   3  -6   7 0.33586 0.29900  10
   4  -6   7 50.1777 3.48521  17
   4  -6   7 52.5910 3.61277  16
   4  -6   7 46.7534 3.40633  11
   4  -6   7 52.9944 2.67283  10
   4  -6   7 50.7457 2.50371   9
   4  -6   7 47.6157 3.64559   2
   4  -6   7 50.4311 3.81167  18
   4  -6   7 51.6187 5.12103   7
   5  -6   7 0.91348 0.76110  16
   5  -6   7 0.39353 1.18380   2
   5  -6   7 0.54585 0.69535  17
   5  -6   7 0.40054 1.82512   7
   5  -6   7 -0.1914 0.27453   9
   5  -6   7 -0.0126 0.33932  10
   5  -6   7 0.19255 0.63077  18
   6  -6   7 1.31683 0.62037  17
   6  -6   7 1.43905 0.79954  16
   6  -6   7 1.19027 0.34446   9
   6  -6   7 0.38536 1.01331  18
   6  -6   7 2.14218 0.47553  10
   7  -6   7 11.6152 1.68395  18
   7  -6   7 12.6581 0.84331   9
   7  -6   7 12.4377 1.07147  10
   7  -6   7 12.2334 1.47515  17
   8  -6   7 6.03560 0.72676  10
   8  -6   7 6.73054 1.11439  17
   8  -6   7 4.96490 1.16497  18
   9  -6   7 1.06301 0.33107  10
   9  -6   7 0.57262 0.49892  17
   9  -6   7 0.70938 0.52093  18
  10  -6   7 103.298 4.99530  10
  -8  -5   7 0.25641 0.25360   9
  -7  -5   7 1.76546 0.46386   9
  -7  -5   7 1.51971 0.46478  10
  -7  -5   7 1.79840 0.62753  12
  -6  -5   7 1.79565 0.93565  12
  -6  -5   7 2.49935 0.55506   9
  -6  -5   7 1.46446 0.48835  10
  -5  -5   7 0.39315 0.82906  12
  -5  -5   7 -0.3747 0.28091   9
  -5  -5   7 0.11954 0.48820  10
  -4  -5   7 220.283 13.2978  12
  -4  -5   7 179.211 14.1162   4
  -4  -5   7 200.637 9.83498   9
  -4  -5   7 209.081 9.97495  10
  -3  -5   7 0.96200 0.47820  10
  -3  -5   7 -0.2618 1.05177   3
  -3  -5   7 0.12651 0.37520   9
  -3  -5   7 3.85504 1.09642  12
  -3  -5   7 1.86128 1.87273   4
  -3  -5   7 0.63318 0.44307  11
  -3  -5   7 0.46315 1.19001   2
  -2  -5   7 35.5322 3.33924   3
  -2  -5   7 36.1470 3.33427   2
  -2  -5   7 32.3768 2.67336  18
  -2  -5   7 36.0816 2.60463  11
  -2  -5   7 37.2813 2.08293  10
  -2  -5   7 42.8503 4.73220   4
  -2  -5   7 36.5204 1.99415   9
  -2  -5   7 39.0351 3.11259  12
  -1  -5   7 -0.0435 0.60598  17
  -1  -5   7 -0.0470 0.55909  18
  -1  -5   7 0.35101 0.69649   3
  -1  -5   7 0.65346 0.36629  10
  -1  -5   7 -0.6748 0.76844   2
  -1  -5   7 0.60484 1.42646   4
  -1  -5   7 -0.2665 0.69238  12
  -1  -5   7 -0.0641 0.25125   9
  -1  -5   7 -0.9711 0.49281  11
   0  -5   7 122.175 7.67094   3
   0  -5   7 117.517 7.21565   2
   0  -5   7 101.772 7.30597  12
   0  -5   7 120.577 8.48965   4
   0  -5   7 112.236 6.91227  11
   0  -5   7 100.246 7.03780  18
   0  -5   7 113.953 6.73778  17
   0  -5   7 111.963 5.48660  10
   0  -5   7 112.651 5.39400   9
   1  -5   7 1179.44 67.2277   4
   1  -5   7 1118.24 65.0324  11
   1  -5   7 1204.96 68.4511  16
   1  -5   7 1024.66 66.9793  18
   1  -5   7 1150.59 68.4749   3
   1  -5   7 1106.00 52.8149  10
   1  -5   7 1066.79 63.8791  17
   1  -5   7 1177.35 68.4143   7
   1  -5   7 1090.15 52.4682   9
   1  -5   7 1180.45 63.3403   2
   2  -5   7 78.7386 5.22721  17
   2  -5   7 81.2884 4.21540  10
   2  -5   7 86.7198 5.47608  11
   2  -5   7 95.2008 6.92245   7
   2  -5   7 82.0686 4.14914   9
   2  -5   7 90.3792 5.64277  16
   2  -5   7 93.1252 6.06504   3
   2  -5   7 86.4955 6.89810   4
   2  -5   7 89.3698 5.79195   2
   2  -5   7 78.1144 5.48403  18
   3  -5   7 48.7360 3.42078  17
   3  -5   7 56.9016 3.69207  16
   3  -5   7 46.2314 4.88670   7
   3  -5   7 54.6546 2.72594  10
   3  -5   7 51.9585 3.63693  18
   3  -5   7 48.3072 4.01777   3
   3  -5   7 50.0391 2.62985   9
   3  -5   7 53.5965 3.99123   2
   3  -5   7 53.7020 4.99530   4
   3  -5   7 50.9571 3.52754  11
   4  -5   7 12.4939 1.41465  16
   4  -5   7 12.7946 0.89604  10
   4  -5   7 12.3140 1.49262  18
   4  -5   7 15.2617 2.91188   7
   4  -5   7 10.9319 0.85132   9
   4  -5   7 9.52497 1.62801   3
   4  -5   7 12.3708 1.86786   2
   4  -5   7 11.4447 1.22482  17
   5  -5   7 99.4089 4.81653   9
   5  -5   7 90.7465 7.00762   3
   5  -5   7 93.6862 5.98864  17
   5  -5   7 98.8128 4.90943  10
   5  -5   7 95.7184 6.31541  16
   5  -5   7 106.031 6.62348  18
   5  -5   7 97.8056 8.13560   7
   5  -5   7 92.5914 6.85057   2
   6  -5   7 27.7160 2.52013  18
   6  -5   7 30.0324 1.70452   9
   6  -5   7 26.1153 2.26019  17
   6  -5   7 27.1508 1.75349  10
   6  -5   7 24.7471 3.84882   7
   7  -5   7 5.73291 0.64860   9
   7  -5   7 4.68259 0.99128  17
   7  -5   7 5.48005 0.75405  10
   7  -5   7 7.33764 1.31776  18
   8  -5   7 42.9940 3.44490  18
   8  -5   7 43.7249 3.13134  17
   8  -5   7 44.7359 2.34944   9
   8  -5   7 44.2616 2.53952  10
   9  -5   7 30.1359 2.39363  17
   9  -5   7 32.3634 1.69947   9
   9  -5   7 30.6456 2.43150  18
   9  -5   7 34.9580 1.90653  10
  10  -5   7 7.25815 0.65669  10
  -8  -4   7 4.62676 0.72768  12
  -8  -4   7 5.45472 0.67059   9
  -8  -4   7 2.61589 0.65984  13
  -7  -4   7 3.05985 0.77032  12
  -7  -4   7 1.46010 0.64468  13
  -7  -4   7 2.90151 0.32244   8
  -7  -4   7 3.26093 0.66037   9
  -6  -4   7 12.1374 0.97080   8
  -6  -4   7 11.4832 1.01775   9
  -6  -4   7 11.4340 1.14716  10
  -6  -4   7 10.7248 1.47414  12
  -5  -4   7 4.63028 0.69539   9
  -5  -4   7 4.45310 0.73547  10
  -5  -4   7 3.70954 0.57777   8
  -4  -4   7 15.7643 1.31172  10
  -4  -4   7 17.6033 1.26258   9
  -4  -4   7 17.8093 1.15477   8
  -4  -4   7 19.6561 2.78392   2
  -4  -4   7 16.0765 2.95560   4
  -4  -4   7 12.9115 2.53812   3
  -3  -4   7 36.1364 1.99638   8
  -3  -4   7 37.2923 2.06441   9
  -3  -4   7 37.6905 3.72673   3
  -3  -4   7 39.4693 4.21156   4
  -3  -4   7 33.9672 3.51351   2
  -3  -4   7 34.1480 2.58801  11
  -3  -4   7 37.9274 2.13729  10
  -2  -4   7 18.0877 2.39632   2
  -2  -4   7 21.2449 2.98216   4
  -2  -4   7 18.5042 1.12392   8
  -2  -4   7 20.5788 2.40602   3
  -2  -4   7 16.7771 1.58267  11
  -2  -4   7 18.9799 1.20845   9
  -2  -4   7 19.5984 1.29892  10
  -1  -4   7 159.756 10.4531   4
  -1  -4   7 162.747 10.1757   3
  -1  -4   7 160.766 9.58480   2
  -1  -4   7 142.545 9.03284  11
  -1  -4   7 147.064 7.39858   8
  -1  -4   7 142.283 7.22825   9
   0  -4   7 237.106 15.7226   3
   0  -4   7 250.274 16.0611   7
   0  -4   7 249.246 14.7667   2
   0  -4   7 252.144 15.9053   4
   1  -4   7 3.24987 1.06227   2
   1  -4   7 2.49335 0.91193   3
   1  -4   7 3.22524 1.43817   4
   1  -4   7 3.43963 1.34365   7
   2  -4   7 54.1471 4.71143   4
   2  -4   7 51.6460 3.96060   3
   2  -4   7 44.9707 2.51324   9
   2  -4   7 50.8173 4.38099   7
   2  -4   7 50.0359 3.85103   2
   3  -4   7 38.4404 3.32850   2
   3  -4   7 41.2558 3.82326   7
   3  -4   7 34.2968 1.91377   8
   3  -4   7 37.3255 2.04270  10
   3  -4   7 37.1678 1.98907   9
   3  -4   7 37.0922 2.68336  16
   3  -4   7 37.4592 3.30123   3
   3  -4   7 35.6182 2.73371  18
   4  -4   7 13.5853 2.41616   7
   4  -4   7 14.7990 2.13808   3
   4  -4   7 14.9854 1.02298   9
   4  -4   7 15.2277 1.10870  10
   4  -4   7 16.5103 2.25563   2
   4  -4   7 13.6070 1.44487  16
   4  -4   7 14.0310 1.64016  18
   4  -4   7 13.5223 1.39012  17
   4  -4   7 13.8776 0.91555   8
   5  -4   7 39.8485 2.87728  18
   5  -4   7 30.6934 3.43148   2
   5  -4   7 33.8070 3.46854   3
   5  -4   7 32.1515 1.90404   9
   5  -4   7 33.3766 1.99203  10
   5  -4   7 34.2617 4.37408   7
   5  -4   7 30.3283 2.42132  17
   5  -4   7 33.5880 1.82703   8
   6  -4   7 1.01659 0.67124  17
   6  -4   7 0.99067 1.65629   2
   6  -4   7 0.86012 0.84087  18
   6  -4   7 0.78589 0.30423   8
   6  -4   7 0.42696 0.47621  10
   6  -4   7 1.07534 0.36564   9
   6  -4   7 2.36915 1.94740   7
   7  -4   7 4.73405 0.93514  17
   7  -4   7 4.75586 0.75369  10
   7  -4   7 5.65007 1.17244  18
   7  -4   7 5.25327 0.45696   8
   7  -4   7 4.63041 0.67869   9
   8  -4   7 4.57655 0.63309   9
   8  -4   7 4.31109 0.89105  17
   8  -4   7 5.00304 0.98670  18
   8  -4   7 4.36537 0.73982  10
   9  -4   7 45.1244 2.51281  10
   9  -4   7 46.7621 3.18376  18
   9  -4   7 41.6088 2.94322  17
   9  -4   7 41.0322 2.27783   9
  10  -4   7 1.94583 0.25554   9
  10  -4   7 1.67054 0.38410  10
  -9  -3   7 0.51447 0.38234   9
  -9  -3   7 0.07124 0.45647  13
  -8  -3   7 0.34482 0.35898   8
  -8  -3   7 0.92509 0.44455   9
  -8  -3   7 1.21936 0.54289  12
  -7  -3   7 22.8747 1.68460   9
  -7  -3   7 23.4585 2.22690  12
  -7  -3   7 20.8733 1.40846   8
  -6  -3   7 683.024 32.9091   8
  -6  -3   7 671.256 31.8557   9
  -5  -3   7 69.5512 7.25988   3
  -5  -3   7 88.2475 7.24724   2
  -5  -3   7 99.2827 4.77822   8
  -5  -3   7 96.0028 4.72135   9
  -4  -3   7 13.2844 2.35591   2
  -4  -3   7 12.3348 1.13851  10
  -4  -3   7 14.3196 0.98501   8
  -4  -3   7 14.0604 2.54623   4
  -4  -3   7 12.2322 2.40743   3
  -4  -3   7 14.4013 1.12783   9
  -3  -3   7 7.76384 1.74684   2
  -3  -3   7 6.66257 1.68212   3
  -3  -3   7 6.28267 1.75438   4
  -3  -3   7 6.91200 0.73161   9
  -3  -3   7 7.32616 0.68523   8
  -2  -3   7 51.9059 4.38511   4
  -2  -3   7 47.5361 4.14313   3
  -2  -3   7 50.7373 4.06226   2
  -1  -3   7 38.0086 3.30595   3
  -1  -3   7 37.9471 3.26796   2
  -1  -3   7 38.0826 3.56103   4
   0  -3   7 29.3208 2.77894   3
   0  -3   7 30.4948 2.92874   7
   0  -3   7 30.7392 2.81979   2
   0  -3   7 32.5681 3.04658   4
   1  -3   7 7.40410 1.34017   3
   1  -3   7 7.91630 1.42021   2
   1  -3   7 8.73835 1.78757   4
   1  -3   7 6.79607 1.54205   7
   2  -3   7 30.3641 2.83193   3
   2  -3   7 27.7819 2.93443   7
   2  -3   7 28.8457 2.79528   2
   2  -3   7 32.2497 3.33448   4
   3  -3   7 70.4353 5.48014   7
   3  -3   7 70.8394 5.09932   2
   3  -3   7 70.9529 5.29006   3
   3  -3   7 63.8593 3.48066   8
   4  -3   7 34.8099 2.05211  10
   4  -3   7 35.2040 3.65108   7
   4  -3   7 35.7211 2.01688   8
   4  -3   7 42.4652 3.64782   3
   4  -3   7 39.1221 3.60128   2
   4  -3   7 37.2502 2.06963   9
   5  -3   7 -0.0226 0.29586   8
   5  -3   7 -0.3161 0.43474  10
   5  -3   7 0.30459 0.40377   9
   5  -3   7 0.45721 1.19534   3
   5  -3   7 0.07984 0.56295  17
   5  -3   7 1.11534 1.29619   2
   5  -3   7 -1.8122 1.25976   7
   6  -3   7 137.943 6.52886   8
   6  -3   7 127.270 7.80110  17
   6  -3   7 133.378 6.50323  10
   6  -3   7 123.283 9.91454   7
   6  -3   7 113.913 9.42323   3
   6  -3   7 132.877 6.45236   9
   6  -3   7 124.038 9.29628   2
   7  -3   7 49.1861 2.56629   9
   7  -3   7 43.6797 2.61970  10
   7  -3   7 43.2973 2.43402   8
   7  -3   7 42.7889 3.12639  17
   8  -3   7 -0.1649 0.45917   9
   8  -3   7 -0.2994 0.24055   8
   9  -3   7 18.6559 1.23455   9
   9  -3   7 15.0872 1.48865  18
  10  -3   7 7.16300 0.54737   9
  -9  -2   7 1.43960 0.43303   8
  -9  -2   7 0.69810 0.63679   9
  -8  -2   7 34.9557 2.07460   8
  -8  -2   7 30.9713 2.69550  12
  -7  -2   7 0.57269 0.52912   8
  -6  -2   7 107.053 5.56066   8
  -5  -2   7 115.232 5.87725   9
  -5  -2   7 110.503 8.87009   3
  -5  -2   7 112.186 8.37978   2
  -5  -2   7 118.586 5.89856   8
  -4  -2   7 127.695 6.89075   8
  -4  -2   7 139.976 9.89666   3
  -4  -2   7 148.292 9.60009   4
  -4  -2   7 141.839 9.39709   2
  -3  -2   7 202.391 13.1323   4
  -3  -2   7 198.525 12.6306   2
  -3  -2   7 208.388 13.5486   3
  -2  -2   7 19.9704 2.30104   3
  -2  -2   7 20.2361 2.36780   4
  -2  -2   7 18.2456 2.32595   2
  -1  -2   7 77.7611 5.36206   2
  -1  -2   7 71.8764 5.45385   3
  -1  -2   7 77.5148 5.59911   4
   0  -2   7 31.8163 2.79407   2
   0  -2   7 28.1713 2.47660   1
   0  -2   7 31.3512 2.86107   7
   0  -2   7 29.0239 2.75115   3
   1  -2   7 167.607 10.5225   2
   1  -2   7 172.579 11.1942   3
   1  -2   7 170.259 11.1191   7
   2  -2   7 16.5475 2.18762   7
   2  -2   7 14.6326 2.01191   2
   2  -2   7 17.1891 2.21791   3
   3  -2   7 31.5124 3.05477   3
   3  -2   7 30.1085 2.97227   7
   3  -2   7 28.1626 3.05200   2
   4  -2   7 57.5964 2.99352   8
   4  -2   7 54.4629 4.72558   2
   4  -2   7 52.5062 2.96149   9
   4  -2   7 57.6372 4.82654   3
   4  -2   7 58.3010 4.93017   7
   5  -2   7 76.4420 6.12299   2
   5  -2   7 83.1566 6.42027   7
   5  -2   7 74.0111 6.34204   3
   5  -2   7 74.0024 4.00385   9
   5  -2   7 79.0148 4.05166   8
   6  -2   7 14.4843 3.06137   2
   6  -2   7 15.2397 1.22895   9
   6  -2   7 13.7647 3.00672   7
   6  -2   7 18.8882 1.26985   8
   6  -2   7 8.95803 2.60537   3
   7  -2   7 11.1110 1.13655   9
   7  -2   7 13.4412 1.12043   8
   8  -2   7 0.09292 0.33916   8
   8  -2   7 0.63590 0.40768   9
   9  -2   7 37.2936 2.14157   9
   9  -2   7 36.4176 1.91871   8
  10  -2   7 -0.0067 0.36666   9
  10   1  -7 1.53207 0.45342   8
 -10  -1   7 1.72328 0.44271   8
   9   1  -7 21.9271 1.60718   8
  -9  -1   7 24.2099 1.54943   8
  -8  -1   7 5.98196 0.83811   8
  -7  -1   7 3.92579 0.63226   8
  -6  -1   7 29.2967 1.89716   8
  -5  -1   7 73.9072 3.95612   8
  -4  -1   7 27.7064 3.19929   3
  -4  -1   7 29.9985 2.96158   4
  -4  -1   7 27.9916 3.30130   2
   3   1  -7 37.1931 3.11926   6
  -3  -1   7 36.5466 3.42879   2
  -3  -1   7 32.7377 3.38666   3
  -3  -1   7 40.2818 3.35288   4
   2   1  -7 36.1641 3.21855   1
  -2  -1   7 42.3767 3.34456   1
  -2  -1   7 46.8536 3.80888   3
  -2  -1   7 54.2752 3.83814   4
  -2  -1   7 44.1247 3.69876   2
   1   1  -7 32.1555 2.83219   1
  -1  -1   7 40.5937 3.13585   2
  -1  -1   7 35.7192 2.74474   1
  -1  -1   7 29.9893 2.70547   1
  -1  -1   7 43.4307 3.30572   3
   0   1  -7 487.099 26.1144   1
   0  -1   7 504.332 30.7664   3
   0  -1   7 466.741 25.9525   1
   0  -1   7 514.192 28.6233   2
   0  -1   7 551.906 30.2282   7
   0  -1   7 454.965 25.9472   1
  -1   1  -7 20.1216 2.26671   1
   1  -1   7 20.5854 2.15127   1
   1  -1   7 22.9470 2.25061   7
   1  -1   7 25.1448 2.41378   3
   1  -1   7 23.8472 2.45914   2
   2  -1   7 -0.0919 0.80642   3
   2  -1   7 0.76354 0.99166   1
   2  -1   7 -0.0371 0.69145   7
   2  -1   7 0.30245 0.97569   2
   3  -1   7 49.4594 4.10514   7
   3  -1   7 48.9323 4.24902   3
   3  -1   7 48.2625 4.20344   2
   4  -1   7 25.7092 3.21855   2
   4  -1   7 25.2377 2.96994   7
   4  -1   7 23.0371 3.09324   3
   4  -1   7 25.2772 1.59103   8
   5  -1   7 4.83607 0.67967   8
   5  -1   7 3.74718 1.38690   7
   6  -1   7 18.4774 1.40697   8
   7  -1   7 6.01727 0.72146   8
   8  -1   7 2.44940 0.51937   8
  -9   1  -7 4.78170 0.60939   8
   9  -1   7 3.78074 0.56950   9
   9  -1   7 3.89826 0.46592   8
  10   0  -7 83.0867 4.08249   8
 -10   0   7 73.0221 4.08502   8
   9   0  -7 36.7873 2.20525   8
  -9   0   7 35.0939 2.28526   8
   8   0  -7 3.94571 0.69305   8
  -8   0   7 3.07938 0.78156   8
   7   0  -7 24.3003 1.67497   8
   4   0  -7 6.81467 1.26977   6
  -4   0   7 5.91285 1.25618   4
   3   0  -7 1.76796 1.00602   3
   3   0  -7 0.62864 0.90505   2
   3   0  -7 0.81874 0.73215   6
  -3   0   7 0.15135 0.99080   3
  -3   0   7 0.42855 0.99083   2
  -3   0   7 -0.3231 0.80157   1
   2   0  -7 46.6870 3.77738   3
   2   0  -7 45.9807 3.60555   2
   2   0  -7 43.4003 3.24298   1
   2   0  -7 42.5467 3.20254   1
  -2   0   7 41.1710 3.61325   2
  -2   0   7 43.8541 3.27481   1
  -2   0   7 38.8630 3.13745   1
  -2   0   7 43.3533 3.67902   3
   1   0  -7 1.56338 0.64416   1
   1   0  -7 1.06935 0.67973   2
   1   0  -7 0.70720 0.74242   1
   1   0  -7 1.55094 0.91267   3
  -1   0   7 0.26579 0.50485   1
  -1   0   7 1.17117 0.84173   2
  -1   0   7 0.93860 0.81984   3
  -1   0   7 0.33152 0.66170   1
   0   0  -7 42.7853 3.51377   3
   0   0  -7 40.9602 3.06657   1
   0   0  -7 40.5804 3.10665   1
   0   0  -7 39.5844 3.42205   2
   0   0  -7 41.4207 3.06513   5
   0   0   7 41.7199 3.48723   2
   0   0   7 41.5273 3.09892   7
   0   0   7 41.2706 3.09904   1
   0   0   7 45.1616 3.46840   3
   0   0   7 36.5683 2.90810   1
  -1   0  -7 79.0232 5.42284   1
  -1   0  -7 84.4036 6.34246   3
  -1   0  -7 86.9883 6.05025   2
   1   0   7 89.2936 5.51427   1
   1   0   7 91.1567 6.33544   3
   1   0   7 93.7185 5.94024   7
   1   0   7 95.9665 6.13363   2
   1   0   7 79.3712 5.36894   1
   2   0   7 6.79847 1.44292   2
   2   0   7 9.10206 1.43315   7
   2   0   7 8.60036 1.63513   3
   5   0   7 4.78128 0.72107   8
   6   0   7 4.52077 0.74409   8
  -7   0  -7 0.37035 0.53767   8
   7   0   7 0.39012 0.35930   8
  -8   0  -7 21.5407 1.56209   8
   8   0   7 26.6814 1.61076   8
  -9   0  -7 0.97033 0.46626   8
   9   0   7 1.52364 0.29144   8
  11  -1  -7 5.96925 0.41399   8
 -11   1   7 5.53385 0.59709   8
  10  -1  -7 1.82890 0.49391   9
  10  -1  -7 2.59513 0.49783   8
   9  -1  -7 -0.3706 0.74681  16
   9  -1  -7 0.96446 0.53283   8
   8  -1  -7 2.19288 0.58198   8
   7  -1  -7 412.399 20.2114   8
   6  -1  -7 57.0391 3.12483   8
   5  -1  -7 21.7296 2.85175   2
   5  -1  -7 26.0011 2.79430   6
   5  -1  -7 23.2074 2.64930   3
   4  -1  -7 0.75796 0.99227   2
   4  -1  -7 0.59666 0.64561   6
   4  -1  -7 0.88131 0.88244   3
  -4   1   7 0.42604 0.72323   4
   3  -1  -7 27.5256 2.50029   1
   3  -1  -7 27.5325 2.68963   2
   3  -1  -7 29.2672 2.79198   3
   3  -1  -7 30.8099 2.83123   6
  -3   1   7 19.6810 2.20331   1
   2  -1  -7 474.335 26.1115   2
   2  -1  -7 422.844 23.6734   1
   2  -1  -7 466.333 28.1136   3
  -2   1   7 436.968 23.7162   1
   1  -1  -7 14.8093 1.62214   5
   1  -1  -7 13.6320 1.86390   2
   1  -1  -7 13.2579 1.70665   1
   1  -1  -7 12.0111 1.59771   1
   1  -1  -7 14.4554 1.96026   3
  -1   1   7 10.3499 1.54652   1
   0  -1  -7 55.8092 4.24468   2
   0  -1  -7 57.6774 4.16053   5
   0  -1  -7 50.4160 3.77211   1
   0  -1  -7 57.1290 4.42272   3
   0   1   7 49.4818 3.76706   1
  -1  -1  -7 133.815 8.96792   5
  -1  -1  -7 144.523 8.78442   2
  -1  -1  -7 131.429 7.92996   1
  -1  -1  -7 136.628 9.19338   3
   1   1   7 118.499 7.82140   1
  -2  -1  -7 240.767 16.2074   3
  -2  -1  -7 242.474 16.0305   5
  -2  -1  -7 263.030 15.3248   2
  -3  -1  -7 11.2764 1.91992   5
  -4  -1  -7 36.0046 2.18876   8
  -5  -1  -7 7.89596 0.89067   8
  -6  -1  -7 30.6276 2.01654   8
  -7  -1  -7 1.09260 0.45554   8
   7   1   7 0.76388 0.54211   8
  -8  -1  -7 4.42026 0.56321   8
   8   1   7 2.51360 0.57152   8
  -9  -1  -7 1.08442 0.24857   8
   9   1   7 0.43111 0.23920   8
  11  -2  -7 0.46275 0.31703   9
  10  -2  -7 -0.5934 0.64629  16
  10  -2  -7 0.08444 0.30306   8
  10  -2  -7 -0.7277 0.46149   9
   9  -2  -7 27.6337 1.81360   9
   9  -2  -7 30.1149 2.46016  16
   9  -2  -7 25.2150 1.68817   8
   8  -2  -7 29.8742 1.86566   8
   8  -2  -7 28.5702 1.89255   9
   7  -2  -7 0.40613 1.16604   2
   7  -2  -7 0.47335 0.39795   8
   7  -2  -7 -0.5129 1.39316   3
   7  -2  -7 0.36257 0.44124   9
   6  -2  -7 77.9988 6.38532   3
   6  -2  -7 75.5552 4.05301   9
   6  -2  -7 82.2878 6.37751   6
   6  -2  -7 82.4390 6.26968   2
   6  -2  -7 80.0663 4.12831   8
   5  -2  -7 1.87582 1.10481   6
   5  -2  -7 1.41007 0.38857   8
   5  -2  -7 1.55377 1.10244   2
   5  -2  -7 0.58369 1.07133   3
   4  -2  -7 206.996 13.9133   3
   4  -2  -7 213.228 14.0575   6
   4  -2  -7 213.164 13.0674   2
   3  -2  -7 207.847 12.6151   2
   3  -2  -7 192.918 13.4191   3
   3  -2  -7 216.884 13.6945   6
   2  -2  -7 55.1916 4.37617   3
   2  -2  -7 54.3015 4.20370   2
   2  -2  -7 54.9100 4.30231   5
   1  -2  -7 6.29566 1.35258   5
   1  -2  -7 6.44860 1.44570   3
   1  -2  -7 5.38557 1.34021   2
   0  -2  -7 16.3574 2.04684   5
   0  -2  -7 16.6137 2.25470   3
   0  -2  -7 18.7785 2.06472   2
  -1  -2  -7 68.4071 5.26086   3
  -1  -2  -7 61.1912 5.13831   5
  -1  -2  -7 69.0987 5.10289   2
  -2  -2  -7 0.45951 1.10684   2
  -2  -2  -7 -0.2118 1.00526   3
  -2  -2  -7 -0.5296 0.84973   5
  -3  -2  -7 1.94346 0.41384   8
  -3  -2  -7 0.63487 1.41382   2
  -3  -2  -7 1.94900 1.31468   5
  -3  -2  -7 1.61765 1.40997   3
  -4  -2  -7 23.2767 3.41185   5
  -4  -2  -7 30.0382 1.78490   8
  -5  -2  -7 30.8762 1.99744   8
  -6  -2  -7 4.27146 0.71778   8
  -7  -2  -7 0.21486 0.44587   8
  -8  -2  -7 16.9901 1.28505   9
  -8  -2  -7 17.4880 1.08343   8
   8   2   7 16.9855 1.24109   8
  11  -3  -7 -0.0357 0.38530   9
  10  -3  -7 9.50337 0.59536   8
  10  -3  -7 9.96388 1.24447  16
  10  -3  -7 9.64914 0.90921   9
   9  -3  -7 39.9356 2.35241   9
   9  -3  -7 38.3582 2.19180   8
   9  -3  -7 42.6233 3.13229  16
   8  -3  -7 4.50172 0.60593   8
   8  -3  -7 5.95006 0.73994   9
   8  -3  -7 3.79370 1.07105  16
   8  -3  -7 4.58149 0.71707  10
   7  -3  -7 10.3465 2.30612   3
   7  -3  -7 15.3088 1.10113   9
   7  -3  -7 17.0329 1.12352   8
   7  -3  -7 15.6283 2.68039   6
   7  -3  -7 14.4916 1.20108  10
   7  -3  -7 13.0571 2.41989   2
   6  -3  -7 124.289 9.04156   6
   6  -3  -7 120.706 8.69455   3
   6  -3  -7 121.904 8.28936   2
   6  -3  -7 121.918 5.93064   8
   6  -3  -7 115.633 5.81824   9
   6  -3  -7 107.968 7.61449  15
   6  -3  -7 117.714 5.85368  10
   5  -3  -7 10.9129 0.92044  10
   5  -3  -7 12.0681 2.02662   2
   5  -3  -7 10.1731 1.25373  15
   5  -3  -7 13.1703 2.14905   3
   5  -3  -7 10.7228 0.84263   8
   5  -3  -7 15.1167 2.29141   6
   5  -3  -7 11.0144 0.90766   9
   4  -3  -7 65.7364 5.38701   3
   4  -3  -7 77.0508 5.31805   2
   4  -3  -7 69.7555 5.76921   6
   3  -3  -7 152.252 9.63113   2
   3  -3  -7 143.662 10.1583   3
   3  -3  -7 160.259 10.6671   6
   2  -3  -7 5.56013 1.32334   2
   2  -3  -7 4.79419 1.33118   5
   2  -3  -7 7.50889 1.45584   3
   2  -3  -7 8.00013 1.70958   6
   1  -3  -7 366.808 23.0802   3
   1  -3  -7 356.275 23.3538   5
   1  -3  -7 375.065 23.5740   6
   1  -3  -7 366.153 21.5100   2
   0  -3  -7 7.56863 1.76152   5
   0  -3  -7 9.23378 1.68033   2
   0  -3  -7 8.16201 1.50715   3
  -1  -3  -7 4.58721 1.52876   5
  -1  -3  -7 4.44889 1.42914   2
  -1  -3  -7 5.07539 0.56555   8
  -1  -3  -7 4.36525 0.56930   9
  -1  -3  -7 5.09911 1.44041   3
  -2  -3  -7 9.38932 2.00885   3
  -2  -3  -7 8.68459 0.85517  10
  -2  -3  -7 8.18809 0.83247   8
  -2  -3  -7 9.52626 0.86595   9
  -2  -3  -7 8.02294 1.91791   5
  -2  -3  -7 9.50184 1.97358   2
  -3  -3  -7 -0.0907 0.91784   3
  -3  -3  -7 0.09326 0.39557   8
  -3  -3  -7 -0.7981 0.95087   2
  -3  -3  -7 -0.0626 0.27355   9
  -3  -3  -7 -0.6494 0.97936   5
  -4  -3  -7 6.64416 0.81415   9
  -4  -3  -7 4.93917 0.69181   8
  -4  -3  -7 6.53731 2.28818   2
  -4  -3  -7 5.42666 2.17369   5
  -5  -3  -7 21.3931 1.53288   9
  -5  -3  -7 25.1616 1.59017   8
  -6  -3  -7 0.57212 0.40474   8
  -6  -3  -7 0.01424 0.35896   9
  -7  -3  -7 6.69174 0.56472   8
  -7  -3  -7 8.16633 0.83359   9
  11  -4  -7 6.86433 0.64061   9
  11  -4  -7 4.84751 0.94099  16
  11  -4  -7 6.74809 0.74663  10
  10  -4  -7 2.37950 0.96198  16
  10  -4  -7 3.53216 0.50398   9
  10  -4  -7 3.70308 0.58392  10
   9  -4  -7 2.87669 0.55315  10
   9  -4  -7 2.93222 0.84593  16
   9  -4  -7 2.00237 0.54436   9
   8  -4  -7 9.34679 2.74059   6
   8  -4  -7 9.17183 1.45547  16
   8  -4  -7 9.31857 0.70126   8
   8  -4  -7 9.64067 0.91759   9
   7  -4  -7 27.6020 1.61740   9
   7  -4  -7 27.2881 3.11697   2
   7  -4  -7 23.0765 2.20458  15
   7  -4  -7 26.9413 1.54916   8
   7  -4  -7 31.1764 2.48031  16
   7  -4  -7 27.5185 1.72362  10
   7  -4  -7 21.5101 3.17546   3
   7  -4  -7 29.6886 3.92005   6
   6  -4  -7 67.7353 3.43380   8
   6  -4  -7 67.3340 3.45560   9
   6  -4  -7 62.7662 4.63954  15
   6  -4  -7 68.7998 3.52391  10
   6  -4  -7 69.1029 5.37475   2
   6  -4  -7 65.9921 5.50005   3
   6  -4  -7 71.1696 6.23970   6
   5  -4  -7 101.556 7.55258   3
   5  -4  -7 103.776 8.20396   6
   5  -4  -7 106.980 5.21458  10
   5  -4  -7 102.701 5.20589   8
   5  -4  -7 104.067 5.14569   9
   5  -4  -7 104.789 6.92615  15
   5  -4  -7 109.810 7.24605   2
   4  -4  -7 16.1699 2.14063   2
   4  -4  -7 14.2922 0.91305   8
   4  -4  -7 15.9727 2.13004   3
   4  -4  -7 14.7424 2.43955   6
   4  -4  -7 15.2396 1.45161  15
   4  -4  -7 14.2884 0.98605   9
   4  -4  -7 14.5935 1.31107  13
   4  -4  -7 14.7464 1.01731  10
   3  -4  -7 9.99010 1.92444   6
   3  -4  -7 9.35671 1.09117  15
   3  -4  -7 6.50955 0.64771   9
   3  -4  -7 6.88849 0.68043  10
   3  -4  -7 9.37170 1.76850   5
   3  -4  -7 8.92653 1.59266   2
   3  -4  -7 8.73119 1.62585   3
   2  -4  -7 64.9334 4.93236   3
   2  -4  -7 61.4029 3.20183   9
   2  -4  -7 67.1312 4.79725   2
   2  -4  -7 59.5084 3.20493   8
   2  -4  -7 71.0290 5.76350   6
   2  -4  -7 66.7316 5.30993   5
   1  -4  -7 42.8653 2.34735  10
   1  -4  -7 40.2630 3.17868  14
   1  -4  -7 44.5716 2.34098   9
   1  -4  -7 50.0522 3.85088   2
   1  -4  -7 49.2272 3.89054   3
   1  -4  -7 48.7920 4.61450   6
   1  -4  -7 50.5036 4.33869   5
   1  -4  -7 40.3083 2.29434   8
   0  -4  -7 0.79091 1.21109   5
   0  -4  -7 0.42329 1.43653   6
   0  -4  -7 1.43760 0.43535  12
   0  -4  -7 1.12856 0.36953  10
   0  -4  -7 1.47538 1.03694   2
   0  -4  -7 1.59543 0.77028  14
   0  -4  -7 2.75785 1.17726   3
   0  -4  -7 1.53969 0.39353   9
   0  -4  -7 1.54086 0.32353   8
  -1  -4  -7 4.08503 1.46806   3
  -1  -4  -7 2.30495 0.48242  10
  -1  -4  -7 3.53503 1.39048   2
  -1  -4  -7 1.83204 0.59808  13
  -1  -4  -7 3.79737 0.52782   9
  -1  -4  -7 2.06977 1.42628   5
  -1  -4  -7 3.45061 0.45718   8
  -2  -4  -7 144.619 9.68184  13
  -2  -4  -7 165.569 11.3373   3
  -2  -4  -7 163.169 7.79082   9
  -2  -4  -7 161.033 7.97760   8
  -2  -4  -7 167.803 10.7699   2
  -2  -4  -7 164.356 7.85501  10
  -2  -4  -7 157.604 11.7404   5
  -3  -4  -7 124.496 5.97682   9
  -3  -4  -7 122.949 6.06517   8
  -3  -4  -7 109.905 8.61963   2
  -3  -4  -7 116.442 6.00400  10
  -3  -4  -7 117.377 9.56782   5
  -4  -4  -7 3.20190 0.67783  10
  -4  -4  -7 3.08111 0.51588   8
  -4  -4  -7 2.96997 0.63832   9
  -5  -4  -7 1.34198 0.56140   9
  -5  -4  -7 1.33484 0.34605   8
  -6  -4  -7 34.6613 2.01073   9
  -6  -4  -7 34.3357 2.82442  14
  -7  -4  -7 0.43762 0.46176  14
  -7  -4  -7 0.30287 0.25212   9
  11  -5  -7 22.8831 1.90404  16
  11  -5  -7 25.5463 1.44814  10
  10  -5  -7 0.68404 0.47766  10
  10  -5  -7 0.45485 0.30907   9
  10  -5  -7 0.27990 0.59513  16
   9  -5  -7 11.3624 0.94419  10
   9  -5  -7 10.9109 0.90838   9
   9  -5  -7 9.68266 1.54409  16
   8  -5  -7 335.381 23.7231  15
   8  -5  -7 418.672 23.8888  16
   8  -5  -7 392.736 17.9963   9
   7  -5  -7 70.9059 3.63734  10
   7  -5  -7 62.1850 6.51608   6
   7  -5  -7 68.9576 3.52951   9
   7  -5  -7 66.1793 4.84750  15
   7  -5  -7 73.7597 5.16517  16
   6  -5  -7 1.29643 1.36129   6
   6  -5  -7 -0.1311 0.87567  16
   6  -5  -7 -0.1985 0.29413   9
   6  -5  -7 0.20902 1.08767   2
   6  -5  -7 -0.2715 0.33641  10
   6  -5  -7 0.38540 0.71043  15
   6  -5  -7 -0.2449 1.15393   3
   6  -5  -7 -0.2198 0.54607  14
   5  -5  -7 2.41460 1.10792   2
   5  -5  -7 3.16839 1.04743  16
   5  -5  -7 3.59304 0.74472  13
   5  -5  -7 3.26865 0.44072   9
   5  -5  -7 2.80739 1.06256   3
   5  -5  -7 3.70363 0.53446  10
   5  -5  -7 5.44523 2.01264   6
   5  -5  -7 3.05975 0.73690  14
   5  -5  -7 4.21160 0.93734  15
   4  -5  -7 1.71480 0.72768  14
   4  -5  -7 1.93801 0.83034  16
   4  -5  -7 3.48790 0.43697   9
   4  -5  -7 2.97844 1.10150   3
   4  -5  -7 5.64258 1.18514   2
   4  -5  -7 3.30540 0.61138  13
   4  -5  -7 5.28585 1.90276   6
   4  -5  -7 4.73898 0.85815  15
   4  -5  -7 3.87869 0.50570  10
   3  -5  -7 377.819 22.8559  13
   3  -5  -7 402.030 24.2828  15
   3  -5  -7 375.774 18.3389  10
   3  -5  -7 399.725 25.2397   5
   3  -5  -7 408.038 24.3639   3
   3  -5  -7 419.926 25.5810   6
   3  -5  -7 377.740 18.1926   9
   3  -5  -7 357.936 23.9126  14
   2  -5  -7 0.33740 1.18392   5
   2  -5  -7 1.49481 1.09047   2
   2  -5  -7 1.67811 0.33757  10
   2  -5  -7 2.01236 0.92883   3
   2  -5  -7 1.77862 0.50827  12
   2  -5  -7 2.52139 0.62524  13
   2  -5  -7 2.21910 0.88622  15
   2  -5  -7 1.65196 0.74667  14
   2  -5  -7 0.63632 1.39583   6
   2  -5  -7 2.11904 0.40670   9
   1  -5  -7 15.0534 1.69523  14
   1  -5  -7 19.7775 3.01488   5
   1  -5  -7 15.4843 1.07495   9
   1  -5  -7 11.0363 2.55959   6
   1  -5  -7 14.3041 2.20819   2
   1  -5  -7 17.1535 1.50592  12
   1  -5  -7 16.3076 1.84141  15
   1  -5  -7 14.8103 1.07158  10
   1  -5  -7 18.5852 2.36546   3
   1  -5  -7 14.0759 1.41304  13
   0  -5  -7 28.5626 2.24640  13
   0  -5  -7 30.8787 2.31533  12
   0  -5  -7 32.1069 3.79959   5
   0  -5  -7 27.2031 2.54097  15
   0  -5  -7 33.0190 3.33345   2
   0  -5  -7 29.6575 2.62699  14
   0  -5  -7 34.1349 3.27517   3
   0  -5  -7 30.3545 1.75927   9
  -1  -5  -7 5.95273 1.28811  14
  -1  -5  -7 4.53976 0.84220  13
  -1  -5  -7 1.97480 1.26519   2
  -1  -5  -7 5.00203 0.63129   9
  -1  -5  -7 4.35737 1.71737   5
  -1  -5  -7 4.01652 1.45704   3
  -1  -5  -7 5.05438 0.66464  10
  -2  -5  -7 2.16818 0.55038  10
  -2  -5  -7 2.61045 0.97313  14
  -2  -5  -7 4.44379 2.12127   5
  -2  -5  -7 3.95811 0.57413   9
  -2  -5  -7 2.96717 1.76185   2
  -2  -5  -7 2.47938 0.67137  13
  -3  -5  -7 26.4316 2.64260  14
  -3  -5  -7 22.6053 1.42183   9
  -3  -5  -7 22.7213 1.56382  10
  -3  -5  -7 19.4563 1.96484  13
  -4  -5  -7 11.8489 0.93350   9
  -4  -5  -7 11.4619 1.12525  10
  -4  -5  -7 13.4794 1.78467  14
  -5  -5  -7 7.08764 0.75890  10
  -5  -5  -7 5.58163 0.65761   9
  -5  -5  -7 6.89905 1.09253  14
  -6  -5  -7 0.18898 0.27761   9
  -6  -5  -7 0.83043 0.52946  14
  -6  -5  -7 0.65381 0.36234  10
  11  -6  -7 0.60765 0.52116  16
  11  -6  -7 0.41349 0.24817  10
  10  -6  -7 4.61215 0.91898  16
  10  -6  -7 4.56136 0.59327  10
   9  -6  -7 74.2123 3.67091  10
   9  -6  -7 67.4836 3.37835   9
   9  -6  -7 70.1175 5.10499  16
   8  -6  -7 271.259 12.7387   9
   8  -6  -7 256.502 17.0463  15
   8  -6  -7 269.255 12.9672  10
   8  -6  -7 286.745 17.2488  16
   7  -6  -7 17.4376 1.17336  10
   7  -6  -7 16.3446 1.69611  14
   7  -6  -7 14.9925 1.85331  15
   7  -6  -7 17.1467 2.19315  16
   7  -6  -7 17.3771 1.03404   9
   6  -6  -7 0.16978 0.31169  10
   6  -6  -7 -0.5109 1.23218   6
   6  -6  -7 -0.2022 0.47965  15
   6  -6  -7 -0.4469 0.22959   9
   6  -6  -7 0.26394 0.96468  16
   6  -6  -7 1.05125 1.05301   2
   6  -6  -7 -0.6760 0.52204  14
   5  -6  -7 258.318 12.0224   9
   5  -6  -7 235.708 16.1082  16
   5  -6  -7 264.275 16.2983  15
   5  -6  -7 249.237 15.0348   2
   5  -6  -7 242.929 15.9790  14
   5  -6  -7 254.115 17.9102   6
   5  -6  -7 240.957 16.1836   3
   5  -6  -7 278.728 15.3397  13
   5  -6  -7 271.759 12.2312  10
   4  -6  -7 256.211 11.9361   9
   4  -6  -7 259.425 15.1985  13
   4  -6  -7 246.028 15.9151  14
   4  -6  -7 250.423 14.8868   2
   4  -6  -7 266.744 12.1325  10
   4  -6  -7 225.316 15.9558   3
   4  -6  -7 265.998 16.2342  15
   4  -6  -7 262.054 17.8058   6
   3  -6  -7 5.00384 0.87890  13
   3  -6  -7 7.06787 2.41213   6
   3  -6  -7 3.35872 1.13617   3
   3  -6  -7 3.54539 1.00082   2
   3  -6  -7 5.78144 1.18784  15
   3  -6  -7 4.91395 1.05376  14
   3  -6  -7 2.90604 1.82807   5
   3  -6  -7 5.69656 0.49198   9
   3  -6  -7 5.46330 0.59004  10
   2  -6  -7 2.78544 0.76020  13
   2  -6  -7 2.10833 2.09762   6
   2  -6  -7 2.40145 1.02558  15
   2  -6  -7 1.79081 0.33022   9
   2  -6  -7 2.72152 0.78593  12
   2  -6  -7 1.38473 0.94421   3
   2  -6  -7 2.46507 0.44267  10
   2  -6  -7 0.70754 0.97147   2
   2  -6  -7 3.53097 1.79862   5
   2  -6  -7 2.79096 0.79993  14
   1  -6  -7 7.37654 1.16450  15
   1  -6  -7 7.03282 0.93769  12
   1  -6  -7 4.02883 1.38648   2
   1  -6  -7 5.15839 1.34584   3
   1  -6  -7 6.09511 1.14469  14
   1  -6  -7 5.69830 0.58468   9
   1  -6  -7 6.07986 0.99441  13
   1  -6  -7 6.14674 0.67470  10
   1  -6  -7 7.39776 2.15911   5
   0  -6  -7 0.38649 0.61972  13
   0  -6  -7 0.64960 0.99646   3
   0  -6  -7 0.93446 0.39899   9
   0  -6  -7 1.48245 0.77935  14
   0  -6  -7 1.26501 0.41094  10
   0  -6  -7 0.54953 1.16430   5
   0  -6  -7 1.13342 0.59957  12
   0  -6  -7 1.21195 1.45164   2
  -1  -6  -7 36.7517 1.96003   9
  -1  -6  -7 34.8716 3.20872  14
  -1  -6  -7 29.0761 4.44652   5
  -1  -6  -7 33.7514 2.60777  12
  -1  -6  -7 35.5066 2.66240  13
  -2  -6  -7 0.93768 0.89557  14
  -2  -6  -7 0.79752 0.72141  13
  -2  -6  -7 0.24232 0.42364  10
  -2  -6  -7 0.66407 0.37541   9
  -3  -6  -7 108.556 6.80045  14
  -3  -6  -7 95.0493 4.81050  10
  -3  -6  -7 94.6375 4.68218   9
  -3  -6  -7 84.8759 6.00228  13
  -4  -6  -7 1.33982 0.53006  13
  -4  -6  -7 1.29496 0.40330  10
  -4  -6  -7 1.41240 0.33782   9
  -4  -6  -7 1.21768 1.01119  14
  -5  -6  -7 1.74678 0.36527  10
  -5  -6  -7 1.27967 0.58059  14
  11  -7  -7 0.99822 0.49378  16
  10  -7  -7 36.8598 2.98509  16
  10  -7  -7 40.7398 2.07702  10
   9  -7  -7 -0.3330 0.66576  15
   9  -7  -7 0.72023 0.72116  16
   9  -7  -7 -0.3699 0.30159  10
   8  -7  -7 -0.3652 0.26644  10
   8  -7  -7 -0.4999 0.37613  14
   8  -7  -7 -0.8663 0.44485  15
   8  -7  -7 1.77727 1.17090  16
   7  -7  -7 10.2289 1.45510  15
   7  -7  -7 8.27734 1.18088  14
   7  -7  -7 12.1734 1.75379  16
   6  -7  -7 131.653 6.17436  10
   6  -7  -7 124.265 8.23054  14
   6  -7  -7 129.196 8.49069  15
   6  -7  -7 118.201 8.49642  16
   5  -7  -7 8.66781 1.41705  15
   5  -7  -7 7.08465 1.26970  16
   5  -7  -7 5.57189 2.79149   6
   5  -7  -7 9.39775 0.75281  10
   5  -7  -7 10.7729 1.27293  14
   5  -7  -7 9.64602 1.19496  13
   4  -7  -7 38.3847 5.23406   6
   4  -7  -7 43.0345 3.25033  14
   4  -7  -7 42.1317 2.25553  10
   4  -7  -7 43.0648 3.51682  15
   4  -7  -7 43.7006 3.07814  13
   3  -7  -7 12.6563 1.60226  14
   3  -7  -7 15.3986 1.90708  15
   3  -7  -7 11.6860 2.99182   6
   3  -7  -7 12.7376 0.91222  10
   3  -7  -7 9.77475 2.38779   5
   3  -7  -7 13.7046 1.34764  13
   2  -7  -7 85.2087 5.52372  13
   2  -7  -7 83.7835 5.94703  14
   2  -7  -7 84.8881 4.24794  10
   2  -7  -7 65.3946 7.21887   5
   2  -7  -7 92.2719 5.76502  12
   2  -7  -7 87.7602 6.06221  15
   1  -7  -7 2.11320 0.73153  12
   1  -7  -7 1.09088 0.36349  10
   1  -7  -7 1.37248 0.80163  14
   1  -7  -7 2.33021 0.89091  15
   1  -7  -7 1.42353 1.58735   5
   1  -7  -7 1.59153 0.61156  13
   0  -7  -7 0.17307 0.65119  13
   0  -7  -7 0.04177 0.33571  10
   0  -7  -7 -0.9466 0.93528  14
   0  -7  -7 -0.0838 0.57571  12
  -1  -7  -7 4.34431 0.93696  13
  -1  -7  -7 5.80324 0.62550  10
  -1  -7  -7 5.53484 1.43915  14
  -1  -7  -7 5.00825 0.80177  12
  -2  -7  -7 5.24428 0.94271  13
  -2  -7  -7 5.47856 1.40851  14
  -2  -7  -7 4.79095 0.61475  10
  -3  -7  -7 21.6635 2.23849  14
  -3  -7  -7 17.4447 1.59003  13
  -3  -7  -7 20.1103 1.29317  10
  -4  -7  -7 2.33592 0.81545  14
  -4  -7  -7 2.25918 0.35315  10
  10  -8  -7 0.27566 0.58794  16
   9  -8  -7 41.2053 2.06347  10
   9  -8  -7 45.1758 3.34455  16
   9  -8  -7 42.7405 3.07175  15
   8  -8  -7 15.7491 0.93872  10
   8  -8  -7 16.3886 1.58854  14
   8  -8  -7 16.2001 1.65862  15
   8  -8  -7 15.4384 1.97872  16
   7  -8  -7 20.2690 2.20418  16
   7  -8  -7 23.1273 1.23956  10
   7  -8  -7 22.2032 2.09528  15
   7  -8  -7 21.0659 2.04430  14
   6  -8  -7 43.2713 3.27107  14
   6  -8  -7 39.6620 3.23653  16
   6  -8  -7 42.6013 3.48344  15
   5  -8  -7 10.8029 1.50748  14
   5  -8  -7 12.1903 1.47628  13
   5  -8  -7 13.9011 0.81313  10
   5  -8  -7 11.3740 1.73031  15
   4  -8  -7 1.20007 0.28952  10
   4  -8  -7 0.65500 1.03700  15
   4  -8  -7 1.40928 0.60843  13
   4  -8  -7 1.44031 0.93917  14
   3  -8  -7 5.15752 0.50620  10
   3  -8  -7 4.95019 1.24470  14
   3  -8  -7 7.88406 1.45225  15
   3  -8  -7 6.27557 0.97834  13
   2  -8  -7 63.7449 3.16456  10
   2  -8  -7 63.0960 4.22628  13
   2  -8  -7 63.8876 4.75470  14
   2  -8  -7 60.6313 4.54760  15
   1  -8  -7 0.81006 0.54806  13
   1  -8  -7 1.37998 0.55976  12
   1  -8  -7 -0.3974 0.96604  14
   1  -8  -7 0.79942 0.28891  10
   0  -8  -7 0.23836 0.27358  10
   0  -8  -7 -0.1604 0.45202  12
   0  -8  -7 -0.6849 0.62922  13
   0  -8  -7 0.22531 1.08556  14
  -1  -8  -7 0.62742 0.29984  10
  -1  -8  -7 1.00834 0.84369  14
  -1  -8  -7 -0.1685 0.65031  13
  -2  -8  -7 13.4428 1.41341  13
  -2  -8  -7 13.2249 1.59508  14
  -2  -8  -7 14.4640 0.89985  10
  -3  -8  -7 1.06026 0.73680  14
  -3  -8  -7 1.37567 0.45718  13
  -3  -8  -7 2.23132 0.29134  10
   9  -9  -7 56.3210 3.61066  16
   9  -9  -7 45.1039 3.44255  15
   8  -9  -7 9.31849 1.04906  14
   8  -9  -7 7.53357 1.19395  15
   8  -9  -7 5.79220 1.20032  16
   7  -9  -7 0.65961 0.72708  14
   7  -9  -7 0.34573 0.50347  16
   7  -9  -7 -0.6097 0.58410  15
   6  -9  -7 -0.6039 0.60046  15
   6  -9  -7 0.12778 0.70499  14
   5  -9  -7 0.04801 0.53269  14
   5  -9  -7 0.53163 1.03149  15
   5  -9  -7 0.47597 0.69698  13
   4  -9  -7 94.6526 5.68290  13
   4  -9  -7 82.9129 6.12777  15
   4  -9  -7 84.5821 5.95201  14
   3  -9  -7 3.53239 1.11754  14
   3  -9  -7 2.90869 1.02717  15
   3  -9  -7 3.79653 0.85201  13
   2  -9  -7 -0.0511 0.64162  13
   2  -9  -7 0.13385 0.70239  14
   1  -9  -7 2.78886 0.81267  13
   1  -9  -7 4.01451 1.23751  14
   0  -9  -7 15.0105 1.54913  13
   0  -9  -7 16.2761 1.83338  14
  -1  -9  -7 0.55833 0.58103  13
  -1  -9  -7 -0.3930 0.86204  14
   8 -10  -7 12.2089 1.26019  15
   7 -10  -7 25.2597 2.28669  15
   7 -10  -7 25.5986 1.97332  14
   6 -10  -7 24.5995 2.01063  14
   6 -10  -7 24.5222 2.22171  15
   5 -10  -7 87.0698 5.30234  14
   5 -10  -7 68.5295 5.37975  15
   4 -10  -7 8.41096 1.11321  14
   4 -10  -7 7.07622 1.00386  13
   4 -10  -7 7.26650 1.23029  15
   3 -10  -7 -0.1088 0.67490  14
   3 -10  -7 1.04678 0.54929  13
   2 -10  -7 23.7649 1.90941  13
   2 -10  -7 23.4253 2.14033  14
   1 -10  -7 75.4999 5.19410  14
   5 -11  -7 9.05323 1.02261  14
   4 -11  -7 1.27964 0.54416  14
   2 -11   8 16.9667 1.45676  18
   3 -11   8 26.0265 2.03871  18
   4 -11   8 -0.8606 0.54647  18
   5 -11   8 19.2560 1.36002  17
   5 -11   8 13.9994 1.48867  18
  -1 -10   8 5.73989 0.86771  12
  -1 -10   8 6.66562 0.84489  11
   0 -10   8 2.40791 0.63457  12
   0 -10   8 2.08350 0.84088  11
   0 -10   8 3.05120 0.71697  18
   1 -10   8 0.65766 0.60980  18
   1 -10   8 0.79866 0.60705  11
   2 -10   8 20.8635 1.84987  18
   2 -10   8 19.4630 1.86369  11
   3 -10   8 0.14980 0.57045  17
   3 -10   8 -0.0220 0.93661  18
   3 -10   8 -0.3894 0.59572  11
   4 -10   8 26.4962 2.21289  18
   4 -10   8 25.5458 1.95881  17
   4 -10   8 22.3975 1.93848  11
   5 -10   8 -1.3706 0.43739  17
   5 -10   8 -0.4085 0.90198  18
   6 -10   8 7.24749 1.06226  18
   6 -10   8 4.90087 0.71418  17
   7 -10   8 75.5106 4.58083  17
  -3  -9   8 11.5244 1.29857  12
  -3  -9   8 11.1024 0.99661  11
  -2  -9   8 27.7248 2.09084  11
  -2  -9   8 29.3283 2.65012  12
  -1  -9   8 2.05357 1.04822  12
  -1  -9   8 1.10153 0.84658  18
  -1  -9   8 2.49674 0.67423  11
   0  -9   8 -0.3769 0.80871  12
   0  -9   8 0.01163 0.58381  18
   0  -9   8 0.75628 0.85622  11
   1  -9   8 86.7593 5.52156  11
   1  -9   8 79.5790 5.57771  18
   2  -9   8 138.120 9.12412  18
   2  -9   8 146.900 8.98934  11
   2  -9   8 144.142 8.60927  17
   3  -9   8 0.54284 0.61222  17
   3  -9   8 0.88809 0.67174  11
   3  -9   8 -1.3321 0.60548  18
   4  -9   8 2.22840 1.08258  18
   4  -9   8 3.27143 0.75803  11
   4  -9   8 2.67308 0.95831  17
   5  -9   8 33.9897 2.53515  17
   5  -9   8 35.9419 3.17021  18
   6  -9   8 8.43431 1.12094  17
   6  -9   8 5.83885 1.32003  18
   7  -9   8 -0.1805 0.60675  18
   7  -9   8 0.64650 0.52429  17
   8  -9   8 10.9996 1.05661  17
  -5  -8   8 3.21956 0.62484  12
  -4  -8   8 9.77810 1.25858  12
  -4  -8   8 9.76816 0.68259  10
  -3  -8   8 14.2186 1.38314  11
  -3  -8   8 17.6396 1.90907  12
  -3  -8   8 16.2626 1.06506  10
  -2  -8   8 0.82187 0.33617  10
  -2  -8   8 0.81668 0.57602  11
  -2  -8   8 0.76026 0.61598  18
  -2  -8   8 0.25370 1.06552  12
  -1  -8   8 7.46570 1.20228  18
  -1  -8   8 8.60124 1.18878  11
  -1  -8   8 6.29883 1.45630  12
  -1  -8   8 8.18421 0.67996  10
   0  -8   8 158.867 10.6158  12
   0  -8   8 162.439 7.75962  10
   0  -8   8 166.926 10.0638  11
   0  -8   8 160.620 10.1651  18
   1  -8   8 37.0929 2.61794  17
   1  -8   8 34.1613 1.80466  10
   1  -8   8 34.5395 2.82932  11
   1  -8   8 32.1295 2.71760  18
   2  -8   8 25.4103 2.53615  11
   2  -8   8 23.5222 2.18458  18
   2  -8   8 23.5279 1.30047  10
   2  -8   8 23.9502 2.21456  17
   3  -8   8 14.6281 1.67291  17
   3  -8   8 17.3700 1.89177  18
   3  -8   8 16.9783 1.91002  11
   3  -8   8 17.8011 0.99069  10
   4  -8   8 53.6348 3.87439  18
   4  -8   8 48.0088 3.63862  11
   4  -8   8 49.6292 3.48092  17
   4  -8   8 51.4981 2.53760  10
   5  -8   8 27.2690 2.75232  18
   5  -8   8 28.4107 2.32036  16
   5  -8   8 28.0752 2.22006  17
   5  -8   8 27.6239 1.48183  10
   6  -8   8 0.33447 0.25134  10
   6  -8   8 0.39947 0.58565  16
   6  -8   8 0.07565 0.56123  17
   6  -8   8 0.27747 0.70235  18
   7  -8   8 1.31014 0.76322  18
   7  -8   8 1.33556 0.58311  17
   7  -8   8 0.63671 0.18746  10
   8  -8   8 11.4349 1.24566  18
   8  -8   8 6.98111 1.00477  17
  -6  -7   8 11.1328 0.72600  10
  -5  -7   8 12.4277 1.40910  12
  -5  -7   8 10.3028 0.83014  10
  -4  -7   8 34.3550 1.97292  10
  -4  -7   8 37.1665 3.15539  12
  -3  -7   8 -1.0159 0.98360  12
  -3  -7   8 0.49602 0.50869  11
  -3  -7   8 -0.0850 0.39011  10
  -2  -7   8 31.2584 3.28030  12
  -2  -7   8 35.9344 1.99191  10
  -2  -7   8 36.4705 2.66576  11
  -2  -7   8 32.7323 2.69116  18
  -1  -7   8 16.6320 1.14959  10
  -1  -7   8 10.9400 1.46889  18
  -1  -7   8 15.7809 1.95987  12
  -1  -7   8 14.4707 1.63763  11
   0  -7   8 4.62625 0.98251  17
   0  -7   8 4.63193 0.58114  10
   0  -7   8 3.55894 0.85611  18
   0  -7   8 5.47983 2.36461   4
   0  -7   8 5.65230 1.03981  11
   0  -7   8 3.35760 1.01857  12
   1  -7   8 33.2509 1.83788  10
   1  -7   8 30.3589 2.72490  18
   1  -7   8 34.7983 2.60914  17
   1  -7   8 32.5749 2.81536  11
   2  -7   8 2.26061 0.95004  18
   2  -7   8 3.76771 1.09912  11
   2  -7   8 4.26203 0.95207  17
   2  -7   8 2.73321 1.69533   7
   2  -7   8 3.90313 0.49507  10
   2  -7   8 3.07913 2.05475   4
   3  -7   8 1.74601 0.43485  10
   3  -7   8 1.42727 0.79805  17
   3  -7   8 2.79351 1.00947  16
   3  -7   8 -0.9739 2.02808   7
   3  -7   8 4.38415 1.10238  18
   3  -7   8 2.28230 0.95465  11
   4  -7   8 10.6861 0.87540  10
   4  -7   8 11.2933 1.34495  17
   4  -7   8 7.53870 2.36163   7
   4  -7   8 11.3089 1.60268  18
   4  -7   8 11.5837 1.38944  16
   4  -7   8 10.4233 1.35830  11
   5  -7   8 0.54641 0.82679  16
   5  -7   8 0.88379 0.40833  10
   5  -7   8 0.72831 0.73986  17
   5  -7   8 0.77205 0.75958  18
   6  -7   8 5.07299 0.85752  16
   6  -7   8 6.22498 1.41623  18
   6  -7   8 4.20593 0.98954  17
   6  -7   8 4.55148 0.56239  10
   7  -7   8 18.1004 1.68648  17
   7  -7   8 19.8694 1.24766  10
   7  -7   8 21.3486 2.40154  18
   8  -7   8 24.5986 2.26627  18
   8  -7   8 22.5521 1.82260  17
   9  -7   8 26.5150 2.02784  18
   9  -7   8 25.3209 1.87875  17
   9  -7   8 30.0084 1.44314  10
  -7  -6   8 0.46258 0.41856  12
  -7  -6   8 0.00882 0.27888  10
  -6  -6   8 -0.5959 0.46370  10
  -6  -6   8 -0.0493 0.25797   9
  -6  -6   8 -0.0146 0.54832  12
  -5  -6   8 2.46182 0.85370  12
  -5  -6   8 2.19955 0.59667  10
  -5  -6   8 2.85430 0.44096   9
  -4  -6   8 0.19529 0.42135   9
  -4  -6   8 0.28360 0.67429  12
  -4  -6   8 -0.2839 0.30022  10
  -3  -6   8 16.9301 1.15030   9
  -3  -6   8 12.9710 1.98549  12
  -3  -6   8 15.4265 1.24349  10
  -3  -6   8 13.7133 1.66283  11
  -2  -6   8 92.1930 6.39316  18
  -2  -6   8 109.211 5.05352  10
  -2  -6   8 107.748 4.91642   9
  -2  -6   8 90.4261 6.93902  12
  -2  -6   8 97.8490 6.33400  11
  -2  -6   8 93.4373 8.48092   4
  -1  -6   8 26.8375 1.57341  10
  -1  -6   8 24.9159 2.16463  18
  -1  -6   8 27.4541 1.44487   9
  -1  -6   8 16.9940 2.38840  12
  -1  -6   8 25.8998 3.99249   4
  -1  -6   8 22.2003 2.52666   3
  -1  -6   8 23.6989 2.61136   2
  -1  -6   8 24.9545 2.21081  11
   0  -6   8 15.1776 1.41241  17
   0  -6   8 13.3660 1.61917  18
   0  -6   8 14.0914 1.06313  10
   0  -6   8 16.7618 1.71334  11
   0  -6   8 10.6913 1.69970   3
   0  -6   8 13.1654 2.99665   4
   0  -6   8 13.6037 1.56339  12
   0  -6   8 14.9956 0.92895   9
   1  -6   8 10.3275 2.48778   7
   1  -6   8 14.9608 1.64786  11
   1  -6   8 15.3923 0.87165   9
   1  -6   8 13.9057 1.52785  17
   1  -6   8 10.5340 1.54340   3
   1  -6   8 14.5787 1.02851  10
   1  -6   8 13.4365 1.54889  18
   1  -6   8 11.1038 1.63854   2
   1  -6   8 10.7273 2.80828   4
   2  -6   8 22.6006 2.37880   3
   2  -6   8 27.5478 3.89008   7
   2  -6   8 29.4209 4.32733   4
   2  -6   8 30.1986 1.57462   9
   2  -6   8 28.2643 2.37558  18
   2  -6   8 32.2280 2.49306  11
   2  -6   8 31.4784 2.34245  17
   2  -6   8 30.0835 2.65609   2
   2  -6   8 30.7675 1.72444  10
   3  -6   8 36.7053 3.37958   3
   3  -6   8 47.3040 2.44579  10
   3  -6   8 49.6149 3.31033  16
   3  -6   8 40.1142 3.38641   2
   3  -6   8 42.6864 3.31826  18
   3  -6   8 46.7316 5.14994   7
   3  -6   8 45.3533 2.26481   9
   3  -6   8 47.3582 3.31116  11
   3  -6   8 44.0500 3.14422  17
   4  -6   8 17.0292 3.28092   7
   4  -6   8 17.1716 1.87960  11
   4  -6   8 20.8301 1.17058   9
   4  -6   8 20.1179 1.86439  17
   4  -6   8 21.2038 1.81189  16
   4  -6   8 16.7779 2.11338   2
   4  -6   8 20.9632 1.31874  10
   4  -6   8 21.2249 2.19430  18
   5  -6   8 8.01869 2.72431   7
   5  -6   8 11.2368 0.79232   9
   5  -6   8 9.45400 1.24297  17
   5  -6   8 11.9123 0.95485  10
   5  -6   8 11.5583 1.62785  18
   5  -6   8 9.03921 1.27273  16
   6  -6   8 15.5832 1.76499  18
   6  -6   8 12.3303 1.41945  17
   6  -6   8 10.9216 1.36163  16
   6  -6   8 11.2004 1.01824  10
   6  -6   8 12.7796 0.83661   9
   7  -6   8 52.4210 3.89471  17
   7  -6   8 58.8218 3.11800  10
   7  -6   8 60.7579 4.33385  18
   7  -6   8 62.3436 2.86878   9
   8  -6   8 0.82760 0.44587  10
   8  -6   8 1.17025 0.74797  17
   8  -6   8 1.54533 0.88470  18
   9  -6   8 0.60874 0.48721  18
   9  -6   8 0.64808 0.46237  17
   9  -6   8 0.86037 0.38078  10
  -7  -5   8 4.51307 0.93270  12
  -7  -5   8 3.67162 0.46801   9
  -7  -5   8 5.81626 0.67071  10
  -6  -5   8 1.80033 0.49240  10
  -6  -5   8 2.45453 0.75646  12
  -6  -5   8 1.56913 0.50744   9
  -5  -5   8 1.92867 0.47387  10
  -5  -5   8 0.96874 0.68423  12
  -5  -5   8 0.57390 0.47545   9
  -4  -5   8 9.14380 0.96012  10
  -4  -5   8 7.73708 0.84154   9
  -4  -5   8 9.71827 1.42716  12
  -3  -5   8 15.5099 1.21829  10
  -3  -5   8 14.3362 1.11426   9
  -3  -5   8 12.7569 3.08195   4
  -3  -5   8 18.2576 1.93305  12
  -3  -5   8 14.1871 2.43660   2
  -3  -5   8 11.9856 1.46155  11
  -2  -5   8 0.64734 0.61666  11
  -2  -5   8 1.12849 0.40677   9
  -2  -5   8 1.14154 0.85853  12
  -2  -5   8 -0.1720 1.76728   4
  -2  -5   8 0.67315 0.95889   3
  -2  -5   8 1.07124 0.45191  10
  -2  -5   8 -0.1091 1.07466   2
  -1  -5   8 1.04322 1.03385   2
  -1  -5   8 0.63194 0.85084   3
  -1  -5   8 0.79184 0.64222  17
  -1  -5   8 0.47208 0.57624  11
  -1  -5   8 1.54455 0.80905  12
  -1  -5   8 0.22840 1.55313   4
  -1  -5   8 0.43689 0.45677  18
  -1  -5   8 0.66728 0.33760   9
  -1  -5   8 1.21638 0.43123  10
   0  -5   8 63.9638 4.50601  18
   0  -5   8 69.1975 3.49353  10
   0  -5   8 71.1454 4.51597  11
   0  -5   8 66.6281 4.93966   2
   0  -5   8 68.9139 3.40897   9
   0  -5   8 69.8758 4.25085  17
   0  -5   8 60.3732 4.68653  12
   0  -5   8 70.7219 6.17722   4
   1  -5   8 95.1472 4.55139   9
   1  -5   8 92.0380 4.63456  10
   1  -5   8 96.6820 7.43173   7
   1  -5   8 97.9518 5.95474  11
   1  -5   8 89.8117 6.56378   3
   1  -5   8 89.1768 5.66670  17
   1  -5   8 99.9052 7.78058   4
   1  -5   8 83.0083 5.92867  18
   1  -5   8 96.5129 6.37825   2
   2  -5   8 15.2685 1.74314  11
   2  -5   8 14.9928 1.05227  10
   2  -5   8 13.9267 1.60581  18
   2  -5   8 14.1554 0.97116   9
   2  -5   8 14.5356 2.93077   4
   2  -5   8 16.0904 1.60101  16
   2  -5   8 14.3939 2.63939   7
   2  -5   8 14.1494 1.99205   2
   2  -5   8 13.3469 1.29872  17
   2  -5   8 15.3626 2.11154   3
   3  -5   8 130.762 6.30724   9
   3  -5   8 137.163 8.57525   2
   3  -5   8 130.252 6.40186  10
   3  -5   8 130.660 8.33134  18
   3  -5   8 139.920 8.38535  16
   3  -5   8 121.495 7.79999  17
   3  -5   8 131.440 8.16468  11
   3  -5   8 135.379 9.78939   7
   3  -5   8 114.698 9.74215   4
   3  -5   8 127.234 8.96184   3
   4  -5   8 54.2435 3.77718  17
   4  -5   8 59.3932 4.64433   2
   4  -5   8 58.6094 4.16531  18
   4  -5   8 60.9692 3.07532  10
   4  -5   8 60.3193 5.75847   7
   4  -5   8 52.3609 3.87847  11
   4  -5   8 61.9439 2.98785   9
   4  -5   8 57.3898 3.99603  16
   4  -5   8 50.0635 4.55054   3
   5  -5   8 94.0610 6.56923  16
   5  -5   8 110.131 6.80716  18
   5  -5   8 102.451 7.23698   2
   5  -5   8 92.1797 6.23060  17
   5  -5   8 109.705 5.04281   9
   5  -5   8 108.957 5.16216  10
   5  -5   8 82.7954 8.26955   7
   6  -5   8 0.27311 0.35073  10
   6  -5   8 -0.9157 0.88522  18
   6  -5   8 0.78979 0.41332   9
   6  -5   8 0.16616 0.72510  17
   7  -5   8 -0.0695 0.49072  10
   7  -5   8 0.30363 0.36472   9
   7  -5   8 0.59682 0.65644  18
   7  -5   8 0.31681 0.52808  17
   8  -5   8 5.32977 0.53518   9
   8  -5   8 4.71177 1.04729  18
   8  -5   8 5.65015 0.74676  10
   8  -5   8 6.21480 0.87058  17
   9  -5   8 36.8567 1.83443   9
   9  -5   8 36.2250 2.67509  18
   9  -5   8 40.2854 2.15706  10
  -8  -4   8 -0.8817 0.45958  12
  -8  -4   8 1.88373 0.42384   9
  -7  -4   8 12.7754 1.52004  12
  -6  -4   8 5.99148 1.06866  12
  -6  -4   8 5.23167 0.73790  10
  -6  -4   8 5.50259 0.79542   9
  -6  -4   8 5.07454 0.52921   8
  -5  -4   8 2.34180 0.60345   9
  -5  -4   8 1.53050 0.46534   8
  -5  -4   8 1.69318 0.80662  12
  -5  -4   8 2.31515 0.62745  10
  -4  -4   8 0.87148 1.62616   2
  -4  -4   8 1.23140 0.55419  10
  -4  -4   8 0.98396 0.38563   8
  -4  -4   8 0.49665 1.89998   4
  -4  -4   8 0.78439 0.49719   9
  -4  -4   8 1.46828 1.51437   3
  -3  -4   8 13.9873 2.37713   3
  -3  -4   8 15.2570 1.14133  10
  -3  -4   8 14.2589 1.38501  11
  -3  -4   8 22.5524 3.10049   4
  -3  -4   8 16.4709 1.11925   8
  -2  -4   8 48.2540 2.58716   9
  -2  -4   8 49.4066 2.65504  10
  -2  -4   8 45.2681 4.50329   4
  -2  -4   8 47.9353 3.23479  11
  -2  -4   8 46.8076 2.54177   8
  -2  -4   8 49.7401 4.29927   3
  -2  -4   8 48.9115 4.24416   2
  -1  -4   8 168.801 11.0139   3
  -1  -4   8 162.768 7.82843   9
  -1  -4   8 169.336 10.4333   2
  -1  -4   8 158.975 9.77392  11
  -1  -4   8 159.835 7.99494   8
  -1  -4   8 164.688 9.53745  17
  -1  -4   8 162.938 11.2990   4
  -1  -4   8 155.393 7.88713  10
   0  -4   8 0.90821 1.00584   2
   0  -4   8 1.82002 0.42026   9
   0  -4   8 2.18577 0.42092  10
   0  -4   8 2.22854 0.36704   8
   0  -4   8 1.78268 0.65787  11
   0  -4   8 3.03161 0.98487   3
   0  -4   8 1.35024 0.97732   7
   0  -4   8 3.26780 1.26054   4
   1  -4   8 85.2582 4.18763   9
   1  -4   8 79.7211 5.43688  18
   1  -4   8 79.0013 4.21504   8
   1  -4   8 91.5712 6.24594   3
   1  -4   8 89.2985 6.75157   7
   1  -4   8 89.9096 6.07683   2
   1  -4   8 81.4116 4.22778  10
   1  -4   8 91.5320 6.88869   4
   2  -4   8 6.10510 0.64262   9
   2  -4   8 5.81290 1.44769   2
   2  -4   8 3.98088 1.61873   7
   2  -4   8 4.43102 1.81926   4
   2  -4   8 4.59142 0.60616  10
   2  -4   8 5.33916 0.93266  18
   2  -4   8 6.26486 0.53937   8
   2  -4   8 6.20795 1.42264   3
   3  -4   8 8.02232 0.75482   9
   3  -4   8 8.29059 0.97778  16
   3  -4   8 8.24457 0.66232   8
   3  -4   8 7.97368 1.67813   2
   3  -4   8 7.31378 2.03838   7
   3  -4   8 7.25731 0.77294  10
   3  -4   8 7.92120 1.69020   3
   3  -4   8 8.38066 2.18878   4
   3  -4   8 7.62295 0.95438  17
   3  -4   8 6.92182 1.09066  18
   4  -4   8 700.369 39.0215  18
   4  -4   8 583.189 36.9887  17
   4  -4   8 642.326 40.3883   3
   4  -4   8 654.470 30.6689  10
   4  -4   8 657.118 40.4939   7
   4  -4   8 669.474 30.4588   9
   4  -4   8 645.614 31.4361   8
   5  -4   8 31.5486 1.70696   8
   5  -4   8 28.4918 4.05607   7
   5  -4   8 25.4470 3.12101   3
   5  -4   8 31.3028 1.80539   9
   5  -4   8 31.0092 1.93225  10
   5  -4   8 28.8985 2.33545  17
   5  -4   8 35.7620 2.73768  18
   5  -4   8 34.2818 3.66976   2
   6  -4   8 3.17632 1.92970   7
   6  -4   8 5.38002 1.11766  18
   6  -4   8 4.74405 0.45133   8
   6  -4   8 5.27113 0.69274   9
   6  -4   8 4.09291 0.73641  10
   6  -4   8 3.16369 0.80955  17
   7  -4   8 3.76534 0.61767   9
   7  -4   8 3.31692 1.02210  18
   7  -4   8 2.37635 0.66963  10
   7  -4   8 1.97682 0.80467  17
   8  -4   8 32.2467 2.44694  18
   8  -4   8 29.1330 1.71811   9
   8  -4   8 28.8174 1.85038  10
   9  -4   8 3.11045 0.64340  18
   9  -4   8 3.40979 0.53169  10
   9  -4   8 2.56484 0.41701   9
  -9  -3   8 0.28422 0.33589   9
  -8  -3   8 -0.2656 0.28757   8
  -8  -3   8 0.35761 0.52502  12
  -8  -3   8 -0.0318 0.39720   9
  -7  -3   8 27.2555 1.83162   9
  -7  -3   8 28.9312 2.46680  12
  -7  -3   8 30.7072 1.80136   8
  -6  -3   8 445.233 20.4321   9
  -6  -3   8 415.452 21.0023   8
  -5  -3   8 522.640 23.1570   9
  -5  -3   8 410.726 31.1713   3
  -5  -3   8 512.797 23.8723   8
  -5  -3   8 497.549 29.4080   2
  -4  -3   8 7.97646 2.12677   4
  -4  -3   8 6.56394 0.70497   8
  -4  -3   8 4.74510 0.67218  10
  -4  -3   8 5.71050 1.93265   3
  -3  -3   8 93.9117 6.55813   2
  -3  -3   8 80.6043 5.42743  11
  -3  -3   8 93.6463 6.90394   3
  -3  -3   8 85.8630 4.42260   9
  -3  -3   8 84.8561 4.48663  10
  -3  -3   8 95.5115 7.02912   4
  -3  -3   8 89.0905 4.51361   8
  -2  -3   8 0.31207 0.41875   9
  -2  -3   8 0.29134 1.19124   4
  -2  -3   8 0.30865 0.48026  11
  -2  -3   8 1.01191 0.36191   8
  -2  -3   8 0.80849 1.11123   2
  -2  -3   8 1.11685 0.98675   3
  -1  -3   8 16.5023 2.29766   2
  -1  -3   8 20.7675 2.77793   4
  -1  -3   8 18.3149 2.27933   3
   0  -3   8 55.7694 4.65121   7
   0  -3   8 56.8426 4.84347   4
   0  -3   8 58.3377 4.46414   2
   0  -3   8 52.9101 4.43998   3
   1  -3   8 18.1771 2.20585   3
   1  -3   8 22.6872 3.01865   4
   1  -3   8 18.5614 2.29034   7
   1  -3   8 19.1143 2.34572   2
   2  -3   8 49.8831 4.38954   4
   2  -3   8 36.7137 3.75274   7
   2  -3   8 41.3958 3.60903   3
   2  -3   8 35.1826 2.10510   8
   2  -3   8 42.8427 3.64830   2
   3  -3   8 0.58354 0.30260   8
   3  -3   8 1.99867 0.88594   3
   3  -3   8 0.83969 0.30937   9
   3  -3   8 0.71127 1.08218   2
   3  -3   8 1.12085 0.43729  10
   3  -3   8 0.43844 1.20525   7
   4  -3   8 2.77289 1.27409   7
   4  -3   8 2.56358 0.53899   9
   4  -3   8 2.76668 1.41549   2
   4  -3   8 0.98538 1.26503   3
   4  -3   8 3.75420 0.52402   8
   4  -3   8 3.29198 0.53425  10
   5  -3   8 13.9277 2.65927   3
   5  -3   8 17.9144 1.23118   8
   5  -3   8 13.8754 2.92590   7
   5  -3   8 16.3737 1.38757  10
   5  -3   8 19.8237 1.35598   9
   5  -3   8 17.6376 2.83684   2
   6  -3   8 33.7409 2.18041  10
   6  -3   8 34.8470 2.10920   9
   6  -3   8 35.1794 2.02667   8
   7  -3   8 0.21351 0.35954   9
   7  -3   8 0.19901 0.30660   8
   7  -3   8 0.21871 0.39574  10
   8  -3   8 40.4363 2.84486  18
   8  -3   8 36.7994 2.17825   9
   8  -3   8 35.7010 1.91430   8
   9  -3   8 16.1595 1.44014  18
   9  -3   8 15.8542 1.04038   9
   9   2  -8 9.44587 0.86871   8
  -9  -2   8 8.90487 0.80114   8
  -9  -2   8 8.61348 0.93834   9
  -8  -2   8 0.14910 0.46962   8
  -8  -2   8 0.35029 0.65272  12
  -8  -2   8 0.98628 0.61321   9
  -7  -2   8 1.10062 0.57475   8
  -6  -2   8 3.54849 0.68273   8
  -5  -2   8 40.1264 2.29417   8
  -5  -2   8 36.2761 2.29871   9
  -4  -2   8 0.94275 0.54074   9
  -4  -2   8 1.42972 1.41400   4
  -4  -2   8 1.52641 1.08487   3
  -4  -2   8 1.42805 1.50962   2
  -4  -2   8 1.61300 0.48762   8
  -3  -2   8 14.7197 2.33294   4
  -3  -2   8 12.7843 1.01373   8
  -3  -2   8 11.7934 2.12108   3
  -3  -2   8 10.4793 2.03351   2
  -2  -2   8 36.7907 3.47483   3
  -2  -2   8 38.9276 3.62589   2
  -2  -2   8 44.8804 3.80374   4
  -1  -2   8 11.7469 1.91452   4
  -1  -2   8 12.3575 1.91824   3
  -1  -2   8 12.5868 1.86798   2
   0  -2   8 6.43551 1.43120   3
   0  -2   8 8.58237 1.56154   7
   0  -2   8 6.41521 1.49550   2
   1  -2   8 17.5027 2.13980   3
   1  -2   8 17.7092 2.26424   7
   1  -2   8 16.0420 2.23920   2
   2  -2   8 347.819 20.5424   2
   2  -2   8 341.142 21.6516   7
   2  -2   8 345.144 21.9509   3
   3  -2   8 109.858 5.97760   8
   3  -2   8 120.552 8.54026   7
   3  -2   8 126.258 8.68967   3
   3  -2   8 128.740 8.33869   2
   4  -2   8 5.62390 1.85244   2
   4  -2   8 4.20190 1.59232   3
   4  -2   8 7.47926 0.71216   8
   4  -2   8 6.46021 0.77089   9
   4  -2   8 5.12019 1.66432   7
   5  -2   8 1.97822 0.48036   8
   5  -2   8 0.28421 1.55149   3
   5  -2   8 2.73425 1.76426   7
   5  -2   8 3.62690 0.65629   9
   5  -2   8 1.65318 2.02559   2
   6  -2   8 150.511 7.49187   8
   6  -2   8 145.544 7.33990   9
   7  -2   8 2.75679 0.65944   9
   7  -2   8 2.83251 0.52640   8
   8  -2   8 0.59038 0.32267   8
   8  -2   8 0.08651 0.36137   9
   9  -2   8 0.82801 0.44144   9
   9  -2   8 0.71099 0.47045  18
  10   1  -8 5.90940 0.55639   8
 -10  -1   8 6.03346 0.54558   8
   9   1  -8 9.68693 0.92084   8
  -9  -1   8 8.72397 0.89661   8
   8   1  -8 0.47804 0.39963   8
  -8  -1   8 0.59591 0.40907   8
  -7  -1   8 0.38206 0.39338   8
  -6  -1   8 3.44837 0.56288   8
  -5  -1   8 1.44871 0.52490   8
  -4  -1   8 1.81881 0.42645   8
  -4  -1   8 2.04592 1.20446   4
  -4  -1   8 2.74059 1.15514   3
  -3  -1   8 1.34611 0.98743   4
  -3  -1   8 3.33621 1.30642   2
  -3  -1   8 1.41762 1.16829   3
  -2  -1   8 113.567 8.01809   3
  -2  -1   8 111.968 7.66697   2
  -1  -1   8 5.52523 1.44249   2
  -1  -1   8 7.34053 1.47617   3
  -1  -1   8 7.14120 1.41393   1
   0  -1   8 170.056 10.2408   7
   0  -1   8 163.775 10.5728   3
   0  -1   8 152.933 9.95735   2
   0  -1   8 135.438 8.98690   1
   1  -1   8 46.6649 3.80068   7
   1  -1   8 47.8556 4.05269   2
   1  -1   8 49.0825 3.99828   3
   2  -1   8 40.5388 3.64943   3
   2  -1   8 40.0583 3.53081   7
   2  -1   8 41.5516 3.78988   2
   3  -1   8 9.65731 0.81096   8
   3  -1   8 9.68865 1.74269   7
   3  -1   8 11.1814 2.11043   2
   3  -1   8 9.15666 1.92673   3
   4  -1   8 12.6004 1.06780   8
   5  -1   8 102.741 5.34790   8
   6  -1   8 1.95179 0.45897   8
   7  -1   8 33.1644 2.04223   8
   8  -1   8 13.8319 1.28141   9
   8  -1   8 16.0665 1.04885   8
   9  -1   8 5.26322 0.65553   9
   9  -1   8 6.62194 0.47902   8
  10   0  -8 13.5569 0.93861   8
 -10   0   8 13.4464 1.04144   8
   9   0  -8 6.13830 0.78178   8
  -9   0   8 5.47546 0.81990   8
   8   0  -8 20.0191 1.48059   8
  -8   0   8 17.2998 1.50621   8
   7   0  -8 0.22719 0.45061   8
   6   0  -8 23.3671 1.60678   8
   4   0  -8 0.34013 0.86008   6
  -4   0   8 -0.0405 0.92014   4
   2   0  -8 18.7626 2.41282   2
   2   0  -8 19.6275 2.52905   3
  -2   0   8 18.0775 2.43649   3
  -2   0   8 17.2389 2.44790   2
   1   0  -8 219.990 14.0571   2
   1   0  -8 238.929 15.1139   3
  -1   0   8 220.237 14.0009   2
  -1   0   8 238.972 15.0281   3
   0   0  -8 -0.0271 0.69953   2
   0   0  -8 0.24051 0.94015   3
   0   0   8 0.13904 0.68346   2
   0   0   8 0.77480 0.90766   3
   1   0   8 15.3610 2.20564   3
   1   0   8 12.4328 2.07836   2
   4   0   8 5.74900 0.69139   8
   5   0   8 9.53339 0.99124   8
   6   0   8 1.17211 0.55096   8
  -7   0  -8 26.7763 1.89271   8
   7   0   8 28.9907 1.76902   8
  -8   0  -8 1.53053 0.42140   8
   8   0   8 1.62637 0.36770   8
   9   0   8 14.3930 0.86399   8
  10  -1  -8 32.5874 1.92558   9
  10  -1  -8 34.6034 1.82460   8
 -10   1   8 29.3239 1.94337   8
   9  -1  -8 3.42405 0.62073   8
   9  -1  -8 1.66781 0.68433  16
   8  -1  -8 30.9375 1.97355   8
   7  -1  -8 17.4796 1.36759   8
   6  -1  -8 19.8385 1.33347   8
   5  -1  -8 13.1035 2.35712   2
   5  -1  -8 13.3814 2.34576   3
   5  -1  -8 16.7845 2.30119   6
   5  -1  -8 13.4861 1.09173   8
   4  -1  -8 7.49056 1.50745   6
   4  -1  -8 6.21576 1.57215   3
   4  -1  -8 4.00620 1.46215   2
  -4   1   8 4.47115 1.25908   4
   3  -1  -8 65.1940 5.15413   6
   3  -1  -8 57.2091 4.83946   2
   3  -1  -8 66.2730 5.17645   3
   2  -1  -8 97.6130 6.91446   2
   2  -1  -8 102.961 7.28371   3
   1  -1  -8 105.762 7.34821   2
   1  -1  -8 113.792 7.46334   5
   1  -1  -8 111.010 7.80236   3
   1  -1  -8 100.043 6.73092   1
   0  -1  -8 123.158 8.11766   5
   0  -1  -8 113.334 8.37461   3
   0  -1  -8 117.385 7.99926   2
  -1  -1  -8 109.216 7.40401   2
  -1  -1  -8 100.035 7.60962   3
  -2  -1  -8 93.2648 7.36841   3
  -2  -1  -8 98.7446 7.03528   2
  -3  -1  -8 21.2625 1.50994   8
  -4  -1  -8 59.6044 3.34111   8
  -5  -1  -8 0.41574 0.51143   8
  -6  -1  -8 20.9865 1.58818   8
  -7  -1  -8 39.8919 2.32154   8
   7   1   8 36.9504 2.22729   8
  -8  -1  -8 0.55044 0.41870   8
   8   1   8 -0.2966 0.25287   8
  10  -2  -8 5.46141 1.02559  16
  10  -2  -8 7.02398 0.77368   9
  10  -2  -8 7.66941 0.63392   8
   9  -2  -8 0.65696 0.52867   9
   9  -2  -8 1.17948 0.68514  16
   9  -2  -8 0.50598 0.45134   8
   8  -2  -8 37.6898 2.16558   8
   8  -2  -8 33.3027 2.18203   9
   7  -2  -8 31.6885 1.94676   9
   7  -2  -8 34.9758 1.90346   8
   7  -2  -8 19.5017 3.41061   3
   6  -2  -8 1.05251 1.43685   6
   6  -2  -8 2.15601 0.50363   8
   6  -2  -8 0.66388 0.46234   9
   6  -2  -8 1.55324 1.63951   2
   6  -2  -8 1.98346 1.48532   3
   5  -2  -8 5.51591 1.62288   3
   5  -2  -8 5.04932 0.66932   9
   5  -2  -8 4.35471 0.82222  15
   5  -2  -8 6.75021 0.69098   8
   5  -2  -8 5.92847 1.66759   6
   5  -2  -8 3.30155 1.42527   2
   4  -2  -8 524.711 26.8104   8
   4  -2  -8 544.501 32.0813   2
   4  -2  -8 556.017 34.5687   3
   4  -2  -8 589.101 34.7949   6
   3  -2  -8 330.765 21.4804   3
   3  -2  -8 333.647 20.0430   2
   3  -2  -8 344.691 21.7214   6
   2  -2  -8 25.2548 2.66975   3
   2  -2  -8 20.4209 2.58824   2
   1  -2  -8 -0.1630 0.92590   3
   1  -2  -8 0.05694 0.78873   5
   1  -2  -8 0.70615 0.76397   2
   0  -2  -8 193.210 12.1732   2
   0  -2  -8 198.433 12.9940   3
   0  -2  -8 188.520 12.8470   5
  -1  -2  -8 142.908 10.1009   5
  -1  -2  -8 138.228 7.31795   8
  -1  -2  -8 155.343 9.74903   2
  -1  -2  -8 152.152 10.3082   3
  -2  -2  -8 -0.5473 0.96291   5
  -2  -2  -8 0.11371 0.40543   9
  -2  -2  -8 1.23346 1.33165   2
  -2  -2  -8 -0.0237 0.39080   8
  -2  -2  -8 1.28633 1.29284   3
  -3  -2  -8 132.576 6.42211   8
  -3  -2  -8 110.337 9.39984   3
  -4  -2  -8 17.4048 1.26081   8
  -5  -2  -8 4.59118 0.71999   8
  -6  -2  -8 0.03408 0.46762   8
  -7  -2  -8 0.96159 0.42890   8
  -7  -2  -8 0.88826 0.59124   9
  -8  -2  -8 1.68156 0.21678   8
  -8  -2  -8 2.29151 0.54027  14
   8   2   8 2.18251 0.36770   8
  11  -3  -8 0.52969 0.26851   9
  11  -3  -8 0.13062 0.44604  16
  10  -3  -8 6.88412 0.76069   9
  10  -3  -8 6.20011 1.08020  16
   9  -3  -8 0.57642 0.83422  16
   9  -3  -8 0.66093 0.39699   8
   9  -3  -8 -0.7365 0.43631   9
   8  -3  -8 81.5871 4.30839   9
   8  -3  -8 83.7953 4.29572   8
   7  -3  -8 -0.7593 1.65699   6
   7  -3  -8 -0.0313 0.44786  10
   7  -3  -8 0.38139 0.41852   9
   7  -3  -8 -0.0458 0.34425   8
   7  -3  -8 0.55761 1.79395   2
   6  -3  -8 80.3372 4.18099  10
   6  -3  -8 80.7238 4.16615   9
   6  -3  -8 78.0814 5.46250  15
   6  -3  -8 81.6509 6.43167   2
   6  -3  -8 83.0043 6.97342   6
   6  -3  -8 71.0608 6.42559   3
   6  -3  -8 88.4331 4.21946   8
   5  -3  -8 54.8219 4.63319   3
   5  -3  -8 53.3389 2.81776   8
   5  -3  -8 56.6048 4.63218   2
   5  -3  -8 47.3475 2.80675  10
   5  -3  -8 52.6845 2.81826   9
   5  -3  -8 57.3628 4.99167   6
   5  -3  -8 52.6784 3.75493  15
   4  -3  -8 84.3568 6.12566   3
   4  -3  -8 74.0578 3.90083   9
   4  -3  -8 91.3889 6.57118   6
   4  -3  -8 68.4584 3.89223  10
   4  -3  -8 82.8790 5.88115   2
   3  -3  -8 57.7745 4.73444   3
   3  -3  -8 61.8121 4.65381   2
   3  -3  -8 52.8638 2.97989   8
   3  -3  -8 63.1434 5.23916   6
   2  -3  -8 11.2060 2.00631   5
   2  -3  -8 12.9461 1.94740   2
   2  -3  -8 13.3700 2.19526   6
   2  -3  -8 10.9909 1.91798   3
   2  -3  -8 9.95764 0.80749   8
   1  -3  -8 47.7362 4.49175   6
   1  -3  -8 45.2701 3.94660   3
   1  -3  -8 46.1663 3.89192   2
   1  -3  -8 45.4391 3.99834   5
   1  -3  -8 38.5773 2.30980   8
   0  -3  -8 345.280 19.4066   2
   0  -3  -8 300.904 15.1334   9
   0  -3  -8 344.632 20.7113   3
   0  -3  -8 292.381 15.6224   8
   0  -3  -8 332.519 20.8439   5
  -1  -3  -8 51.9786 4.53923   3
  -1  -3  -8 46.2477 4.29246   2
  -1  -3  -8 46.8054 4.40830   5
  -1  -3  -8 44.2979 2.49830   9
  -1  -3  -8 46.7253 2.56170   8
  -1  -3  -8 45.3457 2.54559  10
  -2  -3  -8 1.22236 0.48254   9
  -2  -3  -8 0.82821 1.48494   5
  -2  -3  -8 0.11800 1.38845   2
  -2  -3  -8 1.04269 0.44293   8
  -2  -3  -8 0.42328 1.02998   3
  -3  -3  -8 7.35582 2.29498   3
  -3  -3  -8 7.11704 2.30924   5
  -3  -3  -8 11.9606 1.07366   8
  -3  -3  -8 10.9541 0.96277   9
  -3  -3  -8 9.90149 2.25737   2
  -4  -3  -8 3.49444 0.65940   9
  -4  -3  -8 3.76342 0.64104   8
  -5  -3  -8 12.5627 1.05829   8
  -5  -3  -8 11.0391 1.02567   9
  -6  -3  -8 7.05591 0.63778   8
  -6  -3  -8 9.18081 0.85869   9
  -7  -3  -8 3.99610 0.73660  14
  -7  -3  -8 2.07784 0.53912   9
  11  -4  -8 -0.5120 0.42970  16
  11  -4  -8 0.26897 0.34130  10
  11  -4  -8 0.18801 0.25252   9
  10  -4  -8 33.8696 2.04931  10
  10  -4  -8 34.7548 2.74810  16
  10  -4  -8 36.8961 2.00762   9
   9  -4  -8 90.8197 4.73094  10
   9  -4  -8 90.6273 4.66057   9
   9  -4  -8 95.4409 6.34191  16
   8  -4  -8 5.44908 1.13949  16
   8  -4  -8 5.71616 0.73329   9
   8  -4  -8 5.72455 0.54174   8
   7  -4  -8 52.3425 4.99554   2
   7  -4  -8 53.9647 2.81279   9
   7  -4  -8 57.6109 4.10371  16
   7  -4  -8 52.0105 2.86999  10
   7  -4  -8 52.9643 2.71356   8
   7  -4  -8 46.2280 3.69524  15
   7  -4  -8 39.6611 4.94936   6
   6  -4  -8 10.8111 1.00230  10
   6  -4  -8 6.91599 2.15931   6
   6  -4  -8 11.3534 0.96242   9
   6  -4  -8 9.79447 1.31210  15
   6  -4  -8 11.7283 0.86559   8
   6  -4  -8 10.7425 2.10636   3
   6  -4  -8 10.9412 2.19041   2
   5  -4  -8 3.44615 0.40733   8
   5  -4  -8 2.64204 0.50212  10
   5  -4  -8 2.68227 0.47487   9
   5  -4  -8 0.81272 1.16867   2
   5  -4  -8 3.03068 0.83706  15
   5  -4  -8 1.57752 1.41310   6
   5  -4  -8 1.51745 1.18960   3
   4  -4  -8 0.44453 0.54729  14
   4  -4  -8 0.89660 0.37758   9
   4  -4  -8 1.72040 1.11125   2
   4  -4  -8 1.38948 0.45211  13
   4  -4  -8 1.29863 0.40905  10
   4  -4  -8 1.02663 0.70446  15
   4  -4  -8 0.95240 1.00910   3
   4  -4  -8 1.44415 0.35222   8
   4  -4  -8 -0.0924 1.22039   6
   3  -4  -8 44.9048 3.11781  13
   3  -4  -8 48.8956 2.51931   9
   3  -4  -8 52.6178 4.27120   3
   3  -4  -8 48.8659 4.05260   2
   3  -4  -8 47.3637 4.43245   5
   3  -4  -8 57.4686 5.10438   6
   3  -4  -8 42.1542 3.30284  14
   3  -4  -8 46.9098 2.53691  10
   2  -4  -8 100.963 7.15749  14
   2  -4  -8 116.554 7.66422   2
   2  -4  -8 110.454 5.52867   8
   2  -4  -8 123.179 8.96967   6
   2  -4  -8 111.688 5.44558   9
   2  -4  -8 114.131 7.99826   3
   2  -4  -8 106.414 5.45457  10
   2  -4  -8 115.080 8.34195   5
   1  -4  -8 0.15350 0.33158   9
   1  -4  -8 0.33312 0.97202   2
   1  -4  -8 0.41450 0.33726   8
   1  -4  -8 0.60581 1.11530   5
   1  -4  -8 1.27969 1.03962   3
   1  -4  -8 1.16816 1.21197   6
   1  -4  -8 1.21551 0.69152  14
   1  -4  -8 0.53996 0.26478  10
   0  -4  -8 62.8728 5.51186   5
   0  -4  -8 59.4871 3.20957   8
   0  -4  -8 66.7184 5.14015   2
   0  -4  -8 62.0127 4.36815  14
   0  -4  -8 62.7583 5.85254   6
   0  -4  -8 57.8961 5.13770   3
   0  -4  -8 60.8068 3.21236  10
   0  -4  -8 61.1302 3.20230   9
  -1  -4  -8 6.99505 0.73409  10
  -1  -4  -8 5.17843 1.64311   2
  -1  -4  -8 5.67636 1.75175   5
  -1  -4  -8 5.89691 0.71752   9
  -1  -4  -8 5.82664 1.77767   3
  -1  -4  -8 7.42335 0.70399   8
  -1  -4  -8 8.58953 1.23751  14
  -2  -4  -8 297.610 18.7358   2
  -2  -4  -8 283.955 20.2947   5
  -2  -4  -8 318.150 14.5480  10
  -2  -4  -8 310.802 14.8430   8
  -2  -4  -8 314.558 14.4427   9
  -2  -4  -8 275.675 19.8766   3
  -3  -4  -8 19.4520 1.29775   8
  -3  -4  -8 19.3080 1.44136  10
  -3  -4  -8 14.0539 2.91051   5
  -3  -4  -8 20.4949 1.42925   9
  -4  -4  -8 -0.4333 0.48104  10
  -4  -4  -8 0.99167 0.42597   8
  -4  -4  -8 0.49126 0.36802   9
  -5  -4  -8 0.87378 0.25225   8
  -5  -4  -8 1.32099 0.94773  14
  -5  -4  -8 1.75184 0.41669   9
  -6  -4  -8 0.40693 0.31114   9
  -6  -4  -8 0.33252 0.56306  14
  11  -5  -8 10.2018 1.07994  16
  10  -5  -8 15.5991 1.19831  10
  10  -5  -8 14.7220 0.91747   9
  10  -5  -8 11.7884 1.49757  16
   9  -5  -8 9.31598 0.88489  10
   9  -5  -8 10.3383 0.83567   9
   9  -5  -8 8.93830 1.50149  16
   8  -5  -8 23.5346 1.45798   9
   8  -5  -8 23.1991 2.26482  16
   8  -5  -8 19.6572 2.05122  15
   7  -5  -8 0.68281 1.57303   6
   7  -5  -8 2.73028 0.87099  15
   7  -5  -8 2.18721 0.53595  10
   7  -5  -8 2.11596 0.48256   9
   7  -5  -8 2.66259 1.14549  16
   6  -5  -8 5.53581 1.35506  16
   6  -5  -8 6.59636 0.73793  10
   6  -5  -8 1.88117 1.52472   6
   6  -5  -8 6.12603 1.67513   2
   6  -5  -8 5.07819 1.08999  15
   6  -5  -8 6.54098 0.67302   9
   5  -5  -8 5.73658 0.61029   9
   5  -5  -8 7.70387 1.25504  15
   5  -5  -8 3.47090 1.40860   2
   5  -5  -8 3.66570 1.56756   3
   5  -5  -8 6.69981 1.97226   6
   5  -5  -8 6.04402 0.70629  10
   5  -5  -8 6.56802 1.25761  16
   5  -5  -8 5.52491 0.90316  14
   4  -5  -8 24.0899 2.86835   3
   4  -5  -8 25.2197 2.36329  16
   4  -5  -8 31.2823 3.13569   2
   4  -5  -8 29.4731 4.04196   6
   4  -5  -8 24.7249 2.24697  14
   4  -5  -8 29.8198 2.52314  15
   4  -5  -8 30.0250 2.12559  13
   4  -5  -8 28.6043 1.67086  10
   4  -5  -8 28.0542 1.62093   9
   3  -5  -8 293.154 19.3594   5
   3  -5  -8 275.906 17.1322  13
   3  -5  -8 309.501 19.9872   6
   3  -5  -8 291.195 13.6678   9
   3  -5  -8 294.927 13.7921  10
   3  -5  -8 258.791 17.9562  14
   3  -5  -8 280.322 18.5355   3
   3  -5  -8 304.314 18.3843  15
   3  -5  -8 304.949 17.4546   2
   2  -5  -8 2.45642 0.67128  14
   2  -5  -8 2.74652 1.31979   5
   2  -5  -8 4.17420 1.27588   2
   2  -5  -8 2.20818 0.98775  15
   2  -5  -8 1.59395 1.32870   6
   2  -5  -8 1.29601 0.47467  13
   2  -5  -8 1.90564 0.43015  10
   2  -5  -8 2.19208 0.41407   9
   2  -5  -8 1.86274 1.04385   3
   1  -5  -8 25.4950 1.46568   9
   1  -5  -8 24.6654 3.80050   6
   1  -5  -8 22.5520 2.81016   3
   1  -5  -8 23.4182 2.40449  15
   1  -5  -8 23.8654 2.19499  14
   1  -5  -8 24.3998 2.93724   2
   1  -5  -8 22.6952 3.42724   5
   1  -5  -8 24.3882 1.50828  10
   1  -5  -8 22.0768 1.86419  13
   0  -5  -8 10.5341 0.85228  10
   0  -5  -8 9.40108 0.87873   9
   0  -5  -8 7.96653 2.27548   5
   0  -5  -8 10.6760 2.06802   2
   0  -5  -8 10.1736 1.48152  14
   0  -5  -8 9.69859 1.44532  15
   0  -5  -8 7.59298 1.76115   3
   0  -5  -8 10.1597 1.16799  13
  -1  -5  -8 112.139 7.34087  14
  -1  -5  -8 98.6441 8.68023   5
  -1  -5  -8 106.158 5.32975   9
  -2  -5  -8 142.710 9.31423  14
  -2  -5  -8 147.682 6.96249  10
  -2  -5  -8 112.598 10.4713   5
  -2  -5  -8 142.482 6.85149   9
  -3  -5  -8 12.8185 1.76566  14
  -3  -5  -8 10.3846 1.03490  10
  -3  -5  -8 10.2018 0.99482   9
  -4  -5  -8 1.70675 0.47685   9
  -4  -5  -8 1.78496 1.03240  14
  -4  -5  -8 1.38952 0.57431  10
  -5  -5  -8 21.6764 2.10196  14
  -5  -5  -8 23.1079 1.35850   9
  -6  -5  -8 27.7983 1.39613   9
  11  -6  -8 4.57381 0.73919  16
  11  -6  -8 3.75974 0.43125  10
  10  -6  -8 0.89417 0.63495  16
  10  -6  -8 0.04059 0.26718  10
   9  -6  -8 73.4571 5.30265  16
   9  -6  -8 74.1524 3.80761  10
   8  -6  -8 67.8499 3.25458   9
   8  -6  -8 66.7486 5.00058  16
   8  -6  -8 61.7064 4.57014  15
   7  -6  -8 0.74673 0.32099   9
   7  -6  -8 -0.8698 1.03188  16
   7  -6  -8 0.03764 0.77233  15
   7  -6  -8 0.84669 0.33554  10
   6  -6  -8 33.5345 3.07906  16
   6  -6  -8 34.4039 1.95803  10
   6  -6  -8 28.6610 4.66142   6
   6  -6  -8 35.0633 1.80134   9
   6  -6  -8 35.6663 2.89423  15
   6  -6  -8 29.5047 2.57407  14
   5  -6  -8 62.3159 4.69832  16
   5  -6  -8 63.1627 4.88776   2
   5  -6  -8 61.4103 4.55699  14
   5  -6  -8 67.9292 3.29583   9
   5  -6  -8 70.7791 4.38584  13
   5  -6  -8 67.9734 4.85559  15
   5  -6  -8 68.1707 3.44048  10
   5  -6  -8 59.1873 6.63668   6
   4  -6  -8 145.667 9.32307  15
   4  -6  -8 139.353 6.78819  10
   4  -6  -8 147.966 8.54953  13
   4  -6  -8 133.756 8.96699  14
   4  -6  -8 119.587 9.24916   3
   4  -6  -8 141.669 6.63407   9
   4  -6  -8 137.414 11.2369   6
   3  -6  -8 24.9240 4.44004   6
   3  -6  -8 25.8525 1.51392   9
   3  -6  -8 29.6597 1.67339  10
   3  -6  -8 26.1788 2.84511   3
   3  -6  -8 28.8310 2.58990  15
   3  -6  -8 25.6933 3.72473   5
   3  -6  -8 28.7272 2.19748  13
   3  -6  -8 27.8167 2.44440  14
   2  -6  -8 13.6944 2.13092   3
   2  -6  -8 18.9447 3.29801   5
   2  -6  -8 14.4950 3.62978   6
   2  -6  -8 19.6681 2.00214  14
   2  -6  -8 17.4461 1.09008   9
   2  -6  -8 16.6501 1.52466  13
   2  -6  -8 17.8065 1.21599  10
   2  -6  -8 19.0916 2.27759  15
   1  -6  -8 26.5943 2.19814  13
   1  -6  -8 29.7131 2.61736  14
   1  -6  -8 22.4636 3.86022   5
   1  -6  -8 26.3733 2.64058  15
   1  -6  -8 27.6164 1.61396   9
   1  -6  -8 27.1573 3.10534   2
   1  -6  -8 28.9516 1.68912  10
   0  -6  -8 38.1012 3.20589  14
   0  -6  -8 33.3336 2.69194  13
   0  -6  -8 38.9491 2.06499   9
   0  -6  -8 38.0716 2.10540  10
   0  -6  -8 33.2847 4.55896   5
  -1  -6  -8 -0.0566 0.32360   9
  -1  -6  -8 -0.7118 0.96218  14
  -1  -6  -8 -0.4485 0.38597  10
  -1  -6  -8 -0.3971 0.59843  13
  -2  -6  -8 1.24006 0.84076  14
  -2  -6  -8 1.30370 0.50158  10
  -2  -6  -8 -0.0457 0.65867  13
  -2  -6  -8 0.75118 0.35127   9
  -3  -6  -8 9.69723 0.82402   9
  -3  -6  -8 9.71423 1.41662  14
  -3  -6  -8 10.5315 0.97221  10
  -4  -6  -8 -0.3386 0.83352  14
  -4  -6  -8 0.51374 0.34560  10
  -4  -6  -8 0.03281 0.23146   9
  -5  -6  -8 0.68376 0.28898  10
  10  -7  -8 12.7845 1.48701  16
  10  -7  -8 14.9471 0.91450  10
   9  -7  -8 16.5556 1.58446  15
   9  -7  -8 17.5124 1.87859  16
   9  -7  -8 19.6041 1.17224  10
   8  -7  -8 26.9918 2.40929  15
   8  -7  -8 26.1654 1.56268  10
   8  -7  -8 26.9754 2.74886  16
   7  -7  -8 5.34753 1.21706  16
   7  -7  -8 6.04053 1.20224  15
   7  -7  -8 4.97123 0.95422  14
   7  -7  -8 4.35733 0.53473  10
   6  -7  -8 22.6653 1.39666  10
   6  -7  -8 22.9568 2.05513  14
   6  -7  -8 22.6384 2.17614  15
   6  -7  -8 21.4254 2.35220  16
   5  -7  -8 35.6681 2.01630  10
   5  -7  -8 39.6791 2.67838  13
   5  -7  -8 35.5119 3.18594  15
   5  -7  -8 34.8436 2.82101  14
   4  -7  -8 1.23666 0.68953  13
   4  -7  -8 -1.6215 2.92479   6
   4  -7  -8 0.77906 0.33581  10
   4  -7  -8 0.84149 0.76280  15
   4  -7  -8 1.10876 0.66126  14
   3  -7  -8 4.64225 0.92446  13
   3  -7  -8 5.09026 1.13319  14
   3  -7  -8 4.11526 1.22754  15
   3  -7  -8 4.60523 0.56191  10
   2  -7  -8 2.33089 0.98766  14
   2  -7  -8 0.71256 0.36243  10
   2  -7  -8 0.29912 0.95107  15
   2  -7  -8 0.42439 0.63080  13
   1  -7  -8 26.4811 2.54682  14
   1  -7  -8 25.1425 1.98553  13
   1  -7  -8 20.9995 2.37918  15
   1  -7  -8 25.3863 1.50633  10
   0  -7  -8 5.25191 1.15642  14
   0  -7  -8 3.43537 0.54728  10
   0  -7  -8 2.47959 0.78561  13
  -1  -7  -8 0.52545 0.39272  10
  -1  -7  -8 2.14972 1.10189  14
  -1  -7  -8 1.18923 0.52019  13
  -2  -7  -8 4.64684 0.86109  13
  -2  -7  -8 4.27025 1.23717  14
  -2  -7  -8 5.02083 0.62280  10
  -3  -7  -8 19.6753 1.22036  10
  -3  -7  -8 17.3123 1.76520  14
  -4  -7  -8 16.4432 0.94892  10
  10  -8  -8 17.9447 1.61041  16
   9  -8  -8 1.09717 0.90231  16
   9  -8  -8 1.34553 0.51728  15
   8  -8  -8 19.9009 2.01925  15
   8  -8  -8 20.6406 1.10320  10
   8  -8  -8 20.3775 1.65874  14
   8  -8  -8 18.5767 2.20000  16
   7  -8  -8 45.2168 3.26184  14
   7  -8  -8 44.0107 3.60494  16
   7  -8  -8 46.4596 3.62805  15
   7  -8  -8 46.5363 2.31841  10
   6  -8  -8 51.3697 3.84755  15
   6  -8  -8 47.8727 3.63257  14
   5  -8  -8 0.47251 0.49736  13
   5  -8  -8 -0.4114 0.25094  10
   5  -8  -8 0.13620 0.75530  14
   5  -8  -8 0.40763 0.69093  15
   4  -8  -8 3.48993 1.12970  15
   4  -8  -8 3.54374 0.89857  13
   4  -8  -8 4.79627 0.49344  10
   4  -8  -8 5.66424 1.05563  14
   3  -8  -8 87.1407 4.14088  10
   3  -8  -8 85.3660 5.41981  13
   3  -8  -8 80.7001 5.77400  14
   3  -8  -8 79.6279 5.97013  15
   2  -8  -8 18.6989 1.58000  13
   2  -8  -8 18.7605 1.07917  10
   2  -8  -8 17.0930 2.09453  14
   2  -8  -8 11.2305 1.72578  15
   1  -8  -8 -1.0601 0.58386  14
   1  -8  -8 -0.1220 0.25631  10
   1  -8  -8 0.19835 0.47569  13
   0  -8  -8 5.62727 0.82964  13
   0  -8  -8 4.99364 1.17219  14
   0  -8  -8 6.12674 0.56762  10
  -1  -8  -8 5.14570 1.04183  14
  -1  -8  -8 3.44909 0.67841  13
  -1  -8  -8 4.16245 0.44184  10
  -2  -8  -8 29.4015 1.50459  10
  -2  -8  -8 32.1230 2.48016  14
  -2  -8  -8 26.0865 1.97509  13
   9  -9  -8 0.75870 0.45736  15
   8  -9  -8 13.6481 1.40883  15
   8  -9  -8 13.6431 1.20038  14
   8  -9  -8 10.9912 1.23640  16
   7  -9  -8 3.13066 1.00710  15
   7  -9  -8 4.33111 0.76114  14
   6  -9  -8 7.13745 1.37029  15
   6  -9  -8 8.43040 1.11324  14
   5  -9  -8 2.46127 0.87076  14
   5  -9  -8 4.10829 0.76798  13
   5  -9  -8 2.70198 0.96282  15
   4  -9  -8 10.1334 1.45193  14
   4  -9  -8 13.8122 1.29162  13
   4  -9  -8 14.5176 1.73971  15
   3  -9  -8 35.5067 2.82967  14
   3  -9  -8 36.0801 2.57617  13
   3  -9  -8 31.8716 2.93889  15
   2  -9  -8 6.49180 0.95558  13
   2  -9  -8 8.76138 1.24472  14
   1  -9  -8 0.48296 0.73312  14
   1  -9  -8 0.60936 0.48464  13
   0  -9  -8 0.54243 0.43789  13
   0  -9  -8 0.30420 0.67022  14
  -1  -9  -8 8.59759 1.06291  14
   7 -10  -8 10.9128 1.32263  15
   6 -10  -8 13.3393 1.42925  14
   6 -10  -8 12.1944 1.46826  15
   5 -10  -8 3.74552 0.80702  14
   5 -10  -8 3.60424 0.90034  15
   4 -10  -8 14.7878 1.50256  15
   4 -10  -8 15.5522 1.51829  14
   3 -10  -8 3.19319 0.61097  13
   3 -10  -8 5.13283 0.94983  14
   2 -10  -8 1.00964 0.63689  14
   2 -10  -8 1.21161 0.41298  13
   1 -10  -8 87.5645 5.73692  14
  -1 -10   9 3.09957 0.57327  11
   0 -10   9 45.7666 3.11334  11
   1 -10   9 -0.8093 0.78551  11
   1 -10   9 1.08965 0.55706  18
   2 -10   9 1.92223 0.67366  11
   2 -10   9 2.63058 0.90848  18
   3 -10   9 6.44592 0.97591  18
   3 -10   9 4.28870 0.81975  11
   4 -10   9 0.01305 0.59446  18
   4 -10   9 -0.0413 0.70006  17
   5 -10   9 3.07945 0.61310  17
   5 -10   9 3.50319 0.78446  18
   6 -10   9 -0.1776 0.46039  18
   6 -10   9 0.43035 0.40589  17
  -3  -9   9 5.95080 0.81693  12
  -2  -9   9 -0.3879 0.56842  12
  -2  -9   9 -0.4129 0.39942  11
  -1  -9   9 4.80591 0.92681  12
  -1  -9   9 5.27842 0.87322  11
  -1  -9   9 5.90640 0.86282  18
   0  -9   9 10.0443 1.28130  18
   0  -9   9 12.0603 1.35240  11
   1  -9   9 1.37278 0.97719  11
   1  -9   9 1.19093 0.66584  18
   2  -9   9 66.9912 4.97934  11
   2  -9   9 76.2845 4.65976  17
   2  -9   9 70.3873 4.93925  18
   3  -9   9 31.4162 2.52844  18
   3  -9   9 26.8986 2.62948  11
   3  -9   9 30.8147 2.28360  17
   4  -9   9 3.45765 0.92861  17
   4  -9   9 5.62083 1.06420  18
   4  -9   9 3.49896 0.75523  11
   5  -9   9 3.48228 0.89062  18
   5  -9   9 3.89541 0.70030  17
   6  -9   9 1.79998 0.82520  18
   6  -9   9 0.85708 0.48717  17
   7  -9   9 0.71061 0.55629  18
   7  -9   9 0.48643 0.38036  17
  -4  -8   9 1.34263 0.61325  12
  -3  -8   9 53.4783 2.57774  10
  -3  -8   9 48.8966 3.80175  12
  -3  -8   9 48.2425 3.36341  11
  -2  -8   9 3.40463 0.42665  10
  -2  -8   9 1.58648 0.77323  18
  -2  -8   9 3.89163 1.22613  12
  -2  -8   9 1.82468 0.84761  11
  -1  -8   9 13.0417 1.51278  11
  -1  -8   9 14.5149 1.70843  12
  -1  -8   9 9.47689 1.28687  18
  -1  -8   9 12.6815 0.86277  10
   0  -8   9 4.45629 0.51157  10
   0  -8   9 3.59186 1.03275  12
   0  -8   9 4.01603 0.94638  11
   0  -8   9 4.68212 0.93412  18
   1  -8   9 212.231 13.0181  11
   1  -8   9 207.315 10.0952  10
   1  -8   9 205.448 13.1742  18
   1  -8   9 225.493 12.5615  17
   2  -8   9 24.8737 2.37898  11
   2  -8   9 25.2625 2.25894  18
   2  -8   9 26.5749 2.30539  17
   2  -8   9 24.3463 1.39465  10
   3  -8   9 8.64061 1.32494  11
   3  -8   9 7.24373 1.19733  17
   3  -8   9 7.60299 1.45478  18
   3  -8   9 8.15235 0.66986  10
   4  -8   9 1.33442 0.64842  17
   4  -8   9 0.51899 0.96309  18
   4  -8   9 0.95576 0.28833  10
   4  -8   9 0.77962 0.59189  11
   5  -8   9 19.8831 1.10874  10
   5  -8   9 18.5797 1.68310  17
   5  -8   9 18.5172 1.98906  18
   6  -8   9 0.07092 0.53100  17
   6  -8   9 0.23901 0.20209  10
   6  -8   9 -0.0203 0.94738  18
   7  -8   9 -0.2237 0.45419  17
   7  -8   9 0.26743 0.60845  18
   8  -8   9 39.5679 2.67119  17
   8  -8   9 45.4613 2.97166  18
  -5  -7   9 35.1711 2.56732  12
  -5  -7   9 30.2311 1.75410  10
  -4  -7   9 24.9670 1.51393  10
  -4  -7   9 26.7753 2.55756  12
  -3  -7   9 18.9389 1.31214  10
  -3  -7   9 19.4795 2.28680  12
  -2  -7   9 4.30710 0.62111  10
  -2  -7   9 5.22180 1.02094  11
  -2  -7   9 4.26270 0.91945  18
  -2  -7   9 5.48345 1.20649  12
  -1  -7   9 32.5147 3.00191  12
  -1  -7   9 28.9169 2.56591  18
  -1  -7   9 31.2757 1.84250  10
  -1  -7   9 34.3001 2.72341  11
   0  -7   9 29.3871 2.72422  11
   0  -7   9 31.1951 1.76278  10
   0  -7   9 27.9632 2.39820  18
   0  -7   9 30.0145 2.65110  12
   1  -7   9 -0.3114 0.61598  18
   1  -7   9 0.16847 0.76282  17
   1  -7   9 0.11563 0.61857  11
   1  -7   9 1.09547 0.40232  10
   2  -7   9 10.9411 1.47553  18
   2  -7   9 9.61023 1.53173  11
   2  -7   9 2.59106 3.35663   4
   2  -7   9 11.5931 0.90371  10
   2  -7   9 8.46156 1.22151  17
   3  -7   9 28.2698 2.39834  17
   3  -7   9 28.3984 2.47474  18
   3  -7   9 26.9313 2.62937  11
   3  -7   9 31.0325 1.73005  10
   4  -7   9 4.41884 0.94444  17
   4  -7   9 2.35851 0.85499  11
   4  -7   9 4.68178 1.02118  18
   4  -7   9 3.52868 0.52531  10
   5  -7   9 1.65785 0.43760  10
   5  -7   9 0.69539 0.98720  18
   5  -7   9 2.01524 0.64028  17
   6  -7   9 2.30942 0.66509  17
   6  -7   9 3.60499 0.97856  18
   6  -7   9 2.69065 0.47475  10
   7  -7   9 0.34374 0.31405  10
   7  -7   9 -0.4185 0.68610  17
   7  -7   9 0.38757 0.67515  18
   8  -7   9 118.333 7.53931  17
   8  -7   9 134.617 8.10929  18
   8  -7   9 131.562 6.15264  10
  -6  -6   9 52.7953 2.77304  10
  -6  -6   9 52.5503 3.80634  12
  -5  -6   9 0.85182 0.31304   9
  -5  -6   9 0.13403 0.88648  12
  -5  -6   9 0.11376 0.33547  10
  -4  -6   9 5.05980 0.66591  10
  -4  -6   9 6.48454 1.35444  12
  -4  -6   9 5.14319 0.57497   9
  -3  -6   9 45.7516 3.29140  11
  -3  -6   9 34.8295 3.73423  12
  -3  -6   9 47.6365 2.59543  10
  -3  -6   9 49.6992 2.44340   9
  -2  -6   9 9.22760 1.52627  12
  -2  -6   9 8.22487 0.76212   9
  -2  -6   9 7.00103 1.16294  11
  -2  -6   9 7.66267 0.84873  10
  -1  -6   9 351.210 16.2459   9
  -1  -6   9 334.977 22.7721   4
  -1  -6   9 360.543 16.4576  10
  -1  -6   9 352.938 20.4060  11
  -1  -6   9 321.097 20.8410  18
   0  -6   9 14.3227 1.12327  10
   0  -6   9 15.1167 1.61060  17
   0  -6   9 10.4524 3.14814   4
   0  -6   9 12.6550 1.43577  18
   0  -6   9 14.5493 1.66891  11
   0  -6   9 13.7114 1.70570  12
   1  -6   9 17.5836 1.08424   9
   1  -6   9 16.0537 1.83149  18
   1  -6   9 11.6622 1.88444   3
   1  -6   9 17.1862 2.20492   2
   1  -6   9 17.3623 1.70637  17
   1  -6   9 15.8120 3.65541   4
   1  -6   9 19.4853 2.12927  11
   1  -6   9 17.6216 1.23674  10
   2  -6   9 10.9428 0.89812  10
   2  -6   9 12.4015 0.83782   9
   2  -6   9 8.11436 1.72906   2
   2  -6   9 6.42787 1.42557   3
   2  -6   9 9.90939 3.25476   4
   2  -6   9 11.5306 1.27135  17
   2  -6   9 10.8527 2.43012   7
   2  -6   9 11.0937 1.53111  11
   2  -6   9 10.0466 1.39282  18
   3  -6   9 69.3705 3.31894   9
   3  -6   9 66.2877 6.17354   7
   3  -6   9 60.6414 4.83108   2
   3  -6   9 68.6594 3.46573  10
   3  -6   9 67.3401 4.70800  18
   3  -6   9 63.3159 4.30081  17
   3  -6   9 64.6850 4.66401  11
   4  -6   9 44.5084 2.41451  10
   4  -6   9 45.7019 3.49432  18
   4  -6   9 47.6058 2.27205   9
   4  -6   9 31.1978 4.70959   7
   4  -6   9 40.4473 2.96438  17
   4  -6   9 40.4507 3.22406  11
   5  -6   9 1.26864 0.71678  18
   5  -6   9 0.76201 0.40693  10
   5  -6   9 0.05390 0.46850  17
   5  -6   9 0.00064 0.29664   9
   6  -6   9 52.7861 2.56628   9
   6  -6   9 53.3105 2.80612  10
   6  -6   9 54.7135 4.02769  18
   6  -6   9 45.8958 3.38942  17
   7  -6   9 38.7770 2.12403  10
   7  -6   9 42.6465 3.06790  18
   7  -6   9 33.7524 2.58079  17
   8  -6   9 -0.5594 0.72519  18
   8  -6   9 0.03787 0.26480  10
   9  -6   9 38.4343 1.97390  10
   9  -6   9 37.5653 2.61396  18
  -7  -5   9 5.64098 0.85394  12
  -7  -5   9 4.84916 0.61680  10
  -7  -5   9 6.30716 0.56932   9
  -6  -5   9 13.7928 1.02984   9
  -6  -5   9 10.5094 1.46041  12
  -6  -5   9 12.7221 1.06677  10
  -5  -5   9 -0.0053 0.36143  10
  -5  -5   9 0.38202 0.45072   9
  -5  -5   9 0.23582 0.61056  12
  -4  -5   9 0.98004 0.49984   9
  -4  -5   9 1.48225 0.78416  12
  -4  -5   9 1.83137 0.60618  10
  -3  -5   9 10.5772 1.54252  12
  -3  -5   9 8.37692 2.84330   4
  -3  -5   9 7.11657 1.14483  11
  -3  -5   9 9.70288 0.97583  10
  -3  -5   9 9.42369 0.88421   9
  -2  -5   9 49.2439 3.40629  11
  -2  -5   9 52.1894 2.75605  10
  -2  -5   9 45.6448 3.87002  12
  -2  -5   9 46.2721 4.98793   4
  -1  -5   9 3.15995 0.58864  10
  -1  -5   9 3.33616 0.52921   9
  -1  -5   9 2.67146 1.28046   2
  -1  -5   9 2.58915 0.74309  18
  -1  -5   9 2.29555 0.69456  11
  -1  -5   9 1.69469 1.55545   4
  -1  -5   9 2.97872 0.83544  12
  -1  -5   9 1.16355 1.07154   3
   0  -5   9 13.4454 3.07081   4
   0  -5   9 9.86307 1.93313   2
   0  -5   9 12.0924 0.96295   9
   0  -5   9 13.8644 1.42962  17
   0  -5   9 10.0606 1.77115   3
   0  -5   9 12.4585 1.42043  11
   0  -5   9 12.0310 1.47240  18
   0  -5   9 13.5388 1.07249  10
   1  -5   9 5.67668 0.67670  10
   1  -5   9 2.34191 1.61131   4
   1  -5   9 3.71254 1.19565   3
   1  -5   9 4.62946 1.05918  11
   1  -5   9 5.90245 1.00468  18
   1  -5   9 4.05880 0.79456  17
   1  -5   9 4.85828 1.44995   2
   1  -5   9 5.54138 1.61948   7
   1  -5   9 5.63895 0.60542   9
   2  -5   9 12.7551 2.01943   2
   2  -5   9 12.5994 1.49890  18
   2  -5   9 11.1180 0.88993   9
   2  -5   9 8.26067 1.09733  17
   2  -5   9 10.8481 1.88182   3
   2  -5   9 11.9329 0.97042  10
   2  -5   9 13.2197 2.70323   7
   2  -5   9 10.3581 2.62226   4
   3  -5   9 40.9004 3.17470  11
   3  -5   9 40.6080 2.86476  17
   3  -5   9 44.9668 3.19578  18
   3  -5   9 45.0005 2.31595   9
   3  -5   9 39.5647 3.81936   2
   3  -5   9 36.8717 5.05913   4
   3  -5   9 44.9946 2.40360  10
   3  -5   9 37.5374 4.33235   7
   4  -5   9 2.07111 2.12622   7
   4  -5   9 4.31330 1.58597   2
   4  -5   9 6.16205 1.05761  18
   4  -5   9 6.19501 0.73573  10
   4  -5   9 5.32933 1.03673  11
   4  -5   9 4.37961 0.86512  17
   4  -5   9 7.27533 0.68273   9
   5  -5   9 1.81130 0.48608   9
   5  -5   9 1.95550 1.81485   7
   5  -5   9 2.00126 0.75797  18
   5  -5   9 2.20809 0.47621  10
   5  -5   9 1.97839 0.70799  17
   6  -5   9 35.5104 2.99635  18
   6  -5   9 32.4552 1.99147  10
   6  -5   9 33.2597 1.90999   9
   7  -5   9 42.0636 2.22942   9
   7  -5   9 41.4239 3.17388  18
   7  -5   9 41.3447 2.35854  10
   8  -5   9 5.59776 0.88511  18
   8  -5   9 6.02736 0.73185  10
   8  -5   9 6.27322 0.53686   9
   9  -5   9 24.8723 2.02583  18
   9  -5   9 32.4496 1.63170  10
  -8  -4   9 139.322 6.45934   9
  -8  -4   9 128.047 8.47315  12
  -7  -4   9 41.6352 3.08547  12
  -7  -4   9 38.8694 2.22996   9
  -6  -4   9 16.1973 1.02335   8
  -6  -4   9 17.7676 1.83757  12
  -6  -4   9 17.9060 1.25353   9
  -6  -4   9 16.7619 1.46095  10
  -5  -4   9 3.62327 0.68147   9
  -5  -4   9 2.39239 0.42710   8
  -5  -4   9 3.40769 0.70323  10
  -5  -4   9 4.17424 1.01449  12
  -4  -4   9 26.1775 1.83949  10
  -4  -4   9 18.5950 3.67972   4
  -4  -4   9 30.8479 1.68847   8
  -4  -4   9 28.2782 1.82335   9
  -3  -4   9 80.3853 6.69012   3
  -3  -4   9 88.2990 4.33319   8
  -3  -4   9 83.8015 4.37330  10
  -3  -4   9 79.1823 5.29933  11
  -3  -4   9 87.7315 7.10985   4
  -2  -4   9 2.00585 1.78770   4
  -2  -4   9 0.45475 0.44790  10
  -2  -4   9 0.20814 0.30432   8
  -2  -4   9 0.50984 0.58642  11
  -2  -4   9 -0.3780 0.99801   3
  -2  -4   9 0.31438 0.30253   9
  -2  -4   9 0.05486 0.87972   2
  -1  -4   9 8.26119 1.77655   3
  -1  -4   9 8.56468 2.27769   4
  -1  -4   9 10.5344 0.78147   8
  -1  -4   9 9.74784 0.89972   9
  -1  -4   9 10.4114 0.98955  10
  -1  -4   9 9.54428 1.20334  11
  -1  -4   9 8.83934 1.05278  17
  -1  -4   9 13.2930 2.14859   2
   0  -4   9 45.2202 3.84394   3
   0  -4   9 39.7025 2.25830   9
   0  -4   9 43.2937 3.85869   2
   0  -4   9 36.1863 2.90294  18
   0  -4   9 43.6538 4.55018   4
   0  -4   9 41.2709 2.21996   8
   0  -4   9 44.0001 2.98604  11
   1  -4   9 13.2284 0.91720   8
   1  -4   9 12.3697 1.03891  10
   1  -4   9 11.9430 1.95795   3
   1  -4   9 14.1191 2.23493   2
   1  -4   9 14.1367 2.37112   7
   1  -4   9 12.3208 1.41761  18
   1  -4   9 11.4168 0.96657   9
   1  -4   9 12.2326 2.69940   4
   2  -4   9 34.8603 1.92311   8
   2  -4   9 31.4942 4.26532   4
   2  -4   9 33.2931 3.47280   3
   2  -4   9 37.7889 3.55432   2
   2  -4   9 36.3261 2.01285   9
   2  -4   9 33.6571 2.61762  18
   2  -4   9 37.1136 2.07493  10
   2  -4   9 38.4337 3.82035   7
   3  -4   9 30.5728 4.16304   4
   3  -4   9 31.4617 1.96278  10
   3  -4   9 38.5139 3.67073   2
   3  -4   9 32.9733 3.44046   3
   3  -4   9 32.9697 1.81175   8
   3  -4   9 28.0522 3.79415   7
   3  -4   9 33.0372 1.91450   9
   3  -4   9 35.5095 2.67062  18
   4  -4   9 238.433 15.6419   2
   4  -4   9 251.134 11.9959   9
   4  -4   9 247.406 12.2607   8
   4  -4   9 238.793 16.8715   7
   4  -4   9 238.694 16.5851   3
   4  -4   9 277.488 15.5223  18
   4  -4   9 254.788 12.1245  10
   5  -4   9 26.2366 1.47238   8
   5  -4   9 27.2327 1.77432  10
   5  -4   9 29.1035 2.46444  18
   5  -4   9 26.4754 1.67395   9
   5  -4   9 15.8604 3.40699   7
   6  -4   9 8.07992 1.16358  18
   6  -4   9 6.33306 0.76263   9
   6  -4   9 5.88426 0.84346  10
   6  -4   9 6.80563 0.48529   8
   7  -4   9 36.2032 2.18944  10
   7  -4   9 39.0094 3.02742  18
   7  -4   9 36.4853 2.08386   9
   8  -4   9 4.69744 0.56225   9
   8  -4   9 4.00031 0.92085  18
   8  -4   9 3.64547 0.60813  10
   9  -4   9 3.11818 0.70256  18
   9  -4   9 3.07274 0.55535  10
   9  -4   9 3.37382 0.33122   9
  -9  -3   9 0.24175 0.32056   9
  -8  -3   9 22.0136 1.23782   8
  -8  -3   9 20.9756 1.87370  12
  -8  -3   9 24.4365 1.56962   9
  -7  -3   9 15.4081 1.35576   9
  -7  -3   9 15.9833 1.12227   8
  -7  -3   9 14.4465 1.71893  12
  -6  -3   9 149.644 7.32941   8
  -6  -3   9 139.229 7.20633   9
  -5  -3   9 411.207 19.8632   9
  -5  -3   9 425.879 20.4822   8
  -4  -3   9 27.1200 3.75719   3
  -4  -3   9 30.3007 1.82993   8
  -4  -3   9 26.9874 3.90014   4
  -3  -3   9 22.2891 1.54124  10
  -3  -3   9 24.6656 1.86322  11
  -3  -3   9 23.6871 3.25071   3
  -3  -3   9 24.3258 3.24932   2
  -3  -3   9 22.2509 1.58233   9
  -3  -3   9 24.2149 1.53171   8
  -3  -3   9 26.6304 3.54735   4
  -2  -3   9 3.28234 0.61814  11
  -2  -3   9 2.22619 0.39519   8
  -2  -3   9 3.36821 1.22756   2
  -2  -3   9 2.14150 0.54103  10
  -2  -3   9 1.54007 0.40148   9
  -2  -3   9 1.18699 1.47900   4
  -2  -3   9 2.66816 1.32468   3
  -1  -3   9 43.6499 2.43660   9
  -1  -3   9 47.6994 4.12699   3
  -1  -3   9 50.8141 4.16742   2
  -1  -3   9 40.5786 2.46801  10
  -1  -3   9 44.7051 2.42970   8
  -1  -3   9 44.9680 4.37884   4
   0  -3   9 1.32262 1.08344   3
   0  -3   9 2.93204 1.48075   4
   0  -3   9 -0.6793 1.03139   7
   0  -3   9 1.23323 0.42576   9
   0  -3   9 1.71335 0.38705   8
   0  -3   9 1.30234 0.47551  10
   0  -3   9 2.54861 1.26658   2
   1  -3   9 6.12462 0.66844  10
   1  -3   9 7.22993 2.04698   4
   1  -3   9 5.91687 0.60669   8
   1  -3   9 6.31457 1.59264   2
   1  -3   9 7.93321 0.74015   9
   1  -3   9 6.98029 1.56356   3
   1  -3   9 6.24085 0.91955  18
   1  -3   9 6.94432 1.73656   7
   2  -3   9 20.5385 2.71374   2
   2  -3   9 17.7852 1.27852  10
   2  -3   9 23.7568 3.36316   4
   2  -3   9 17.9857 1.16419   8
   2  -3   9 16.4278 2.45365   7
   2  -3   9 18.1045 2.57067   3
   2  -3   9 17.7578 1.66206  18
   2  -3   9 17.5018 1.24292   9
   3  -3   9 15.8898 2.66196   2
   3  -3   9 20.0309 2.90253   7
   3  -3   9 17.2369 1.34554  10
   3  -3   9 19.2036 1.32475   9
   3  -3   9 20.9723 1.81758  18
   3  -3   9 17.3632 2.61976   3
   3  -3   9 17.8433 2.98763   4
   3  -3   9 19.6708 1.26244   8
   4  -3   9 2.35543 0.45713   8
   4  -3   9 0.16088 1.45650   2
   4  -3   9 1.71915 0.55130   9
   4  -3   9 1.46188 0.45944  10
   4  -3   9 2.06941 1.31504   7
   4  -3   9 2.42367 1.43578   3
   5  -3   9 2.98906 0.53222   8
   5  -3   9 1.33271 1.91394   2
   5  -3   9 0.18658 2.06359   7
   5  -3   9 4.58421 0.71926   9
   5  -3   9 3.70258 0.75746  10
   6  -3   9 5.91910 0.62649   8
   6  -3   9 6.54966 0.88244  10
   6  -3   9 6.41222 0.80676   9
   7  -3   9 99.7275 4.97794   9
   7  -3   9 97.3120 4.93336   8
   8  -3   9 0.29657 0.68888  18
   8  -3   9 0.38284 0.45041   9
   9  -3   9 0.26152 0.34346   9
   9  -3   9 0.66825 0.40432  18
   9   2  -9 0.00709 0.32018   8
  -9  -2   9 0.39556 0.22742   8
  -9  -2   9 1.03741 0.43549   9
  -9  -2   9 0.59250 0.39695  12
  -8  -2   9 9.27046 1.04351   9
  -8  -2   9 11.7103 0.89590   8
  -7  -2   9 68.5784 3.73067   8
  -6  -2   9 1.32052 0.54820   8
  -5  -2   9 0.72917 0.49824   8
  -4  -2   9 31.7449 3.83408   3
  -4  -2   9 38.7495 4.31772   2
  -4  -2   9 40.5931 4.24786   4
  -4  -2   9 38.5569 2.31364   9
  -4  -2   9 40.9384 2.25568   8
  -3  -2   9 7.48380 1.96044   3
  -3  -2   9 9.48805 2.10030   2
  -3  -2   9 9.58704 0.82196   8
  -3  -2   9 8.96394 0.92399   9
  -3  -2   9 12.8072 2.36368   4
  -2  -2   9 373.494 21.2881   4
  -2  -2   9 335.126 21.6215   3
  -2  -2   9 328.779 20.2801   2
  -2  -2   9 316.847 16.4589   8
  -1  -2   9 6.81085 1.66481   2
  -1  -2   9 11.0215 1.91665   4
  -1  -2   9 6.13738 1.52765   3
   0  -2   9 56.0445 4.62649   2
   0  -2   9 56.4638 4.81209   3
   0  -2   9 63.0113 4.82965   7
   1  -2   9 34.4327 3.21865   7
   1  -2   9 30.5755 3.17964   3
   1  -2   9 30.9725 3.24639   2
   1  -2   9 27.3635 1.71762   8
   2  -2   9 71.7615 5.43795   2
   2  -2   9 60.7836 3.39398   9
   2  -2   9 66.1004 3.43752   8
   2  -2   9 66.2836 5.29605   7
   2  -2   9 65.1861 5.41155   3
   3  -2   9 -0.0951 1.11024   3
   3  -2   9 0.35800 0.35282   8
   3  -2   9 0.34126 0.43446   9
   3  -2   9 -1.1316 1.17040   7
   3  -2   9 0.86539 1.31527   2
   4  -2   9 3.36043 0.63032   9
   4  -2   9 3.01425 1.68059   3
   4  -2   9 3.34420 0.52793   8
   4  -2   9 2.44703 1.89246   2
   5  -2   9 11.5446 1.03558   9
   5  -2   9 12.9946 1.08411   8
   6  -2   9 41.4914 2.33613   8
   6  -2   9 38.4900 2.32728   9
   7  -2   9 0.30299 0.33384   8
   7  -2   9 0.69071 0.51408   9
   8  -2   9 35.0599 1.97733   9
   8  -2   9 33.6878 1.82777   8
   9  -2   9 11.8480 1.04637  18
   9  -2   9 9.37741 0.75769   9
  10   1  -9 5.35410 0.52633   8
 -10  -1   9 6.61631 0.58690   8
   9   1  -9 9.03855 0.82913   8
  -9  -1   9 9.45534 1.08535  12
  -9  -1   9 8.44108 0.80398   8
   8   1  -9 -0.0637 0.50412   8
  -8  -1   9 0.93110 0.54998   8
  -7  -1   9 75.4815 4.12865   8
  -6  -1   9 12.0803 1.14062   8
  -5  -1   9 9.36617 0.95544   8
  -4  -1   9 12.5651 2.31324   4
  -4  -1   9 17.3426 1.28447   8
  -3  -1   9 17.3315 2.42945   4
  -3  -1   9 11.6638 2.06179   2
  -3  -1   9 11.4773 0.97115   8
  -3  -1   9 11.3339 2.05215   3
  -2  -1   9 10.0142 1.94215   3
  -2  -1   9 16.9162 2.35011   4
  -2  -1   9 9.91402 2.07745   2
  -1  -1   9 9.30548 1.70953   2
  -1  -1   9 7.01809 1.65867   3
   0  -1   9 32.9541 3.20975   2
   0  -1   9 34.4524 3.36829   3
   1  -1   9 14.7706 2.31657   3
   1  -1   9 12.6148 2.17904   2
   2  -1   9 17.4323 2.62658   3
   2  -1   9 17.1932 1.25160   8
   2  -1   9 20.7971 2.81908   2
   3  -1   9 1.57918 0.48163   8
   4  -1   9 42.5242 2.46727   8
   5  -1   9 2.51845 0.58178   8
   6  -1   9 49.5819 2.81962   8
   7  -1   9 0.51002 0.43325   8
  -8   1  -9 6.45575 0.80801   8
   8  -1   9 4.86326 0.62826   9
   8  -1   9 7.54184 0.58680   8
  10   0  -9 7.49578 0.73196   8
 -10   0   9 7.44247 0.71207   8
   9   0  -9 101.125 5.11239   8
  -9   0   9 96.4974 5.13864   8
   8   0  -9 31.0976 1.97861   8
  -8   0   9 29.1234 2.01931   8
   7   0  -9 12.2616 1.17677   8
   6   0  -9 6.92352 0.85886   8
   4   0  -9 40.0252 3.84927   6
  -4   0   9 38.6591 3.73639   4
   4   0   9 2.77853 0.52467   8
   5   0   9 13.3420 1.09311   8
  -6   0  -9 19.3593 1.57394   8
   6   0   9 20.8307 1.50746   8
  -7   0  -9 6.03603 0.72494   8
   7   0   9 5.51188 0.70236   8
  -8   0  -9 1.81308 0.52526   8
   8   0   9 1.50507 0.40338   8
  10  -1  -9 40.0732 2.84643  16
  10  -1  -9 42.0754 2.15486   8
  10  -1  -9 38.1973 2.21727   9
 -10   1   9 40.5793 2.35738   8
   9  -1  -9 8.26735 0.79925   8
   8  -1  -9 3.89137 0.66897   8
   7  -1  -9 0.30863 0.47060   8
   6  -1  -9 2.13947 0.58344   8
   5  -1  -9 155.647 8.02949   8
   5  -1  -9 167.159 11.3967   6
   4  -1  -9 0.02388 1.07552   6
   4  -1  -9 -0.0848 0.84552   3
   4  -1  -9 0.91426 0.43499   8
   4  -1  -9 1.79364 1.25457   2
  -4   1   9 0.45256 0.99963   4
   3  -1  -9 14.0334 2.25204   6
   3  -1  -9 10.9973 2.07630   2
   3  -1  -9 12.1594 2.19250   3
   2  -1  -9 47.5631 4.19743   3
   2  -1  -9 42.2208 4.05316   2
   1  -1  -9 77.3091 5.69827   2
   1  -1  -9 70.9028 5.88028   3
   0  -1  -9 3.57813 1.19034   3
   0  -1  -9 2.71307 1.38504   2
  -2  -1  -9 19.9285 1.45857   8
  -3  -1  -9 22.1813 1.59713   8
  -4  -1  -9 0.90160 0.54366   8
  -5  -1  -9 7.21096 0.88210   8
  -6  -1  -9 124.010 6.25188   8
   6   1   9 116.872 6.19358   8
  -7  -1  -9 1.44385 0.53104   8
   7   1   9 0.85150 0.35445   8
  -8  -1  -9 0.45800 0.23872   8
   8   1   9 0.50453 0.24337   8
  10  -2  -9 0.17742 0.52237  16
  10  -2  -9 0.63799 0.34427   9
  10  -2  -9 0.18713 0.21601   8
   9  -2  -9 28.4828 2.44016  16
   9  -2  -9 27.9082 1.65741   8
   9  -2  -9 24.6561 1.75626   9
   8  -2  -9 49.1414 2.72881   8
   8  -2  -9 47.0316 2.75267   9
   7  -2  -9 17.6748 1.27457   8
   7  -2  -9 14.6598 1.32742   9
   6  -2  -9 23.3818 3.43612   6
   6  -2  -9 23.8815 3.59530   2
   6  -2  -9 29.5528 1.68052   8
   6  -2  -9 19.3576 3.31839   3
   6  -2  -9 27.3520 1.75501   9
   5  -2  -9 3.49472 1.64736   2
   5  -2  -9 4.36592 0.67296   9
   5  -2  -9 3.94670 0.82557  15
   5  -2  -9 4.84649 1.68399   3
   5  -2  -9 5.20662 1.69113   6
   5  -2  -9 5.58412 0.64807   8
   4  -2  -9 4.33797 0.60895   8
   4  -2  -9 5.29750 1.72328   6
   4  -2  -9 3.63607 0.63210   9
   4  -2  -9 3.59177 1.43279   3
   4  -2  -9 6.29172 1.75582   2
   3  -2  -9 293.808 15.2483   8
   3  -2  -9 313.126 20.2188   3
   3  -2  -9 340.358 20.5703   6
   3  -2  -9 305.321 18.8771   2
   2  -2  -9 0.59086 1.10040   2
   2  -2  -9 1.43661 1.11952   3
   2  -2  -9 1.05974 0.40323   8
   1  -2  -9 13.6711 2.25188   2
   1  -2  -9 14.8492 1.08736   8
   1  -2  -9 15.9805 2.38885   3
   1  -2  -9 12.7938 1.97397   5
   0  -2  -9 44.6129 2.55019   8
   0  -2  -9 42.3363 4.03129   2
   0  -2  -9 50.8492 4.43596   3
  -1  -2  -9 4.14657 1.62182   2
  -1  -2  -9 4.31705 0.66134   9
  -1  -2  -9 4.79854 1.68425   3
  -1  -2  -9 5.25448 0.62164   8
  -2  -2  -9 90.7013 7.65226   3
  -2  -2  -9 97.6038 7.33110   2
  -2  -2  -9 97.1504 5.01697   8
  -3  -2  -9 31.4821 1.99937   8
  -4  -2  -9 2.60002 0.61002   8
  -5  -2  -9 1.10971 0.54532   8
  -6  -2  -9 15.8166 1.14054   8
  -7  -2  -9 10.7411 0.78497   8
  -7  -2  -9 9.42868 0.83013   9
   7   2   9 7.42115 0.78734   8
  11  -3  -9 11.7895 0.76015   9
  10  -3  -9 7.78496 0.77016   9
  10  -3  -9 6.54796 1.00961  16
   9  -3  -9 1.90892 0.60905   9
   9  -3  -9 3.58952 0.45770   8
   9  -3  -9 4.38842 1.05544  16
   8  -3  -9 116.064 5.66477   9
   8  -3  -9 108.083 5.65796   8
   7  -3  -9 0.71473 0.48787   9
   7  -3  -9 1.83884 1.60651   6
   7  -3  -9 -0.0519 0.38363   8
   7  -3  -9 0.16153 0.47842  10
   6  -3  -9 7.59463 1.11006  15
   6  -3  -9 8.89393 0.87530   9
   6  -3  -9 7.20928 0.86464  10
   6  -3  -9 6.53797 1.95269   6
   6  -3  -9 2.99098 1.68912   3
   6  -3  -9 8.49202 0.79600   8
   6  -3  -9 10.0389 2.39425   2
   5  -3  -9 23.2320 1.44938   8
   5  -3  -9 23.9695 1.97694  15
   5  -3  -9 20.2165 3.00846   2
   5  -3  -9 22.2937 3.04312   3
   5  -3  -9 19.8121 1.42498  10
   5  -3  -9 28.0714 3.60381   6
   5  -3  -9 23.7394 1.51573   9
   4  -3  -9 1.46201 1.25640   2
   4  -3  -9 0.12397 0.38161  10
   4  -3  -9 0.62120 0.39487   9
   4  -3  -9 1.20535 1.11873   3
   4  -3  -9 1.52064 1.39909   6
   3  -3  -9 44.9557 2.58319  10
   3  -3  -9 52.3867 4.44283   2
   3  -3  -9 51.4355 4.47892   3
   3  -3  -9 57.2999 4.91612   6
   3  -3  -9 47.3994 2.60379   8
   3  -3  -9 47.7838 2.62838   9
   2  -3  -9 -1.0202 0.92321   5
   2  -3  -9 -0.1714 0.23524  10
   2  -3  -9 -0.0329 0.35509   9
   2  -3  -9 0.40284 1.22464   6
   2  -3  -9 -0.1191 0.68222   3
   2  -3  -9 0.16225 1.12788   2
   2  -3  -9 0.25062 0.56013  14
   2  -3  -9 -0.1788 0.29659   8
   1  -3  -9 55.8169 3.16683  10
   1  -3  -9 56.9029 4.13768  14
   1  -3  -9 62.0909 3.19296   9
   1  -3  -9 68.4919 5.72840   6
   1  -3  -9 58.5119 3.19597   8
   1  -3  -9 67.9814 5.19481   2
   1  -3  -9 63.6041 5.18460   5
   1  -3  -9 61.0520 5.16312   3
   0  -3  -9 139.798 9.52755   3
   0  -3  -9 124.928 6.36640   9
   0  -3  -9 122.144 6.38683  10
   0  -3  -9 131.517 9.41366   5
   0  -3  -9 138.189 9.10640   2
   0  -3  -9 126.719 6.51052   8
   0  -3  -9 129.863 8.34528  14
  -1  -3  -9 111.356 5.33063   9
  -1  -3  -9 97.3440 5.41162  10
  -1  -3  -9 96.7055 7.94932   5
  -1  -3  -9 102.664 8.18229   3
  -1  -3  -9 115.132 7.98125   2
  -1  -3  -9 108.348 5.41872   8
  -2  -3  -9 4.82940 2.14568   3
  -2  -3  -9 11.1115 1.03947   8
  -2  -3  -9 9.95054 0.94890   9
  -2  -3  -9 11.3704 2.64035   2
  -3  -3  -9 4.23768 0.73136   9
  -3  -3  -9 4.83120 0.69116   8
  -4  -3  -9 26.3646 1.82032   9
  -4  -3  -9 28.7729 1.71957   8
  -5  -3  -9 0.40486 0.35906   8
  -5  -3  -9 -0.1703 0.32117   9
  -6  -3  -9 11.3711 1.01321   9
  -6  -3  -9 11.1539 1.29286  14
  -6  -3  -9 11.4564 0.75899   8
  -7  -3  -9 7.95757 0.95445  14
  -7  -3  -9 7.78545 0.66060   9
  11  -4  -9 2.98510 0.62201  16
  11  -4  -9 2.91138 0.31709   9
  10  -4  -9 220.373 14.0008  16
  10  -4  -9 219.503 10.7813  10
  10  -4  -9 230.511 10.6350   9
   9  -4  -9 47.3356 2.76801  10
   9  -4  -9 52.1092 3.86972  16
   9  -4  -9 52.2460 2.71002   9
   8  -4  -9 10.3611 0.62522   8
   8  -4  -9 13.1058 1.10304   9
   8  -4  -9 16.2299 1.69840  16
   8  -4  -9 14.4711 1.08817  10
   7  -4  -9 3.39874 0.46432   8
   7  -4  -9 3.84252 0.63158   9
   7  -4  -9 2.37601 0.85192  15
   7  -4  -9 3.78726 0.59551  10
   7  -4  -9 3.24650 1.22342  16
   6  -4  -9 4.30762 1.88243   2
   6  -4  -9 1.46988 0.80207  15
   6  -4  -9 1.14127 1.42344   6
   6  -4  -9 1.55860 0.50399  10
   6  -4  -9 2.59455 0.43906   8
   6  -4  -9 1.85446 0.51076   9
   5  -4  -9 292.658 14.1220   8
   5  -4  -9 302.754 18.2758  15
   5  -4  -9 285.525 13.7648   9
   5  -4  -9 277.562 18.8900   3
   5  -4  -9 285.549 17.7871   2
   5  -4  -9 294.686 19.7636   6
   5  -4  -9 283.943 13.8664  10
   4  -4  -9 9.41894 1.86160   3
   4  -4  -9 8.83598 0.83939   9
   4  -4  -9 10.4736 2.62901   6
   4  -4  -9 9.23857 0.78413   8
   4  -4  -9 7.29324 1.77406   2
   4  -4  -9 9.06611 0.85625  10
   4  -4  -9 7.65508 1.23955  15
   3  -4  -9 79.5619 6.20664   3
   3  -4  -9 79.6815 3.95666   9
   3  -4  -9 68.7849 5.10883  14
   3  -4  -9 86.1087 6.10489   2
   3  -4  -9 84.0291 6.96428   6
   3  -4  -9 76.7068 3.98377  10
   2  -4  -9 1.21679 0.40031   8
   2  -4  -9 0.26944 1.19387   2
   2  -4  -9 1.33563 0.42438  10
   2  -4  -9 1.62099 0.68942  14
   2  -4  -9 -0.5589 1.53521   6
   2  -4  -9 -0.2691 1.00115   3
   2  -4  -9 0.65863 0.38849   9
   2  -4  -9 1.38248 1.28003   5
   1  -4  -9 28.0049 1.62707   9
   1  -4  -9 25.6905 2.28306  14
   1  -4  -9 30.0686 4.28296   6
   1  -4  -9 26.3508 3.00281   2
   1  -4  -9 26.9017 1.60572   8
   1  -4  -9 27.5481 3.18503   3
   1  -4  -9 23.8152 3.40818   5
   1  -4  -9 26.9560 1.63188  10
   0  -4  -9 2.41533 0.43179   8
   0  -4  -9 1.88446 0.49058   9
   0  -4  -9 0.83377 1.40195   5
   0  -4  -9 1.85109 0.51216  10
   0  -4  -9 2.69130 2.13209   6
   0  -4  -9 -0.3272 1.23059   3
   0  -4  -9 1.64447 1.45691   2
   0  -4  -9 1.24534 0.79812  14
  -1  -4  -9 1.58738 1.68956   2
  -1  -4  -9 3.53965 0.53017   8
  -1  -4  -9 4.43927 1.12125  14
  -1  -4  -9 3.05544 1.40098   5
  -1  -4  -9 5.63041 0.74550  10
  -1  -4  -9 5.36615 0.69365   9
  -1  -4  -9 3.90320 1.79412   3
  -2  -4  -9 0.89299 0.44951  10
  -2  -4  -9 -0.6565 0.81818  14
  -2  -4  -9 0.54288 0.35441   8
  -2  -4  -9 0.40220 0.45249   9
  -3  -4  -9 1.99469 0.57741  10
  -3  -4  -9 2.02216 0.58778   9
  -3  -4  -9 2.69946 0.83324  14
  -3  -4  -9 2.00316 0.46595   8
  -4  -4  -9 1.08711 0.90827  14
  -4  -4  -9 1.36671 0.34304   8
  -4  -4  -9 1.21572 0.40674   9
  -5  -4  -9 24.7639 1.51729   9
  -5  -4  -9 24.7592 2.13242  14
  -6  -4  -9 5.16552 0.55647   9
  -6  -4  -9 5.65966 0.80821  14
  10  -5  -9 126.134 6.26139  10
  10  -5  -9 131.609 6.06592   9
  10  -5  -9 124.193 8.23105  16
   9  -5  -9 36.9888 2.15977  10
   9  -5  -9 37.4015 2.93808  16
   9  -5  -9 35.2857 1.97636   9
   8  -5  -9 26.0251 1.49238   9
   8  -5  -9 23.0563 2.27105  16
   8  -5  -9 20.1642 2.10982  15
   8  -5  -9 23.6951 1.60925  10
   7  -5  -9 1.42073 0.80130  15
   7  -5  -9 1.42206 0.42583  10
   7  -5  -9 1.05544 0.43993   9
   7  -5  -9 0.92973 1.06169  16
   6  -5  -9 74.5869 4.11630  10
   6  -5  -9 81.5238 4.04354   9
   6  -5  -9 84.1864 5.60271  15
   6  -5  -9 86.6347 5.83833  16
   6  -5  -9 61.3595 7.10241   6
   5  -5  -9 1.15537 2.05329   6
   5  -5  -9 0.18634 1.31616   2
   5  -5  -9 0.56753 0.39887  10
   5  -5  -9 0.32951 0.36968   9
   5  -5  -9 -1.3062 0.77247  16
   5  -5  -9 0.93489 0.85064  15
   4  -5  -9 -0.1969 0.80733  15
   4  -5  -9 -0.1205 1.08211   3
   4  -5  -9 1.66496 1.33567   2
   4  -5  -9 0.35178 0.63666  14
   4  -5  -9 0.54705 0.31509  10
   4  -5  -9 0.53657 0.54333  13
   4  -5  -9 -0.2729 1.82577   6
   4  -5  -9 0.80660 0.38743   9
   3  -5  -9 23.5198 1.47462   9
   3  -5  -9 25.1432 3.01897   2
   3  -5  -9 23.8031 2.47430  15
   3  -5  -9 22.7379 2.11334  14
   3  -5  -9 23.4747 1.51362  10
   3  -5  -9 18.3855 2.70755   3
   3  -5  -9 25.3303 1.88138  13
   3  -5  -9 19.6204 3.74556   6
   2  -5  -9 37.9975 5.02141   6
   2  -5  -9 34.2258 3.83690   5
   2  -5  -9 30.3881 3.44592   3
   2  -5  -9 36.5772 1.99567   9
   2  -5  -9 37.0423 3.64941   2
   2  -5  -9 33.1378 2.01617  10
   2  -5  -9 37.6149 3.20045  15
   2  -5  -9 33.4794 2.80038  14
   1  -5  -9 4.68225 1.23669  15
   1  -5  -9 5.83319 1.10682  14
   1  -5  -9 3.02082 2.01701   6
   1  -5  -9 3.37157 1.42153   3
   1  -5  -9 2.66317 1.48018   2
   1  -5  -9 3.71590 1.83422   5
   1  -5  -9 4.14498 0.62029  10
   1  -5  -9 4.11590 0.58239   9
   0  -5  -9 0.24840 0.41931  10
   0  -5  -9 0.70855 1.28174   5
   0  -5  -9 1.16099 0.92605  15
   0  -5  -9 0.07681 0.82753  14
   0  -5  -9 -0.1946 1.48674   2
   0  -5  -9 -0.0462 0.39653   9
  -1  -5  -9 145.736 6.91376   9
  -1  -5  -9 113.620 10.3729   5
  -1  -5  -9 138.273 9.27776  14
  -1  -5  -9 152.185 7.00595  10
  -2  -5  -9 1.45214 0.50206   9
  -2  -5  -9 2.09233 0.57625  10
  -2  -5  -9 1.49697 0.81194  14
  -3  -5  -9 -0.2091 0.43147   9
  -3  -5  -9 -0.0706 0.60391  14
  -3  -5  -9 0.61833 0.50458  10
  -4  -5  -9 6.35515 0.72849  10
  -4  -5  -9 6.28015 1.06633  14
  -4  -5  -9 5.12856 0.61560   9
  -5  -5  -9 21.0516 1.72082  14
  -5  -5  -9 18.8373 1.10333   9
  -5  -5  -9 20.8668 1.36450  10
  10  -6  -9 2.88088 0.76844  16
  10  -6  -9 1.98458 0.43269  10
   9  -6  -9 -0.1729 0.26809  10
   9  -6  -9 -0.1649 0.87540  16
   8  -6  -9 121.441 8.13526  15
   8  -6  -9 128.955 8.36689  16
   8  -6  -9 121.713 5.88441   9
   7  -6  -9 14.1536 1.13239  10
   7  -6  -9 12.8086 1.88329  16
   7  -6  -9 13.9883 0.93713   9
   7  -6  -9 13.8896 1.57749  15
   6  -6  -9 14.9901 0.91761   9
   6  -6  -9 15.2037 1.03501  10
   6  -6  -9 16.0954 1.82614  15
   6  -6  -9 9.98835 1.33009  14
   6  -6  -9 9.65949 1.64692  16
   5  -6  -9 1.28694 0.88677  16
   5  -6  -9 1.62284 0.61505  14
   5  -6  -9 1.34767 1.75590   6
   5  -6  -9 0.88035 0.43344  10
   5  -6  -9 1.81672 0.40178   9
   5  -6  -9 1.89461 0.79831  15
   4  -6  -9 138.138 8.33904  13
   4  -6  -9 139.673 9.14009  15
   4  -6  -9 128.068 8.79693  14
   4  -6  -9 139.968 6.69423  10
   4  -6  -9 137.042 6.52724   9
   4  -6  -9 121.856 10.9202   6
   3  -6  -9 8.07847 0.71071   9
   3  -6  -9 7.69302 1.24629  14
   3  -6  -9 7.59840 1.01698  13
   3  -6  -9 3.51956 1.97679   5
   3  -6  -9 6.67439 3.13498   6
   3  -6  -9 7.64366 0.75329  10
   3  -6  -9 7.17931 1.48006  15
   2  -6  -9 13.4534 1.65101  14
   2  -6  -9 12.6963 1.01994  10
   2  -6  -9 11.7348 0.93986   9
   2  -6  -9 5.31078 3.40935   6
   2  -6  -9 12.1214 1.72910  15
   2  -6  -9 12.5503 2.59903   5
   2  -6  -9 11.2528 1.33399  13
   1  -6  -9 35.6733 1.85921   9
   1  -6  -9 31.4479 3.02441  15
   1  -6  -9 23.8901 4.08854   5
   1  -6  -9 35.3771 2.92189  14
   1  -6  -9 28.1807 2.40155  13
   1  -6  -9 36.3080 1.97877  10
   0  -6  -9 5.81378 0.62905   9
   0  -6  -9 6.37486 1.29952  14
   0  -6  -9 6.70994 0.77188  10
  -1  -6  -9 22.8558 1.42610   9
  -1  -6  -9 27.2657 2.50379  14
  -1  -6  -9 22.8275 1.55129  10
  -2  -6  -9 19.2995 1.91811  14
  -2  -6  -9 18.0323 1.35209  10
  -2  -6  -9 17.2272 1.12357   9
  -3  -6  -9 0.41958 0.83086  14
  -3  -6  -9 0.09506 0.24951   9
  -3  -6  -9 0.07824 0.41900  10
  -4  -6  -9 5.52405 0.86210  14
  -4  -6  -9 3.83046 0.55633  10
  10  -7  -9 3.22776 0.34867  10
  10  -7  -9 1.74330 0.59258  16
   9  -7  -9 43.4322 3.24258  15
   9  -7  -9 47.1808 2.41281  10
   9  -7  -9 51.0112 3.62317  16
   8  -7  -9 12.1457 0.92160  10
   8  -7  -9 13.9288 1.72905  16
   8  -7  -9 11.5317 1.39267  15
   7  -7  -9 7.09170 1.35474  16
   7  -7  -9 9.47600 1.40137  15
   6  -7  -9 1.02331 0.70119  14
   6  -7  -9 0.85566 0.91811  15
   6  -7  -9 0.38153 0.32395  10
   6  -7  -9 0.50260 0.86856  16
   5  -7  -9 13.7955 1.67313  14
   5  -7  -9 17.0322 1.12581  10
   5  -7  -9 14.0551 1.88268  15
   4  -7  -9 40.9899 2.23496  10
   4  -7  -9 39.3447 2.83698  13
   4  -7  -9 43.1563 3.64126  15
   4  -7  -9 39.6144 3.19750  14
   3  -7  -9 5.03832 1.22691  15
   3  -7  -9 5.38995 0.81829  13
   3  -7  -9 4.89854 0.97405  14
   3  -7  -9 4.23778 0.58637  10
   2  -7  -9 12.5340 1.69364  15
   2  -7  -9 9.31256 1.47526  14
   2  -7  -9 10.5999 1.15691  13
   2  -7  -9 11.6103 0.93287  10
   1  -7  -9 1.02143 0.39197  10
   1  -7  -9 0.60988 0.66607  15
   1  -7  -9 0.66906 0.88668  14
   1  -7  -9 0.73028 0.63301  13
   0  -7  -9 7.01006 0.92932  13
   0  -7  -9 9.36747 0.85762  10
   0  -7  -9 10.1690 1.39403  14
  -1  -7  -9 3.56786 0.95893  14
  -1  -7  -9 4.29266 0.52523  10
  -2  -7  -9 3.59123 0.50493  10
  -2  -7  -9 2.15725 0.99229  14
  -3  -7  -9 49.8957 2.46985  10
  -3  -7  -9 45.8532 3.33376  14
   9  -8  -9 1.23621 0.61571  16
   9  -8  -9 0.33872 0.41201  15
   8  -8  -9 0.35301 0.54899  15
   8  -8  -9 0.55064 0.21287  10
   8  -8  -9 1.00377 0.55943  16
   7  -8  -9 0.76643 0.67804  15
   7  -8  -9 0.44807 0.22321  10
   7  -8  -9 0.58420 0.43677  14
   6  -8  -9 118.862 7.66851  14
   6  -8  -9 118.253 8.04354  15
   5  -8  -9 25.0717 2.21066  14
   5  -8  -9 28.2187 2.56580  15
   5  -8  -9 27.0582 1.49682  10
   4  -8  -9 2.25982 0.89139  14
   4  -8  -9 2.63268 1.01518  15
   4  -8  -9 1.80027 0.72178  13
   4  -8  -9 2.34135 0.36917  10
   3  -8  -9 0.21871 0.26244  10
   3  -8  -9 0.40832 0.83322  14
   3  -8  -9 0.13203 0.42900  13
   3  -8  -9 -0.7902 0.98795  15
   2  -8  -9 7.79220 1.25769  14
   2  -8  -9 4.91709 0.82166  13
   2  -8  -9 5.24369 1.15316  15
   1  -8  -9 0.41812 0.44430  13
   1  -8  -9 -0.1195 0.26637  10
   1  -8  -9 -0.1732 0.59270  14
   0  -8  -9 28.1542 2.14041  13
   0  -8  -9 32.7396 1.66531  10
   0  -8  -9 30.1307 2.57021  14
  -1  -8  -9 1.79165 0.29163  10
  -1  -8  -9 1.78798 0.75630  14
  -2  -8  -9 111.222 6.80178  14
  -2  -8  -9 101.793 4.98943  10
   8  -9  -9 9.61215 1.12983  15
   7  -9  -9 89.4053 5.49060  14
   7  -9  -9 79.2015 5.71598  15
   6  -9  -9 1.13382 0.75863  15
   6  -9  -9 1.14238 0.50759  14
   5  -9  -9 4.45353 1.07888  15
   5  -9  -9 4.17105 0.81277  14
   4  -9  -9 21.2016 2.06521  15
   4  -9  -9 20.1228 1.85289  14
   4  -9  -9 20.6016 1.64901  13
   3  -9  -9 28.4186 2.05043  13
   3  -9  -9 26.3338 2.50983  15
   3  -9  -9 29.8156 2.36229  14
   2  -9  -9 34.0404 2.41816  13
   2  -9  -9 37.5228 2.81161  14
   1  -9  -9 6.87462 1.04726  14
   1  -9  -9 4.83602 0.66959  13
   0  -9  -9 21.5219 1.81763  14
   6 -10  -9 3.51846 0.57230  14
   6 -10  -9 5.99230 0.89031  15
   5 -10  -9 2.26510 0.64422  15
   5 -10  -9 2.02020 0.59740  14
   4 -10  -9 0.89288 0.50825  14
   3 -10  -9 19.8289 1.52239  14
   3 -10  -9 14.1636 1.26179  13
   0 -10  10 30.3478 2.18630  11
   1 -10  10 0.12050 0.45771  11
   1 -10  10 -0.4236 0.41879  18
   2 -10  10 0.29403 0.54100  18
   2 -10  10 0.47891 0.50521  11
   3 -10  10 2.50219 0.62506  11
   3 -10  10 2.58163 0.63576  18
   4 -10  10 18.9464 1.61946  18
   5 -10  10 1.63118 0.54175  18
  -2  -9  10 31.3945 2.22384  11
  -2  -9  10 35.0434 2.44851  12
  -1  -9  10 5.20397 0.82566  12
  -1  -9  10 10.4800 1.09519  11
  -1  -9  10 8.43477 0.91135  18
   0  -9  10 6.55579 0.91640  18
   0  -9  10 5.43360 0.88167  11
   1  -9  10 10.7373 1.30796  18
   1  -9  10 11.1420 1.39509  11
   2  -9  10 89.0094 6.04380  11
   2  -9  10 94.0775 5.97171  18
   3  -9  10 0.48314 0.55208  17
   3  -9  10 0.65714 0.87353  18
   3  -9  10 0.84980 0.64147  11
   4  -9  10 1.08278 0.51608  17
   4  -9  10 0.51875 0.59180  18
   4  -9  10 1.42458 0.55598  11
   5  -9  10 0.55793 0.45972  17
   5  -9  10 -1.7301 0.76591  18
   6  -9  10 -0.3220 0.56786  18
   6  -9  10 -0.3114 0.32658  17
  -4  -8  10 9.99354 1.07805  12
  -3  -8  10 9.73909 1.11903  11
  -3  -8  10 13.3811 1.45659  12
  -3  -8  10 13.6905 0.78839  10
  -2  -8  10 2.70254 0.83872  12
  -2  -8  10 1.63709 0.34398  10
  -2  -8  10 3.31081 0.74842  11
  -1  -8  10 14.3026 1.46879  11
  -1  -8  10 12.1938 1.46474  18
  -1  -8  10 10.1874 1.43804  12
  -1  -8  10 12.6088 0.85252  10
   0  -8  10 14.9542 1.66791  11
   0  -8  10 14.1186 1.73651  18
   0  -8  10 15.3914 1.01325  10
   1  -8  10 32.7642 2.92690  11
   1  -8  10 31.9123 1.71467  10
   1  -8  10 29.0049 2.45605  18
   2  -8  10 10.1771 1.43802  18
   2  -8  10 13.1508 1.34259  17
   2  -8  10 8.22354 1.51132  11
   2  -8  10 12.3483 0.80371  10
   3  -8  10 21.2753 1.97953  18
   3  -8  10 19.6169 1.17938  10
   3  -8  10 17.7427 1.95162  11
   3  -8  10 20.1359 1.90290  17
   4  -8  10 0.19914 0.67230  18
   4  -8  10 0.77636 0.28057  10
   4  -8  10 -0.1118 0.68566  17
   4  -8  10 0.41946 0.54470  11
   5  -8  10 2.66291 0.32936  10
   5  -8  10 2.32529 0.62190  17
   5  -8  10 2.58883 0.80421  18
   6  -8  10 1.31729 0.50921  17
   6  -8  10 0.70897 0.71076  18
   7  -8  10 10.7409 1.18275  18
   7  -8  10 6.78015 0.81878  17
  -5  -7  10 15.0297 0.96885  10
  -5  -7  10 16.8697 1.53093  12
  -4  -7  10 8.24635 1.20398  12
  -4  -7  10 6.57410 0.67775  10
  -3  -7  10 4.37150 1.29838  12
  -3  -7  10 3.31040 0.57246  10
  -3  -7  10 3.89891 0.75238  11
  -2  -7  10 22.3118 2.23653  12
  -2  -7  10 21.0762 1.91562  11
  -2  -7  10 22.1153 1.37408  10
  -1  -7  10 45.6325 3.40446  18
  -1  -7  10 50.5605 3.87099  12
  -1  -7  10 48.8884 3.54857  11
  -1  -7  10 51.8287 2.68143  10
   0  -7  10 9.90677 1.33905  11
   0  -7  10 8.12186 0.77616  10
   0  -7  10 5.62282 1.11843  18
   1  -7  10 7.30460 1.25716  18
   1  -7  10 6.37898 0.72240  10
   1  -7  10 8.52478 1.13820  17
   1  -7  10 8.45489 1.44606  11
   2  -7  10 24.0009 2.01638  17
   2  -7  10 20.9026 2.04293  18
   2  -7  10 21.1047 2.21667  11
   2  -7  10 21.7346 1.42081  10
   3  -7  10 13.9361 1.03872  10
   3  -7  10 10.0591 1.27065  17
   3  -7  10 16.1537 1.82508  18
   3  -7  10 11.5009 1.61911  11
   4  -7  10 4.76650 0.56738  10
   4  -7  10 3.79728 0.87113  17
   4  -7  10 3.80882 1.05382  18
   4  -7  10 2.33975 0.85410  11
   5  -7  10 9.16150 1.15046  17
   5  -7  10 11.6809 0.92311  10
   5  -7  10 10.0653 1.47590  18
   6  -7  10 0.72771 0.71316  18
   6  -7  10 1.12328 0.31647  10
   6  -7  10 1.46459 0.55219  17
   7  -7  10 6.21496 0.94105  18
   7  -7  10 5.28748 0.52736  10
   8  -7  10 19.1361 1.05634  10
   8  -7  10 20.2809 1.62391  18
  -6  -6  10 16.7119 1.09427  10
  -6  -6  10 17.5812 1.56139  12
  -5  -6  10 10.6698 0.69485   9
  -5  -6  10 12.0703 1.41300  12
  -5  -6  10 9.62985 0.91609  10
  -4  -6  10 4.48166 0.55342   9
  -4  -6  10 3.61816 0.67554  10
  -4  -6  10 4.90055 1.06023  12
  -3  -6  10 1.35276 0.63234  11
  -3  -6  10 2.16605 0.58548  10
  -3  -6  10 1.77743 1.12080  12
  -3  -6  10 2.43021 0.52878   9
  -2  -6  10 48.8565 2.69773  10
  -2  -6  10 45.6255 3.50867  11
  -2  -6  10 48.4123 2.52452   9
  -1  -6  10 267.036 12.4958   9
  -1  -6  10 264.364 15.8066  11
  -1  -6  10 257.291 12.6759  10
  -1  -6  10 265.961 16.7682  12
   0  -6  10 0.47994 0.46481  10
   0  -6  10 -1.0468 2.62216   4
   0  -6  10 -0.1235 0.83416  11
   0  -6  10 0.15838 0.66440  17
   0  -6  10 0.97434 0.76324  18
   1  -6  10 0.30980 0.32601  10
   1  -6  10 -0.1519 0.76557  18
   1  -6  10 -0.2947 0.64019  17
   1  -6  10 0.17734 2.02371   4
   1  -6  10 -0.2340 0.62037  11
   1  -6  10 0.09233 0.36540   9
   2  -6  10 30.5893 1.61725   9
   2  -6  10 22.1354 4.54003   4
   2  -6  10 24.2583 2.65352  11
   2  -6  10 23.6544 3.80475   7
   2  -6  10 29.4819 2.13967  17
   2  -6  10 29.1962 2.51613  18
   3  -6  10 91.4673 4.47252  10
   3  -6  10 85.4445 5.86640  11
   3  -6  10 90.0114 4.29927   9
   3  -6  10 83.0304 5.38560  17
   3  -6  10 84.2843 5.80568  18
   4  -6  10 -0.0116 0.35942   9
   4  -6  10 0.48245 0.68804  17
   4  -6  10 -0.8188 0.71381  11
   4  -6  10 -0.1891 0.83732  18
   4  -6  10 1.72231 0.50023  10
   5  -6  10 18.4812 1.38076  10
   5  -6  10 21.1910 1.20334   9
   5  -6  10 21.1111 2.00869  18
   6  -6  10 -0.0241 0.17361   9
   6  -6  10 -0.3964 0.53030  18
   6  -6  10 0.12163 0.40718  10
   7  -6  10 21.0966 1.40741  10
   7  -6  10 22.4265 1.97910  18
   8  -6  10 67.4382 4.35468  18
   8  -6  10 64.9164 3.32999  10
  -7  -5  10 0.27142 0.35381  10
  -7  -5  10 -0.2864 0.23817   9
  -7  -5  10 -0.2204 0.46121  12
  -6  -5  10 0.49860 0.83679  12
  -6  -5  10 0.82355 0.53783  10
  -6  -5  10 0.16904 0.40092   9
  -5  -5  10 1.41103 0.51192   9
  -5  -5  10 0.87685 0.57313  10
  -5  -5  10 0.86895 0.68390  12
  -4  -5  10 0.93025 0.49586   9
  -4  -5  10 1.58051 0.60818  10
  -4  -5  10 0.67007 0.69400  12
  -3  -5  10 95.4639 5.11832   9
  -3  -5  10 96.5903 6.46001  11
  -3  -5  10 114.200 7.19852  12
  -3  -5  10 105.965 5.25975  10
  -2  -5  10 2.74833 0.83662  11
  -2  -5  10 2.05804 0.60778  10
  -2  -5  10 -0.9689 2.19107   4
  -2  -5  10 2.29700 0.97355  12
  -1  -5  10 68.4154 4.58256  11
  -1  -5  10 67.2598 4.86887  12
  -1  -5  10 67.1585 3.57722  10
  -1  -5  10 71.8946 6.91204   4
  -1  -5  10 62.5769 5.39498   2
  -1  -5  10 64.8456 3.47244   9
   0  -5  10 11.5295 2.05421   3
   0  -5  10 16.8285 1.26109  10
   0  -5  10 12.2146 2.30060   2
   0  -5  10 16.5714 1.56751  17
   0  -5  10 14.9742 3.29964   4
   0  -5  10 14.4976 1.12999   9
   0  -5  10 9.96225 1.37316  18
   0  -5  10 17.7930 1.91650  11
   1  -5  10 25.0647 1.49601   9
   1  -5  10 22.1101 1.96541  18
   1  -5  10 23.2943 2.37476  11
   1  -5  10 21.8582 2.85956   2
   1  -5  10 19.9038 2.88193   3
   1  -5  10 23.9183 1.99003  17
   1  -5  10 24.6212 4.01067   4
   2  -5  10 337.086 24.3250   4
   2  -5  10 395.698 17.6429   9
   2  -5  10 393.781 17.8134  10
   2  -5  10 358.607 22.1594  11
   2  -5  10 366.521 22.6234  18
   3  -5  10 38.0841 2.85191  11
   3  -5  10 34.8449 1.98253   9
   3  -5  10 37.0401 2.10931  10
   3  -5  10 33.1089 2.83796  18
   3  -5  10 33.1340 4.46657   7
   3  -5  10 27.4718 3.47686   2
   4  -5  10 32.2260 2.64285  11
   4  -5  10 31.4066 4.28096   7
   4  -5  10 33.6026 1.89478   9
   4  -5  10 33.5396 2.01358  10
   4  -5  10 30.5974 2.61633  18
   5  -5  10 4.16225 0.59127   9
   5  -5  10 3.92482 0.93316  18
   5  -5  10 4.42558 0.64256  10
   6  -5  10 18.0853 1.76552  18
   6  -5  10 15.4241 1.19858  10
   6  -5  10 16.6122 1.13154   9
   7  -5  10 6.96821 1.15964  18
   7  -5  10 10.3493 0.74648   9
   7  -5  10 10.2804 0.89133  10
   8  -5  10 9.90566 0.57783   9
   8  -5  10 10.3085 1.20181  18
   8  -5  10 11.1217 0.85776  10
  -8  -4  10 136.916 8.56663  12
  -8  -4  10 134.253 6.46677   9
  -7  -4  10 149.706 7.33890   9
  -7  -4  10 152.633 9.71992  12
  -6  -4  10 7.52126 1.13934  12
  -6  -4  10 7.46208 0.84744   9
  -6  -4  10 6.39038 0.89957  10
  -6  -4  10 6.98612 0.48039   8
  -5  -4  10 1.97934 0.89573  12
  -5  -4  10 4.08955 0.66352  10
  -5  -4  10 3.81376 0.69680   9
  -5  -4  10 3.19094 0.41061   8
  -4  -4  10 0.04985 0.30512   8
  -4  -4  10 -0.1059 0.34522  10
  -4  -4  10 0.03262 0.36894   9
  -3  -4  10 0.89338 2.21794   4
  -3  -4  10 2.30142 0.53006  10
  -3  -4  10 0.01606 1.81380   2
  -3  -4  10 2.79530 0.76708  11
  -3  -4  10 3.41465 0.48515   8
  -3  -4  10 3.52545 0.66766   9
  -2  -4  10 36.7823 4.52343   2
  -2  -4  10 53.8732 2.79895  10
  -2  -4  10 49.8103 2.71065   9
  -2  -4  10 40.2099 4.42081   3
  -2  -4  10 50.7154 2.65120   8
  -2  -4  10 48.1300 3.44041  11
  -2  -4  10 47.2094 5.02749   4
  -1  -4  10 0.40271 1.16323   4
  -1  -4  10 0.84005 1.11067   3
  -1  -4  10 0.03251 0.43140  11
  -1  -4  10 0.87720 0.46883   9
  -1  -4  10 0.03352 1.40897   2
  -1  -4  10 -0.0148 0.31725   8
  -1  -4  10 0.55441 0.47399  10
   0  -4  10 4.39090 1.67345   2
   0  -4  10 5.31037 2.14728   4
   0  -4  10 1.35932 1.18753   3
   0  -4  10 6.90059 1.00883  11
   0  -4  10 3.10768 0.58435  10
   0  -4  10 4.17096 0.80373  18
   0  -4  10 4.73146 0.56162   8
   0  -4  10 4.09639 0.62156   9
   1  -4  10 80.1889 4.04253   9
   1  -4  10 75.1284 5.19556  18
   1  -4  10 82.1101 6.23966   2
   1  -4  10 74.6921 6.38903   7
   1  -4  10 77.5548 6.24767   3
   1  -4  10 86.7424 7.07038   4
   1  -4  10 81.1531 4.12008  10
   1  -4  10 78.5428 4.03766   8
   2  -4  10 0.90997 0.43097   9
   2  -4  10 1.92754 1.49117   2
   2  -4  10 0.77114 1.21835   3
   2  -4  10 2.63433 1.68250   4
   2  -4  10 1.14600 0.55117  18
   2  -4  10 1.21783 0.32594   8
   2  -4  10 0.41909 0.43993  10
   2  -4  10 -0.8527 1.47002   7
   3  -4  10 22.5220 1.49669  10
   3  -4  10 20.5539 1.24910   8
   3  -4  10 16.9647 3.10711   7
   3  -4  10 22.6591 2.06293  18
   3  -4  10 18.4082 2.86594   2
   3  -4  10 13.8082 2.63930   3
   3  -4  10 18.7368 3.51183   4
   3  -4  10 22.4374 1.45917   9
   4  -4  10 61.2270 6.15128   7
   4  -4  10 72.6362 3.75765   9
   4  -4  10 74.0072 4.80833  11
   4  -4  10 68.4998 3.79333  10
   4  -4  10 73.5872 3.66520   8
   4  -4  10 76.3387 4.94664  18
   5  -4  10 44.1198 3.18625  18
   5  -4  10 42.0075 2.16765   8
   5  -4  10 39.1644 2.46056  10
   5  -4  10 42.6926 2.39984   9
   6  -4  10 17.6885 1.95761  18
   6  -4  10 18.3152 1.32224   9
   6  -4  10 20.3272 1.47584  10
   7  -4  10 3.56013 0.80886  18
   7  -4  10 3.93238 0.56990   9
   7  -4  10 4.10975 0.62147  10
   8  -4  10 5.60674 0.51949   9
   8  -4  10 4.93105 0.70757  10
   8  -4  10 6.33877 0.88659  18
  -8  -3  10 0.59095 0.40389   9
  -8  -3  10 1.27894 0.56839  12
  -7  -3  10 4.43798 0.52503   8
  -7  -3  10 5.50888 0.70488   9
  -7  -3  10 3.34373 0.85899  12
  -6  -3  10 3.87934 0.66507   9
  -6  -3  10 4.36731 0.62785   8
  -5  -3  10 3.31620 0.53543   8
  -5  -3  10 3.49576 0.75284   9
  -4  -3  10 1.79195 2.19872   4
  -4  -3  10 1.47468 0.53149   8
  -3  -3  10 -0.1511 1.39039   3
  -3  -3  10 -0.1097 0.45758   9
  -3  -3  10 1.33454 1.80524   4
  -3  -3  10 0.41659 0.54409  10
  -3  -3  10 -1.3465 1.56525   2
  -3  -3  10 -0.5050 0.39162   8
  -3  -3  10 -0.6831 0.52462  11
  -2  -3  10 2.17199 0.56196   9
  -2  -3  10 2.41125 0.71572  11
  -2  -3  10 0.89101 0.54108  10
  -2  -3  10 0.97311 1.59086   2
  -2  -3  10 0.45606 1.24685   3
  -2  -3  10 2.11283 0.48656   8
  -2  -3  10 1.45115 1.67556   4
  -1  -3  10 0.91448 1.49613   4
  -1  -3  10 0.83809 0.52537  10
  -1  -3  10 0.57911 0.45645   9
  -1  -3  10 0.12829 1.29757   2
  -1  -3  10 0.93741 0.42332   8
  -1  -3  10 1.09455 0.96005   3
   0  -3  10 104.494 7.29908   2
   0  -3  10 99.3282 5.06497  10
   0  -3  10 98.3793 5.07767   8
   0  -3  10 92.5923 7.41147   3
   0  -3  10 97.3656 4.97616   9
   0  -3  10 113.304 8.09834   4
   1  -3  10 1.34910 1.39236   2
   1  -3  10 0.12790 1.12762   3
   1  -3  10 -0.0949 1.00274   4
   1  -3  10 0.11324 0.40764  18
   1  -3  10 -0.0474 0.44558  10
   1  -3  10 -0.0607 0.31334   8
   1  -3  10 0.09899 0.39811   9
   1  -3  10 -0.8841 1.13714   7
   2  -3  10 47.7342 3.30915  18
   2  -3  10 47.4348 2.52070   8
   2  -3  10 41.3072 2.52823  10
   2  -3  10 41.8950 4.34234   2
   2  -3  10 49.5342 2.58046   9
   2  -3  10 52.5296 5.06681   4
   2  -3  10 40.8618 4.38625   3
   3  -3  10 0.92982 0.68212  18
   3  -3  10 0.68292 0.93473   3
   3  -3  10 1.07608 0.36312   8
   3  -3  10 1.91737 0.52152   9
   3  -3  10 0.35321 1.51965   2
   3  -3  10 1.34477 0.44234  10
   3  -3  10 2.82011 1.92331   4
   4  -3  10 54.0161 3.09889  10
   4  -3  10 55.6054 3.08970   9
   4  -3  10 59.5801 3.98475  18
   4  -3  10 57.8804 3.03543   8
   4  -3  10 50.2426 5.38121   2
   5  -3  10 2.81607 0.54849   9
   5  -3  10 0.98803 0.66020  10
   5  -3  10 2.49931 0.46870   8
   6  -3  10 1.74886 0.59053   9
   6  -3  10 2.19468 0.43233   8
   6  -3  10 2.05111 0.69759  18
   7  -3  10 0.31001 0.21716   8
   7  -3  10 0.14618 0.50415  18
   7  -3  10 0.95628 0.48222   9
   8  -3  10 27.4817 2.24692  18
   8  -3  10 28.7155 1.61257   9
   9   2 -10 -0.1067 0.43514   8
  -9  -2  10 0.25178 0.37189   9
  -9  -2  10 0.07895 0.33620  12
  -9  -2  10 0.09973 0.18854   8
  -8  -2  10 3.01093 0.43798   8
  -8  -2  10 2.06044 0.51162   9
  -7  -2  10 0.91104 0.65434   9
  -7  -2  10 1.85484 0.56681   8
  -6  -2  10 22.0172 1.57027   8
  -6  -2  10 19.2073 1.61309   9
  -5  -2  10 29.6510 1.93863   8
  -4  -2  10 0.54996 0.43029   9
  -4  -2  10 1.79995 1.92752   4
  -4  -2  10 -0.2222 0.46250   8
  -3  -2  10 18.3976 2.84249   2
  -3  -2  10 15.6146 2.72980   3
  -3  -2  10 18.8626 1.32875   9
  -3  -2  10 22.1438 3.26259   4
  -3  -2  10 18.0869 1.34533   8
  -2  -2  10 130.344 6.98210   9
  -2  -2  10 135.380 10.1577   3
  -2  -2  10 146.217 7.20916   8
  -2  -2  10 143.783 9.76763   2
  -2  -2  10 166.896 10.4062   4
  -1  -2  10 18.2976 1.33229   9
  -1  -2  10 22.6597 3.04527   4
  -1  -2  10 22.7545 2.96716   2
  -1  -2  10 22.3727 1.40535   8
  -1  -2  10 21.5191 2.62734   3
   0  -2  10 59.9653 5.02267   3
   0  -2  10 65.2777 5.14275   2
   0  -2  10 53.9670 3.05953   9
   0  -2  10 57.1296 3.09656   8
   1  -2  10 9.06275 0.86049   9
   1  -2  10 9.45091 1.15446  18
   1  -2  10 6.58777 1.78194   3
   1  -2  10 10.5361 0.87490   8
   1  -2  10 8.08015 1.74273   2
   2  -2  10 0.35170 0.33711   8
   2  -2  10 3.14238 1.62952   2
   2  -2  10 0.00380 1.33017   3
   2  -2  10 1.55534 0.49187   9
   3  -2  10 30.3620 1.88073   9
   3  -2  10 30.4952 1.74293   8
   3  -2  10 23.6698 3.55375   2
   3  -2  10 23.3615 3.46837   3
   4  -2  10 -0.2557 1.19113   3
   4  -2  10 0.35376 0.36611   9
   4  -2  10 0.50399 0.41450   8
   5  -2  10 5.41720 0.68469   8
   5  -2  10 6.32487 0.75592   9
   6  -2  10 0.89726 0.43393   9
   6  -2  10 1.24921 0.41600   8
   7  -2  10 46.7756 2.49718   8
   8  -2  10 0.58988 0.45663   9
   8  -2  10 0.70039 0.49856  18
   9   1 -10 3.03429 0.47153   8
  -9  -1  10 4.13577 0.49948   8
  -9  -1  10 4.22403 0.70786  12
   8   1 -10 16.0332 1.23878   8
  -8  -1  10 17.9763 1.24851   8
  -7  -1  10 17.9416 1.46043   8
  -6  -1  10 0.13638 0.50056   8
  -5  -1  10 0.27649 0.37985   8
  -4  -1  10 46.4161 2.65106   8
  -4  -1  10 46.8416 4.55850   4
  -3  -1  10 38.3812 2.27276   8
  -3  -1  10 42.6654 4.13547   4
  -2  -1  10 1.74897 0.40858   8
  -2  -1  10 0.30887 0.86734   4
  -1  -1  10 24.2585 3.14931   3
  -1  -1  10 20.5491 1.43061   8
  -1  -1  10 21.9626 2.94342   2
   0  -1  10 15.9023 2.51463   3
   0  -1  10 16.8927 1.19835   8
   0  -1  10 15.0046 2.51468   2
   1  -1  10 138.942 10.4055   3
   1  -1  10 149.454 7.35586   8
   2  -1  10 41.6051 2.40217   8
   3  -1  10 2.12717 0.54795   8
   4  -1  10 9.36603 0.93557   8
   5  -1  10 12.0973 1.10372   8
   6  -1  10 0.77239 0.46115   8
   7  -1  10 8.76194 0.86705   9
   7  -1  10 8.03884 0.81014   8
  -8   1 -10 4.63853 0.59123   8
   8  -1  10 5.30858 0.40487   8
   8  -1  10 6.19630 0.76464  18
   8  -1  10 4.42801 0.56519   9
  10   0 -10 16.3620 0.97974   8
 -10   0  10 16.3713 1.05049   8
   9   0 -10 32.7224 1.90730   8
   8   0 -10 33.2356 2.00320   8
  -8   0  10 28.9944 2.02761   8
   7   0 -10 4.72263 0.64807   8
  -7   0  10 3.87269 0.77081   8
   6   0 -10 29.2942 1.85699   8
   4   0 -10 191.252 13.0158   6
  -4   0  10 184.354 12.4757   4
   3   0 -10 12.4575 2.13416   6
  -3   0  10 13.2382 2.27240   4
   3   0  10 -0.2138 0.30084   8
   4   0  10 24.3509 1.61725   8
  -5   0 -10 80.7014 4.63851   8
   5   0  10 93.3444 4.63972   8
  -6   0 -10 18.5250 1.47986   8
   6   0  10 17.7415 1.27275   8
  -7   0 -10 3.79506 0.65777   8
   7   0  10 4.06321 0.52414   8
   8   0  10 21.8366 1.22537   8
  10  -1 -10 2.84051 0.55597   9
  10  -1 -10 3.80187 0.39265   8
  10  -1 -10 4.17291 0.68522  16
 -10   1  10 2.85299 0.56466   8
   9  -1 -10 22.5005 1.40612   8
   8  -1 -10 14.0866 1.20088   8
   7  -1 -10 0.41912 0.36047   8
   6  -1 -10 146.185 7.44937   8
   5  -1 -10 98.5373 5.11936   8
   5  -1 -10 96.6608 7.79342   6
   4  -1 -10 0.01212 1.27630   6
   4  -1 -10 1.42451 0.50238   8
  -4   1  10 -0.0548 1.26968   4
   3  -1 -10 2.08172 1.09868   6
   3  -1 -10 2.76358 0.56181   8
   2  -1 -10 83.6891 4.40490   8
   1  -1 -10 12.5119 1.08248   8
   0  -1 -10 3.22992 0.60308   8
  -1  -1 -10 141.309 7.22521   8
  -2  -1 -10 16.2079 1.35134   8
  -3  -1 -10 11.4666 1.12979   8
  -4  -1 -10 11.1947 1.09644   8
  -5  -1 -10 16.3345 1.26406   8
   5   1  10 15.4854 1.32918   8
  -6  -1 -10 1.22071 0.43783   8
   6   1  10 1.38011 0.51010   8
  -7  -1 -10 1.62253 0.46524   8
   7   1  10 1.95793 0.35626   8
  10  -2 -10 2.70639 0.42633   9
  10  -2 -10 2.57337 0.65162  16
   9  -2 -10 0.08697 0.80828  16
   9  -2 -10 0.44911 0.51796   9
   9  -2 -10 0.84534 0.37134   8
   8  -2 -10 0.42171 0.45591   8
   8  -2 -10 0.39949 0.52840   9
   7  -2 -10 7.58188 0.91563   9
   7  -2 -10 7.80206 0.82923   8
   6  -2 -10 8.23526 2.52001   6
   6  -2 -10 15.6413 1.19549   8
   6  -2 -10 14.3599 1.24746   9
   5  -2 -10 96.3578 7.78994   6
   5  -2 -10 91.7013 7.46054   2
   5  -2 -10 76.0722 7.47340   3
   5  -2 -10 95.8624 4.92940   9
   5  -2 -10 102.310 6.47464  15
   5  -2 -10 103.419 5.02897   8
   4  -2 -10 13.4692 1.12127   9
   4  -2 -10 13.5515 1.08111   8
   4  -2 -10 9.11826 2.22570   2
   4  -2 -10 9.54061 2.27899   3
   4  -2 -10 13.0140 2.57507   6
   3  -2 -10 17.5416 2.78323   6
   3  -2 -10 17.6911 1.23170   8
   3  -2 -10 15.6993 1.26406   9
   3  -2 -10 14.7983 2.62585   2
   3  -2 -10 15.7904 2.68010   3
   2  -2 -10 91.7573 7.32516   3
   2  -2 -10 94.1323 7.12576   2
   2  -2 -10 116.985 7.99723   6
   2  -2 -10 99.8618 4.92521   8
   2  -2 -10 82.3520 4.76272   9
   1  -2 -10 68.1438 3.56812   8
   1  -2 -10 70.1465 5.56789   2
   1  -2 -10 60.3032 3.45899   9
   1  -2 -10 73.2224 5.88833   3
   0  -2 -10 0.87113 0.35471   9
   0  -2 -10 0.61028 0.61733  14
   0  -2 -10 0.77923 0.43330   8
   0  -2 -10 0.41887 1.31546   3
   0  -2 -10 1.39975 1.19557   2
  -1  -2 -10 24.9407 1.74689   9
  -1  -2 -10 27.9096 1.73256   8
  -1  -2 -10 24.2080 3.43339   2
  -1  -2 -10 19.7693 3.33675   3
  -2  -2 -10 27.2722 1.74630   8
  -3  -2 -10 0.98581 0.53615   8
  -4  -2 -10 -0.4825 0.43857   8
  -5  -2 -10 14.5203 1.10595   8
  -6  -2 -10 1.47223 0.34969   8
  -6  -2 -10 1.51584 0.49436   9
  -7  -2 -10 7.01563 0.85431  14
  -7  -2 -10 6.97229 0.45844   8
  10  -3 -10 -0.2385 0.27370   9
  10  -3 -10 0.21560 0.72831  16
   9  -3 -10 27.2062 1.53645   8
   9  -3 -10 34.3407 2.63718  16
   9  -3 -10 30.3688 1.83828   9
   8  -3 -10 1.09854 0.38908   8
   8  -3 -10 0.93826 0.53414   9
   7  -3 -10 11.7912 1.14699   9
   7  -3 -10 12.8793 1.01533   8
   6  -3 -10 0.32340 0.49082  10
   6  -3 -10 0.68568 0.42750   8
   6  -3 -10 -0.8610 1.78923   6
   6  -3 -10 -1.0442 1.89361   2
   6  -3 -10 0.07849 0.68413  15
   6  -3 -10 0.58657 0.47470   9
   5  -3 -10 18.4638 1.88600  15
   5  -3 -10 18.8020 1.34713   9
   5  -3 -10 14.8748 2.78296   3
   5  -3 -10 19.4110 3.06151   2
   5  -3 -10 17.7047 1.26990  10
   5  -3 -10 17.6781 1.25868   8
   5  -3 -10 16.5318 3.13761   6
   4  -3 -10 225.821 14.8738   6
   4  -3 -10 197.484 9.99720  10
   4  -3 -10 193.758 14.0658   3
   4  -3 -10 212.433 9.98194   9
   3  -3 -10 0.16508 0.35491   8
   3  -3 -10 0.49318 1.31412   2
   3  -3 -10 0.73066 1.30649   3
   3  -3 -10 0.10748 0.28573  10
   3  -3 -10 -0.5103 1.39789   6
   3  -3 -10 0.46727 0.42618   9
   2  -3 -10 4.85441 1.74843   3
   2  -3 -10 7.30699 1.99714   2
   2  -3 -10 7.00097 0.77931   9
   2  -3 -10 5.02806 1.99525   6
   2  -3 -10 7.68571 0.72839   8
   2  -3 -10 6.03964 0.76205  10
   1  -3 -10 35.4849 1.96947   8
   1  -3 -10 32.3583 2.63121  14
   1  -3 -10 36.3068 2.06190   9
   1  -3 -10 42.9182 4.59261   6
   1  -3 -10 33.1623 3.97081   2
   1  -3 -10 30.7750 3.68809   3
   1  -3 -10 31.5074 2.01350  10
   0  -3 -10 287.278 13.7628   9
   0  -3 -10 280.022 17.9915   2
   0  -3 -10 279.722 17.9105  14
   0  -3 -10 305.524 14.1800   8
   0  -3 -10 279.587 19.1219   3
  -1  -3 -10 119.627 5.63677   8
  -1  -3 -10 89.0098 8.23732   3
  -1  -3 -10 112.945 5.54113   9
  -1  -3 -10 102.914 8.25191   2
  -1  -3 -10 107.630 7.22746  14
  -2  -3 -10 0.73360 0.49331   8
  -2  -3 -10 0.95467 0.52226   9
  -3  -3 -10 2.43157 0.57017   8
  -3  -3 -10 1.56806 0.61802   9
  -4  -3 -10 7.38723 0.74108   8
  -4  -3 -10 7.29095 0.87327   9
  -5  -3 -10 10.3530 0.81224   8
  -5  -3 -10 11.0505 0.94403   9
  -6  -3 -10 22.6513 1.38421   9
  -6  -3 -10 23.3057 1.88736  14
  10  -4 -10 32.2069 1.68856   9
  10  -4 -10 32.1375 1.89405  10
  10  -4 -10 29.5139 2.42698  16
   9  -4 -10 41.3722 2.22776   9
   9  -4 -10 38.9727 3.16681  16
   9  -4 -10 38.8305 2.26138  10
   8  -4 -10 11.1722 1.46231  16
   8  -4 -10 7.83690 0.88253  10
   8  -4 -10 7.90861 0.86759   9
   7  -4 -10 2.58562 0.40269   8
   7  -4 -10 3.50579 1.00747  16
   7  -4 -10 3.16814 0.62995  10
   7  -4 -10 3.91007 0.64505   9
   7  -4 -10 2.85096 0.89513  15
   6  -4 -10 0.64943 0.47181   9
   6  -4 -10 -0.3847 0.33016   8
   6  -4 -10 -0.4793 1.95998   6
   6  -4 -10 0.46172 0.77465  15
   6  -4 -10 -0.8542 0.39152  10
   5  -4 -10 240.683 15.8283   2
   5  -4 -10 247.860 17.5994   6
   5  -4 -10 258.655 16.0171  15
   5  -4 -10 247.061 12.3060   8
   5  -4 -10 251.048 12.1418  10
   5  -4 -10 257.887 12.0591   9
   4  -4 -10 1.61517 1.48610   3
   4  -4 -10 3.24230 0.51430   8
   4  -4 -10 2.99406 0.57475   9
   4  -4 -10 2.84185 0.95370  15
   4  -4 -10 1.95310 0.56154  10
   4  -4 -10 3.86861 1.98782   6
   4  -4 -10 5.08553 1.75858   2
   3  -4 -10 1.95512 0.47754   9
   3  -4 -10 2.05694 1.55843   2
   3  -4 -10 1.95120 0.52546  10
   3  -4 -10 2.26722 1.46051   6
   3  -4 -10 -0.9063 1.13186   3
   2  -4 -10 1.98372 0.43632  10
   2  -4 -10 1.38184 0.43122   8
   2  -4 -10 2.89309 1.46955   3
   2  -4 -10 1.55188 1.12093   5
   2  -4 -10 2.87778 1.60700   6
   2  -4 -10 2.34734 1.46328   2
   2  -4 -10 1.33479 0.45104   9
   2  -4 -10 0.59769 0.67052  14
   1  -4 -10 6.92312 1.11074  14
   1  -4 -10 7.04042 2.02164   2
   1  -4 -10 7.02744 2.60215   6
   1  -4 -10 3.80904 1.79781   5
   1  -4 -10 4.31620 1.78534   3
   1  -4 -10 8.84069 0.85413   9
   1  -4 -10 7.65633 0.79686  10
   1  -4 -10 7.65292 0.72125   8
   0  -4 -10 100.480 8.61100   6
   0  -4 -10 104.101 5.12740   9
   0  -4 -10 105.825 5.14233   8
   0  -4 -10 92.5913 7.58001   2
   0  -4 -10 100.014 5.13725  10
   0  -4 -10 96.4520 6.74546  14
  -1  -4 -10 11.3399 1.50050  14
  -1  -4 -10 8.58314 0.93125   9
  -1  -4 -10 9.19571 0.83490   8
  -1  -4 -10 8.74182 0.97285  10
  -2  -4 -10 -0.9379 0.77891  14
  -2  -4 -10 0.20880 0.31252   8
  -2  -4 -10 -0.0549 0.43577   9
  -2  -4 -10 0.28263 0.35478  10
  -3  -4 -10 11.9608 0.97834   9
  -3  -4 -10 8.63966 1.01086  10
  -3  -4 -10 12.6257 1.62878  14
  -3  -4 -10 11.5068 0.82474   8
  -4  -4 -10 57.1949 3.06695   9
  -4  -4 -10 56.9876 4.15963  14
  -5  -4 -10 1.31472 0.60172  14
  -5  -4 -10 0.12774 0.43343   9
  10  -5 -10 62.2506 3.18975  10
   9  -5 -10 0.15645 0.87283  16
   9  -5 -10 0.53856 0.23222   9
   9  -5 -10 -0.3054 0.29524  10
   8  -5 -10 14.4079 1.82958  16
   8  -5 -10 14.3418 1.11743  10
   8  -5 -10 14.7461 1.05905   9
   7  -5 -10 171.961 8.58408  10
   7  -5 -10 166.872 8.42599   9
   7  -5 -10 173.743 11.3182  15
   7  -5 -10 189.590 11.4423  16
   6  -5 -10 221.070 10.9645  10
   6  -5 -10 226.317 10.8217   9
   6  -5 -10 235.985 14.5163  16
   6  -5 -10 221.638 14.4889  15
   5  -5 -10 6.95451 0.80439  10
   5  -5 -10 3.77665 1.94122   6
   5  -5 -10 4.31412 1.13553  16
   5  -5 -10 6.08263 1.08754  15
   5  -5 -10 5.92438 0.69314   9
   4  -5 -10 0.83692 0.45415   9
   4  -5 -10 0.56993 0.47065  10
   4  -5 -10 0.85066 0.70442  14
   4  -5 -10 -0.3174 2.19257   6
   4  -5 -10 0.48529 0.91422  15
   3  -5 -10 27.8650 4.57044   6
   3  -5 -10 36.3898 1.99758   9
   3  -5 -10 31.5280 2.72712  14
   3  -5 -10 35.5136 2.98814  15
   3  -5 -10 34.4908 2.04254  10
   2  -5 -10 24.4286 1.58794  10
   2  -5 -10 20.5174 3.20015   5
   2  -5 -10 24.9651 1.55376   9
   2  -5 -10 28.5405 2.67273  15
   2  -5 -10 21.1708 3.95866   6
   2  -5 -10 22.1017 2.19145  14
   1  -5 -10 18.4904 3.99487   6
   1  -5 -10 26.0764 1.61644   9
   1  -5 -10 25.7715 1.67061  10
   1  -5 -10 22.3710 3.43006   5
   1  -5 -10 24.7882 2.31986  14
   1  -5 -10 28.8109 2.72412  15
   0  -5 -10 15.9385 1.18085  10
   0  -5 -10 14.7625 1.77253  15
   0  -5 -10 14.1474 1.08651   9
   0  -5 -10 17.5704 1.89878  14
  -1  -5 -10 4.28541 0.98970  14
  -1  -5 -10 5.29019 0.66830  10
  -1  -5 -10 3.63921 0.59989   9
  -2  -5 -10 1.39843 0.55820  10
  -2  -5 -10 1.65209 0.96061  14
  -2  -5 -10 2.41499 0.50546   9
  -3  -5 -10 0.56199 0.49140  10
  -3  -5 -10 0.11621 0.29624   9
  -3  -5 -10 0.31936 0.81430  14
  -4  -5 -10 0.91201 0.38421  10
  -4  -5 -10 0.57624 0.26327   9
  -4  -5 -10 1.15246 0.59017  14
  -5  -5 -10 3.61560 0.66630  14
  10  -6 -10 8.33566 1.06131  16
  10  -6 -10 9.36803 0.74875  10
   9  -6 -10 2.86102 0.83692  16
   9  -6 -10 2.35840 0.48114  10
   8  -6 -10 56.6000 2.77441   9
   8  -6 -10 58.3043 4.18300  15
   8  -6 -10 61.9368 4.31173  16
   7  -6 -10 27.6993 2.55562  16
   7  -6 -10 25.0442 2.24571  15
   7  -6 -10 24.3383 1.55970  10
   7  -6 -10 25.7100 1.40813   9
   6  -6 -10 15.9926 2.06708  16
   6  -6 -10 20.8315 2.24544  15
   6  -6 -10 21.8003 1.25565   9
   6  -6 -10 21.7166 1.36394  10
   5  -6 -10 2.96350 0.88558  15
   5  -6 -10 1.78940 0.36337   9
   5  -6 -10 0.90429 0.70128  14
   5  -6 -10 2.98175 0.53468  10
   4  -6 -10 16.1833 1.95811  15
   4  -6 -10 14.7728 1.58542  14
   4  -6 -10 17.3038 1.06999   9
   4  -6 -10 16.5322 1.21082  10
   4  -6 -10 15.6029 1.40240  13
   3  -6 -10 17.1986 2.20832  15
   3  -6 -10 16.9808 1.23556  10
   3  -6 -10 17.4854 1.10911   9
   3  -6 -10 16.1064 1.67181  14
   2  -6 -10 16.9435 1.89712  14
   2  -6 -10 16.3042 1.17633  10
   2  -6 -10 18.9855 1.19012   9
   2  -6 -10 16.1287 2.12697  15
   1  -6 -10 -0.2769 0.37500  10
   1  -6 -10 -0.2154 0.79488  14
   1  -6 -10 0.68019 0.40796   9
   1  -6 -10 0.15069 0.97332  15
   0  -6 -10 10.8345 1.50945  14
   0  -6 -10 10.9507 0.92422   9
   0  -6 -10 11.0800 0.93384  10
  -1  -6 -10 20.6793 1.43054  10
  -1  -6 -10 18.8640 1.20082   9
  -1  -6 -10 19.6227 2.16957  14
  -2  -6 -10 2.45504 0.53726  10
  -2  -6 -10 2.42605 0.92081  14
  -2  -6 -10 1.52042 0.32203   9
  -3  -6 -10 0.53102 0.14791   9
  -3  -6 -10 1.15821 0.61708  14
  -3  -6 -10 0.41733 0.44463  10
  -4  -6 -10 1.28870 0.48710  14
   9  -7 -10 0.95804 0.47734  15
   9  -7 -10 0.28295 0.52253  16
   9  -7 -10 0.09709 0.26420  10
   8  -7 -10 18.5359 1.74182  15
   8  -7 -10 19.4513 1.82440  16
   8  -7 -10 20.0156 1.21985  10
   7  -7 -10 4.59928 1.06837  16
   7  -7 -10 8.78993 1.21050  15
   6  -7 -10 6.55484 0.99379  14
   6  -7 -10 7.75066 1.40083  15
   5  -7 -10 58.2018 4.28261  15
   5  -7 -10 51.7474 3.90451  14
   5  -7 -10 56.1024 2.92483  10
   4  -7 -10 7.81568 0.72072  10
   4  -7 -10 5.99140 0.91131  13
   4  -7 -10 10.9753 1.73532  15
   4  -7 -10 5.13594 1.04610  14
   3  -7 -10 0.94728 0.85594  15
   3  -7 -10 1.34369 0.64952  14
   3  -7 -10 0.72005 0.58364  13
   3  -7 -10 1.74218 0.44846  10
   2  -7 -10 27.7345 2.51771  14
   2  -7 -10 26.0819 2.55072  15
   2  -7 -10 28.2452 1.62401  10
   1  -7 -10 26.9520 1.49493  10
   1  -7 -10 17.3368 2.13840  15
   1  -7 -10 23.5937 2.30408  14
   0  -7 -10 0.35698 0.63783  14
   0  -7 -10 0.11250 0.36593  10
  -1  -7 -10 8.04164 1.29723  14
  -1  -7 -10 10.9805 0.79360  10
  -2  -7 -10 0.72284 0.57680  14
  -2  -7 -10 0.28512 0.24239  10
   8  -8 -10 1.27713 0.59235  15
   7  -8 -10 0.96783 0.24293  10
   7  -8 -10 1.94883 0.72395  15
   6  -8 -10 40.5079 2.99043  14
   6  -8 -10 45.5173 3.48175  15
   5  -8 -10 1.91312 0.61152  14
   5  -8 -10 1.18559 0.30057  10
   5  -8 -10 1.66749 0.88414  15
   4  -8 -10 6.63265 0.58490  10
   4  -8 -10 3.71811 0.91180  14
   4  -8 -10 10.0276 1.45240  15
   3  -8 -10 2.49826 0.65803  13
   3  -8 -10 2.16295 0.90879  15
   3  -8 -10 2.92202 0.39884  10
   3  -8 -10 2.29788 0.90064  14
   2  -8 -10 -0.6557 0.54934  15
   2  -8 -10 0.40274 0.80168  14
   2  -8 -10 0.19112 0.28310  10
   1  -8 -10 37.3076 2.90217  14
   1  -8 -10 38.1286 1.97700  10
   0  -8 -10 3.70299 0.37683  10
   0  -8 -10 3.11572 0.82088  14
  -1  -8 -10 9.55141 0.54759  10
  -1  -8 -10 7.89747 1.07232  14
   7  -9 -10 14.2201 1.41037  15
   6  -9 -10 10.8202 1.32044  15
   6  -9 -10 10.6897 1.06461  14
   5  -9 -10 0.27250 0.47049  14
   5  -9 -10 0.39698 0.94930  15
   4  -9 -10 0.94332 0.71952  15
   4  -9 -10 2.01139 0.62125  14
   3  -9 -10 172.149 10.3605  13
   3  -9 -10 176.224 10.9770  14
   2  -9 -10 36.6490 2.72424  14
   1  -9 -10 1.09551 0.57410  14
   3 -10  11 11.1023 1.12491  18
  -1  -9  11 40.5124 2.76255  11
   0  -9  11 14.0873 1.36582  11
   0  -9  11 11.4552 1.12729  18
   1  -9  11 2.08110 0.91065  11
   1  -9  11 1.53293 0.76066  18
   2  -9  11 0.46888 0.60170  11
   2  -9  11 -0.3725 0.54787  18
   3  -9  11 14.1337 1.42357  11
   3  -9  11 13.0224 1.34152  18
   4  -9  11 1.48114 0.62109  17
   4  -9  11 2.04341 0.63217  18
   5  -9  11 1.61202 0.55120  18
   6  -9  11 27.3103 2.06470  18
  -3  -8  11 12.4004 1.24953  12
  -3  -8  11 13.9201 1.15341  11
  -3  -8  11 11.5477 0.66588  10
  -2  -8  11 26.0899 1.42190  10
  -2  -8  11 29.4418 2.28624  12
  -2  -8  11 25.8206 2.01895  11
  -1  -8  11 0.45536 0.61249  11
  -1  -8  11 0.56033 0.27618  10
   0  -8  11 1.59867 0.32475  10
   0  -8  11 1.96797 0.83363  18
   0  -8  11 2.04628 0.76552  11
   1  -8  11 8.56734 1.40899  11
   1  -8  11 10.2209 0.76892  10
   1  -8  11 9.90322 1.27797  18
   2  -8  11 0.50235 0.31268  10
   2  -8  11 -0.3193 0.82160  18
   2  -8  11 0.35197 0.70814  11
   3  -8  11 -0.3550 0.56575  11
   3  -8  11 0.01476 0.22124  10
   3  -8  11 -0.6831 0.57584  18
   3  -8  11 0.01237 0.48192  17
   4  -8  11 4.79837 0.44308  10
   4  -8  11 3.46768 0.70051  17
   4  -8  11 3.27904 0.82540  11
   4  -8  11 5.78942 1.00892  18
   5  -8  11 7.89050 1.09779  18
   5  -8  11 6.34345 0.83114  17
   5  -8  11 6.73547 0.41174  10
   6  -8  11 29.3010 2.26191  18
   7  -8  11 7.33289 0.89993  18
  -5  -7  11 7.50394 0.54493  10
  -5  -7  11 8.64874 0.95341  12
  -4  -7  11 1.11311 0.86240  12
  -4  -7  11 0.25351 0.37468  10
  -3  -7  11 68.5410 3.40484  10
  -3  -7  11 73.7338 4.83755  12
  -3  -7  11 58.1592 4.18997  11
  -2  -7  11 1.73270 0.50413  10
  -2  -7  11 2.93176 0.74476  11
  -2  -7  11 2.57242 0.81015  12
  -1  -7  11 33.2687 2.63732  11
  -1  -7  11 32.3448 2.74428  12
  -1  -7  11 34.0691 1.95440  10
   0  -7  11 1.50782 0.78333  18
   0  -7  11 2.86498 0.52919  10
   0  -7  11 3.00777 0.84444  11
   1  -7  11 0.34182 0.82090  18
   1  -7  11 1.07633 0.45239  10
   1  -7  11 -0.2972 0.97600  11
   2  -7  11 24.2827 1.88419  17
   2  -7  11 25.2871 2.36529  11
   2  -7  11 24.4259 2.14861  18
   2  -7  11 24.3537 1.53863  10
   3  -7  11 1.40719 0.92010  11
   3  -7  11 0.34990 0.63256  17
   3  -7  11 -0.3704 0.78391  18
   3  -7  11 -0.1741 0.38135  10
   4  -7  11 5.14717 0.61950  10
   4  -7  11 4.59474 1.08535  18
   4  -7  11 5.17088 0.98115  11
   5  -7  11 14.7938 1.03932  10
   5  -7  11 17.0631 1.89610  18
   6  -7  11 0.57407 0.26296  10
   6  -7  11 0.84649 0.64561  18
   7  -7  11 33.2862 1.72120  10
   7  -7  11 32.7293 2.42539  18
  -6  -6  11 0.20125 0.25349  10
  -6  -6  11 -0.2689 0.44736  12
  -5  -6  11 3.82296 0.83736  12
  -5  -6  11 2.09563 0.43130  10
  -4  -6  11 -0.5120 0.86482  12
  -4  -6  11 1.57632 0.45589  10
  -4  -6  11 1.56483 0.31226   9
  -3  -6  11 0.50836 0.96663  12
  -3  -6  11 0.20059 0.29680   9
  -3  -6  11 -0.0952 0.46633  11
  -3  -6  11 0.56651 0.51862  10
  -2  -6  11 10.6113 1.01656  10
  -2  -6  11 10.3975 0.83874   9
  -2  -6  11 10.8587 1.31550  11
  -2  -6  11 10.5465 1.41086  12
  -1  -6  11 3.30063 0.52119   9
  -1  -6  11 4.97426 0.94625  12
  -1  -6  11 4.27020 0.62026  10
  -1  -6  11 3.49362 1.00164  11
   0  -6  11 4.02336 0.93699  18
   0  -6  11 6.10173 0.76007  10
   0  -6  11 6.47816 1.26180  11
   1  -6  11 0.20463 0.57538  18
   1  -6  11 -0.5465 0.43198  17
   1  -6  11 0.04505 0.45542  10
   1  -6  11 -0.4710 0.60132  11
   1  -6  11 0.26488 0.39358   9
   2  -6  11 9.04648 0.89264  10
   2  -6  11 7.05570 1.41367  11
   2  -6  11 9.10474 0.80642   9
   2  -6  11 7.11626 1.23140  18
   3  -6  11 1.20427 0.40024   9
   3  -6  11 0.62446 0.47132  10
   3  -6  11 2.21458 0.73331  18
   3  -6  11 0.97760 0.68614  11
   4  -6  11 86.6996 4.50305  10
   4  -6  11 88.3123 5.94089  18
   4  -6  11 82.7561 5.69669  11
   4  -6  11 92.8440 4.29268   9
   5  -6  11 23.6593 1.23880   9
   5  -6  11 25.6886 2.32163  18
   5  -6  11 23.2639 1.54627  10
   6  -6  11 28.8518 1.67570  10
   6  -6  11 26.1089 2.26242  18
   7  -6  11 106.383 6.75777  18
   8  -6  11 0.27502 0.27930  10
   8  -6  11 0.63378 0.42048  18
  -7  -5  11 0.90087 0.43664  12
  -6  -5  11 5.71540 0.73192  10
  -6  -5  11 5.67907 0.53089   9
  -6  -5  11 7.51666 1.04558  12
  -5  -5  11 5.40906 1.14776  12
  -5  -5  11 4.16141 0.73445  10
  -5  -5  11 4.08672 0.60433   9
  -4  -5  11 1.21011 0.56837  10
  -4  -5  11 1.33392 0.48890   9
  -4  -5  11 1.13809 0.98840  12
  -3  -5  11 4.06436 1.18305  12
  -3  -5  11 5.16453 0.78004  10
  -3  -5  11 5.89486 0.92148  11
  -3  -5  11 4.05628 0.67502   9
  -2  -5  11 71.3470 4.88753  12
  -2  -5  11 64.3152 4.43512  11
  -2  -5  11 60.7969 3.45368  10
  -1  -5  11 4.16870 0.65025   9
  -1  -5  11 4.04030 0.63729  10
  -1  -5  11 3.33957 0.94893  12
  -1  -5  11 3.83088 1.00474  11
  -1  -5  11 4.50222 2.89607   4
   0  -5  11 1.87879 0.78734  18
   0  -5  11 2.90146 0.66577  10
   0  -5  11 6.00419 3.00875   4
   0  -5  11 2.72189 0.57375   9
   0  -5  11 3.44524 1.09556  11
   1  -5  11 17.7066 1.96117  11
   1  -5  11 16.8108 1.23382  10
   1  -5  11 15.0338 1.58795  18
   1  -5  11 17.2094 1.22498   9
   1  -5  11 12.7520 3.64457   4
   2  -5  11 312.055 18.0441  11
   2  -5  11 309.129 14.4534  10
   2  -5  11 305.434 14.2806   9
   2  -5  11 276.423 18.2997  18
   3  -5  11 14.7743 1.07985   9
   3  -5  11 13.3151 1.07622  10
   3  -5  11 13.1899 1.60495  11
   3  -5  11 12.8218 1.49207  18
   4  -5  11 24.9352 1.55915   9
   4  -5  11 24.7360 1.69213  10
   4  -5  11 25.8527 2.11331  11
   4  -5  11 27.3333 2.37205  18
   5  -5  11 25.1566 1.65743  10
   5  -5  11 24.6968 1.48298   9
   5  -5  11 23.4657 2.30377  18
   6  -5  11 6.19578 1.07361  18
   6  -5  11 6.98107 0.76247  10
   6  -5  11 5.90218 0.59226   9
   7  -5  11 20.6793 1.10853   9
   7  -5  11 19.3104 1.77606  18
   7  -5  11 20.4747 1.40941  10
   8  -5  11 14.9694 0.96293  10
   8  -5  11 13.9428 1.30442  18
  -7  -4  11 191.157 12.1154  12
  -6  -4  11 2.19067 0.74907  12
  -6  -4  11 2.06396 0.60163   9
  -5  -4  11 6.84558 0.91874  10
  -5  -4  11 8.22305 0.88086   9
  -5  -4  11 7.72518 0.58911   8
  -4  -4  11 0.00788 0.30495   8
  -4  -4  11 0.16135 0.50990   9
  -4  -4  11 0.06726 0.43117  11
  -4  -4  11 -0.1083 0.52736  10
  -3  -4  11 14.5879 1.20044  10
  -3  -4  11 15.9479 1.70462  11
  -3  -4  11 15.3753 1.32162   9
  -3  -4  11 15.7708 1.07384   8
  -2  -4  11 14.6359 1.30146   9
  -2  -4  11 12.5743 3.01892   4
  -2  -4  11 15.9459 1.24091  10
  -2  -4  11 16.1996 1.16889   8
  -2  -4  11 17.5667 1.78678  11
  -1  -4  11 20.4974 1.30300   8
  -1  -4  11 18.5637 2.85987   2
  -1  -4  11 22.5443 1.42724   9
  -1  -4  11 13.4347 2.62434   3
  -1  -4  11 21.5347 1.89136  11
  -1  -4  11 20.2384 1.52855  10
  -1  -4  11 18.2023 3.58887   4
   0  -4  11 112.401 5.46977  10
   0  -4  11 115.228 6.84629  11
   0  -4  11 101.206 8.57648   4
   0  -4  11 86.9566 7.78709   3
   0  -4  11 97.9035 7.84856   2
   0  -4  11 108.571 5.37543   8
   0  -4  11 108.852 5.36364   9
   1  -4  11 8.26736 2.26112   2
   1  -4  11 8.28428 0.85771   9
   1  -4  11 7.20032 2.65195   4
   1  -4  11 9.30931 1.18868  18
   1  -4  11 8.95360 0.75150   8
   1  -4  11 5.26857 1.77459   3
   1  -4  11 8.53825 0.93837  10
   2  -4  11 4.60791 0.66300   9
   2  -4  11 2.82817 0.86031  18
   2  -4  11 3.77451 0.68524  10
   2  -4  11 -0.6102 2.18996   4
   2  -4  11 4.36817 1.97640   2
   2  -4  11 2.05399 1.85912   7
   2  -4  11 3.18016 0.43799   8
   3  -4  11 13.2133 1.51554  18
   3  -4  11 6.27307 2.83944   4
   3  -4  11 13.1758 1.28668  10
   3  -4  11 14.3838 1.20361   9
   3  -4  11 14.7911 0.97959   8
   4  -4  11 23.4132 1.64000  10
   4  -4  11 24.3031 2.05613  11
   4  -4  11 21.6293 1.26440   8
   4  -4  11 23.2401 2.16953  18
   4  -4  11 22.7503 1.54402   9
   5  -4  11 29.4877 1.81464   9
   5  -4  11 31.2579 2.42595  18
   5  -4  11 28.0625 1.90087  10
   6  -4  11 6.44010 0.75162  10
   6  -4  11 5.72357 0.70242   9
   6  -4  11 8.68598 1.12359  18
   7  -4  11 14.0485 1.35450  18
   7  -4  11 9.52784 0.98641  10
   7  -4  11 12.4673 0.92210   9
   8  -4  11 9.38554 0.60625   9
   8  -4  11 7.93117 0.76274  10
   8  -4  11 8.83255 1.04165  18
  -8  -3  11 0.14611 0.34062   9
  -8  -3  11 -0.1477 0.44244  12
  -7  -3  11 4.64338 0.48278   8
  -7  -3  11 5.05505 0.88117  12
  -7  -3  11 4.27109 0.72541   9
  -6  -3  11 26.7078 1.85916   9
  -6  -3  11 28.5271 1.68701   8
  -5  -3  11 0.11576 0.43678   8
  -5  -3  11 0.54720 0.41379   9
  -4  -3  11 59.9719 3.43949   9
  -4  -3  11 64.5323 3.40968   8
  -3  -3  11 17.9345 1.31834   8
  -3  -3  11 19.0716 1.73173  11
  -3  -3  11 8.69067 2.75802   2
  -3  -3  11 17.1199 1.42064   9
  -3  -3  11 20.2370 3.25836   4
  -2  -3  11 25.7766 1.73220   9
  -2  -3  11 32.3594 4.17958   4
  -2  -3  11 28.4013 1.76031   8
  -2  -3  11 24.5735 3.46394   2
  -2  -3  11 20.8489 3.22284   3
  -2  -3  11 32.1248 2.25609  11
  -2  -3  11 26.7096 1.79469  10
  -1  -3  11 1.60095 1.84377   4
  -1  -3  11 0.82490 1.65016   2
  -1  -3  11 0.78081 0.50947   9
  -1  -3  11 1.60871 0.47994   8
  -1  -3  11 -0.1811 1.33818   3
  -1  -3  11 1.22445 0.57192  10
   0  -3  11 102.879 5.09133   8
   0  -3  11 99.2625 5.10022  10
   0  -3  11 100.017 7.45247   2
   0  -3  11 87.8677 7.54577   3
   0  -3  11 96.7835 4.99013   9
   0  -3  11 106.993 8.21816   4
   1  -3  11 34.6096 3.53678   2
   1  -3  11 27.2888 3.85600   4
   1  -3  11 29.5903 1.75328   9
   1  -3  11 29.1589 1.74275   8
   1  -3  11 29.5632 2.28926  18
   1  -3  11 27.8663 1.86617  10
   1  -3  11 21.6200 3.29257   3
   2  -3  11 0.02199 0.59030  18
   2  -3  11 0.35894 0.52105  10
   2  -3  11 0.51334 1.63107   2
   2  -3  11 0.70753 0.48589   9
   2  -3  11 2.50136 1.97859   4
   2  -3  11 0.66563 0.38786   8
   2  -3  11 -1.6615 1.41969   3
   3  -3  11 22.2601 3.68951   4
   3  -3  11 24.0176 3.39993   2
   3  -3  11 25.9567 1.65477   9
   3  -3  11 26.9617 1.60353   8
   3  -3  11 26.8538 2.15243  18
   3  -3  11 25.4492 1.79436  10
   4  -3  11 60.9623 3.38521   9
   4  -3  11 62.2306 3.50814  10
   4  -3  11 63.3683 3.35719   8
   4  -3  11 68.3928 4.47031  18
   5  -3  11 1.24002 0.36047   8
   5  -3  11 1.32720 0.78531  18
   5  -3  11 1.87126 0.46756   9
   6  -3  11 21.8627 1.29104   8
   6  -3  11 27.0382 2.06622  18
   6  -3  11 23.1380 1.57041   9
   7  -3  11 9.86585 1.21921  18
   7  -3  11 10.8870 0.96052   9
   8  -3  11 15.2563 0.93861   9
   8  -3  11 15.3814 1.33474  18
  -8  -2  11 3.86989 0.79951  12
  -8  -2  11 5.97956 0.70268   9
  -8  -2  11 4.74108 0.52831   8
  -7  -2  11 -0.0036 0.41915   9
  -7  -2  11 -0.2519 0.44084   8
  -6  -2  11 2.18712 0.67545   9
  -6  -2  11 2.46813 0.60504   8
  -5  -2  11 31.1914 2.00590   8
  -4  -2  11 0.54541 0.62961   9
  -4  -2  11 0.40619 0.49457   8
  -4  -2  11 0.92739 2.11224   4
  -3  -2  11 0.83555 1.90934   4
  -3  -2  11 0.87309 0.46208   9
  -3  -2  11 -0.0521 0.45512   8
  -2  -2  11 0.94783 0.53052   9
  -2  -2  11 2.13811 1.36566   4
  -2  -2  11 0.56473 0.45522   8
  -2  -2  11 2.65543 1.79492   2
  -2  -2  11 -1.2150 1.41405   3
  -1  -2  11 18.1535 3.10425   2
  -1  -2  11 29.4014 3.25661   4
  -1  -2  11 20.2189 1.46321   9
  -1  -2  11 11.7005 2.58638   3
  -1  -2  11 22.6650 1.42955   8
   0  -2  11 0.26802 1.62513   2
   0  -2  11 2.30895 0.49618   8
   0  -2  11 3.01565 1.55233   3
   0  -2  11 3.67628 1.80923   4
   0  -2  11 2.83199 0.59048   9
   1  -2  11 57.4654 5.33409   2
   1  -2  11 49.9961 5.14816   3
   1  -2  11 59.7587 3.04358   8
   1  -2  11 53.2872 3.05699   9
   2  -2  11 73.8093 7.40657   3
   2  -2  11 101.732 4.91927   8
   2  -2  11 98.8485 6.11644  18
   2  -2  11 92.3677 4.84447   9
   3  -2  11 23.9488 1.60787   8
   3  -2  11 25.5248 1.72295   9
   4  -2  11 37.4946 2.29228   9
   4  -2  11 37.8328 2.21476   8
   5  -2  11 27.9407 1.78615   9
   5  -2  11 28.3450 1.68893   8
   6  -2  11 48.7905 2.75840   9
   6  -2  11 51.2136 2.70293   8
   7  -2  11 8.66521 0.80955   9
   7  -2  11 7.96231 0.59494   8
   7  -2  11 9.85112 1.10268  18
   8  -2  11 3.18866 0.45612   9
   9   1 -11 16.8765 1.08177   8
   9   1 -11 15.4456 1.36135  16
  -9  -1  11 17.6278 1.11003   8
  -9  -1  11 15.4325 1.43609  12
   8   1 -11 0.45403 0.38045   8
  -8  -1  11 0.38327 0.35613   8
   7   1 -11 6.36303 0.81662   8
  -7  -1  11 5.99890 0.82648   8
  -6  -1  11 1.36511 0.58283   8
  -5  -1  11 13.8323 1.15492   8
  -4  -1  11 13.0977 1.08975   8
  -4  -1  11 12.8990 2.73335   4
   3   1 -11 33.0665 3.75956   6
  -3  -1  11 33.3664 3.87581   4
  -3  -1  11 30.8499 2.00100   8
  -2  -1  11 1.83700 0.56186   8
  -2  -1  11 0.93964 1.46343   4
  -1  -1  11 28.2294 1.80369   8
   0  -1  11 0.05512 0.38766   8
   1  -1  11 105.232 5.43075   8
   2  -1  11 1.26347 0.48232   8
   3  -1  11 7.15966 0.82399   8
   4  -1  11 0.31110 0.46508   8
   5  -1  11 7.04714 0.74657   8
   6  -1  11 9.18800 0.80136   8
  -7   1 -11 2.96914 0.52716   8
   7  -1  11 2.54104 0.40841   8
   7  -1  11 2.28871 0.59148   9
   9   0 -11 0.19567 0.31670   8
  -9   0  11 -0.4068 0.31166   8
   8   0 -11 19.4585 1.28715   8
  -8   0  11 16.2529 1.41469   8
   7   0 -11 14.1450 1.12284   8
  -7   0  11 13.3971 1.16553   8
   6   0 -11 5.62979 0.77871   8
  -6   0  11 4.33453 0.78687   8
   5   0 -11 37.0981 2.29135   8
   4   0 -11 -2.1869 1.40102   6
  -4   0  11 1.50355 1.73985   4
   3   0 -11 10.0688 2.23132   6
  -3   0  11 9.88976 2.20803   4
   2   0  11 14.7302 1.27316   8
   3   0  11 1.68889 0.45927   8
  -4   0 -11 94.5412 5.27552   8
   4   0  11 102.600 5.21188   8
  -5   0 -11 2.37173 0.52245   8
   5   0  11 2.10466 0.56106   8
  -6   0 -11 0.12171 0.37079   8
   6   0  11 -0.3618 0.41278   8
  -7   0 -11 18.6238 1.31933   8
   7   0  11 22.9295 1.25720   8
  10  -1 -11 28.7651 1.48556   8
 -10   1  11 31.0312 1.70284   8
   9  -1 -11 9.84468 0.87091   8
   9  -1 -11 11.4166 1.24700  16
  -9   1  11 9.44309 0.92280   8
   8  -1 -11 -0.7411 0.45145   8
   7  -1 -11 -0.0547 0.34536   8
   6  -1 -11 58.9694 3.29918   8
   5  -1 -11 187.577 13.5276   6
   5  -1 -11 192.025 9.57440   8
   4  -1 -11 28.8945 3.58185   6
   4  -1 -11 30.6154 1.95572   8
   3  -1 -11 13.6376 2.62475   6
   3  -1 -11 13.6738 1.08880   8
   2  -1 -11 1.07556 0.48057   8
   1  -1 -11 45.4466 2.59928   8
   0  -1 -11 36.8367 2.27270   8
  -1  -1 -11 7.77056 0.84765   8
  -2  -1 -11 0.73319 0.52674   8
  -3  -1 -11 7.62842 0.92836   8
  -4  -1 -11 75.4610 4.12322   8
  -5  -1 -11 43.9884 2.48100   8
   5   1  11 40.8768 2.49639   8
  -6  -1 -11 0.42556 0.47738   8
   6   1  11 0.15045 0.32406   8
  -7  -1 -11 1.98603 0.30096   8
   7   1  11 1.62934 0.29749   8
  10  -2 -11 59.8160 3.98274  16
  10  -2 -11 59.6359 3.03118   9
   9  -2 -11 2.52706 0.38827   8
   9  -2 -11 2.33293 0.73311  16
   9  -2 -11 1.48412 0.42827   9
   8  -2 -11 6.91802 0.77104   9
   8  -2 -11 7.92686 0.77002   8
   7  -2 -11 3.55338 0.61082   8
   7  -2 -11 3.21988 0.57767   9
   6  -2 -11 13.3517 2.82245   6
   6  -2 -11 17.0829 1.36371   9
   6  -2 -11 16.5067 1.28567   8
   5  -2 -11 24.6112 2.24604  15
   5  -2 -11 23.4097 3.62760   6
   5  -2 -11 23.8945 1.69193   9
   5  -2 -11 26.4890 1.66466   8
   4  -2 -11 20.8207 1.37989   8
   4  -2 -11 17.8838 1.40409   9
   4  -2 -11 22.2236 3.24895   6
   4  -2 -11 9.18904 2.80720   3
   3  -2 -11 32.6724 4.06864   2
   3  -2 -11 40.5114 2.19891   8
   3  -2 -11 35.6843 4.29861   6
   3  -2 -11 33.1344 2.09711   9
   2  -2 -11 54.5313 5.68224   3
   2  -2 -11 70.4360 6.08353   6
   2  -2 -11 65.2328 3.43777   8
   2  -2 -11 61.8845 5.69903   2
   2  -2 -11 61.6595 3.39473   9
   1  -2 -11 18.9724 1.44680   9
   1  -2 -11 13.0406 2.79660   3
   1  -2 -11 22.1429 1.43122   8
   1  -2 -11 17.0323 3.08378   2
   0  -2 -11 2.64785 0.59085   8
   0  -2 -11 2.20723 0.50852   9
   0  -2 -11 2.33402 0.81292  14
  -1  -2 -11 23.3073 1.64282   8
  -2  -2 -11 44.2029 2.61233   8
  -3  -2 -11 22.1908 1.60066   8
  -4  -2 -11 9.17253 0.91725   8
  -5  -2 -11 7.68716 0.81736   9
  -5  -2 -11 6.84189 0.73512   8
  -6  -2 -11 20.0086 1.67045  14
  -6  -2 -11 17.5125 1.31747   9
  -6  -2 -11 19.4873 1.13170   8
   6   2  11 17.8604 1.30780   8
  10  -3 -11 1.70117 0.42003   9
  10  -3 -11 2.84117 0.62209  16
   9  -3 -11 -0.0700 0.53043  16
   9  -3 -11 0.42632 0.45867   9
   8  -3 -11 5.28134 1.14151  16
   8  -3 -11 4.26976 0.61956   9
   8  -3 -11 3.94472 0.50461   8
   7  -3 -11 14.5323 1.29760   9
   7  -3 -11 16.2216 1.12665   8
   6  -3 -11 13.0083 1.65571  15
   6  -3 -11 13.2769 1.05656   8
   6  -3 -11 13.8363 1.21721   9
   5  -3 -11 30.6846 1.93819   9
   5  -3 -11 30.3267 2.64974  15
   5  -3 -11 30.6199 1.84921   8
   4  -3 -11 1.16684 1.79315   2
   4  -3 -11 0.05136 0.43989   9
   4  -3 -11 0.48305 0.48807  10
   4  -3 -11 1.32218 1.70578   6
   4  -3 -11 1.46906 1.62693   3
   3  -3 -11 0.53331 1.77322   6
   3  -3 -11 1.39886 0.47450   8
   3  -3 -11 1.47544 0.42173  10
   3  -3 -11 1.21834 0.54035   9
   3  -3 -11 0.84459 1.59278   2
   3  -3 -11 1.90786 1.61719   3
   2  -3 -11 69.5554 3.48096   8
   2  -3 -11 54.0331 5.66804   3
   2  -3 -11 61.1203 5.74254   2
   2  -3 -11 66.4410 6.38227   6
   2  -3 -11 64.2212 3.46786   9
   1  -3 -11 1.96756 1.25695   3
   1  -3 -11 2.54621 1.45313   2
   1  -3 -11 2.37372 0.76635  14
   1  -3 -11 1.03553 1.83112   6
   1  -3 -11 2.22417 0.49261   9
   1  -3 -11 1.41298 0.45749   8
   0  -3 -11 120.979 9.50669   2
   0  -3 -11 138.331 6.56010   9
   0  -3 -11 128.538 10.2954   6
   0  -3 -11 133.694 6.64352   8
   0  -3 -11 124.699 8.46430  14
  -1  -3 -11 6.48915 0.74094   8
  -1  -3 -11 6.76210 0.85215   9
  -1  -3 -11 1.75801 2.26520   6
  -1  -3 -11 6.69265 1.16804  14
  -2  -3 -11 6.54784 0.75627   8
  -2  -3 -11 6.54153 0.85785   9
  -2  -3 -11 7.46024 1.24068  14
  -3  -3 -11 9.94102 1.31836  14
  -3  -3 -11 8.64042 0.94049   9
  -3  -3 -11 7.44134 0.75252   8
  -4  -3 -11 6.20158 1.14904  14
  -4  -3 -11 4.57787 0.75866   9
  -4  -3 -11 6.11894 0.59078   8
  -5  -3 -11 14.8963 0.84751   8
  -5  -3 -11 15.6469 1.50977  14
  -5  -3 -11 15.1921 1.18390   9
  -6  -3 -11 5.08531 0.66676  14
  10  -4 -11 1.70170 0.32399   9
  10  -4 -11 1.36368 0.53808  16
  10  -4 -11 1.08644 0.47381  10
   9  -4 -11 1.55989 0.43906  10
   9  -4 -11 2.28629 0.38686   9
   9  -4 -11 2.16027 0.73128  16
   8  -4 -11 25.4668 1.68485  10
   8  -4 -11 27.5512 2.45908  16
   8  -4 -11 25.1224 1.62980   9
   7  -4 -11 9.19705 0.97954  10
   7  -4 -11 7.97590 1.13226  15
   7  -4 -11 9.91400 0.93127   9
   7  -4 -11 8.08053 1.40556  16
   6  -4 -11 36.9944 2.18067   9
   6  -4 -11 38.5627 3.06040  15
   6  -4 -11 36.2378 1.96681   8
   6  -4 -11 35.8374 2.23643  10
   5  -4 -11 43.7672 5.29499   6
   5  -4 -11 51.4343 3.89713  15
   5  -4 -11 48.8095 2.67996   8
   5  -4 -11 52.4534 2.83614  10
   5  -4 -11 53.5858 2.83413   9
   4  -4 -11 37.4466 4.87368   6
   4  -4 -11 32.9318 1.87232   8
   4  -4 -11 34.2473 2.81841  15
   4  -4 -11 33.6270 2.04797   9
   4  -4 -11 33.1469 2.06362  10
   3  -4 -11 3.16214 0.58769   9
   3  -4 -11 3.02291 1.09889  15
   3  -4 -11 2.22740 1.75736   2
   3  -4 -11 3.45291 2.21783   6
   3  -4 -11 4.03181 0.65043  10
   2  -4 -11 4.99661 2.51246   6
   2  -4 -11 6.33760 0.63605   8
   2  -4 -11 5.89328 0.78807  10
   2  -4 -11 4.66132 0.95424  14
   2  -4 -11 6.87920 0.80017   9
   1  -4 -11 169.600 8.22123   8
   1  -4 -11 160.198 12.7855   6
   1  -4 -11 149.594 10.5281  14
   1  -4 -11 169.128 8.16156  10
   1  -4 -11 175.458 8.12608   9
   0  -4 -11 41.2165 3.31013  14
   0  -4 -11 42.7694 2.50967  10
   0  -4 -11 44.6492 2.49834   9
   0  -4 -11 33.2682 4.76926   6
   0  -4 -11 44.4638 2.35325   8
  -1  -4 -11 -0.0390 0.34318   9
  -1  -4 -11 0.78739 0.86980  14
  -1  -4 -11 0.36849 0.51177  10
  -1  -4 -11 0.36539 0.30191   8
  -2  -4 -11 2.30402 0.52618  10
  -2  -4 -11 1.76400 0.33009   8
  -2  -4 -11 1.62222 0.55058   9
  -2  -4 -11 2.05046 0.94226  14
  -3  -4 -11 61.7208 2.98801   9
  -3  -4 -11 61.7223 4.09015  14
  -3  -4 -11 48.9420 2.70794   8
  -4  -4 -11 6.11440 0.67004   9
  -4  -4 -11 4.89344 0.97588  14
  -5  -4 -11 0.61267 0.49234  14
  -5  -4 -11 0.89038 0.34951   9
  10  -5 -11 37.5524 2.71216  16
   9  -5 -11 7.56629 0.72537  10
   9  -5 -11 7.85070 0.59917   9
   9  -5 -11 9.03411 1.19468  16
   8  -5 -11 0.79306 0.35790   9
   8  -5 -11 -0.3350 0.57926  16
   8  -5 -11 0.28129 0.34258  10
   7  -5 -11 3.43767 0.57063  10
   7  -5 -11 2.00528 1.01181  16
   7  -5 -11 2.00331 0.47626   9
   7  -5 -11 3.37906 1.00124  15
   6  -5 -11 99.8459 4.89768   9
   6  -5 -11 98.7561 6.62923  16
   6  -5 -11 99.9022 6.76273  15
   6  -5 -11 93.5508 4.98277  10
   5  -5 -11 41.2962 3.51054  15
   5  -5 -11 44.3738 2.38795   9
   5  -5 -11 42.7176 2.47783  10
   4  -5 -11 1.41580 0.82217  15
   4  -5 -11 1.24224 0.50913  10
   4  -5 -11 2.30083 0.54004   9
   3  -5 -11 2.17007 0.50397   9
   3  -5 -11 1.16200 0.59980  14
   3  -5 -11 1.70644 0.52371  10
   3  -5 -11 2.28078 1.08616  15
   2  -5 -11 21.9796 1.41913   9
   2  -5 -11 18.3257 1.84087  14
   2  -5 -11 22.9854 1.50799  10
   2  -5 -11 20.2114 2.39453  15
   1  -5 -11 36.8120 2.18267  10
   1  -5 -11 39.1153 2.18215   9
   1  -5 -11 41.3891 3.23135  15
   1  -5 -11 35.0410 2.91361  14
   0  -5 -11 37.9261 3.02123  14
   0  -5 -11 37.9284 2.28779  10
   0  -5 -11 38.7325 3.25039  15
   0  -5 -11 41.4074 2.24317   9
  -1  -5 -11 3.32350 0.63932  10
  -1  -5 -11 2.29923 0.97965  14
  -1  -5 -11 3.72456 0.58002   9
  -2  -5 -11 0.65361 0.39950   9
  -2  -5 -11 1.05215 0.53898  10
  -2  -5 -11 0.98793 0.64518  14
  -3  -5 -11 12.6878 0.94226   9
  -3  -5 -11 14.4996 1.17925  10
  -3  -5 -11 13.7089 1.59036  14
  -4  -5 -11 14.4016 0.83169   9
  -4  -5 -11 13.4103 0.97532  10
  -4  -5 -11 14.8977 1.35028  14
   9  -6 -11 -0.0211 0.24230  10
   9  -6 -11 0.36956 0.53103  16
   8  -6 -11 0.22333 0.67949  15
   8  -6 -11 0.37789 0.59267  16
   7  -6 -11 0.27545 0.20369   9
   7  -6 -11 -0.0733 0.77881  16
   7  -6 -11 0.79372 0.45031  10
   7  -6 -11 0.63029 0.62701  15
   6  -6 -11 20.5342 1.39281  10
   6  -6 -11 18.3118 1.11236   9
   6  -6 -11 20.1036 2.20741  15
   5  -6 -11 1.26751 0.71687  15
   5  -6 -11 1.07193 0.46494  10
   5  -6 -11 1.16087 0.39435   9
   4  -6 -11 10.4864 1.67242  15
   4  -6 -11 11.8168 1.50057  14
   4  -6 -11 13.0394 1.07791  10
   4  -6 -11 14.4972 0.96204   9
   3  -6 -11 2.72359 0.89687  14
   3  -6 -11 5.81106 1.18790  15
   3  -6 -11 4.14004 0.63317  10
   3  -6 -11 4.20500 0.48615   9
   2  -6 -11 0.49623 0.55543  14
   2  -6 -11 1.18897 0.35766   9
   2  -6 -11 0.08555 0.31207  10
   2  -6 -11 0.06952 1.05353  15
   1  -6 -11 18.8117 1.12548   9
   1  -6 -11 14.1080 1.15701  10
   1  -6 -11 19.5409 1.99980  14
   1  -6 -11 18.6867 1.92637  15
   0  -6 -11 4.78017 0.67293  10
   0  -6 -11 4.92860 0.52282   9
   0  -6 -11 5.29030 1.02084  14
  -1  -6 -11 40.9163 2.05162   9
  -1  -6 -11 38.9612 2.20906  10
  -1  -6 -11 39.6357 3.03186  14
  -2  -6 -11 31.4499 2.47654  14
  -2  -6 -11 34.2166 1.86168  10
  -2  -6 -11 30.6411 1.55323   9
  -3  -6 -11 1.00414 0.30961  10
  -3  -6 -11 1.74180 0.55078  14
   9  -7 -11 -0.1665 0.36970  16
   9  -7 -11 0.54475 0.22188  10
   8  -7 -11 40.2630 3.10794  16
   8  -7 -11 40.2360 3.14485  15
   8  -7 -11 51.7887 2.33521  10
   6  -7 -11 9.86400 0.80497  10
   6  -7 -11 10.1626 1.47970  15
   5  -7 -11 11.2293 1.65150  15
   5  -7 -11 13.3203 1.00986  10
   5  -7 -11 12.0907 1.24608  14
   4  -7 -11 10.4899 1.46101  15
   4  -7 -11 5.80200 1.00952  14
   4  -7 -11 6.64091 0.67416  10
   3  -7 -11 1.18576 0.40826  10
   3  -7 -11 1.24337 0.71690  14
   3  -7 -11 1.44045 1.08290  15
   2  -7 -11 16.7734 1.91371  15
   2  -7 -11 15.0799 1.04001  10
   2  -7 -11 15.0935 1.75208  14
   1  -7 -11 0.79732 0.38822  10
   1  -7 -11 0.05966 0.49337  14
   0  -7 -11 104.465 4.95413  10
   0  -7 -11 95.2791 6.60349  14
  -1  -7 -11 6.16308 0.91025  14
  -1  -7 -11 6.15014 0.57299  10
  -2  -7 -11 6.23311 0.50272  10
  -2  -7 -11 7.60776 0.88017  14
   8  -8 -11 -0.3698 0.39056  15
   7  -8 -11 4.48314 0.93068  15
   6  -8 -11 1.98376 0.76721  15
   5  -8 -11 10.8376 1.25365  14
   5  -8 -11 10.7680 1.51737  15
   5  -8 -11 11.6227 0.73957  10
   4  -8 -11 2.89306 0.63409  14
   4  -8 -11 2.92614 0.40048  10
   4  -8 -11 2.88973 1.11737  15
   3  -8 -11 11.8421 1.51676  15
   3  -8 -11 10.7393 1.24039  14
   3  -8 -11 11.2549 0.76312  10
   2  -8 -11 44.6240 3.27728  14
   2  -8 -11 47.1684 2.32540  10
   1  -8 -11 1.77344 0.76160  14
   1  -8 -11 2.45903 0.29808  10
   0  -8 -11 10.2719 0.57426  10
   0  -8 -11 10.2640 1.11594  14
   6  -9 -11 4.60237 0.82227  15
   5  -9 -11 8.77089 0.90977  14
   5  -9 -11 9.27559 1.14753  15
   4  -9 -11 0.73285 0.42572  14
   4  -9 -11 1.39034 0.56177  15
   3  -9 -11 55.8281 3.70794  14
   2  -9 -11 1.40611 0.50494  14
   0  -9  12 0.62956 0.41099  11
   1  -9  12 16.9874 1.52122  11
   2  -9  12 0.13350 0.43037  18
   2  -9  12 0.98315 0.46775  11
   3  -9  12 0.88744 0.51696  18
   3  -9  12 0.86768 0.46141  11
   4  -9  12 15.3529 1.43795  18
  -2  -8  12 0.11115 0.40956  11
  -2  -8  12 0.25847 0.17652  10
  -1  -8  12 1.24641 0.26757  10
  -1  -8  12 1.27143 0.59746  11
   0  -8  12 38.9377 2.74145  11
   0  -8  12 34.8927 1.84555  10
   1  -8  12 1.43837 0.72208  11
   1  -8  12 1.82244 0.29156  10
   1  -8  12 2.25888 0.61728  18
   2  -8  12 4.35016 0.40387  10
   2  -8  12 6.11277 1.12227  11
   2  -8  12 3.27315 0.74034  18
   3  -8  12 3.07321 0.74816  18
   3  -8  12 3.18823 0.31341  10
   3  -8  12 2.96087 0.68637  11
   4  -8  12 5.06097 0.97921  18
   5  -8  12 -0.2220 0.68800  18
   6  -8  12 46.2716 3.15967  18
  -4  -7  12 9.35543 1.04372  12
  -4  -7  12 9.05701 0.71266  10
  -3  -7  12 141.764 6.49683  10
  -3  -7  12 125.910 8.01936  11
  -2  -7  12 6.83440 1.06479  12
  -2  -7  12 7.43787 0.97755  11
  -2  -7  12 6.52421 0.69032  10
  -1  -7  12 1.78151 0.87810  11
  -1  -7  12 1.43750 0.47762  10
   0  -7  12 -0.1176 0.38952  10
   0  -7  12 -0.4209 0.82022  11
   1  -7  12 66.3750 4.39323  11
   1  -7  12 64.3983 3.27404  10
   1  -7  12 57.4609 4.23216  18
   2  -7  12 10.1827 1.44934  11
   2  -7  12 8.45201 1.27177  18
   2  -7  12 11.0352 0.92150  10
   3  -7  12 11.0781 1.32829  11
   3  -7  12 8.04823 1.14487  18
   3  -7  12 10.5099 0.89766  10
   4  -7  12 1.22790 0.40725  10
   4  -7  12 1.65146 0.67365  18
   4  -7  12 1.78498 0.70220  11
   5  -7  12 20.1439 1.21576  10
   5  -7  12 21.9747 1.83739  18
   6  -7  12 48.5933 3.29699  18
   6  -7  12 47.8644 2.41198  10
  -5  -6  12 21.5740 1.81851  12
  -4  -6  12 15.8033 1.75178  12
  -4  -6  12 12.5333 1.12612  10
  -3  -6  12 0.17042 0.49848  10
  -3  -6  12 0.71499 0.86835  12
  -3  -6  12 -0.1454 0.48178  11
  -3  -6  12 0.27007 0.33042   9
  -2  -6  12 27.9960 1.57995   9
  -2  -6  12 29.5024 2.55613  12
  -2  -6  12 29.9156 1.77783  10
  -2  -6  12 27.9190 2.44284  11
  -1  -6  12 23.7123 1.40736   9
  -1  -6  12 22.2936 2.28381  11
  -1  -6  12 23.8532 1.62069  10
   0  -6  12 52.8870 2.87455  10
   0  -6  12 50.2140 3.84868  11
   1  -6  12 25.9206 1.48338   9
   1  -6  12 28.4331 2.61052  11
   1  -6  12 23.8642 2.21602  18
   1  -6  12 24.2496 1.67686  10
   2  -6  12 9.96683 1.36143  11
   2  -6  12 8.85674 1.16813  18
   2  -6  12 7.42761 0.72677   9
   2  -6  12 7.99825 0.87107  10
   3  -6  12 24.3195 1.30998   9
   3  -6  12 22.3081 2.27183  11
   3  -6  12 21.6800 2.19169  18
   4  -6  12 7.31008 0.51803   9
   4  -6  12 6.13215 0.94167  11
   4  -6  12 7.63899 0.75506  10
   4  -6  12 6.96311 1.06310  18
   5  -6  12 28.2958 1.65782  10
   5  -6  12 24.5989 2.14198  18
   6  -6  12 12.8482 1.33051  18
   6  -6  12 12.2078 0.88754  10
   7  -6  12 0.32880 0.44609  18
   7  -6  12 0.33924 0.31870  10
  -6  -5  12 4.01568 0.51771  10
  -6  -5  12 4.49152 0.43691   9
  -6  -5  12 6.19763 0.85392  12
  -5  -5  12 4.48893 0.70044  10
  -5  -5  12 5.49528 0.96236  12
  -5  -5  12 4.43063 0.55761   9
  -4  -5  12 -0.6084 0.79562  12
  -4  -5  12 0.41345 0.43295   9
  -4  -5  12 -0.3005 0.53819  10
  -3  -5  12 2.00477 0.51775  10
  -3  -5  12 0.22533 0.86895  12
  -3  -5  12 1.51483 0.43404   9
  -3  -5  12 0.81284 0.54919  11
  -2  -5  12 4.83336 1.00775  11
  -2  -5  12 3.95791 1.02536  12
  -2  -5  12 5.60037 0.81975  10
  -1  -5  12 12.7381 1.51717  11
  -1  -5  12 11.5358 1.15519  10
  -1  -5  12 14.0732 1.12297   9
   0  -5  12 8.70078 0.95824  10
   0  -5  12 9.04189 1.28881  11
   0  -5  12 8.31672 0.86463   9
   1  -5  12 1.64187 0.78092  18
   1  -5  12 2.07173 0.59436  10
   1  -5  12 2.41653 0.89732  11
   1  -5  12 2.26527 0.54703   9
   2  -5  12 55.4173 3.87788  11
   2  -5  12 49.3375 2.81082  10
   2  -5  12 45.9387 3.55540  18
   2  -5  12 53.2943 2.74944   9
   3  -5  12 155.895 7.85376  10
   3  -5  12 152.636 9.98725  18
   3  -5  12 170.487 9.87868  11
   3  -5  12 158.556 7.70572   9
   4  -5  12 9.07488 1.20883  11
   4  -5  12 12.0942 1.38690  18
   4  -5  12 11.7091 0.90277   9
   4  -5  12 10.2570 0.95775  10
   5  -5  12 2.58025 0.70038  18
   5  -5  12 1.62845 0.38714   9
   5  -5  12 2.31727 0.59168  10
   6  -5  12 10.2854 0.67906   9
   6  -5  12 10.3358 0.86398  10
   6  -5  12 7.88441 1.05889  18
   7  -5  12 8.01069 0.70495  10
  -7  -4  12 49.4909 2.49796   9
  -7  -4  12 47.3910 3.38274  12
  -6  -4  12 5.66674 0.97241  12
  -6  -4  12 4.71436 0.64472   9
  -5  -4  12 -1.2599 0.45266   9
  -5  -4  12 0.31343 0.70765  12
  -5  -4  12 1.82196 0.62061  10
  -4  -4  12 6.36082 0.80809  10
  -4  -4  12 7.45674 0.87265   9
  -4  -4  12 9.09217 1.26587  12
  -4  -4  12 5.89851 0.56340   8
  -3  -4  12 3.62341 0.69938   9
  -3  -4  12 3.87561 0.73728  10
  -3  -4  12 3.05729 0.42265   8
  -3  -4  12 2.70120 0.83401  11
  -2  -4  12 38.3388 2.22423   9
  -2  -4  12 35.5299 2.32613  10
  -2  -4  12 37.1643 2.82571  11
  -2  -4  12 39.7076 2.11786   8
  -1  -4  12 5.46540 0.83271  10
  -1  -4  12 5.23563 0.78263   9
  -1  -4  12 5.67553 0.61619   8
  -1  -4  12 7.32713 2.96233   4
  -1  -4  12 5.77605 1.12341  11
   0  -4  12 16.2598 1.27526  10
   0  -4  12 17.7726 1.95081  11
   0  -4  12 13.4446 3.50596   4
   0  -4  12 17.7960 1.32659   9
   0  -4  12 15.7794 1.12285   8
   1  -4  12 3.21592 0.97829  11
   1  -4  12 2.83668 0.63339   9
   1  -4  12 4.31142 0.45763   8
   1  -4  12 4.29492 0.64703  10
   1  -4  12 2.09263 0.77863  18
   1  -4  12 5.07800 2.63853   4
   2  -4  12 0.65843 0.55253  18
   2  -4  12 -0.1232 0.32341   8
   2  -4  12 -0.3093 0.54743  10
   2  -4  12 -0.0720 0.49182   9
   3  -4  12 2.90303 0.77244  11
   3  -4  12 2.36703 0.33084   8
   3  -4  12 2.45531 0.51909   9
   3  -4  12 2.08328 0.91719  18
   3  -4  12 1.34041 0.63584  10
   4  -4  12 4.44695 0.88703  11
   4  -4  12 7.06671 0.79138   9
   4  -4  12 6.39130 1.13762  18
   4  -4  12 7.08609 0.85876  10
   5  -4  12 3.98438 0.94335  18
   5  -4  12 3.74825 0.60880   9
   5  -4  12 4.01232 0.70376  10
   6  -4  12 8.56253 0.89124  10
   6  -4  12 11.5431 1.25221  18
   6  -4  12 10.8085 0.88590   9
   7  -4  12 35.4424 1.86745  10
   7  -4  12 28.7712 2.34725  18
   7  -4  12 33.1270 1.69215   9
  -8  -3  12 3.33139 0.58939  12
  -8  -3  12 2.26396 0.37060   9
  -7  -3  12 8.29785 1.18992  12
  -7  -3  12 9.26406 0.82448   9
  -6  -3  12 2.70475 0.55244   9
  -6  -3  12 2.09379 0.41493   8
  -5  -3  12 0.32971 0.39015   8
  -5  -3  12 0.35630 0.43000   9
  -4  -3  12 218.158 10.9394   8
  -4  -3  12 223.612 10.7387   9
  -3  -3  12 3.77106 0.76623  11
  -3  -3  12 3.19632 0.60629   8
  -3  -3  12 3.32913 0.62458   9
  -2  -3  12 0.12558 1.55953   4
  -2  -3  12 1.02197 0.59872   9
  -2  -3  12 2.27943 0.54640   8
  -2  -3  12 0.95872 0.71831  11
  -1  -3  12 3.46437 0.69464   9
  -1  -3  12 3.60120 2.16219   2
  -1  -3  12 4.12255 0.61803   8
  -1  -3  12 2.73079 2.22484   4
   0  -3  12 1.61741 2.13368   4
   0  -3  12 0.02527 0.45227   9
   0  -3  12 -3.4889 1.78464   2
   0  -3  12 -0.0728 0.40053   8
   0  -3  12 0.03768 0.46660  10
   1  -3  12 46.6425 2.43609   8
   1  -3  12 38.7917 2.53081  10
   1  -3  12 33.3877 4.51698   2
   1  -3  12 48.1468 5.20758   4
   1  -3  12 43.7275 2.49959   9
   2  -3  12 -0.0647 0.45517  18
   2  -3  12 0.22311 0.38014   8
   2  -3  12 0.71346 1.44134   4
   2  -3  12 -0.7956 0.46862   9
   2  -3  12 -0.1240 0.52497  10
   3  -3  12 -0.0766 0.50887  18
   3  -3  12 -0.4833 0.33561   8
   3  -3  12 0.21802 0.50911   9
   4  -3  12 9.57661 1.31099  18
   4  -3  12 11.8410 0.87618   8
   4  -3  12 10.8211 1.03723   9
   5  -3  12 36.7955 2.16003   9
   5  -3  12 36.4480 2.01812   8
   5  -3  12 41.7284 2.97016  18
   6  -3  12 13.8271 1.03078   9
   6  -3  12 14.1921 1.43157  18
   7  -3  12 22.6324 1.42354   9
   7  -3  12 25.2816 1.87504  18
   8   2 -12 0.86851 0.36241   8
  -8  -2  12 -0.2984 0.51718   9
  -8  -2  12 -0.0007 0.24266   8
  -8  -2  12 0.94229 0.53849  12
  -7  -2  12 -0.4102 0.40134   9
  -7  -2  12 0.14378 0.28175   8
  -6  -2  12 40.1810 2.24504   8
  -6  -2  12 34.6129 2.31755   9
  -5  -2  12 -0.1590 0.48781   8
  -4  -2  12 9.90626 0.91587   8
  -4  -2  12 9.10218 0.97276   9
  -4  -2  12 6.23538 0.98578  11
  -3  -2  12 29.6321 1.87896   8
  -3  -2  12 27.1521 1.92613   9
  -3  -2  12 23.3155 3.89416   4
  -2  -2  12 2.91310 0.69031   9
  -2  -2  12 4.63353 0.61714   8
  -2  -2  12 2.83645 2.18321   4
  -1  -2  12 31.8167 2.03384   9
  -1  -2  12 35.1127 2.03242   8
  -1  -2  12 38.0559 4.11416   4
   0  -2  12 52.3464 4.92976   4
   0  -2  12 44.5734 2.65368   9
   0  -2  12 49.4377 2.71203   8
   1  -2  12 30.3562 1.95207   9
   1  -2  12 30.0476 1.82416   8
   2  -2  12 4.79527 0.70073   9
   2  -2  12 5.72550 0.69197   8
   2  -2  12 4.37820 0.86748  18
   3  -2  12 10.8609 0.96285   8
   3  -2  12 9.09553 1.01067   9
   3  -2  12 8.38385 1.16525  18
   4  -2  12 21.5540 1.92411  18
   4  -2  12 18.9427 1.33184   8
   4  -2  12 17.9977 1.45970   9
   5  -2  12 3.01466 0.53801   9
   5  -2  12 2.24065 0.45112   8
   5  -2  12 1.59276 0.75435  18
   6  -2  12 -0.0328 0.25651   8
   6  -2  12 -0.0627 0.33579   9
   6  -2  12 -0.7110 0.61591  18
   9   1 -12 3.75136 0.41267   8
  -9  -1  12 2.72812 0.57138  12
  -9  -1  12 3.75560 0.36617   8
   8   1 -12 4.54441 0.63788   8
  -8  -1  12 3.44954 0.57011   8
   7   1 -12 3.24830 0.55850   8
  -7  -1  12 3.18369 0.55123   8
  -6  -1  12 66.3392 3.62005   8
  -5  -1  12 14.8614 1.32714   8
  -4  -1  12 -0.3105 2.18462   4
  -4  -1  12 0.64640 0.55527   8
   3   1 -12 6.73339 2.13058   6
  -3  -1  12 10.8191 0.94693   8
  -3  -1  12 6.76904 2.41332   4
  -2  -1  12 239.645 12.4014   8
  -2  -1  12 266.568 16.7426   4
  -1  -1  12 0.60198 0.45531   8
   0  -1  12 0.84024 0.48150   8
   1  -1  12 2.21348 0.45545   8
   2  -1  12 1.96700 0.52999   8
   2  -1  12 0.94407 0.66509  18
   3  -1  12 5.78689 0.68198   8
   4  -1  12 -0.4073 0.43234   8
   5  -1  12 13.3781 1.09932   8
  -6   1 -12 12.5027 1.15246   8
   6  -1  12 13.2152 1.17844   9
   6  -1  12 14.4542 0.93336   8
  -7   1 -12 0.18828 0.32299   8
   7  -1  12 0.54922 0.32114   9
   7  -1  12 0.43579 0.18148   8
   7  -1  12 0.41619 0.42366  18
   9   0 -12 4.64197 0.73582  16
   9   0 -12 5.05341 0.49340   8
  -9   0  12 3.77281 0.53568   8
   8   0 -12 24.2255 1.57654   8
  -8   0  12 23.3302 1.61079   8
   7   0 -12 44.1571 2.51859   8
  -7   0  12 44.0092 2.63429   8
   6   0 -12 2.04888 0.51399   8
  -6   0  12 1.02994 0.61803   8
   5   0 -12 7.53818 0.82437   8
  -5   0  12 4.80829 0.81044   8
   4   0 -12 71.8545 3.95598   8
  -4   0  12 72.5029 6.17267   4
  -4   0  12 71.0720 4.02774   8
   3   0 -12 5.23597 1.97385   6
  -3   0  12 8.75406 2.20970   4
   0   0  12 0.69987 0.35434   8
   1   0  12 4.12304 0.69514   8
   2   0  12 4.35518 0.73026   8
  -3   0 -12 8.25849 0.91984   8
   3   0  12 8.98626 0.87936   8
  -4   0 -12 8.60648 0.98570   8
   4   0  12 10.0209 0.96073   8
  -5   0 -12 0.14558 0.50725   8
   5   0  12 0.78233 0.47414   8
  -6   0 -12 21.2801 1.48122   8
   6   0  12 22.2128 1.39020   8
   7   0  12 14.2523 0.83319   8
   7   0  12 14.4026 1.20612  18
   9  -1 -12 3.22517 0.50526   9
   9  -1 -12 1.42465 0.55770  16
   9  -1 -12 3.45191 0.42721   8
  -9   1  12 2.72794 0.48926   8
   8  -1 -12 31.3758 1.87448   8
   7  -1 -12 7.75312 0.88178   8
   6  -1 -12 -0.3455 0.34003   8
   5  -1 -12 109.870 5.72059   8
   4  -1 -12 4.42900 2.16321   6
   4  -1 -12 7.09136 0.85310   8
   3  -1 -12 25.1015 3.74071   6
   3  -1 -12 31.2475 1.89213   8
   2  -1 -12 2.91973 0.61479   8
   1  -1 -12 22.1091 1.59219   8
   0  -1 -12 7.88829 0.91037   8
  -1  -1 -12 1.66416 0.58468   8
  -2  -1 -12 1.52054 0.57565   8
  -3  -1 -12 51.9617 3.00855   8
  -4  -1 -12 9.62817 0.93192   8
   4   1  12 8.76602 0.95935   8
  -5  -1 -12 3.53585 0.61751   8
   5   1  12 2.63995 0.49005   8
  -6  -1 -12 32.0865 1.74333   8
   6   1  12 30.6792 1.75222   8
   9  -2 -12 0.45157 0.44270   9
   9  -2 -12 0.19969 0.18603   8
   9  -2 -12 0.28677 0.50158  16
   8  -2 -12 3.14201 0.53392   9
   8  -2 -12 2.68907 0.47734   8
   7  -2 -12 10.4798 1.03238   9
   7  -2 -12 9.09951 0.87265   8
   6  -2 -12 13.2483 1.04478   8
   6  -2 -12 13.2587 1.24516   9
   5  -2 -12 2.64663 0.87691  15
   5  -2 -12 3.32276 0.63401   8
   5  -2 -12 2.63488 0.55500   9
   4  -2 -12 6.37776 0.77124   8
   4  -2 -12 5.14019 0.82384   9
   4  -2 -12 4.41820 2.19666   6
   3  -2 -12 8.15642 2.52626   6
   3  -2 -12 10.1298 0.96733   9
   3  -2 -12 10.8058 0.93055   8
   2  -2 -12 280.599 13.8019   8
   2  -2 -12 282.477 19.1438   6
   2  -2 -12 274.572 13.3995   9
   1  -2 -12 245.061 11.9910   8
   1  -2 -12 238.420 16.8011   6
   1  -2 -12 238.579 11.6757   9
   0  -2 -12 7.23393 0.83734   8
   0  -2 -12 5.93413 0.88021   9
  -1  -2 -12 0.89233 0.81735  14
  -1  -2 -12 1.92499 0.58346   8
  -2  -2 -12 17.7117 1.36709   8
  -2  -2 -12 17.1016 1.68927  14
  -3  -2 -12 0.21753 0.38195   9
  -3  -2 -12 0.54388 0.47440   8
  -4  -2 -12 50.3744 2.62853   8
  -4  -2 -12 44.2063 2.69543   9
  -5  -2 -12 0.70205 0.56176  14
  -5  -2 -12 0.02072 0.33843   8
  -5  -2 -12 -0.5213 0.51709   9
   5   2  12 0.17754 0.34994   8
  -6  -2 -12 13.0039 1.21098  14
  10  -3 -12 1.00331 0.44354  16
   9  -3 -12 2.88177 0.43235   9
   9  -3 -12 0.92734 0.56966  16
   8  -3 -12 1.18298 0.25031   8
   8  -3 -12 0.69923 0.80546  16
   8  -3 -12 0.87807 0.51015   9
   7  -3 -12 181.910 8.75727   9
   7  -3 -12 177.268 8.85258   8
   6  -3 -12 0.23686 0.50572   9
   6  -3 -12 0.70336 0.79392  15
   6  -3 -12 1.41967 0.42273   8
   5  -3 -12 0.88630 0.41486   9
   5  -3 -12 -0.0801 0.76831  15
   5  -3 -12 1.51681 0.46446   8
   4  -3 -12 0.45162 0.60834  15
   4  -3 -12 0.34913 2.05389   6
   4  -3 -12 0.60235 0.45303   8
   4  -3 -12 -0.0213 0.45910   9
   3  -3 -12 0.92041 1.90033   6
   3  -3 -12 0.36510 0.41048   8
   3  -3 -12 0.89172 0.48482   9
   2  -3 -12 64.7203 3.61804   9
   2  -3 -12 71.2201 3.62301   8
   2  -3 -12 62.2824 6.55974   6
   1  -3 -12 -0.1416 0.38370   8
   1  -3 -12 1.36344 2.09229   6
   1  -3 -12 0.07414 0.49049   9
   0  -3 -12 12.5185 1.06668   9
   0  -3 -12 12.4322 1.04267   8
   0  -3 -12 11.6139 1.34213  14
  -1  -3 -12 1.76629 0.57806   9
  -1  -3 -12 1.09620 0.44390   8
  -1  -3 -12 1.05279 0.62369  14
  -2  -3 -12 18.2730 1.41384   9
  -2  -3 -12 16.9005 1.20358   8
  -2  -3 -12 16.1740 1.88018  14
  -3  -3 -12 -0.0874 0.78669  14
  -3  -3 -12 0.92312 0.34711   8
  -3  -3 -12 1.37227 0.57208   9
  -4  -3 -12 7.09306 0.99695  14
  -4  -3 -12 6.10343 0.49801   8
  -4  -3 -12 4.30870 0.68727   9
  -5  -3 -12 27.1889 1.52310   9
  -5  -3 -12 26.3352 2.02423  14
   9  -4 -12 37.1483 1.98147   9
   9  -4 -12 37.3827 2.76451  16
   8  -4 -12 63.4960 3.56559  10
   8  -4 -12 73.8632 4.79722  16
   7  -4 -12 4.68389 1.10592  16
   7  -4 -12 4.46274 0.64481   9
   7  -4 -12 4.41115 0.94618  15
   7  -4 -12 6.11146 0.72893  10
   6  -4 -12 12.1298 1.46377  15
   6  -4 -12 8.67551 1.37801  16
   6  -4 -12 13.8185 1.21444  10
   6  -4 -12 13.6852 1.13563   9
   6  -4 -12 12.0442 0.67098   8
   5  -4 -12 41.1102 2.25815   9
   5  -4 -12 39.6823 3.18805  15
   5  -4 -12 36.1578 1.99229   8
   5  -4 -12 35.9619 2.98565  16
   5  -4 -12 37.8065 2.28497  10
   4  -4 -12 2.75659 0.62272   9
   4  -4 -12 4.03153 0.69851  10
   4  -4 -12 4.63393 0.52046   8
   4  -4 -12 2.81505 1.06071  15
   3  -4 -12 13.6820 1.25593  10
   3  -4 -12 14.3619 0.98495   8
   3  -4 -12 15.4740 1.23114   9
   3  -4 -12 17.3244 2.01532  15
   2  -4 -12 13.4885 1.19632   9
   2  -4 -12 14.7942 0.97275   8
   2  -4 -12 12.1595 1.20780  10
   1  -4 -12 32.0369 2.09926  10
   1  -4 -12 37.0646 2.11738   9
   1  -4 -12 36.8551 1.93489   8
   1  -4 -12 29.1187 2.69313  14
   0  -4 -12 1.70971 0.84759  14
   0  -4 -12 2.23646 0.61870   9
   0  -4 -12 2.41444 0.37655   8
   0  -4 -12 2.20257 0.50699  10
  -1  -4 -12 1.75518 0.67168  15
  -1  -4 -12 1.09083 0.79757  14
  -1  -4 -12 1.26353 0.44098  10
  -1  -4 -12 1.62122 0.34311   8
  -1  -4 -12 2.67450 0.59178   9
  -2  -4 -12 0.91010 0.57977  14
  -2  -4 -12 0.59848 0.47947   9
  -3  -4 -12 0.47750 0.43350   9
  -3  -4 -12 0.65048 0.52708  14
  -4  -4 -12 2.14983 0.60840  14
  -4  -4 -12 1.42051 0.40336   9
   9  -5 -12 -0.0213 0.48388  16
   9  -5 -12 0.04855 0.27164  10
   8  -5 -12 7.10854 1.04236  16
   8  -5 -12 6.38738 0.59111   9
   7  -5 -12 11.0662 0.84044   9
   7  -5 -12 9.18646 0.91340  10
   7  -5 -12 7.78530 1.22363  15
   7  -5 -12 10.6072 1.25628  16
   6  -5 -12 95.1075 4.82013   9
   6  -5 -12 102.916 4.98685  10
   6  -5 -12 93.2251 6.60709  15
   5  -5 -12 1.23639 0.47199   9
   5  -5 -12 2.02988 0.46651  10
   5  -5 -12 2.28328 1.03703  15
   4  -5 -12 5.31639 0.72598  10
   4  -5 -12 5.70521 1.23518  15
   4  -5 -12 5.09549 0.65175   9
   3  -5 -12 18.0124 1.20671   9
   3  -5 -12 17.4959 1.35972  10
   3  -5 -12 19.6942 2.01168  15
   2  -5 -12 5.31062 1.13565  15
   2  -5 -12 3.82667 0.95495  14
   2  -5 -12 6.69132 0.72919   9
   2  -5 -12 5.83482 0.73960  10
   1  -5 -12 0.69250 0.50551  10
   1  -5 -12 0.75960 0.58912  14
   1  -5 -12 0.86450 0.43805   9
   1  -5 -12 1.50254 0.78803  15
   0  -5 -12 -0.0691 0.53197  14
   0  -5 -12 0.61959 0.59756  15
   0  -5 -12 0.18740 0.34962  10
   0  -5 -12 0.05864 0.39016   9
  -1  -5 -12 -0.2161 0.34371   9
  -1  -5 -12 -0.1155 0.72646  14
  -1  -5 -12 -0.4540 0.43579  10
  -2  -5 -12 4.19278 0.50144   9
  -2  -5 -12 4.59288 0.55988  10
  -2  -5 -12 3.29207 0.73441  14
  -3  -5 -12 2.44669 0.63679  14
  -3  -5 -12 1.29319 0.38298  10
  -3  -5 -12 2.97723 0.30896   9
   9  -6 -12 10.0153 0.68739  10
   8  -6 -12 5.96668 0.79632  15
   8  -6 -12 2.52008 0.60018  16
   7  -6 -12 31.9030 2.55667  15
   7  -6 -12 26.3865 2.26943  16
   7  -6 -12 32.6206 1.75762  10
   6  -6 -12 37.6089 1.93470   9
   6  -6 -12 40.3211 2.18628  10
   6  -6 -12 39.1197 3.05810  15
   5  -6 -12 4.97139 0.67138  10
   5  -6 -12 4.85366 1.17035  15
   5  -6 -12 5.10980 0.46750   9
   4  -6 -12 7.58434 1.26731  15
   4  -6 -12 7.94922 0.82056  10
   4  -6 -12 7.63876 0.63089   9
   3  -6 -12 4.41335 0.47559   9
   3  -6 -12 3.17906 1.00751  15
   3  -6 -12 4.52034 0.81395  14
   3  -6 -12 5.93516 0.71104  10
   2  -6 -12 34.5976 1.99478  10
   2  -6 -12 29.1714 2.59007  14
   2  -6 -12 38.5176 3.11083  15
   2  -6 -12 37.9424 1.88495   9
   1  -6 -12 10.5749 1.01514  10
   1  -6 -12 10.2280 1.30814  15
   1  -6 -12 11.8914 0.78556   9
   1  -6 -12 7.19711 1.16700  14
   0  -6 -12 0.05546 0.42013  10
   0  -6 -12 0.28517 0.52383  14
   0  -6 -12 -0.1681 0.20152   9
  -1  -6 -12 18.2914 1.65994  14
  -1  -6 -12 17.6708 0.89894   9
  -1  -6 -12 20.1283 1.27247  10
  -2  -6 -12 5.57404 0.53148  10
  -2  -6 -12 4.53191 0.82199  14
   8  -7 -12 69.1932 3.32126  10
   8  -7 -12 66.2984 4.48355  15
   7  -7 -12 0.99553 0.58414  15
   6  -7 -12 2.04013 0.37551  10
   6  -7 -12 2.32101 0.77017  15
   5  -7 -12 1.24145 0.72170  15
   5  -7 -12 1.25010 0.39098  10
   4  -7 -12 0.12242 0.59606  14
   4  -7 -12 0.37890 0.34652  10
   4  -7 -12 -0.6704 0.59522  15
   3  -7 -12 14.3628 1.72194  15
   3  -7 -12 17.7652 1.11283  10
   3  -7 -12 14.0106 1.43888  14
   2  -7 -12 12.5176 0.94958  10
   2  -7 -12 12.5502 1.40167  15
   2  -7 -12 11.5861 1.42837  14
   1  -7 -12 10.7979 1.20007  14
   1  -7 -12 11.8716 0.82066  10
   0  -7 -12 45.7567 3.37277  14
   0  -7 -12 52.4541 2.53313  10
  -1  -7 -12 45.2861 3.32210  14
  -1  -7 -12 53.6247 2.48930  10
   7  -8 -12 -0.3206 0.42913  15
   6  -8 -12 2.16936 0.61917  15
   5  -8 -12 100.781 6.68520  15
   4  -8 -12 54.1859 2.63360  10
   4  -8 -12 48.6546 3.58604  14
   4  -8 -12 62.7210 3.98295  15
   3  -8 -12 3.92924 0.34924  10
   3  -8 -12 3.14472 0.61735  14
   3  -8 -12 2.93748 0.68856  15
   2  -8 -12 0.51747 0.43089  14
   2  -8 -12 0.46050 0.16871  10
   1  -8 -12 10.6668 1.03903  14
  -1  -8  13 9.26629 1.01750  11
   0  -8  13 5.77136 0.36077  10
   0  -8  13 6.46921 0.85539  11
   1  -8  13 0.23957 0.47170  11
   1  -8  13 -0.0141 0.14273  10
   2  -8  13 1.36591 0.52429  18
   2  -8  13 2.48803 0.63760  11
   3  -8  13 20.5481 1.50292  11
   3  -8  13 15.2377 1.45436  18
  -3  -7  13 17.1262 0.99755  10
  -3  -7  13 16.0794 1.31766  11
  -2  -7  13 7.66486 0.91318  11
  -2  -7  13 8.57329 0.75876  10
  -1  -7  13 0.86600 0.41772  10
  -1  -7  13 0.95412 0.59932  11
   0  -7  13 34.2437 2.54305  11
   0  -7  13 31.8817 1.84906  10
   1  -7  13 26.1331 2.08088  11
   1  -7  13 22.4720 1.45523  10
   2  -7  13 12.4144 1.33023  18
   2  -7  13 13.8549 1.00522  10
   2  -7  13 15.6489 1.75037  11
   3  -7  13 -0.1566 0.34067  10
   3  -7  13 0.85619 0.52448  11
   3  -7  13 -0.8237 0.71206  18
   4  -7  13 9.22933 1.11869  18
   4  -7  13 9.70035 0.76473  10
   5  -7  13 84.7158 4.20654  10
   5  -7  13 89.8517 5.53893  18
  -4  -6  13 10.8860 0.86707  10
  -4  -6  13 12.1843 1.21875  12
  -3  -6  13 14.8972 1.50624  11
  -3  -6  13 15.1979 1.19101  10
  -3  -6  13 15.2844 1.48701  12
  -2  -6  13 0.81227 0.57050  11
  -2  -6  13 0.92296 0.29073   9
  -2  -6  13 0.42157 0.50895  10
  -1  -6  13 0.60408 0.28731   9
  -1  -6  13 0.00279 0.56469  11
  -1  -6  13 0.88972 0.50570  10
   0  -6  13 151.116 7.34311   9
   0  -6  13 159.468 9.58086  11
   0  -6  13 154.722 7.60965  10
   1  -6  13 42.5620 3.15014  11
   1  -6  13 41.4822 2.40366  10
   2  -6  13 4.31973 0.80345  18
   2  -6  13 4.47641 0.90224  11
   2  -6  13 2.37622 0.59814  10
   2  -6  13 2.45327 0.32080   9
   3  -6  13 27.7157 2.23913  11
   3  -6  13 22.5210 2.18325  18
   3  -6  13 26.4127 1.65321  10
   4  -6  13 21.9979 1.39602  10
   4  -6  13 22.1586 1.84056  18
   4  -6  13 20.6066 1.80442  11
   5  -6  13 23.7264 1.90286  18
   6  -6  13 9.59103 1.06951  18
  -6  -5  13 0.92889 0.44971  12
  -5  -5  13 1.96458 0.35632   9
  -5  -5  13 2.05947 0.44828  10
  -5  -5  13 2.34986 0.81562  12
  -4  -5  13 2.80509 0.71304  12
  -4  -5  13 1.76677 0.43180   9
  -4  -5  13 1.60508 0.47244  10
  -3  -5  13 0.04594 0.55540  10
  -3  -5  13 0.30574 0.55405  12
  -3  -5  13 -0.2445 0.65140  11
  -3  -5  13 -0.2326 0.40335   9
  -2  -5  13 19.4918 2.00840  12
  -2  -5  13 22.7789 1.50617  10
  -2  -5  13 24.4042 1.96680  11
  -1  -5  13 1.59786 0.48669   9
  -1  -5  13 1.54533 0.47602  10
  -1  -5  13 0.88320 0.81580  11
   0  -5  13 0.61307 0.60076  11
   0  -5  13 0.40952 0.42210  10
   0  -5  13 0.68393 0.47033   9
   1  -5  13 31.4720 1.93807   9
   1  -5  13 33.1482 2.11199  10
   1  -5  13 35.3499 2.73017  11
   2  -5  13 73.0483 3.85873  10
   2  -5  13 72.2525 3.72704   9
   2  -5  13 82.1397 5.03594  11
   2  -5  13 67.0585 4.81143  18
   3  -5  13 0.24472 0.71217  11
   3  -5  13 -0.3147 0.37106   9
   3  -5  13 0.61915 0.75025  18
   3  -5  13 -0.2466 0.52225  10
   4  -5  13 9.53183 0.79082   9
   4  -5  13 12.3739 1.30402  18
   4  -5  13 10.2235 0.98324  10
   4  -5  13 8.92196 1.09225  11
   5  -5  13 15.9225 0.95907   9
   5  -5  13 17.4585 1.69508  18
   5  -5  13 15.4671 1.13941  10
   6  -5  13 2.96079 0.43257  10
   6  -5  13 1.74593 0.53441  18
  -6  -4  13 3.23092 0.72630  12
  -6  -4  13 2.05668 0.48389   9
  -5  -4  13 1.16900 0.41879   9
  -5  -4  13 2.60078 0.92588  12
  -5  -4  13 1.25121 0.51500  10
  -4  -4  13 4.83305 0.71942   9
  -4  -4  13 4.65442 0.76663  10
  -3  -4  13 0.05653 0.22109   8
  -3  -4  13 1.14451 0.70642  12
  -3  -4  13 0.24209 0.50167  11
  -3  -4  13 0.24771 0.40373  10
  -2  -4  13 66.6724 3.43741   9
  -2  -4  13 62.0415 3.49174  10
  -2  -4  13 63.9305 4.34896  11
  -2  -4  13 61.3622 3.20786   8
  -1  -4  13 4.48565 0.73833   9
  -1  -4  13 4.03043 0.78733  10
  -1  -4  13 4.64143 1.06092  11
  -1  -4  13 4.74714 0.48004   8
   0  -4  13 16.0649 1.78841  11
   0  -4  13 12.1878 1.03761   9
   0  -4  13 13.4244 1.24826  10
   0  -4  13 12.1169 0.86768   8
   1  -4  13 -0.0519 0.38272  10
   1  -4  13 1.18489 0.82203  11
   1  -4  13 0.50955 0.51299   9
   1  -4  13 0.29305 0.24874   8
   2  -4  13 66.5140 3.63892  10
   2  -4  13 72.6402 3.59366   9
   2  -4  13 63.4656 3.32686   8
   2  -4  13 82.1885 4.76604  11
   2  -4  13 59.9831 4.48163  18
   3  -4  13 12.7133 1.46583  11
   3  -4  13 14.6209 1.28458  10
   3  -4  13 13.9326 1.14113   9
   3  -4  13 12.5701 1.46064  18
   4  -4  13 10.4156 1.30846  18
   4  -4  13 11.5049 1.01081  10
   4  -4  13 11.6410 0.88499   9
   4  -4  13 11.3478 1.32985  11
   5  -4  13 2.14794 0.57527  10
   5  -4  13 2.37353 0.48426   9
   5  -4  13 3.28783 0.72087  18
   6  -4  13 53.9432 2.89111  10
   6  -4  13 53.9362 2.70538   9
   7  -4  13 1.02847 0.41218  18
  -7  -3  13 5.81272 0.66337   9
  -7  -3  13 6.59810 0.83848  12
  -6  -3  13 4.13312 0.69860   9
  -6  -3  13 2.25569 0.77448  12
  -6  -3  13 3.05105 0.32468   8
  -5  -3  13 18.5727 1.20997   8
  -5  -3  13 20.5661 1.48871   9
  -4  -3  13 1.87511 0.56189  11
  -4  -3  13 1.94772 0.48153   8
  -3  -3  13 13.5256 1.04468   8
  -3  -3  13 10.2715 1.09369   9
  -3  -3  13 10.7404 1.28029  11
  -2  -3  13 6.09200 1.04464  11
  -2  -3  13 6.67067 0.73927   8
  -2  -3  13 4.57885 0.79158   9
  -1  -3  13 1.34825 0.60265   9
  -1  -3  13 2.28501 0.55108   8
   0  -3  13 39.0597 2.23242   8
   0  -3  13 38.2761 2.34167   9
   1  -3  13 10.5550 1.04581   9
   1  -3  13 10.7478 0.94237   8
   2  -3  13 1.18420 0.43613   9
   2  -3  13 0.27199 0.37996   8
   2  -3  13 1.34032 0.72347  18
   3  -3  13 68.1087 3.48440   9
   3  -3  13 65.6917 4.47748  18
   3  -3  13 63.3698 3.39305   8
   4  -3  13 50.3424 2.59440   8
   4  -3  13 50.9262 2.77858   9
   4  -3  13 48.8486 3.49828  18
   5  -3  13 15.3429 1.10724   9
   5  -3  13 15.9521 1.48913  18
   6  -3  13 15.4041 1.41236  18
   7  -3  13 4.57567 0.42045   9
   7  -3  13 5.55625 0.70495  18
  -8  -2  13 1.83188 0.54170  12
  -7  -2  13 8.21183 0.70572   8
  -7  -2  13 7.95109 0.86475   9
  -6  -2  13 -0.3328 0.41733   8
  -6  -2  13 0.88439 0.61701   9
  -5  -2  13 16.3922 1.28029   8
  -4  -2  13 3.25026 0.67851   8
  -4  -2  13 2.00708 0.68521  11
  -4  -2  13 3.78856 0.78606   9
  -3  -2  13 7.20592 1.06027  11
  -3  -2  13 7.59829 0.96611   9
  -3  -2  13 7.35940 0.86733   8
  -2  -2  13 0.17278 0.40168   9
  -2  -2  13 -0.0543 0.46279   8
  -1  -2  13 134.892 7.07451   9
  -1  -2  13 148.128 7.22526   8
   0  -2  13 0.50531 0.35252   8
   0  -2  13 -1.7598 1.91025   4
   0  -2  13 0.50565 0.53184   9
   1  -2  13 29.6183 1.83643   8
   1  -2  13 27.8259 1.90671   9
   2  -2  13 0.55186 0.56146   9
   2  -2  13 -0.5468 0.41275   8
   3  -2  13 43.9429 2.43768   8
   3  -2  13 42.2376 2.53681   9
   3  -2  13 42.2925 3.06867  18
   4  -2  13 4.00604 0.70151   9
   4  -2  13 4.70904 0.92711  18
   4  -2  13 4.86522 0.58031   8
   5  -2  13 4.67456 0.61681   9
   5  -2  13 3.68603 0.82197  18
   5  -2  13 3.53047 0.43850   8
   6  -2  13 3.29174 0.73732  18
   6  -2  13 2.32468 0.54660   9
   8   1 -13 0.85358 0.33024   8
  -8  -1  13 0.73930 0.27416   8
   7   1 -13 4.20580 0.64449   8
  -7  -1  13 3.61790 0.50427   8
   6   1 -13 3.64824 0.69758   8
  -6  -1  13 4.66813 0.69837   8
  -5  -1  13 13.8292 1.15373   8
  -4  -1  13 6.31972 0.86607   8
  -4  -1  13 8.94988 1.02329  11
  -3  -1  13 98.1809 5.15814   8
  -2  -1  13 30.5530 4.01903   4
  -2  -1  13 31.4431 1.94732   8
  -1  -1  13 2.26087 2.16348   4
  -1  -1  13 2.66591 0.60944   8
   0  -1  13 15.1662 1.19063   8
   1  -1  13 10.6394 1.01040   8
   2  -1  13 93.8066 4.92539   8
   3  -1  13 42.0515 3.10755  18
   3  -1  13 43.0861 2.43745   8
   4  -1  13 4.19944 0.74507  18
   4  -1  13 4.92754 0.65240   8
   5  -1  13 2.14035 0.51537   9
   5  -1  13 2.99704 0.49333   8
   5  -1  13 2.24209 0.60593  18
  -6   1 -13 0.17122 0.31173   8
   6  -1  13 -0.3772 0.36479  18
   6  -1  13 0.07474 0.16629   8
   6  -1  13 0.34128 0.33078   9
   9   0 -13 5.74904 0.44814   8
  -9   0  13 5.96068 0.51256   8
   8   0 -13 20.1166 1.29687   8
  -8   0  13 17.9867 1.31052   8
   7   0 -13 60.2018 3.19238   8
  -7   0  13 56.0366 3.16968   8
   6   0 -13 22.9500 1.63779   8
  -6   0  13 23.5466 1.59626   8
   5   0 -13 6.38263 0.76113   8
  -5   0  13 5.40486 0.84660   8
   4   0 -13 34.3943 2.17875   8
  -4   0  13 33.0556 2.10240   8
   3   0 -13 33.9939 2.05410   8
   3   0 -13 26.7273 3.75179   6
  -3   0  13 31.3728 2.02403   8
  -3   0  13 38.2211 4.47596   4
   2   0 -13 26.8447 1.77921   8
  -2   0  13 27.3471 1.76928   8
   1   0 -13 28.2220 1.79983   8
  -1   0  13 25.0802 1.82522   8
   0   0 -13 3.70609 0.70734   8
   0   0  13 3.66663 0.66563   8
  -1   0 -13 1.25720 0.59246   8
   1   0  13 1.05899 0.51812   8
  -2   0 -13 58.0078 3.32257   8
   2   0  13 57.8802 3.21669   8
  -3   0 -13 23.2562 1.58000   8
   3   0  13 22.1381 1.50784   8
  -4   0 -13 2.67803 0.62999   8
   4   0  13 3.02036 0.58812   8
  -5   0 -13 16.9484 1.23804   8
   5   0  13 19.6349 1.26873   8
  -6   0 -13 49.9686 2.74226   8
  -6   0 -13 49.8485 3.48667  14
   6   0  13 55.2937 2.69251   8
   6   0  13 54.5915 3.41688  18
   9  -1 -13 2.98425 0.27389   8
   9  -1 -13 2.51886 0.55216  16
  -9   1  13 3.03949 0.43520   8
   8  -1 -13 2.15328 0.36495   8
  -8   1  13 1.98996 0.56682   8
   7  -1 -13 1.74370 0.42734   8
   6  -1 -13 1.85386 0.58680   8
   5  -1 -13 -0.1798 0.34622   8
   4  -1 -13 23.3872 1.65606   8
   3  -1 -13 2.91105 2.10286   6
   3  -1 -13 1.83381 0.48228   8
   2  -1 -13 0.77165 1.33157   6
   2  -1 -13 1.30483 0.42472   8
   1  -1 -13 4.95429 0.75665   8
   0  -1 -13 2.39708 0.63815   8
  -1  -1 -13 0.36129 0.36248   8
  -2  -1 -13 31.5553 2.04164   8
  -3  -1 -13 15.2784 1.27135   8
   3   1  13 14.6524 1.28010   8
  -4  -1 -13 1.45097 0.49804   8
   4   1  13 1.20650 0.51716   8
  -5  -1 -13 48.5107 2.47458   8
  -5  -1 -13 41.8263 3.12796  14
   9  -2 -13 2.16832 0.55540  16
   9  -2 -13 1.24364 0.33945   9
   8  -2 -13 7.01333 0.53769   8
   8  -2 -13 6.87158 0.74161   9
   7  -2 -13 1.44440 0.54761   9
   7  -2 -13 0.96479 0.40456   8
   6  -2 -13 21.7379 1.36017   8
   6  -2 -13 19.3823 1.42531   9
   5  -2 -13 1.51649 0.43658   8
   5  -2 -13 0.83537 0.57493   9
   5  -2 -13 1.76940 0.84893  15
   4  -2 -13 13.3386 1.26840   9
   3  -2 -13 2.26531 0.55521   8
   3  -2 -13 0.86465 0.57393   9
   2  -2 -13 143.739 7.18343   8
   2  -2 -13 137.443 7.03731   9
   1  -2 -13 14.6392 1.11500   8
   1  -2 -13 13.1470 1.27167   9
   0  -2 -13 28.8595 1.88333   8
   0  -2 -13 29.0107 1.94607   9
  -1  -2 -13 -0.1092 0.37836   9
  -1  -2 -13 0.08986 0.32922   8
  -2  -2 -13 -0.0346 0.73999  14
  -2  -2 -13 -0.0367 0.54134   9
  -2  -2 -13 0.12477 0.44610   8
  -3  -2 -13 43.2361 3.12318  14
  -3  -2 -13 41.8657 2.42026   9
  -4  -2 -13 0.27431 0.73718  14
  -4  -2 -13 -0.4063 0.30980   8
  -4  -2 -13 0.18926 0.36990   9
  -5  -2 -13 0.86170 0.44131  14
  -5  -2 -13 0.77398 0.20026   8
  -5  -2 -13 0.27594 0.31980   9
   5   2  13 0.61232 0.30809   8
   9  -3 -13 0.49930 0.45664  16
   9  -3 -13 0.16067 0.24449   9
   8  -3 -13 6.55252 0.95813  16
   8  -3 -13 8.12806 0.71838   9
   7  -3 -13 53.5667 2.82031   9
   7  -3 -13 51.4547 2.66404   8
   6  -3 -13 13.7608 1.25754   9
   6  -3 -13 15.1592 1.56065  15
   6  -3 -13 16.1450 1.04202   8
   5  -3 -13 12.8743 1.51150  15
   5  -3 -13 14.0805 1.01202   8
   5  -3 -13 12.2057 1.05872   9
   4  -3 -13 15.5416 1.33797   9
   4  -3 -13 15.7605 1.17654   8
   4  -3 -13 19.4626 1.80951  15
   3  -3 -13 47.5457 2.62204   8
   3  -3 -13 46.0823 2.68211   9
   2  -3 -13 74.2475 3.99549   9
   2  -3 -13 77.9885 4.02622   8
   1  -3 -13 16.4949 1.12044   8
   1  -3 -13 15.4382 1.22863   9
   0  -3 -13 2.55494 0.49240   8
   0  -3 -13 3.68530 0.69622   9
  -1  -3 -13 41.7094 3.18822  14
  -1  -3 -13 41.8691 2.34965   8
  -1  -3 -13 44.5036 2.50056   9
  -2  -3 -13 30.6512 2.57948  14
  -2  -3 -13 33.0114 1.79092   8
  -2  -3 -13 30.9067 1.89551   9
  -3  -3 -13 0.26431 0.50124  14
  -3  -3 -13 -0.2567 0.47028   9
  -3  -3 -13 0.10726 0.20950   8
  -4  -3 -13 8.79305 1.00835  14
  -4  -3 -13 9.08710 0.85848   9
   9  -4 -13 9.48209 0.62656   9
   9  -4 -13 7.97704 0.94464  16
   8  -4 -13 96.7813 4.71696   9
   8  -4 -13 95.5036 6.26285  16
   7  -4 -13 56.3771 4.03924  16
   7  -4 -13 55.7927 3.11177  10
   7  -4 -13 62.4763 3.06740   9
   6  -4 -13 -0.2336 0.69309  16
   6  -4 -13 1.99039 0.90795  15
   6  -4 -13 0.94304 0.43055  10
   6  -4 -13 1.39884 0.52095   9
   5  -4 -13 8.18950 0.80401   9
   5  -4 -13 6.47188 0.88299  10
   5  -4 -13 9.00692 1.25474  15
   4  -4 -13 32.1675 1.90377   9
   4  -4 -13 33.0296 2.80003  15
   4  -4 -13 29.6677 1.94392  10
   4  -4 -13 29.2940 1.60037   8
   3  -4 -13 0.18663 0.28496   8
   3  -4 -13 -0.1838 0.30750   9
   3  -4 -13 0.61441 0.38346  10
   3  -4 -13 0.18852 0.81213  15
   2  -4 -13 0.94126 0.50418   9
   2  -4 -13 0.27685 0.48248  10
   2  -4 -13 2.17244 0.94204  15
   1  -4 -13 1.94005 0.76023  15
   1  -4 -13 0.42923 0.50434   9
   1  -4 -13 0.64381 0.54667  10
   0  -4 -13 19.6026 1.98255  15
   0  -4 -13 18.6220 1.02646   8
   0  -4 -13 15.8159 1.78230  14
   0  -4 -13 18.8978 1.43767  10
   0  -4 -13 20.3633 1.38090   9
  -1  -4 -13 16.3099 1.55890  15
  -1  -4 -13 18.6062 1.27931   9
  -1  -4 -13 17.4585 1.62549  14
  -2  -4 -13 11.6013 0.98986   9
  -2  -4 -13 11.8855 1.44607  14
  -3  -4 -13 5.83866 0.81691  14
  -3  -4 -13 6.64142 0.59380   9
   8  -5 -13 0.12403 0.41040  16
   8  -5 -13 0.10440 0.19545   9
   7  -5 -13 2.96093 0.62289  16
   7  -5 -13 5.70106 0.67801  10
   7  -5 -13 6.29117 0.56156   9
   7  -5 -13 3.81441 0.88886  15
   6  -5 -13 5.74201 0.74207  10
   6  -5 -13 5.18561 0.56948   9
   6  -5 -13 5.00648 1.05106  15
   5  -5 -13 0.64059 0.47644  10
   5  -5 -13 1.54761 0.43561   9
   5  -5 -13 1.74739 0.86848  15
   4  -5 -13 1.69809 0.44485   9
   4  -5 -13 1.54591 0.90732  15
   4  -5 -13 2.24287 0.56676  10
   3  -5 -13 12.8285 1.56184  15
   3  -5 -13 11.5625 1.11303  10
   3  -5 -13 12.4916 0.98419   9
   2  -5 -13 1.76473 0.46276   9
   2  -5 -13 2.93173 0.85142  15
   2  -5 -13 1.83110 0.55905  10
   1  -5 -13 16.9380 1.88338  15
   1  -5 -13 17.3562 1.13492   9
   1  -5 -13 16.4178 1.30739  10
   1  -5 -13 14.2174 1.48285  14
   0  -5 -13 35.3777 2.77829  14
   0  -5 -13 39.7221 2.06721   9
   0  -5 -13 36.6616 2.87607  15
   0  -5 -13 39.2708 2.15963  10
  -1  -5 -13 0.91458 0.34603   9
  -1  -5 -13 0.16466 0.47936  14
  -1  -5 -13 0.53745 0.46311  10
  -2  -5 -13 1.30218 0.37599  10
  -2  -5 -13 1.48831 0.53811  14
  -2  -5 -13 1.14357 0.27216   9
   8  -6 -13 2.21357 0.34371  10
   7  -6 -13 30.9713 1.67993  10
   7  -6 -13 27.8213 2.34591  15
   6  -6 -13 1.46497 0.44731  10
   6  -6 -13 3.79428 0.81542  15
   5  -6 -13 3.49874 1.00419  15
   5  -6 -13 5.58020 0.60129  10
   5  -6 -13 4.45216 0.34483   9
   4  -6 -13 0.30233 0.18912   9
   4  -6 -13 0.59833 0.32865  10
   4  -6 -13 1.02121 0.64839  15
   3  -6 -13 18.8201 1.81826  15
   3  -6 -13 17.4377 1.25115  10
   3  -6 -13 16.5184 0.95591   9
   2  -6 -13 47.8704 2.26109   9
   2  -6 -13 39.0058 3.16639  14
   2  -6 -13 50.3722 2.54350  10
   2  -6 -13 46.0052 3.40525  15
   1  -6 -13 1.06715 0.73057  15
   1  -6 -13 0.90196 0.47392  14
   1  -6 -13 0.97742 0.33936  10
   1  -6 -13 0.58658 0.20543   9
   0  -6 -13 1.34942 0.62237  14
   0  -6 -13 2.28555 0.45989  10
  -1  -6 -13 0.78984 0.43268  14
  -1  -6 -13 0.11459 0.25405  10
   7  -7 -13 0.28591 0.41393  15
   6  -7 -13 5.13258 0.49994  10
   6  -7 -13 7.15090 0.97132  15
   5  -7 -13 2.01837 0.69681  15
   5  -7 -13 1.67227 0.35325  10
   4  -7 -13 11.9569 1.38801  15
   4  -7 -13 11.9999 0.87801  10
   3  -7 -13 13.0454 1.58532  15
   3  -7 -13 11.8162 0.81789  10
   2  -7 -13 4.89799 0.84056  15
   2  -7 -13 6.75981 0.83499  14
   2  -7 -13 8.91898 0.68011  10
   1  -7 -13 8.33138 0.92776  14
   4  -8 -13 14.8988 1.35181  15
   0  -8  14 0.06761 0.34696  11
   1  -8  14 1.34129 0.46257  11
   2  -8  14 5.05563 0.68292  11
  -2  -7  14 1.05056 0.41486  11
  -2  -7  14 1.50816 0.26698  10
  -1  -7  14 17.4186 1.51550  11
  -1  -7  14 19.0379 1.11908  10
   0  -7  14 2.21737 0.40957  10
   0  -7  14 3.24733 0.66498  11
   1  -7  14 6.41188 0.86268  11
   1  -7  14 5.55577 0.53701  10
   2  -7  14 10.5659 0.74747  10
   2  -7  14 11.4573 1.16692  11
   3  -7  14 18.2954 0.98806  10
   3  -7  14 14.8075 1.27764  11
   3  -7  14 13.1756 1.27961  18
   4  -7  14 0.79730 0.39907  18
   4  -7  14 1.19570 0.26280  10
  -3  -6  14 -0.1780 0.41815  10
  -3  -6  14 -0.3249 0.36561  11
  -2  -6  14 0.65184 0.47271  11
  -2  -6  14 0.82457 0.35549  10
  -1  -6  14 7.97823 1.01603  11
  -1  -6  14 6.32780 0.65858  10
   0  -6  14 76.3369 5.01134  11
   0  -6  14 78.4751 3.95114  10
   1  -6  14 88.5497 4.34639  10
   1  -6  14 81.7355 5.44925  11
   2  -6  14 -0.6382 0.46435  11
   2  -6  14 0.59648 0.45480  10
   3  -6  14 16.1660 1.14111  10
   3  -6  14 13.8029 1.34569  18
   3  -6  14 15.4244 1.38147  11
   4  -6  14 6.36101 0.84813  18
   5  -6  14 2.94469 0.52824  18
   5  -6  14 2.61058 0.37856  10
  -5  -5  14 -0.3041 0.39628  12
  -4  -5  14 -0.3035 0.42231  12
  -4  -5  14 -0.0470 0.27456   9
  -4  -5  14 0.20096 0.36658  10
  -3  -5  14 14.9480 0.97968   9
  -3  -5  14 14.1906 1.21575  10
  -3  -5  14 12.8536 1.32403  12
  -3  -5  14 14.0477 1.46745  11
  -2  -5  14 2.74267 0.61634  10
  -2  -5  14 1.84156 0.47431   9
  -2  -5  14 1.15058 0.58793  11
  -1  -5  14 4.35680 0.74690  10
  -1  -5  14 3.48737 0.90364  11
  -1  -5  14 3.88780 0.56689   9
   0  -5  14 1.44748 0.45497   9
   0  -5  14 1.29749 0.61975  11
   0  -5  14 0.99003 0.59111  10
   1  -5  14 0.28384 0.60887  10
   1  -5  14 0.77726 0.42978   9
   1  -5  14 0.05421 0.60277  11
   2  -5  14 1.87370 0.66392  11
   2  -5  14 1.00610 0.40979   9
   2  -5  14 1.87175 0.60566  10
   3  -5  14 12.9015 1.30003  18
   3  -5  14 13.7674 1.20431  10
   3  -5  14 13.6663 0.91475   9
   3  -5  14 12.4743 1.28960  11
   4  -5  14 0.12671 0.23095  10
   4  -5  14 0.63549 0.42078  11
   4  -5  14 0.48022 0.23675   9
   4  -5  14 0.27208 0.61447  18
   5  -5  14 7.66526 0.92981  18
   5  -5  14 7.51979 0.72331  10
  -6  -4  14 56.6701 2.82149   9
  -6  -4  14 57.9547 3.82529  12
  -5  -4  14 1.79223 0.37977   9
  -5  -4  14 0.96796 0.57854  12
  -4  -4  14 4.81821 0.76951  10
  -4  -4  14 5.32981 0.70628   9
  -4  -4  14 5.57477 0.88384  12
  -3  -4  14 6.94432 1.11665  12
  -3  -4  14 9.85666 1.11368  11
  -3  -4  14 9.97224 0.94671  10
  -2  -4  14 0.52548 0.38531   9
  -2  -4  14 -0.5863 0.68561  11
  -2  -4  14 -0.2150 0.59729  10
  -1  -4  14 6.87646 0.74883   9
  -1  -4  14 4.61022 0.71913  10
  -1  -4  14 7.11766 1.16168  11
   0  -4  14 0.65944 0.58393  10
   0  -4  14 0.20785 0.52985   9
   0  -4  14 0.00084 0.76379  11
   1  -4  14 14.5418 1.21895  10
   1  -4  14 15.2888 1.59173  11
   1  -4  14 14.6236 1.21463   9
   2  -4  14 16.7491 1.62643  11
   2  -4  14 16.4244 1.16150   9
   3  -4  14 21.8805 1.97919  18
   3  -4  14 23.6549 1.87565  11
   3  -4  14 22.2917 1.65694  10
   3  -4  14 24.8454 1.50224   9
   4  -4  14 8.47311 0.84656  10
   4  -4  14 9.32815 1.03538  18
   4  -4  14 7.39253 0.67889   9
   4  -4  14 6.54232 0.90681  11
   5  -4  14 22.0416 1.79474  18
   5  -4  14 24.2926 1.33972   9
   5  -4  14 23.4193 1.46284  10
   6  -4  14 -0.1179 0.17908   9
   6  -4  14 -0.0196 0.37731  18
  -6  -3  14 1.27596 0.39363   9
  -6  -3  14 1.50700 0.60321  12
  -5  -3  14 13.2266 0.83013   8
  -5  -3  14 16.2805 1.51379  12
  -5  -3  14 13.0014 1.18874   9
  -4  -3  14 5.00510 0.51995   8
  -3  -3  14 3.35683 0.51194   8
  -3  -3  14 2.42641 0.70107   9
  -3  -3  14 2.50490 0.77107  11
  -2  -3  14 28.3915 2.24902  11
  -2  -3  14 22.8469 1.71927   9
  -2  -3  14 23.7686 1.51515   8
  -1  -3  14 1.50599 0.61824  11
  -1  -3  14 1.49756 0.49689   9
  -1  -3  14 1.42024 0.43935   8
   0  -3  14 11.2987 0.91605   8
   0  -3  14 9.11574 1.01224   9
   1  -3  14 15.8669 1.10225   8
   1  -3  14 15.6076 1.33866   9
   2  -3  14 97.0767 4.91368   9
   2  -3  14 95.6976 4.85143   8
   3  -3  14 5.32004 0.49220   8
   3  -3  14 4.91088 0.72238   9
   3  -3  14 5.94862 0.85294  18
   4  -3  14 9.83422 1.01156  11
   4  -3  14 10.2082 0.95255   9
   4  -3  14 9.99423 1.14680  18
   5  -3  14 36.4480 1.95469   9
   5  -3  14 33.6775 2.47700  18
   6  -3  14 0.10461 0.35961  18
   6  -3  14 0.22802 0.21614   9
   7   2 -14 0.86839 0.35579   8
  -7  -2  14 0.27284 0.31241  12
  -7  -2  14 1.58108 0.51161   9
  -7  -2  14 1.07782 0.20415   8
  -6  -2  14 2.55289 0.63083   9
  -6  -2  14 2.34784 0.42650   8
  -5  -2  14 -0.0577 0.42282   8
  -5  -2  14 -0.6059 0.40172   9
  -4  -2  14 87.4947 4.44908   8
  -4  -2  14 82.5718 4.47526   9
  -3  -2  14 0.80581 0.62873   9
  -3  -2  14 0.48218 0.52123   8
  -3  -2  14 -0.5762 0.63778  11
  -2  -2  14 7.42221 0.83798   8
  -2  -2  14 7.43601 0.96730   9
  -1  -2  14 1.00105 0.45758   9
  -1  -2  14 1.69992 0.56544   8
   0  -2  14 15.2160 1.17086   8
   0  -2  14 11.8147 1.17463   9
   1  -2  14 0.77104 0.45179   9
   1  -2  14 0.93138 0.47823   8
   2  -2  14 16.3149 1.39656   9
   2  -2  14 18.5057 1.25923   8
   3  -2  14 10.3855 0.98750   9
   3  -2  14 12.1745 0.92613   8
   4  -2  14 -0.0957 0.49904   9
   4  -2  14 0.09195 0.27292   8
   4  -2  14 0.57743 0.63290  18
   5  -2  14 13.2039 0.71631   8
   5  -2  14 13.1896 1.21510  18
   5  -2  14 12.2477 1.03754   9
   6  -2  14 16.3131 0.99098   9
   8   1 -14 6.53156 0.58400   8
  -8  -1  14 7.75122 0.52338   8
   7   1 -14 0.20102 0.44571   8
  -7  -1  14 0.06740 0.35130   8
   6   1 -14 21.0261 1.49585   8
  -6  -1  14 20.5349 1.35127   8
   5   1 -14 8.70251 0.96219   8
  -5  -1  14 11.9304 0.97854   8
  -4  -1  14 16.1260 1.63712  11
  -4  -1  14 18.9459 1.43854   8
  -3  -1  14 22.4851 1.63060   8
  -2  -1  14 0.30546 0.50727   8
  -1  -1  14 55.8681 3.15462   8
   0  -1  14 1.19474 0.56072   8
   1  -1  14 5.55718 0.68697   8
   2  -1  14 27.8499 1.78876   8
   3  -1  14 3.89874 0.61271   8
  -4   1 -14 14.4111 1.19150   8
   4  -1  14 16.6752 1.11038   8
   4  -1  14 15.4101 1.39171  18
  -5   1 -14 0.50958 0.45948   8
   5  -1  14 0.11505 0.18728   8
   5  -1  14 0.10494 0.49748   9
   5  -1  14 0.84534 0.39836  18
   8   0 -14 1.89033 0.32854   8
  -8   0  14 1.69237 0.32524   8
   7   0 -14 115.674 5.88844   8
  -7   0  14 117.647 5.92191   8
   6   0 -14 2.13258 0.56779   8
  -6   0  14 1.43917 0.45242   8
   5   0 -14 0.30898 0.35695   8
  -5   0  14 0.26331 0.56794   8
  -4   0  14 8.64291 0.98642   8
   3   0 -14 5.91476 0.79310   8
  -3   0  14 4.72957 0.76023   8
   2   0 -14 0.60669 0.54106   8
  -2   0  14 0.58038 0.56434   8
   1   0 -14 1.66662 0.49440   8
  -1   0  14 1.20173 0.57209   8
   0   0 -14 0.99160 0.44184   8
   0   0  14 1.38268 0.56947   8
  -1   0 -14 19.5337 1.44644   8
   1   0  14 21.5496 1.51583   8
  -2   0 -14 2.60809 0.53081   8
   2   0  14 2.77135 0.52102   8
  -3   0 -14 10.3824 0.97212   8
   3   0  14 11.6354 0.94425   8
  -4   0 -14 28.5363 1.77876   8
   4   0  14 31.4085 1.80591   8
  -5   0 -14 71.3183 3.56578   8
   5   0  14 66.0893 4.34604  18
   5   0  14 69.6527 3.49847   8
   8  -1 -14 4.34615 0.39753   8
   8  -1 -14 2.80111 0.47821   9
  -8   1  14 2.81490 0.55105   8
   7  -1 -14 13.9748 1.03631   8
  -7   1  14 13.1580 1.21504   8
   6  -1 -14 5.78615 0.66358   8
   5  -1 -14 6.60656 0.73608   8
   3  -1 -14 80.6067 4.33456   8
   2  -1 -14 2.70220 0.53298   8
   1  -1 -14 3.59873 0.68748   8
   0  -1 -14 25.7459 1.68677   8
  -1  -1 -14 0.52591 0.37366   8
   1   1  14 0.17102 0.54263   8
  -2  -1 -14 34.2499 2.00057   8
   2   1  14 29.0523 1.97582   8
  -3  -1 -14 0.84020 0.36612   8
   3   1  14 1.31227 0.40339   8
  -4  -1 -14 70.2750 3.45747   8
  -4  -1 -14 61.1745 4.35143  14
   4   1  14 66.1385 3.47750   8
  -5  -1 -14 1.55779 0.24158   8
   5   1  14 1.09734 0.28653   8
   8  -2 -14 0.92506 0.32891   9
   8  -2 -14 1.10918 0.51211  16
   7  -2 -14 2.41197 0.38680   8
   7  -2 -14 1.68588 0.52601   9
   6  -2 -14 -0.1292 0.35139   9
   6  -2 -14 0.26868 0.38586   8
   5  -2 -14 12.1432 0.94793   8
   5  -2 -14 6.63664 1.10867  15
   5  -2 -14 8.66252 0.90185   9
   4  -2 -14 11.0399 1.33728  15
   4  -2 -14 7.47512 0.90578   9
   4  -2 -14 8.04045 0.79291   8
   3  -2 -14 0.12564 0.55215   9
   3  -2 -14 0.16611 0.34211   8
   2  -2 -14 5.00260 0.68719   8
   2  -2 -14 4.19566 0.78398   9
   1  -2 -14 24.9782 1.62983   8
   1  -2 -14 23.5973 1.72514   9
   0  -2 -14 1.05772 0.60097   9
   0  -2 -14 0.19170 0.31610   8
  -1  -2 -14 9.86510 0.96748   9
  -1  -2 -14 11.6016 0.98956   8
  -2  -2 -14 22.3142 1.62054   9
  -2  -2 -14 24.0892 1.48302   8
  -3  -2 -14 0.92432 0.35995   8
  -3  -2 -14 0.36492 0.43283  14
  -3  -2 -14 0.90915 0.38368   9
  -4  -2 -14 8.94667 0.54622   8
   4   2  14 8.25320 0.83586   8
   8  -3 -14 0.28393 0.28726   9
   8  -3 -14 -0.0454 0.39099  16
   7  -3 -14 16.0490 1.56852  16
   7  -3 -14 19.6309 1.19977   9
   6  -3 -14 43.1516 3.13053  15
   6  -3 -14 38.2037 2.95948  16
   6  -3 -14 43.6877 2.37902   9
   6  -3 -14 41.2448 2.14335   8
   5  -3 -14 18.3375 1.20304   8
   5  -3 -14 20.9440 1.83233  15
   5  -3 -14 18.0538 1.29138   9
   4  -3 -14 9.92372 0.93190   9
   4  -3 -14 9.67704 0.81969   8
   4  -3 -14 10.9943 1.37381  15
   3  -3 -14 75.1347 4.10410   9
   3  -3 -14 82.0781 5.55019  15
   2  -3 -14 8.45677 0.83380   9
   2  -3 -14 5.69655 0.63652   8
   1  -3 -14 3.33116 0.57984   9
   1  -3 -14 2.54543 0.46262   8
   0  -3 -14 -0.5278 0.48197   9
   0  -3 -14 0.16165 0.30611   8
  -1  -3 -14 17.1330 1.22540   9
  -1  -3 -14 17.7722 1.07720   8
  -2  -3 -14 0.84905 0.21773   8
  -2  -3 -14 1.05959 0.65347  14
  -2  -3 -14 1.09876 0.38782   9
  -3  -3 -14 17.0357 1.45391  14
  -3  -3 -14 18.9318 1.15577   9
   8  -4 -14 78.7382 3.71505   9
   8  -4 -14 73.6167 4.93590  16
   7  -4 -14 8.01117 0.73033  10
   7  -4 -14 6.05158 0.57172   9
   7  -4 -14 4.85967 0.79040  16
   6  -4 -14 -0.4766 0.72280  15
   6  -4 -14 0.86567 0.34756   9
   6  -4 -14 1.09381 0.51220  10
   5  -4 -14 21.2800 1.48897  10
   5  -4 -14 23.2673 2.04531  15
   5  -4 -14 24.0993 1.48033   9
   4  -4 -14 1.97918 0.57807  10
   4  -4 -14 3.16394 0.97145  15
   4  -4 -14 3.76860 0.59804   9
   3  -4 -14 5.56780 0.75869  10
   3  -4 -14 4.21182 1.07694  15
   3  -4 -14 5.75750 0.71482   9
   2  -4 -14 17.5867 1.41491  10
   2  -4 -14 19.3484 2.03093  15
   2  -4 -14 19.6352 1.33284   9
   1  -4 -14 1.04537 0.42834  10
   1  -4 -14 0.69182 0.33705   9
   1  -4 -14 1.31461 0.86770  15
   0  -4 -14 7.12453 1.01773  15
   0  -4 -14 7.47144 0.70992   9
  -1  -4 -14 -0.0664 0.40680  14
  -1  -4 -14 -0.1802 0.39046   9
  -1  -4 -14 0.03420 0.42215  15
  -2  -4 -14 7.53413 0.70270   9
  -2  -4 -14 7.18963 0.84355  14
   8  -5 -14 27.1531 1.52936  10
   7  -5 -14 15.1385 1.46203  15
   7  -5 -14 19.4962 0.97092   9
   7  -5 -14 19.1362 1.25700  10
   6  -5 -14 0.43891 0.71760  15
   6  -5 -14 -0.0375 0.27326  10
   6  -5 -14 0.60661 0.27114   9
   5  -5 -14 1.79777 0.40610  10
   5  -5 -14 2.18194 0.87230  15
   5  -5 -14 1.43084 0.38010   9
   4  -5 -14 36.7168 1.98314   9
   4  -5 -14 36.5701 2.98516  15
   4  -5 -14 37.7541 2.10833  10
   3  -5 -14 1.65484 0.33092   9
   3  -5 -14 1.04875 0.66197  15
   3  -5 -14 0.92561 0.50138  10
   2  -5 -14 5.03017 0.60892  10
   2  -5 -14 4.29843 0.49015   9
   2  -5 -14 5.21827 1.06596  15
   1  -5 -14 73.1132 3.51658   9
   1  -5 -14 68.2102 3.65304  10
   1  -5 -14 70.1194 4.80528  15
   0  -5 -14 3.59632 0.82810  15
   0  -5 -14 4.12135 0.43904   9
   0  -5 -14 4.28837 0.52129  10
   0  -5 -14 2.94330 0.56927  14
  -1  -5 -14 22.5884 1.14275   9
  -1  -5 -14 22.8374 1.31348  10
  -1  -5 -14 18.6155 1.69885  14
   7  -6 -14 0.93439 0.27259  10
   7  -6 -14 0.20461 0.40292  15
   6  -6 -14 13.4064 0.84738  10
   6  -6 -14 9.35637 1.18619  15
   5  -6 -14 4.05455 0.47773  10
   5  -6 -14 3.62212 0.75296  15
   4  -6 -14 25.1853 2.06259  15
   4  -6 -14 23.0051 1.40777  10
   3  -6 -14 9.22194 0.71617  10
   3  -6 -14 6.54207 1.00328  15
   2  -6 -14 69.3476 4.71355  15
   2  -6 -14 68.8868 3.48728  10
   1  -6 -14 27.9633 1.49249  10
   1  -6 -14 24.2410 1.94040  15
   0  -6 -14 11.5920 0.79186  10
   5  -7 -14 1.46681 0.28805  10
   5  -7 -14 0.70118 0.43502  15
   4  -7 -14 14.1023 0.82680  10
   4  -7 -14 10.9218 1.19512  15
   3  -7 -14 5.65544 0.95519  15
   3  -7 -14 6.27498 0.54640  10
   2  -7 -14 1.29083 0.26621  10
   0  -7  15 -0.0636 0.22086  10
   0  -7  15 0.54467 0.35759  11
   1  -7  15 0.64070 0.23055  10
   1  -7  15 0.93318 0.38987  11
   2  -7  15 11.1838 0.68402  10
  -2  -6  15 7.59818 0.62517  10
  -2  -6  15 6.18616 0.78719  11
  -1  -6  15 0.78902 0.63820  11
  -1  -6  15 1.48584 0.36180  10
   0  -6  15 39.2509 2.10710  10
   1  -6  15 22.3648 1.86120  11
   1  -6  15 26.1463 1.45049  10
   2  -6  15 7.21121 0.84808  11
   2  -6  15 6.99806 0.66804  10
   3  -6  15 14.9704 1.28738  11
   3  -6  15 18.2842 1.09929  10
   4  -6  15 2.83989 0.32585  10
  -4  -5  15 24.3026 1.44440  10
  -3  -5  15 0.84163 0.38700  10
  -3  -5  15 1.06765 0.43993  11
  -3  -5  15 0.76304 0.30479   9
  -2  -5  15 8.59395 0.66637   9
  -2  -5  15 8.43081 1.02882  11
  -2  -5  15 8.59009 0.79302  10
  -1  -5  15 0.67085 0.37271  10
  -1  -5  15 0.28635 0.46943  11
   0  -5  15 11.3973 1.33840  11
   0  -5  15 12.9217 1.19771  10
   0  -5  15 12.9707 0.88972   9
   1  -5  15 15.4032 1.63185  11
   1  -5  15 10.5610 1.03640  10
   1  -5  15 13.6544 0.89573   9
   2  -5  15 3.99366 0.42683   9
   2  -5  15 4.35580 0.81316  11
   2  -5  15 4.59693 0.60414  10
   3  -5  15 2.92249 0.55056  11
   3  -5  15 2.98191 0.48768  10
   3  -5  15 3.22986 0.30854   9
   4  -5  15 43.3684 2.96119  18
  -5  -4  15 4.32964 0.63566  12
  -5  -4  15 4.64770 0.46333   9
  -4  -4  15 6.47563 0.87501  12
  -4  -4  15 9.23386 0.68689   9
  -3  -4  15 7.27400 0.71912   9
  -3  -4  15 7.29291 0.83337  10
  -3  -4  15 6.71733 0.84916  11
  -2  -4  15 8.31054 0.96455  11
  -2  -4  15 4.06559 0.75058  10
  -2  -4  15 6.01231 0.70292   9
  -1  -4  15 16.0935 1.68626  11
  -1  -4  15 13.5441 1.33667  10
  -1  -4  15 14.4596 1.05688   9
   0  -4  15 0.22971 0.58056  10
   0  -4  15 -0.9792 0.44655   9
   0  -4  15 0.90027 0.57325  11
   1  -4  15 22.2234 1.97216  11
   1  -4  15 19.6722 1.56996  10
   1  -4  15 20.6345 1.31488   9
   2  -4  15 31.2058 1.87679  10
   2  -4  15 31.7111 2.28459  11
   2  -4  15 29.5828 1.72065   9
   3  -4  15 37.9807 1.97783   9
   3  -4  15 36.4852 2.17214  10
   3  -4  15 33.7174 2.46036  11
   4  -4  15 3.62979 0.60292  10
   4  -4  15 5.21481 0.47234   9
   5  -4  15 1.32640 0.22704   9
  -6  -3  15 0.35064 0.27447   9
  -6  -3  15 0.77167 0.46094  12
  -5  -3  15 0.19651 0.34327   9
  -5  -3  15 1.35874 0.54310  12
  -4  -3  15 2.56637 0.23677   8
  -4  -3  15 0.61772 0.59292  12
  -4  -3  15 4.53269 0.58925   9
  -3  -3  15 93.2227 4.63308   9
  -3  -3  15 92.0651 5.69077  11
  -3  -3  15 89.2988 4.54881   8
  -2  -3  15 6.98004 0.77985   9
  -2  -3  15 6.39740 0.60674   8
  -2  -3  15 6.32268 0.90155  11
  -1  -3  15 0.63552 0.38657   8
  -1  -3  15 -0.2452 0.55519   9
  -1  -3  15 0.34734 0.74914  11
   0  -3  15 4.14527 0.45415   8
   0  -3  15 3.43710 0.68485   9
   0  -3  15 3.39921 0.91265  11
   1  -3  15 65.8350 3.47961   9
   1  -3  15 71.8538 4.39712  11
   1  -3  15 63.2703 3.35286   8
   2  -3  15 14.7849 1.35753  11
   2  -3  15 12.3472 1.00796   9
   2  -3  15 12.6435 0.74877   8
   3  -3  15 0.07027 0.56604  11
   3  -3  15 0.01931 0.47275   9
   4  -3  15 17.8982 1.12525   9
   5  -3  15 2.19646 0.30583   9
   6   2 -15 0.30491 0.33955   8
  -6  -2  15 0.59137 0.47413  12
  -6  -2  15 0.72644 0.35598   9
  -6  -2  15 0.66363 0.20593   8
  -5  -2  15 41.9452 2.23057   9
  -5  -2  15 37.5905 2.09027   8
  -4  -2  15 39.1536 2.17570   8
  -4  -2  15 40.3331 2.36170   9
  -3  -2  15 0.51116 0.61357   9
  -3  -2  15 0.35525 0.46759   8
  -3  -2  15 1.00404 0.52277  11
  -2  -2  15 14.9163 1.26314   9
  -2  -2  15 15.0842 1.10026   8
  -2  -2  15 17.5566 1.55563  11
  -1  -2  15 7.00219 0.72312   8
  -1  -2  15 5.88116 0.86056   9
   0  -2  15 9.34731 0.80525   8
   0  -2  15 9.27250 1.00425   9
   1  -2  15 62.0879 3.43743   9
   1  -2  15 64.9193 3.36406   8
   2  -2  15 42.0631 2.43066   9
   2  -2  15 41.8975 2.28593   8
   3  -2  15 0.28432 0.38223   9
   3  -2  15 0.17384 0.25771   8
   4  -2  15 9.49071 0.53447   8
   4  -2  15 12.6821 0.85122   9
   5  -2  15 0.87784 0.41177   9
   7   1 -15 1.64459 0.33514   8
  -7  -1  15 1.57816 0.24005   8
   5   1 -15 6.99965 0.76045   8
  -5  -1  15 10.5523 0.93348   8
   4   1 -15 8.62926 0.94242   8
  -4  -1  15 9.80927 0.93156   8
  -3  -1  15 20.3633 1.48538   8
  -2  -1  15 26.0055 1.73838   8
  -1  -1  15 2.16727 0.59364   8
   0  -1  15 6.96927 0.73260   8
   1  -1  15 0.43159 0.34299   8
   2  -1  15 -0.1554 0.39705   8
  -3   1 -15 25.6261 1.67594   8
   3  -1  15 25.1095 1.47851   8
  -4   1 -15 2.15628 0.51286   8
   4  -1  15 2.56506 0.57098   9
   4  -1  15 2.45300 0.34158   8
   7   0 -15 5.68956 0.55019   8
  -7   0  15 6.26230 0.59227   8
   6   0 -15 2.53314 0.45090   8
  -6   0  15 1.49940 0.53491   8
   5   0 -15 16.8121 1.30395   8
  -5   0  15 17.4774 1.24981   8
   4   0 -15 0.51881 0.39707   8
  -4   0  15 0.78820 0.42155   8
   3   0 -15 1.76966 0.47182   8
  -3   0  15 1.94754 0.50186   8
   2   0 -15 1.09214 0.55131   8
  -2   0  15 1.47955 0.58979   8
   1   0 -15 1.25777 0.57213   8
  -1   0  15 1.60635 0.60359   8
   0   0 -15 16.9879 1.37488   8
   0   0  15 16.1181 1.32556   8
  -1   0 -15 1.97678 0.59485   8
   1   0  15 2.09034 0.57654   8
  -2   0 -15 -0.0695 0.32907   8
   2   0  15 0.21931 0.31787   8
  -3   0 -15 15.1614 1.19600   8
   3   0  15 16.3601 1.07058   8
  -4   0 -15 0.53181 0.29248   8
   4   0  15 0.67662 0.23933   8
   7  -1 -15 -0.3258 0.29559   8
  -7   1  15 0.28115 0.33343   8
   6  -1 -15 1.34124 0.45092   8
  -6   1  15 1.43031 0.44343   8
   5  -1 -15 4.75340 0.56163   8
  -5   1  15 3.06147 0.69772   8
   4  -1 -15 161.070 10.0924  15
   4  -1 -15 152.457 7.87252   8
   3  -1 -15 100.039 5.21427   8
   2  -1 -15 20.8428 1.41956   8
   1  -1 -15 0.57051 0.38139   8
  -1   1  15 0.37878 0.56934   8
   0  -1 -15 1.49895 0.52054   8
   0   1  15 0.99128 0.57494   8
  -1  -1 -15 46.6677 2.60156   8
   1   1  15 47.1598 2.69787   8
  -2  -1 -15 6.26547 0.61832   8
   2   1  15 3.99162 0.54424   8
  -3  -1 -15 3.40173 0.42844   8
   3   1  15 1.91998 0.47524   8
  -4  -1 -15 0.12053 0.16534   8
   4   1  15 -0.0409 0.20450   8
   8  -2 -15 5.03718 0.70457  16
   7  -2 -15 1.85952 0.39358   9
   7  -2 -15 1.14296 0.58798  16
   7  -2 -15 2.13381 0.22603   8
   6  -2 -15 3.53425 0.63852   9
   6  -2 -15 4.22995 0.41495   8
   5  -2 -15 3.92443 0.52434   8
   5  -2 -15 3.65933 0.89335  15
   5  -2 -15 3.67570 0.57441   9
   4  -2 -15 65.4337 4.54459  15
   4  -2 -15 61.7814 3.38798   9
   4  -2 -15 64.6766 3.37990   8
   3  -2 -15 6.14658 0.83351   9
   2  -2 -15 0.64754 0.32506   8
   2  -2 -15 1.51536 0.59027   9
   1  -2 -15 14.0818 1.27313   9
   1  -2 -15 15.8235 1.13263   8
   0  -2 -15 39.0486 2.15751   8
   0  -2 -15 38.4770 2.30329   9
  -1  -2 -15 3.33133 0.48131   8
  -1  -2 -15 2.45968 0.61571   9
  -2  -2 -15 1.32939 0.38985   9
  -2  -2 -15 1.55343 0.34239   8
   2   2  15 2.52377 0.57289   8
  -3  -2 -15 14.0347 0.76355   8
   7  -3 -15 18.5669 1.47689  16
   6  -3 -15 9.00701 1.07344  15
   6  -3 -15 11.7169 0.84761   9
   5  -3 -15 0.10303 0.67485  15
   5  -3 -15 1.46164 0.49626   9
   5  -3 -15 1.07590 0.21042   8
   4  -3 -15 2.25247 0.88499  15
   4  -3 -15 3.01740 0.57874   9
   4  -3 -15 2.87303 0.34520   8
   3  -3 -15 -0.0294 0.26520   8
   3  -3 -15 0.29172 0.79708  15
   3  -3 -15 0.13267 0.48854   9
   2  -3 -15 17.7636 1.26650   9
   2  -3 -15 19.8033 1.81449  15
   1  -3 -15 3.23224 0.60446   9
   0  -3 -15 0.05130 0.19645   8
   0  -3 -15 -0.6079 0.42411   9
  -1  -3 -15 6.55677 0.73427   9
  -1  -3 -15 8.05301 0.93338  15
  -2  -3 -15 5.77419 0.55071   9
   7  -4 -15 0.30591 0.24874   9
   6  -4 -15 23.6098 1.47276  10
   6  -4 -15 22.0628 1.87347  15
   6  -4 -15 25.2474 1.34380   9
   5  -4 -15 4.04031 0.55205  10
   5  -4 -15 3.06411 0.47632   9
   5  -4 -15 1.73567 0.57195  15
   4  -4 -15 1.19747 0.53246  10
   4  -4 -15 1.50454 0.63809  15
   4  -4 -15 0.83544 0.41836   9
   3  -4 -15 0.60628 0.32583   9
   3  -4 -15 1.57188 0.82426  15
   3  -4 -15 0.54957 0.37532  10
   2  -4 -15 16.3423 1.18646  10
   2  -4 -15 17.3804 1.09376   9
   2  -4 -15 14.3202 1.75568  15
   1  -4 -15 6.90516 0.63314   9
   1  -4 -15 5.81903 1.00988  15
   0  -4 -15 -0.2062 0.59295  15
   0  -4 -15 -0.2840 0.33749   9
  -1  -4 -15 -0.1836 0.20104   9
   6  -5 -15 5.51604 0.54604  10
   6  -5 -15 3.25895 0.65837  15
   5  -5 -15 37.5181 1.96104  10
   5  -5 -15 32.9656 2.59570  15
   5  -5 -15 35.0465 1.75986   9
   4  -5 -15 1.76087 0.41105  10
   4  -5 -15 2.48018 0.69410  15
   4  -5 -15 3.10853 0.34972   9
   3  -5 -15 1.26006 0.28089   9
   3  -5 -15 0.54274 0.57118  15
   3  -5 -15 1.14614 0.37405  10
   2  -5 -15 1.24564 0.45016  10
   2  -5 -15 2.11295 0.32054   9
   2  -5 -15 1.29584 0.56269  15
   1  -5 -15 0.94112 0.49559  15
   1  -5 -15 1.01331 0.44231  10
   1  -5 -15 1.98681 0.25730   9
   5  -6 -15 23.8502 1.82547  15
   4  -6 -15 3.33667 0.38525  10
   4  -6 -15 2.52114 0.60727  15
   3  -6 -15 0.17118 0.45454  15
   3  -6 -15 0.18538 0.22741  10
   0  -6  16 0.69430 0.26049  10
   0  -6  16 0.13810 0.32618  11
   1  -6  16 0.21274 0.22672  10
   1  -6  16 0.54016 0.34657  11
  -2  -5  16 0.56029 0.31166  10
  -2  -5  16 0.38370 0.39881  11
  -1  -5  16 2.14685 0.42878  10
  -1  -5  16 3.38809 0.30133   9
  -1  -5  16 3.08563 0.56883  11
   0  -5  16 9.13000 0.83993  10
   0  -5  16 11.4817 1.11153  11
   1  -5  16 0.66932 0.59725  11
   1  -5  16 0.32829 0.33664  10
   2  -5  16 13.6233 1.17146  11
   2  -5  16 13.9117 0.95945  10
  -4  -4  16 3.42771 0.33537   9
  -3  -4  16 -0.2313 0.38437  10
  -3  -4  16 0.05915 0.23901   9
  -3  -4  16 -0.0348 0.35985  11
  -2  -4  16 12.4738 1.03700  10
  -2  -4  16 14.8448 1.25768  11
  -1  -4  16 7.89930 1.03264  11
  -1  -4  16 8.54257 0.82519  10
  -1  -4  16 9.21098 0.81386   9
   0  -4  16 19.5787 1.57757  11
   0  -4  16 19.6474 1.21963   9
   0  -4  16 16.4625 1.26628  10
   1  -4  16 4.17744 0.79631  11
   1  -4  16 5.20470 0.64167  10
   1  -4  16 5.27282 0.52471   9
   2  -4  16 22.9215 1.44806  10
   2  -4  16 22.7482 1.32779   9
   2  -4  16 23.4300 1.72853  11
   3  -4  16 2.85914 0.31640   9
   3  -4  16 4.68199 0.54524  10
   3  -4  16 3.98976 0.52950  11
  -5  -3  16 0.21945 0.27209   9
  -4  -3  16 10.9150 0.82425   9
  -3  -3  16 4.94819 0.66512  11
  -2  -3  16 16.0901 1.16505   9
  -2  -3  16 17.3713 1.58864  11
  -1  -3  16 6.60658 0.68615   9
  -1  -3  16 4.15961 0.85535  11
   0  -3  16 4.08599 0.87231  11
   0  -3  16 6.09882 0.67464   9
   1  -3  16 3.04378 0.63767  11
   1  -3  16 2.11347 0.42107   9
   2  -3  16 -0.3949 0.54864  11
   2  -3  16 0.06902 0.31668   9
   3  -3  16 16.9388 1.07253   9
   3  -3  16 17.5564 1.40854  11
   5   2 -16 0.87447 0.35531   8
  -5  -2  16 0.01845 0.25496  12
  -5  -2  16 1.15248 0.38780   9
  -5  -2  16 0.70636 0.15017   8
  -4  -2  16 6.66095 0.57221   8
  -3  -2  16 30.7792 1.74850   8
  -3  -2  16 30.8133 2.21966  11
  -3  -2  16 33.0021 1.96222   9
  -2  -2  16 0.61700 0.45327   9
  -2  -2  16 0.79889 0.55170  11
  -2  -2  16 1.28105 0.31387   8
  -1  -2  16 0.43173 0.50544  11
  -1  -2  16 0.38975 0.44670   9
  -1  -2  16 1.20803 0.41413   8
   0  -2  16 71.5320 3.62896   8
   0  -2  16 69.4575 3.66634   9
   1  -2  16 1.17260 0.45322   9
   1  -2  16 1.14768 0.34625   8
   2  -2  16 4.40487 0.69141   9
   2  -2  16 6.11454 0.47547   8
   3  -2  16 2.01008 0.43309  11
   3  -2  16 2.16357 0.50870   9
   6   1 -16 0.49379 0.28719   8
  -6  -1  16 0.00266 0.16056   8
   5   1 -16 2.46560 0.41605   8
  -5  -1  16 2.76780 0.39815   8
   4   1 -16 2.01043 0.55593   8
  -4  -1  16 1.01394 0.45085   8
  -3  -1  16 0.65914 0.45892   8
  -3  -1  16 0.44818 0.45760  11
   2   1 -16 12.2986 1.06365   8
  -2  -1  16 13.7631 1.11157   8
   1   1 -16 3.13854 0.54171   8
  -1  -1  16 2.64545 0.56578   8
   0   1 -16 16.6731 1.37544   8
   0  -1  16 19.1006 1.20281   8
  -1   1 -16 23.8277 1.53938   8
   1  -1  16 24.5307 1.49413   8
  -2   1 -16 9.57033 0.85681   8
   2  -1  16 9.15437 0.86668   9
   2  -1  16 9.86290 0.77544   8
  -3   1 -16 7.80638 0.74846   8
   3  -1  16 8.71351 0.76695   9
   3  -1  16 8.89612 0.59913   8
   6   0 -16 7.22604 0.70046   8
  -6   0  16 6.93295 0.62664   8
   5   0 -16 29.2570 1.73859   8
  -5   0  16 28.7575 1.70925   8
   4   0 -16 1.73413 0.44254   8
  -4   0  16 1.62196 0.42788   8
  -3   0  16 10.2146 0.98207   8
   2   0 -16 5.15416 0.63694   8
  -2   0  16 4.85737 0.64046   8
   1   0 -16 0.08144 0.33159   8
  -1   0  16 -0.2031 0.48327   8
   0   0 -16 -0.4953 0.41636   8
   0   0  16 -0.0277 0.31266   8
  -1   0 -16 3.50357 0.50632   8
   1   0  16 3.74429 0.58103   8
  -2   0 -16 37.6813 2.11467   8
   2   0  16 38.7094 2.08901   8
  -3   0 -16 -0.0939 0.22534   8
   3   0  16 0.23214 0.29217   8
   6  -1 -16 -0.1767 0.27721   8
  -6   1  16 0.27955 0.32426   8
   5  -1 -16 2.82396 0.46887   8
  -5   1  16 3.48556 0.62217   8
   4  -1 -16 19.2283 1.83790  15
   4  -1 -16 21.1321 1.27172   8
  -4   1  16 20.1684 1.48246   8
  -3   1  16 30.1464 1.84812   8
   2  -1 -16 1.08882 0.35549   8
  -2   1  16 1.34490 0.46307   8
   1  -1 -16 2.63283 0.44980   8
  -1   1  16 2.18387 0.60797   8
   0  -1 -16 16.6766 1.09770   8
   0   1  16 16.2511 1.27233   8
  -1  -1 -16 3.95290 0.51898   8
   1   1  16 3.87424 0.52696   8
  -2  -1 -16 4.90687 0.50605   8
   2   1  16 4.06882 0.52969   8
   6  -2 -16 1.08602 0.34568   9
   5  -2 -16 46.2801 2.30948   8
   5  -2 -16 44.6213 2.41702   9
   5  -2 -16 43.8420 3.17764  15
   4  -2 -16 1.88262 0.76894  15
   4  -2 -16 3.68079 0.53763   9
   4  -2 -16 3.45800 0.43195   8
   3  -2 -16 -0.1249 0.51509  15
   3  -2 -16 0.31374 0.51948   9
   3  -2 -16 -0.3583 0.31764   8
   2  -2 -16 0.58391 0.49703   9
   1  -2 -16 42.8142 2.26177   8
   1  -2 -16 42.2693 2.35143   9
   0  -2 -16 4.27525 0.57335   9
   0  -2 -16 3.71152 0.43476   8
  -1  -2 -16 19.1355 1.18604   9
  -1  -2 -16 17.8835 1.02406   8
   1   2  16 18.0950 1.27831   8
   6  -3 -16 0.12399 0.24724   9
   5  -3 -16 2.07437 0.36307   9
   5  -3 -16 1.68500 0.47464  15
   4  -3 -16 17.1315 1.12144   9
   4  -3 -16 17.9507 1.71947  15
   3  -3 -16 0.26483 0.71753  15
   3  -3 -16 0.44507 0.43507   9
   2  -3 -16 2.63318 0.42641   9
   2  -3 -16 4.05451 0.81052  15
   1  -3 -16 5.37304 0.82160  15
   1  -3 -16 5.80551 0.62992   9
   0  -3 -16 12.8625 1.25674  15
  -1  -3 -16 2.77575 0.37606   9
   6  -4 -16 28.7166 1.46041   9
   5  -4 -16 0.31651 0.40917  15
   5  -4 -16 1.34168 0.31179   9
   4  -4 -16 6.84408 0.63070   9
   4  -4 -16 7.46788 0.95735  15
   4  -4 -16 5.76268 0.64664  10
   3  -4 -16 36.6690 2.68171  15
   3  -4 -16 34.2143 1.84543   9
   2  -4 -16 9.62671 1.05580  15
   2  -4 -16 8.79597 0.72836   9
   1  -4 -16 5.14873 0.45907   9
   1  -4 -16 5.97214 0.76203  15
   0  -4 -16 12.2949 0.72392   9
   4  -5 -16 14.6594 1.31406  15
   3  -5 -16 1.35604 0.48420  15
  -2  -4  17 -0.8126 0.22542   9
  -1  -4  17 31.9123 2.16331  11
   0  -4  17 2.40576 0.51351  11
   1  -4  17 0.91484 0.40488  11
   1  -4  17 0.93440 0.23531   9
  -3  -3  17 4.72968 0.45133   9
  -2  -3  17 0.87259 0.42063  11
  -2  -3  17 0.66974 0.29838   9
  -1  -3  17 13.0962 1.18093  11
   0  -3  17 9.83789 0.98874  11
   0  -3  17 9.16915 0.74447   9
   1  -3  17 0.26711 0.28757   9
   1  -3  17 0.57156 0.35780  11
   2  -3  17 15.2425 0.92286   9
  -4  -2  17 7.08369 0.65196   9
   3   2 -17 0.39630 0.37665   8
  -3  -2  17 0.14471 0.31766   9
  -3  -2  17 0.63978 0.49895  11
  -2  -2  17 14.5499 1.39644  11
  -2  -2  17 17.8645 0.95295   8
  -2  -2  17 19.7332 1.29270   9
  -1  -2  17 13.3746 0.80296   8
  -1  -2  17 14.6290 1.14057   9
  -1  -2  17 15.1443 1.43790  11
   0  -2  17 1.14787 0.60687  11
   0  -2  17 2.57654 0.45600   9
   0  -2  17 1.33617 0.20377   8
   1  -2  17 25.0404 1.39173   9
   1  -2  17 21.1935 1.67562  11
   2  -2  17 13.3094 1.11132  11
   2  -2  17 14.0166 0.90756   9
  -5  -1  17 2.75831 0.30344   8
   4   1 -17 5.73325 0.55562   8
  -4  -1  17 5.15027 0.46228   8
   3   1 -17 6.79390 0.65614   8
  -3  -1  17 6.91880 0.77379  11
  -3  -1  17 5.74112 0.55589   8
  -2  -1  17 7.25220 0.70134   8
  -2  -1  17 7.07364 0.85614  11
   1   1 -17 3.58134 0.50724   8
  -1  -1  17 5.26551 0.48571   8
   0   1 -17 7.30645 0.75190   8
   0  -1  17 9.13360 0.64218   8
  -1   1 -17 1.56909 0.35129   8
   1  -1  17 0.47731 0.55786   9
   1  -1  17 1.35386 0.28605   8
   5   0 -17 67.7867 3.27106   8
  -5   0  17 60.4299 3.26055   8
   4   0 -17 1.37375 0.33315   8
  -4   0  17 1.67590 0.35100   8
   3   0 -17 0.20188 0.29626   8
   3   0 -17 0.13219 0.41249  15
  -3   0  17 -0.3616 0.29902   8
  -3   0  17 0.27151 0.37422  11
  -2   0  17 0.43235 0.32048   8
   1   0 -17 13.4104 0.98170   8
  -1   0  17 15.2152 1.06748   8
   0   0 -17 19.2916 1.19890   8
   0   0  17 19.1164 1.18106   8
  -1   0 -17 2.99487 0.39446   8
   1   0  17 3.97175 0.40805   8
   5  -1 -17 1.23692 0.23871   8
  -5   1  17 0.79031 0.31377   8
   4  -1 -17 0.42223 0.41525  15
   4  -1 -17 1.48584 0.31768   8
  -4   1  17 0.42910 0.33337   8
   3  -1 -17 -0.1548 0.39665  15
   3  -1 -17 -0.4741 0.30639   8
  -3   1  17 0.35257 0.32339   8
  -2   1  17 4.87656 0.56500   8
   1  -1 -17 1.02999 0.26416   8
  -1   1  17 0.58539 0.32236   8
   0  -1 -17 2.60910 0.38597   8
   0   1  17 2.58664 0.40754   8
  -1  -1 -17 7.69810 0.50152   8
   1   1  17 6.43342 0.59815   8
   4  -2 -17 23.0750 1.85295  15
  -4   2  17 25.9611 1.55044   8
   3  -2 -17 -0.2158 0.28836   9
   3  -2 -17 0.11653 0.42876  15
   3  -2 -17 0.31317 0.17409   8
  -3   2  17 0.76393 0.51185   8
   2  -2 -17 1.01342 0.43821   9
   2  -2 -17 0.90288 0.19471   8
   2  -2 -17 0.88169 0.50224  15
  -2   2  17 -0.0799 0.35542   8
   1  -2 -17 0.37497 0.31062   9
   1  -2 -17 1.07266 0.53480  15
   1  -2 -17 0.80238 0.14147   8
  -1   2  17 1.39722 0.36614   8
   0  -2 -17 2.76994 0.57121  15
   4  -3 -17 3.69427 0.63929  15
   4  -3 -17 4.50586 0.43677   9
   3  -3 -17 4.19912 0.42398   9
   3  -3 -17 5.32758 0.70581  15
   2  -3 -17 2.95872 0.56003  15
   2  -3 -17 1.37964 0.31188   9
   1  -3 -17 3.57651 0.58285  15
   2   0 -18 0.84710 0.23125   8
  -2   0  18 0.70755 0.27684   8
  -1   0  18 9.63368 0.90637  11
   0   0   0    0.00    0.00   0
;
_shelx_hkl_checksum   21044

