 
data_x13357 
 
_audit_creation_method            SHELXL-2013 
# CIF file edited on-the-fly by script CIFFIX (S. Parkin, 2013). 
# CIFFIX: http://xray.uky.edu/people/parkin/programs/ciffix 
 
_publ_section_exptl_refinement 
; 
H atoms were found in difference Fourier maps and subsequently placed 
at idealized positions with constrained distances of 0.98 \%A (RCH~3~), 
1.00 \%A (R~3~CH) and 0.95 \%A (C~sp2~H).  U~iso~(H) values were set to 
either 1.2U~eq~ or 1.5U~eq~ (RCH~3~) of the attached atom. 

To ensure satisfactory refinement of disordered groups in the structure, 
a combination of constraints and restraints were employed. The constraints 
(SHELXL command EADP) were used to fix parameters of superimposed or 
partially overlapping fragments.  Restraints (SHELXL commands SAME and 
RIGU) were used to maintain the integrity of ill-defined or disordered 
groups. 
; 
 
_publ_section_references 
; 
Bruker-AXS (2006). 
  <i>APEX2</i> Bruker-AXS Inc., Madison, Wisconsin, USA. 
 
Hope, H. (1994). 
  <i>Prog. Inorg. Chem.</i> <b>41</b>, 1--19. 
 
Parkin, S. & Hope, H. (1998). 
  <i>J. Appl. Cryst.</i> <b>31</b>, 945--953. 
 
Parkin, S. (2000). 
  <i>Acta Cryst.</i> A<b>56</b>, 157--162. 
 
Parkin, S. (2013). 
  <i>CIFFIX</i>, http://xray.uky.edu/people/parkin/programs/ciffix 
 
Sheldrick, G.M. (2008). 
  <i>Acta Cryst.</i> <b>A</b>64, 112--122. 
 
Sheldrick, G.M. (2008). 
  <i>SADABS</i> University of G\"ottingen, Germany. 
 
Spek, A.L. (2009). 
  <i>Acta Cryst.</i> <b>D</b>65, 148--155. 
; 
 
_chemical_name_systematic 
; 
 ? 
; 
_chemical_name_common             ? 
_chemical_melting_point           ? 
_chemical_formula_moiety          'C44 H46 F8 Ge2' 
_chemical_formula_sum             'C44 H46 F8 Ge2' 
_chemical_formula_weight          871.99 
 
loop_ 
 _atom_type_symbol 
 _atom_type_description 
 _atom_type_scat_dispersion_real 
 _atom_type_scat_dispersion_imag 
 _atom_type_scat_source 
 'C'  'C'   0.0181   0.0091 
 'International Tables Vol C Tables 4.2.6.8 and 6.1.1.4' 
 'H'  'H'   0.0000   0.0000 
 'International Tables Vol C Tables 4.2.6.8 and 6.1.1.4' 
 'F'  'F'   0.0727   0.0534 
 'International Tables Vol C Tables 4.2.6.8 and 6.1.1.4' 
 'Ge'  'Ge'  -1.0885   0.8855 
 'International Tables Vol C Tables 4.2.6.8 and 6.1.1.4' 
 
_space_group_crystal_system       triclinic 
_space_group_IT_number            2 
_space_group_name_H-M_alt         'P -1' 
_space_group_name_Hall            '-P 1' 
 
_shelx_space_group_comment 
; 
The symmetry employed for this shelxl refinement is uniquely defined 
by the following loop, which should always be used as a source of 
symmetry information in preference to the above space-group names. 
They are only intended as comments. 
; 
 
loop_ 
 _space_group_symop_operation_xyz 
 'x, y, z' 
 '-x, -y, -z' 
 
_cell_length_a                    7.6204(2) 
_cell_length_b                    8.0587(2) 
_cell_length_c                    17.0031(3) 
_cell_angle_alpha                 77.138(1) 
_cell_angle_beta                  89.250(1) 
_cell_angle_gamma                 85.761(1) 
_cell_volume                      1015.18(4) 
_cell_formula_units_Z             1 
_cell_measurement_temperature     180(2) 
_cell_measurement_reflns_used     8464 
_cell_measurement_theta_min       2.67 
_cell_measurement_theta_max       67.75 
 
_exptl_crystal_description        lath 
_exptl_crystal_colour             blue 
_exptl_crystal_density_meas       . 
_exptl_crystal_density_method     . 
_exptl_crystal_density_diffrn     1.426 
_exptl_crystal_F_000              446 
_exptl_transmission_factor_min    . 
_exptl_transmission_factor_max    . 
_exptl_crystal_size_max           0.400 
_exptl_crystal_size_mid           0.070 
_exptl_crystal_size_min           0.004 
_exptl_absorpt_coefficient_mu     2.399 
_shelx_estimated_absorpt_T_min    0.447 
_shelx_estimated_absorpt_T_max    0.990 
_exptl_absorpt_correction_type    multi-scan 
_exptl_absorpt_correction_T_min   0.459 
_exptl_absorpt_correction_T_max   0.661 
_exptl_absorpt_process_details    'SADABS (Sheldrick, 2008)' 
 
_exptl_special_details 
; 
The crystal was mounted with polyisobutene oil on the tip of a fine glass 
fibre, fastened in a copper mounting pin with electrical solder.  It was 
placed directly into the cold stream of a liquid nitrogen based cryostat, 
according to published methods (Hope, 1994; Parkin & Hope, 1998). 
 
The crystals underwent a destructive phase transition when cooled to 90K. 
Visual inspection of crystal integrity and diffraction quality vs temperature 
established a safe temperature for data collection of -93\% C. 
; 
 
_diffrn_ambient_temperature       180(2) 
_diffrn_radiation_wavelength      1.54178 
_diffrn_radiation_type            CuK\a 
_diffrn_source                    'fine-focus rotating anode' 
_diffrn_measurement_device_type   'Bruker X8 Proteum diffractometer' 
_diffrn_measurement_method        '\f and \w scans' 
_diffrn_detector_area_resol_mean  5.6 
_diffrn_reflns_number             14080 
_diffrn_reflns_av_unetI/netI      0.0314 
_diffrn_reflns_av_R_equivalents   0.0405 
_diffrn_reflns_limit_h_min        -9 
_diffrn_reflns_limit_h_max        9 
_diffrn_reflns_limit_k_min        -3 
_diffrn_reflns_limit_k_max        9 
_diffrn_reflns_limit_l_min        -19 
_diffrn_reflns_limit_l_max        20 
_diffrn_reflns_theta_min          2.666 
_diffrn_reflns_theta_max          67.840 
_diffrn_reflns_theta_full         67.679 
_diffrn_measured_fraction_theta_max                0.963 
_diffrn_measured_fraction_theta_full               0.966 
_diffrn_reflns_Laue_measured_fraction_max          0.963 
_diffrn_reflns_Laue_measured_fraction_full         0.966 
_diffrn_reflns_point_group_measured_fraction_max   0.963 
_diffrn_reflns_point_group_measured_fraction_full  0.966 
 
_reflns_number_total              3550 
_reflns_number_gt                 3057 
_reflns_threshold_expression      'I > 2\s(I)' 
_reflns_Friedel_coverage          0.000 
_reflns_Friedel_fraction_max      . 
_reflns_Friedel_fraction_full     . 
 
_reflns_special_details 
; 
Reflections were merged by SHELXL according to the crystal 
class for the calculation of statistics and refinement. 
 
_reflns_Friedel_fraction is defined as the number of unique 
Friedel pairs measured divided by the number that would be 
possible theoretically, ignoring centric projections and 
systematic absences. 
; 
 
_computing_data_collection        'APEX2 (Bruker-AXS, 2006)' 
_computing_cell_refinement        'APEX2 (Bruker-AXS, 2006)' 
_computing_data_reduction         'APEX2 (Bruker-AXS, 2006)' 
_computing_structure_solution     'SHELXS-97 (Sheldrick, 2008)' 
_computing_structure_refinement   'SHELXL-2013 (Sheldrick, 2008)' 
_computing_molecular_graphics     'XP in SHELXTL (Sheldrick, 2008)' 
_computing_publication_material 
'SHELX (Sheldrick, 2008) and CIFFIX (Parkin, 2013)' 
 
_refine_special_details 
; 
Refinement progress was checked using routines in Platon (Spek, 2009), 
by the R-tensor (Parkin, 2000), and with the IUCr utility checkCIF. 
; 
 
_refine_ls_structure_factor_coef  Fsqd 
_refine_ls_matrix_type            full 
_refine_ls_weighting_scheme       calc 
_refine_ls_weighting_details 
'w=1/[\s^2^(Fo^2^)+(0.0432P)^2^+1.1248P] where P=(Fo^2^+2Fc^2^)/3' 
_atom_sites_solution_primary      direct 
_atom_sites_solution_secondary    difmap 
_atom_sites_solution_hydrogens    geom 
_refine_ls_hydrogen_treatment     constr 
_refine_ls_extinction_method      none 
_refine_ls_extinction_coef        . 
_refine_ls_number_reflns          3550 
_refine_ls_number_parameters      272 
_refine_ls_number_restraints      21 
_refine_ls_R_factor_all           0.0485 
_refine_ls_R_factor_gt            0.0387 
_refine_ls_wR_factor_ref          0.1067 
_refine_ls_wR_factor_gt           0.0965 
_refine_ls_goodness_of_fit_ref    1.064 
_refine_ls_restrained_S_all       1.062 
_refine_ls_shift/su_max           0.002 
_refine_ls_shift/su_mean          0.000 
 
loop_ 
 _atom_site_label 
 _atom_site_type_symbol 
 _atom_site_fract_x 
 _atom_site_fract_y 
 _atom_site_fract_z 
 _atom_site_U_iso_or_equiv 
 _atom_site_adp_type 
 _atom_site_occupancy 
 _atom_site_site_symmetry_order 
 _atom_site_calc_flag 
 _atom_site_refinement_flags_posn 
 _atom_site_refinement_flags_adp 
 _atom_site_refinement_flags_occupancy 
 _atom_site_disorder_assembly 
 _atom_site_disorder_group 
Ge1 Ge 0.79260(5) 0.75505(5) 0.17099(2) 0.04519(14) Uani 1 1 d . . . . . 
F1 F 0.8989(2) 0.0341(2) 0.35300(10) 0.0434(4) Uani 1 1 d . . . . . 
C1 C 0.5627(3) 0.5579(3) 0.41968(15) 0.0274(5) Uani 1 1 d . . . . . 
F2 F 0.9721(2) -0.2938(2) 0.43617(11) 0.0482(4) Uani 1 1 d . . . . . 
C2 C 0.6044(3) 0.3869(3) 0.46169(15) 0.0270(5) Uani 1 1 d . . . . . 
F3 F 0.8533(3) -0.4005(2) 0.58608(12) 0.0534(5) Uani 1 1 d . . . . . 
C3 C 0.7041(3) 0.2711(3) 0.42480(15) 0.0298(5) Uani 1 1 d . . . . . 
H3 H 0.7461 0.3089 0.3714 0.036 Uiso 1 1 calc R U . . . 
F4 F 0.6662(2) -0.1820(2) 0.66170(10) 0.0462(4) Uani 1 1 d . . . . . 
C4 C 0.7419(3) 0.1029(3) 0.46499(16) 0.0296(5) Uani 1 1 d . . . . . 
C5 C 0.8405(3) -0.0178(3) 0.42862(17) 0.0335(6) Uani 1 1 d . . . . . 
C6 C 0.8767(4) -0.1808(3) 0.46943(18) 0.0378(6) Uani 1 1 d . . . . . 
C7 C 0.8159(4) -0.2360(3) 0.54892(19) 0.0381(6) Uani 1 1 d . . . . . 
C8 C 0.7232(4) -0.1279(3) 0.58601(17) 0.0354(6) Uani 1 1 d . . . . . 
C9 C 0.6820(3) 0.0462(3) 0.54638(16) 0.0295(5) Uani 1 1 d . . . . . 
C10 C 0.5846(3) 0.1587(3) 0.58358(15) 0.0288(5) Uani 1 1 d . . . . . 
H10 H 0.5457 0.1205 0.6374 0.035 Uiso 1 1 calc R U . . . 
C11 C 0.5422(3) 0.3289(3) 0.54276(15) 0.0278(5) Uani 1 1 d . . . . . 
C12 C 0.6304(3) 0.6178(3) 0.34053(16) 0.0316(6) Uani 1 1 d . . . . . 
C13 C 0.6902(4) 0.6697(4) 0.27514(17) 0.0385(6) Uani 1 1 d . . . . . 
C14 C 0.7489(8) 1.0057(6) 0.1496(3) 0.1026(19) Uani 1 1 d . . . . . 
H14 H 0.8222 1.0328 0.1928 0.123 Uiso 1 1 calc R U . . . 
C15 C 0.5759(9) 1.0679(7) 0.1709(4) 0.131(3) Uani 1 1 d . . . . . 
H15A H 0.5682 1.1929 0.1591 0.197 Uiso 1 1 calc R U . . . 
H15B H 0.5555 1.0238 0.2285 0.197 Uiso 1 1 calc R U . . . 
H15C H 0.4868 1.0292 0.1394 0.197 Uiso 1 1 calc R U . . . 
C16 C 0.8327(11) 1.0973(7) 0.0784(4) 0.152(3) Uani 1 1 d . . . . . 
H16A H 0.7808 1.0713 0.0305 0.228 Uiso 1 1 calc R U . . . 
H16B H 0.9589 1.0627 0.0805 0.228 Uiso 1 1 calc R U . . . 
H16C H 0.8154 1.2202 0.0757 0.228 Uiso 1 1 calc R U . . . 
C17 C 1.0426(4) 0.6834(5) 0.1796(2) 0.0579(9) Uani 1 1 d . . . . . 
H17 H 1.0969 0.7250 0.1256 0.070 Uiso 1 1 calc R U . . . 
C18 C 1.1356(6) 0.7597(8) 0.2407(3) 0.0920(16) Uani 1 1 d . . . . . 
H18A H 1.0785 0.7282 0.2934 0.138 Uiso 1 1 calc R U . . . 
H18B H 1.1287 0.8843 0.2226 0.138 Uiso 1 1 calc R U . . . 
H18C H 1.2592 0.7157 0.2454 0.138 Uiso 1 1 calc R U . . . 
C19 C 1.0670(6) 0.4875(7) 0.2003(3) 0.0903(15) Uani 1 1 d . . . . . 
H19A H 1.1927 0.4515 0.2062 0.135 Uiso 1 1 calc R U . . . 
H19B H 1.0172 0.4430 0.1570 0.135 Uiso 1 1 calc R U . . . 
H19C H 1.0066 0.4430 0.2511 0.135 Uiso 1 1 calc R U . . . 
C20 C 0.6883(11) 0.6288(14) 0.0934(5) 0.064(2) Uani 0.678(13) 1 d D U P A 1 
H20 H 0.7052 0.5040 0.1184 0.076 Uiso 0.678(13) 1 calc R U P A 1 
C21 C 0.783(2) 0.6580(19) 0.0136(8) 0.080(4) Uani 0.678(13) 1 d D U P A 1 
H21A H 0.7250 0.5999 -0.0227 0.120 Uiso 0.678(13) 1 calc R U P A 1 
H21B H 0.9054 0.6125 0.0220 0.120 Uiso 0.678(13) 1 calc R U P A 1 
H21C H 0.7786 0.7806 -0.0103 0.120 Uiso 0.678(13) 1 calc R U P A 1 
C22 C 0.4917(10) 0.674(2) 0.0852(6) 0.117(5) Uani 0.678(13) 1 d D U P A 1 
H22A H 0.4700 0.7963 0.0615 0.176 Uiso 0.678(13) 1 calc R U P A 1 
H22B H 0.4370 0.6471 0.1386 0.176 Uiso 0.678(13) 1 calc R U P A 1 
H22C H 0.4411 0.6082 0.0503 0.176 Uiso 0.678(13) 1 calc R U P A 1 
C20' C 0.650(3) 0.705(2) 0.0940(11) 0.064(2) Uani 0.322(13) 1 d D U P A 2 
H20' H 0.5504 0.7948 0.0849 0.076 Uiso 0.322(13) 1 calc R U P A 2 
C21' C 0.570(3) 0.539(3) 0.1251(10) 0.092(7) Uani 0.322(13) 1 d D U P A 2 
H21D H 0.4873 0.5505 0.1686 0.138 Uiso 0.322(13) 1 calc R U P A 2 
H21E H 0.6626 0.4497 0.1458 0.138 Uiso 0.322(13) 1 calc R U P A 2 
H21F H 0.5066 0.5078 0.0812 0.138 Uiso 0.322(13) 1 calc R U P A 2 
C22' C 0.743(4) 0.719(4) 0.0135(17) 0.084(9) Uani 0.322(13) 1 d D U P A 2 
H22D H 0.7980 0.8280 -0.0006 0.126 Uiso 0.322(13) 1 calc R U P A 2 
H22E H 0.6569 0.7147 -0.0282 0.126 Uiso 0.322(13) 1 calc R U P A 2 
H22F H 0.8331 0.6248 0.0174 0.126 Uiso 0.322(13) 1 calc R U P A 2 
 
loop_ 
 _atom_site_aniso_label 
 _atom_site_aniso_U_11 
 _atom_site_aniso_U_22 
 _atom_site_aniso_U_33 
 _atom_site_aniso_U_23 
 _atom_site_aniso_U_13 
 _atom_site_aniso_U_12 
Ge1 0.0374(2) 0.0635(3) 0.0292(2) 0.00250(15) 0.00617(14) -0.00874(16) 
F1 0.0437(10) 0.0480(9) 0.0411(9) -0.0182(7) 0.0051(7) 0.0043(7) 
C1 0.0226(12) 0.0310(13) 0.0272(12) -0.0031(10) 0.0020(9) -0.0031(10) 
F2 0.0487(11) 0.0404(9) 0.0613(11) -0.0276(8) -0.0034(8) 0.0094(7) 
C2 0.0214(12) 0.0295(12) 0.0288(13) -0.0034(10) 0.0011(9) -0.0030(9) 
F3 0.0687(13) 0.0267(8) 0.0625(12) -0.0083(7) -0.0067(9) 0.0088(8) 
C3 0.0231(13) 0.0363(14) 0.0296(13) -0.0069(10) 0.0023(10) -0.0022(10) 
F4 0.0582(11) 0.0342(8) 0.0409(9) 0.0014(7) 0.0023(8) 0.0022(7) 
C4 0.0226(13) 0.0321(13) 0.0352(14) -0.0099(10) -0.0028(10) -0.0018(10) 
C5 0.0271(14) 0.0380(14) 0.0383(15) -0.0147(11) -0.0021(11) -0.0019(11) 
C6 0.0329(15) 0.0346(14) 0.0508(17) -0.0211(12) -0.0068(12) 0.0024(11) 
C7 0.0381(16) 0.0258(13) 0.0509(17) -0.0095(12) -0.0108(13) 0.0004(11) 
C8 0.0354(15) 0.0302(13) 0.0389(15) -0.0038(11) -0.0040(11) -0.0028(11) 
C9 0.0241(13) 0.0289(13) 0.0348(14) -0.0053(10) -0.0043(10) -0.0027(10) 
C10 0.0254(13) 0.0310(13) 0.0283(13) -0.0024(10) -0.0007(10) -0.0033(10) 
C11 0.0223(13) 0.0296(12) 0.0305(13) -0.0044(10) -0.0004(10) -0.0024(10) 
C12 0.0284(14) 0.0315(13) 0.0321(14) -0.0030(10) 0.0021(11) 0.0022(10) 
C13 0.0338(15) 0.0452(16) 0.0324(15) -0.0013(12) 0.0044(12) 0.0016(12) 
C14 0.112(4) 0.076(3) 0.095(4) 0.027(3) 0.050(3) 0.011(3) 
C15 0.137(5) 0.088(4) 0.133(5) 0.035(3) 0.070(4) 0.036(3) 
C16 0.209(8) 0.074(3) 0.154(6) 0.007(3) 0.116(6) -0.014(4) 
C17 0.0391(19) 0.091(3) 0.0401(18) -0.0087(17) 0.0113(14) -0.0036(17) 
C18 0.048(2) 0.165(5) 0.072(3) -0.044(3) -0.001(2) -0.012(3) 
C19 0.070(3) 0.112(4) 0.076(3) -0.001(3) 0.011(2) 0.023(3) 
C20 0.056(4) 0.093(7) 0.054(3) -0.034(4) 0.013(3) -0.025(4) 
C21 0.084(7) 0.119(9) 0.051(4) -0.045(5) 0.018(4) -0.022(6) 
C22 0.056(4) 0.230(14) 0.087(7) -0.076(8) 0.007(4) -0.028(6) 
C20' 0.056(4) 0.093(7) 0.054(3) -0.034(4) 0.013(3) -0.025(4) 
C21' 0.101(14) 0.136(13) 0.065(9) -0.061(8) 0.024(8) -0.074(12) 
C22' 0.073(16) 0.14(2) 0.062(9) -0.058(11) 0.018(9) -0.050(16) 
 
_geom_special_details 
; 
 All esds (except the esd in the dihedral angle between two l.s. planes) 
 are estimated using the full covariance matrix.  The cell esds are taken 
 into account individually in the estimation of esds in distances, angles 
 and torsion angles; correlations between esds in cell parameters are only 
 used when they are defined by crystal symmetry.  An approximate (isotropic) 
 treatment of cell esds is used for estimating esds involving l.s. planes. 
; 
 
loop_ 
 _geom_bond_atom_site_label_1 
 _geom_bond_atom_site_label_2 
 _geom_bond_distance 
 _geom_bond_site_symmetry_2 
 _geom_bond_publ_flag 
Ge1 C20' 1.844(19) . ? 
Ge1 C13 1.928(3) . ? 
Ge1 C17 1.947(3) . ? 
Ge1 C14 1.975(5) . ? 
Ge1 C20 2.038(8) . ? 
F1 C5 1.341(3) . ? 
C1 C11 1.420(4) 2_666 ? 
C1 C2 1.419(3) . ? 
C1 C12 1.428(4) . ? 
F2 C6 1.341(3) . ? 
C2 C3 1.409(4) . ? 
C2 C11 1.439(3) . ? 
F3 C7 1.346(3) . ? 
C3 C4 1.386(4) . ? 
C3 H3 0.9500 . ? 
F4 C8 1.341(3) . ? 
C4 C5 1.429(4) . ? 
C4 C9 1.437(4) . ? 
C5 C6 1.353(4) . ? 
C6 C7 1.409(4) . ? 
C7 C8 1.341(4) . ? 
C8 C9 1.428(4) . ? 
C9 C10 1.384(4) . ? 
C10 C11 1.409(3) . ? 
C10 H10 0.9500 . ? 
C11 C1 1.420(4) 2_666 ? 
C12 C13 1.194(4) . ? 
C14 C16 1.439(6) . ? 
C14 C15 1.445(7) . ? 
C14 H14 1.0000 . ? 
C15 H15A 0.9800 . ? 
C15 H15B 0.9800 . ? 
C15 H15C 0.9800 . ? 
C16 H16A 0.9800 . ? 
C16 H16B 0.9800 . ? 
C16 H16C 0.9800 . ? 
C17 C18 1.526(6) . ? 
C17 C19 1.537(6) . ? 
C17 H17 1.0000 . ? 
C18 H18A 0.9800 . ? 
C18 H18B 0.9800 . ? 
C18 H18C 0.9800 . ? 
C19 H19A 0.9800 . ? 
C19 H19B 0.9800 . ? 
C19 H19C 0.9800 . ? 
C20 C21 1.505(11) . ? 
C20 C22 1.516(13) . ? 
C20 H20 1.0000 . ? 
C21 H21A 0.9800 . ? 
C21 H21B 0.9800 . ? 
C21 H21C 0.9800 . ? 
C22 H22A 0.9800 . ? 
C22 H22B 0.9800 . ? 
C22 H22C 0.9800 . ? 
C20' C21' 1.50(2) . ? 
C20' C22' 1.516(19) . ? 
C20' H20' 1.0000 . ? 
C21' H21D 0.9800 . ? 
C21' H21E 0.9800 . ? 
C21' H21F 0.9800 . ? 
C22' H22D 0.9800 . ? 
C22' H22E 0.9800 . ? 
C22' H22F 0.9800 . ? 
 
loop_ 
 _geom_angle_atom_site_label_1 
 _geom_angle_atom_site_label_2 
 _geom_angle_atom_site_label_3 
 _geom_angle 
 _geom_angle_site_symmetry_1 
 _geom_angle_site_symmetry_3 
 _geom_angle_publ_flag 
C20' Ge1 C13 107.8(5) . . ? 
C20' Ge1 C17 122.3(6) . . ? 
C13 Ge1 C17 107.04(13) . . ? 
C20' Ge1 C14 100.8(7) . . ? 
C13 Ge1 C14 105.60(17) . . ? 
C17 Ge1 C14 112.2(2) . . ? 
C13 Ge1 C20 106.6(2) . . ? 
C17 Ge1 C20 106.5(3) . . ? 
C14 Ge1 C20 118.3(4) . . ? 
C11 C1 C2 120.0(2) 2_666 . ? 
C11 C1 C12 119.9(2) 2_666 . ? 
C2 C1 C12 120.0(2) . . ? 
C3 C2 C1 121.0(2) . . ? 
C3 C2 C11 119.1(2) . . ? 
C1 C2 C11 119.9(2) . . ? 
C4 C3 C2 121.2(2) . . ? 
C4 C3 H3 119.4 . . ? 
C2 C3 H3 119.4 . . ? 
C3 C4 C5 122.3(3) . . ? 
C3 C4 C9 119.6(2) . . ? 
C5 C4 C9 118.1(2) . . ? 
F1 C5 C6 120.2(2) . . ? 
F1 C5 C4 118.6(2) . . ? 
C6 C5 C4 121.1(3) . . ? 
F2 C6 C5 121.4(3) . . ? 
F2 C6 C7 118.1(2) . . ? 
C5 C6 C7 120.5(2) . . ? 
C8 C7 F3 121.3(3) . . ? 
C8 C7 C6 120.8(2) . . ? 
F3 C7 C6 117.9(2) . . ? 
F4 C8 C7 120.3(2) . . ? 
F4 C8 C9 118.4(2) . . ? 
C7 C8 C9 121.3(3) . . ? 
C10 C9 C8 121.9(3) . . ? 
C10 C9 C4 119.9(2) . . ? 
C8 C9 C4 118.1(2) . . ? 
C9 C10 C11 121.0(2) . . ? 
C9 C10 H10 119.5 . . ? 
C11 C10 H10 119.5 . . ? 
C10 C11 C1 120.7(2) . 2_666 ? 
C10 C11 C2 119.2(2) . . ? 
C1 C11 C2 120.1(2) 2_666 . ? 
C13 C12 C1 178.4(3) . . ? 
C12 C13 Ge1 178.4(3) . . ? 
C16 C14 C15 119.0(5) . . ? 
C16 C14 Ge1 114.8(4) . . ? 
C15 C14 Ge1 115.7(4) . . ? 
C16 C14 H14 100.9 . . ? 
C15 C14 H14 100.9 . . ? 
Ge1 C14 H14 100.9 . . ? 
C14 C15 H15A 109.5 . . ? 
C14 C15 H15B 109.5 . . ? 
H15A C15 H15B 109.5 . . ? 
C14 C15 H15C 109.5 . . ? 
H15A C15 H15C 109.5 . . ? 
H15B C15 H15C 109.5 . . ? 
C14 C16 H16A 109.5 . . ? 
C14 C16 H16B 109.5 . . ? 
H16A C16 H16B 109.5 . . ? 
C14 C16 H16C 109.5 . . ? 
H16A C16 H16C 109.5 . . ? 
H16B C16 H16C 109.5 . . ? 
C18 C17 C19 111.5(4) . . ? 
C18 C17 Ge1 112.1(3) . . ? 
C19 C17 Ge1 109.5(3) . . ? 
C18 C17 H17 107.9 . . ? 
C19 C17 H17 107.9 . . ? 
Ge1 C17 H17 107.9 . . ? 
C17 C18 H18A 109.5 . . ? 
C17 C18 H18B 109.5 . . ? 
H18A C18 H18B 109.5 . . ? 
C17 C18 H18C 109.5 . . ? 
H18A C18 H18C 109.5 . . ? 
H18B C18 H18C 109.5 . . ? 
C17 C19 H19A 109.5 . . ? 
C17 C19 H19B 109.5 . . ? 
H19A C19 H19B 109.5 . . ? 
C17 C19 H19C 109.5 . . ? 
H19A C19 H19C 109.5 . . ? 
H19B C19 H19C 109.5 . . ? 
C21 C20 C22 113.3(9) . . ? 
C21 C20 Ge1 112.0(8) . . ? 
C22 C20 Ge1 109.8(7) . . ? 
C21 C20 H20 107.2 . . ? 
C22 C20 H20 107.2 . . ? 
Ge1 C20 H20 107.2 . . ? 
C20 C21 H21A 109.5 . . ? 
C20 C21 H21B 109.5 . . ? 
H21A C21 H21B 109.5 . . ? 
C20 C21 H21C 109.5 . . ? 
H21A C21 H21C 109.5 . . ? 
H21B C21 H21C 109.5 . . ? 
C20 C22 H22A 109.5 . . ? 
C20 C22 H22B 109.5 . . ? 
H22A C22 H22B 109.5 . . ? 
C20 C22 H22C 109.5 . . ? 
H22A C22 H22C 109.5 . . ? 
H22B C22 H22C 109.5 . . ? 
C21' C20' C22' 114.8(15) . . ? 
C21' C20' Ge1 110.9(14) . . ? 
C22' C20' Ge1 111.9(17) . . ? 
C21' C20' H20' 106.2 . . ? 
C22' C20' H20' 106.2 . . ? 
Ge1 C20' H20' 106.2 . . ? 
C20' C21' H21D 109.5 . . ? 
C20' C21' H21E 109.5 . . ? 
H21D C21' H21E 109.5 . . ? 
C20' C21' H21F 109.5 . . ? 
H21D C21' H21F 109.5 . . ? 
H21E C21' H21F 109.5 . . ? 
C20' C22' H22D 109.5 . . ? 
C20' C22' H22E 109.5 . . ? 
H22D C22' H22E 109.5 . . ? 
C20' C22' H22F 109.5 . . ? 
H22D C22' H22F 109.5 . . ? 
H22E C22' H22F 109.5 . . ? 
 
loop_ 
 _geom_torsion_atom_site_label_1 
 _geom_torsion_atom_site_label_2 
 _geom_torsion_atom_site_label_3 
 _geom_torsion_atom_site_label_4 
 _geom_torsion 
 _geom_torsion_site_symmetry_1 
 _geom_torsion_site_symmetry_2 
 _geom_torsion_site_symmetry_3 
 _geom_torsion_site_symmetry_4 
 _geom_torsion_publ_flag 
C11 C1 C2 C3 178.2(2) 2_666 . . . ? 
C12 C1 C2 C3 -3.6(4) . . . . ? 
C11 C1 C2 C11 -0.8(4) 2_666 . . . ? 
C12 C1 C2 C11 177.4(2) . . . . ? 
C1 C2 C3 C4 -178.6(2) . . . . ? 
C11 C2 C3 C4 0.4(4) . . . . ? 
C2 C3 C4 C5 179.1(2) . . . . ? 
C2 C3 C4 C9 -1.4(4) . . . . ? 
C3 C4 C5 F1 0.3(4) . . . . ? 
C9 C4 C5 F1 -179.3(2) . . . . ? 
C3 C4 C5 C6 179.5(3) . . . . ? 
C9 C4 C5 C6 0.0(4) . . . . ? 
F1 C5 C6 F2 0.5(4) . . . . ? 
C4 C5 C6 F2 -178.7(2) . . . . ? 
F1 C5 C6 C7 179.9(2) . . . . ? 
C4 C5 C6 C7 0.7(4) . . . . ? 
F2 C6 C7 C8 178.5(3) . . . . ? 
C5 C6 C7 C8 -0.9(4) . . . . ? 
F2 C6 C7 F3 -1.8(4) . . . . ? 
C5 C6 C7 F3 178.8(2) . . . . ? 
F3 C7 C8 F4 0.3(4) . . . . ? 
C6 C7 C8 F4 -180.0(2) . . . . ? 
F3 C7 C8 C9 -179.4(2) . . . . ? 
C6 C7 C8 C9 0.3(4) . . . . ? 
F4 C8 C9 C10 -0.5(4) . . . . ? 
C7 C8 C9 C10 179.2(3) . . . . ? 
F4 C8 C9 C4 -179.4(2) . . . . ? 
C7 C8 C9 C4 0.4(4) . . . . ? 
C3 C4 C9 C10 1.1(4) . . . . ? 
C5 C4 C9 C10 -179.3(2) . . . . ? 
C3 C4 C9 C8 180.0(2) . . . . ? 
C5 C4 C9 C8 -0.5(4) . . . . ? 
C8 C9 C10 C11 -178.6(2) . . . . ? 
C4 C9 C10 C11 0.2(4) . . . . ? 
C9 C10 C11 C1 177.9(2) . . . 2_666 ? 
C9 C10 C11 C2 -1.2(4) . . . . ? 
C3 C2 C11 C10 0.9(4) . . . . ? 
C1 C2 C11 C10 179.9(2) . . . . ? 
C3 C2 C11 C1 -178.2(2) . . . 2_666 ? 
C1 C2 C11 C1 0.8(4) . . . 2_666 ? 
C13 Ge1 C20' C21' -33.9(17) . . . . ? 
C17 Ge1 C20' C21' 90.6(16) . . . . ? 
C14 Ge1 C20' C21' -144.3(15) . . . . ? 
C20 Ge1 C20' C21' 55(2) . . . . ? 
C13 Ge1 C20' C22' -163.6(15) . . . . ? 
C17 Ge1 C20' C22' -39.1(18) . . . . ? 
C14 Ge1 C20' C22' 86.0(16) . . . . ? 
C20 Ge1 C20' C22' -74(2) . . . . ? 
 
_refine_diff_density_max    0.445 
_refine_diff_density_min   -0.908 
_refine_diff_density_rms    0.059 
 
_shelxl_version_number 2013-4 
 
_iucr_refine_instructions_details 
; 
TITL x13357 in P-1 
CELL  1.54178   7.6204   8.0587  17.0031   77.138   89.250   85.761 
ZERR    1.00   0.0002   0.0002   0.0003   0.001   0.001   0.001 
LATT  1 
SFAC C H F GE 
UNIT 44 46 8 2 
TEMP -93.000 
SIZE 0.40 0.07 0.004 
REM COLR blue 
REM FORM lath 
SHEL 999 0.83 
OMIT -2 136 
L.S. 10 
BOND $H 
CONF 
HTAB 
ACTA 
LIST 4 
FMAP 2 
PLAN 10 
WGHT    0.043200    1.124800 
FVAR       0.16761   0.67774 
GE1   4    0.792597    0.755053    0.170992    11.00000    0.03743    0.06350 = 
         0.02924    0.00250    0.00617   -0.00874 
F1    3    0.898876    0.034055    0.353002    11.00000    0.04370    0.04796 = 
         0.04111   -0.01817    0.00511    0.00425 
C1    1    0.562670    0.557916    0.419682    11.00000    0.02255    0.03097 = 
         0.02720   -0.00311    0.00201   -0.00306 
F2    3    0.972109   -0.293834    0.436169    11.00000    0.04871    0.04042 = 
         0.06126   -0.02763   -0.00343    0.00935 
C2    1    0.604380    0.386852    0.461693    11.00000    0.02139    0.02946 = 
         0.02881   -0.00344    0.00109   -0.00301 
F3    3    0.853297   -0.400467    0.586079    11.00000    0.06868    0.02669 = 
         0.06250   -0.00834   -0.00668    0.00884 
C3    1    0.704054    0.271088    0.424796    11.00000    0.02310    0.03630 = 
         0.02963   -0.00688    0.00226   -0.00221 
AFIX  43 
H3    2    0.746071    0.308915    0.371429    11.00000   -1.20000 
AFIX   0 
F4    3    0.666181   -0.182004    0.661705    11.00000    0.05820    0.03416 = 
         0.04090    0.00139    0.00230    0.00216 
C4    1    0.741908    0.102946    0.464988    11.00000    0.02263    0.03212 = 
         0.03522   -0.00987   -0.00280   -0.00184 
C5    1    0.840470   -0.017794    0.428622    11.00000    0.02708    0.03802 = 
         0.03833   -0.01474   -0.00214   -0.00186 
C6    1    0.876695   -0.180827    0.469426    11.00000    0.03287    0.03455 = 
         0.05077   -0.02112   -0.00681    0.00242 
C7    1    0.815941   -0.236024    0.548923    11.00000    0.03808    0.02578 = 
         0.05092   -0.00952   -0.01078    0.00043 
C8    1    0.723179   -0.127874    0.586013    11.00000    0.03536    0.03024 = 
         0.03891   -0.00382   -0.00395   -0.00278 
C9    1    0.681976    0.046212    0.546385    11.00000    0.02413    0.02888 = 
         0.03484   -0.00533   -0.00434   -0.00270 
C10   1    0.584551    0.158661    0.583576    11.00000    0.02541    0.03098 = 
         0.02833   -0.00239   -0.00072   -0.00327 
AFIX  43 
H10   2    0.545667    0.120453    0.637449    11.00000   -1.20000 
AFIX   0 
C11   1    0.542161    0.328924    0.542762    11.00000    0.02227    0.02958 = 
         0.03048   -0.00443   -0.00038   -0.00237 
C12   1    0.630392    0.617784    0.340531    11.00000    0.02843    0.03154 = 
         0.03215   -0.00296    0.00210    0.00223 
C13   1    0.690172    0.669672    0.275136    11.00000    0.03379    0.04519 = 
         0.03238   -0.00133    0.00437    0.00155 
C14   1    0.748873    1.005672    0.149641    11.00000    0.11162    0.07579 = 
         0.09512    0.02650    0.04975    0.01055 
AFIX  13 
H14   2    0.822211    1.032776    0.192848    11.00000   -1.20000 
AFIX   0 
C15   1    0.575921    1.067890    0.170860    11.00000    0.13681    0.08757 = 
         0.13336    0.03466    0.07010    0.03637 
AFIX 137 
H15A  2    0.568174    1.192914    0.159084    11.00000   -1.50000 
H15B  2    0.555533    1.023753    0.228508    11.00000   -1.50000 
H15C  2    0.486786    1.029189    0.139374    11.00000   -1.50000 
AFIX   0 
C16   1    0.832665    1.097273    0.078401    11.00000    0.20865    0.07448 = 
         0.15445    0.00701    0.11610   -0.01439 
AFIX 137 
H16A  2    0.780756    1.071292    0.030495    11.00000   -1.50000 
H16B  2    0.958862    1.062750    0.080534    11.00000   -1.50000 
H16C  2    0.815435    1.220151    0.075663    11.00000   -1.50000 
AFIX   0 
C17   1    1.042573    0.683365    0.179626    11.00000    0.03912    0.09133 = 
         0.04006   -0.00871    0.01130   -0.00359 
AFIX  13 
H17   2    1.096933    0.725003    0.125649    11.00000   -1.20000 
AFIX   0 
C18   1    1.135562    0.759737    0.240714    11.00000    0.04818    0.16503 = 
         0.07155   -0.04352   -0.00114   -0.01154 
AFIX 137 
H18A  2    1.078459    0.728209    0.293371    11.00000   -1.50000 
H18B  2    1.128705    0.884318    0.222644    11.00000   -1.50000 
H18C  2    1.259247    0.715738    0.245362    11.00000   -1.50000 
AFIX   0 
C19   1    1.066964    0.487464    0.200340    11.00000    0.06965    0.11151 = 
         0.07584   -0.00126    0.01111    0.02281 
AFIX 137 
H19A  2    1.192686    0.451487    0.206188    11.00000   -1.50000 
H19B  2    1.017196    0.443026    0.156986    11.00000   -1.50000 
H19C  2    1.006565    0.442955    0.251056    11.00000   -1.50000 
AFIX   0 
EADP C20 C20' 
SAME 0.020 C20' C21' C22' 
RIGU 0.010 C20 > C22' 
PART 1 
C20   1    0.688284    0.628774    0.093352    21.00000    0.05561    0.09266 = 
         0.05398   -0.03424    0.01341   -0.02476 
AFIX  13 
H20   2    0.705193    0.504024    0.118352    21.00000   -1.20000 
AFIX   0 
C21   1    0.782532    0.657983    0.013632    21.00000    0.08378    0.11894 = 
         0.05080   -0.04526    0.01828   -0.02179 
AFIX 137 
H21A  2    0.725018    0.599865   -0.022744    21.00000   -1.50000 
H21B  2    0.905351    0.612458    0.022042    21.00000   -1.50000 
H21C  2    0.778583    0.780640   -0.010301    21.00000   -1.50000 
AFIX   0 
C22   1    0.491711    0.674093    0.085215    21.00000    0.05627    0.22973 = 
         0.08652   -0.07559    0.00660   -0.02805 
AFIX 137 
H22A  2    0.469962    0.796274    0.061501    21.00000   -1.50000 
H22B  2    0.437046    0.647092    0.138600    21.00000   -1.50000 
H22C  2    0.441059    0.608206    0.050282    21.00000   -1.50000 
AFIX   0 
PART 2 
C20'  1    0.650090    0.704691    0.093954   -21.00000    0.05561    0.09266 = 
         0.05398   -0.03424    0.01341   -0.02476 
AFIX  13 
H20'  2    0.550379    0.794791    0.084921   -21.00000   -1.20000 
AFIX   0 
C21'  1    0.569708    0.538874    0.125052   -21.00000    0.10141    0.13614 = 
         0.06519   -0.06055    0.02378   -0.07406 
AFIX  33 
H21D  2    0.487290    0.550541    0.168552   -21.00000   -1.50000 
H21E  2    0.662580    0.449668    0.145781   -21.00000   -1.50000 
H21F  2    0.506600    0.507799    0.081195   -21.00000   -1.50000 
AFIX   0 
C22'  1    0.742711    0.719338    0.013526   -21.00000    0.07256    0.14009 = 
         0.06163   -0.05781    0.01827   -0.05012 
AFIX  33 
H22D  2    0.798050    0.827987   -0.000553   -21.00000   -1.50000 
H22E  2    0.656910    0.714714   -0.028226   -21.00000   -1.50000 
H22F  2    0.833057    0.624782    0.017356   -21.00000   -1.50000 
PART 0 
 
AFIX   0 
HKLF 4 
 
REM  x13357 in P-1 
REM R1 =  0.0387 for    3057 Fo > 4sig(Fo)  and  0.0485 for all    3550 data 
REM    272 parameters refined using     21 restraints 
 
END 
 
WGHT      0.0401      1.1454 
 
REM No hydrogen bonds found for HTAB generation 
 
REM Highest difference peak  0.445,  deepest hole -0.908,  1-sigma level  0.059 
Q1    1   0.7062  0.7125  0.1495  11.00000  0.05    0.44 
Q2    1   0.9257  1.0559  0.1512  11.00000  0.05    0.37 
Q3    1   0.3767  0.2708  0.5124  11.00000  0.05    0.36 
Q4    1   0.9150  0.7000  0.1819  11.00000  0.05    0.31 
Q5    1   0.7199  0.8576  0.1531  11.00000  0.05    0.27 
Q6    1   0.7717  0.6997  0.1097  11.00000  0.05    0.26 
Q7    1   0.7188  0.7279  0.2260  11.00000  0.05    0.25 
Q8    1   0.5539  0.3542  0.4991  11.00000  0.05    0.25 
Q9    1   0.7128  0.0764  0.5020  11.00000  0.05    0.24 
Q10   1   0.6049  0.9015  0.0904  11.00000  0.05    0.23 
; 
_shelx_res_checksum   59854 
 
_shelx_hkl_file 
; 
  -1   0   0    6.45    0.36 
  -1   0   0    6.22    0.33 
  -1   0   0    5.81    0.31 
  -1   0   0    6.49    0.35 
  -1   0   0    6.64    0.36 
   1   0   0    6.56    0.36 
   1   0   0    5.78    0.33 
   1   0   0    5.69    0.31 
   1   0   0    6.69    0.36 
  -2   0   0  106.98    5.21 
  -2   0   0  103.60    5.21 
  -2   0   0  101.47    4.97 
  -2   0   0  100.57    4.68 
  -2   0   0  107.78    5.43 
   2   0   0  107.55    5.21 
   2   0   0   95.91    4.97 
   2   0   0   95.73    4.67 
   2   0   0  105.78    5.21 
  -3   0   0   17.61    1.02 
  -3   0   0   18.27    1.02 
  -3   0   0   19.21    0.89 
  -3   0   0   18.79    0.94 
   3   0   0   18.70    1.02 
   3   0   0   17.36    0.94 
   3   0   0   18.18    0.89 
   3   0   0   18.64    1.02 
  -4   0   0    0.42    0.11 
  -4   0   0    0.50    0.17 
   4   0   0    0.32    0.16 
  -6   0   0    0.20    0.12 
  -6   0   0    0.04    0.18 
  -7   0   0    0.72    0.15 
  -8   0   0    2.83    0.25 
  -8   1   0    2.73    0.23 
  -7   1   0    4.15    0.29 
  -6   1   0   17.29    0.84 
  -6   1   0   16.22    0.85 
  -6   1   0   16.76    0.99 
  -5   1   0    9.73    0.54 
  -5   1   0   10.20    0.63 
  -5   1   0   11.62    0.65 
  -5   1   0   10.52    0.62 
  -4   1   0    9.02    0.53 
  -4   1   0    9.53    0.53 
   3  -1   0   71.58    3.79 
   3  -1   0   74.78    3.79 
  -3   1   0   69.52    3.78 
  -3   1   0   70.83    3.79 
  -3   1   0   77.46    3.92 
  -3   1   0   76.50    3.59 
  -3   1   0   75.62    3.39 
   2  -1   0    1.53    0.18 
   2  -1   0    1.28    0.13 
   2  -1   0    1.25    0.14 
   2  -1   0    1.54    0.20 
  -2   1   0    1.56    0.14 
  -2   1   0    1.45    0.18 
  -2   1   0    1.39    0.13 
  -2   1   0    1.54    0.18 
  -2   1   0    1.55    0.14 
  -2   1   0    1.61    0.18 
   1  -1   0  222.23   10.54 
   1  -1   0  223.26   10.57 
  -1   1   0  207.01   11.07 
  -1   1   0  209.03    9.51 
  -1   1   0  214.39   10.55 
  -1   1   0  197.98   10.63 
  -1   1   0  212.64   10.56 
  -1   1   0  184.10   10.09 
  -1   1   0  199.36    9.51 
  -1   1   0  218.19   10.12 
   0  -1   0    5.90    0.35 
   0  -1   0    7.38    0.35 
   0   1   0    6.09    0.38 
   0   1   0    6.40    0.36 
   0   1   0    6.58    0.36 
   0   1   0    7.44    0.35 
   0   1   0    6.65    0.34 
   0   1   0    6.30    0.34 
   0   1   0    7.49    0.35 
   0   1   0    6.99    0.32 
   0   1   0    6.67    0.32 
   0   1   0    6.99    0.34 
  -1  -1   0  121.83    5.83 
  -1  -1   0  139.54    6.48 
  -1  -1   0  133.07    6.49 
   1   1   0  125.40    6.47 
   1   1   0  122.67    6.36 
   1   1   0  130.39    5.87 
   1   1   0  121.42    6.20 
   1   1   0  126.39    6.24 
   1   1   0  126.94    5.98 
   1   1   0  137.95    6.51 
  -2  -1   0  121.16    5.87 
  -2  -1   0  120.07    6.24 
  -2  -1   0  131.22    6.53 
  -2  -1   0  133.30    6.53 
   2   1   0  137.41    6.01 
   2   1   0  131.18    6.53 
   2   1   0  127.78    6.29 
   2   1   0  130.31    5.87 
   2   1   0  130.15    6.53 
  -3  -1   0   39.10    2.00 
  -3  -1   0   37.53    2.00 
  -3  -1   0   34.74    1.87 
  -3  -1   0   37.33    1.77 
   3   1   0   39.00    2.00 
   3   1   0   37.27    1.99 
   3   1   0   39.62    1.77 
   3   1   0   38.33    1.87 
  -4  -1   0    6.70    0.53 
   4   1   0    7.98    0.47 
   4   1   0    7.55    0.45 
  -6  -1   0   26.12    1.39 
   6   1   0   24.52    1.34 
   7   1   0    2.72    0.27 
  -8   2   0    0.47    0.12 
  -7   2   0    6.12    0.42 
  -6   2   0    1.68    0.31 
  -6   2   0    1.56    0.16 
  -6   2   0    1.42    0.13 
  -6   2   0    1.98    0.20 
  -5   2   0   16.16    0.90 
  -5   2   0   15.69    0.69 
  -5   2   0   16.70    0.82 
  -5   2   0   16.77    0.80 
  -5   2   0   16.36    0.86 
  -5   2   0   16.83    0.95 
  -5   2   0   15.79    0.72 
  -4   2   0   15.62    0.87 
  -4   2   0   15.02    0.88 
  -4   2   0   14.89    0.80 
  -4   2   0   14.87    0.79 
  -3   2   0   -0.01    0.15 
  -3   2   0   -0.15    0.14 
  -3   2   0    0.06    0.12 
  -3   2   0    0.12    0.15 
   2  -2   0   30.47    1.59 
   2  -2   0   32.62    1.60 
  -2   2   0   31.80    1.65 
  -2   2   0   29.98    1.59 
  -2   2   0   33.42    1.51 
  -2   2   0   31.64    1.42 
  -2   2   0   29.54    1.59 
  -2   2   0   27.15    1.50 
  -2   2   0   28.35    1.42 
  -2   2   0   30.96    1.59 
   1  -2   0   60.86    2.92 
   1  -2   0   59.72    2.92 
  -1   2   0   57.17    3.06 
  -1   2   0   60.58    2.79 
  -1   2   0   57.03    2.63 
  -1   2   0   54.38    2.79 
  -1   2   0   61.32    2.92 
  -1   2   0   58.19    2.92 
  -1   2   0   60.69    2.86 
  -1   2   0   53.37    2.68 
  -1   2   0   54.13    2.94 
  -1   2   0   55.45    2.63 
   0  -2   0   97.75    4.65 
   0  -2   0   95.74    4.63 
   0   2   0   89.62    4.86 
   0   2   0   95.04    4.63 
   0   2   0   89.39    4.54 
   0   2   0   93.68    4.63 
   0   2   0   87.76    4.27 
   0   2   0   88.17    4.67 
  -1  -2   0   12.40    0.64 
  -1  -2   0   12.63    0.64 
   1   2   0   12.45    0.64 
   1   2   0   12.12    0.57 
   1   2   0   11.06    0.66 
   1   2   0   11.55    0.63 
   1   2   0   11.88    0.60 
   1   2   0   12.08    0.61 
   1   2   0   12.00    0.61 
   1   2   0   12.34    0.64 
   1   2   0   11.37    0.57 
  -2  -2   0   64.36    3.21 
  -2  -2   0   63.98    3.21 
   2   2   0   54.29    3.04 
   2   2   0   60.62    3.11 
   2   2   0   63.68    2.87 
   2   2   0   66.87    3.21 
   2   2   0   65.94    3.05 
   2   2   0   67.13    2.93 
   2   2   0   57.10    2.87 
   2   2   0   63.16    3.20 
  -3  -2   0   11.25    0.70 
   3   2   0   10.92    0.69 
   3   2   0   11.87    0.63 
   3   2   0   11.70    0.63 
   3   2   0   11.40    0.70 
   3   2   0   12.15    0.61 
   4   2   0   22.08    1.08 
   4   2   0   21.72    1.13 
   4   2   0   21.86    1.15 
   5   2   0   23.25    1.16 
   5   2   0   22.93    1.21 
   5   2   0   21.28    1.11 
   5   2   0   24.38    1.22 
   6   2   0    3.38    0.26 
   6   2   0    3.06    0.35 
   8   2   0    1.99    0.23 
  -8   3   0    1.98    0.20 
  -7   3   0   -0.10    0.12 
  -7   3   0    0.00    0.16 
  -6   3   0    8.17    0.48 
  -6   3   0    8.14    0.42 
  -6   3   0    8.43    0.50 
  -6   3   0    7.98    0.41 
  -5   3   0    4.14    0.40 
  -5   3   0    4.15    0.29 
  -5   3   0    4.58    0.34 
  -5   3   0    4.59    0.26 
  -5   3   0    5.03    0.35 
  -5   3   0    4.92    0.46 
  -5   3   0    4.50    0.25 
  -5   3   0    4.10    0.32 
  -4   3   0   15.03    0.84 
  -4   3   0   13.59    0.61 
  -4   3   0   13.77    0.69 
  -4   3   0   15.07    0.75 
  -4   3   0   14.25    0.83 
  -4   3   0   13.50    0.72 
  -4   3   0   12.28    0.77 
  -4   3   0   13.79    0.66 
  -4   3   0   13.14    0.59 
  -4   3   0   12.57    0.68 
  -4   3   0   14.53    0.73 
  -3   3   0   16.64    0.95 
  -3   3   0   16.58    0.92 
  -3   3   0   16.36    0.85 
  -3   3   0   15.83    0.81 
  -2   3   0    1.29    0.16 
  -2   3   0    0.98    0.12 
  -2   3   0    1.03    0.12 
  -2   3   0    1.08    0.13 
  -2   3   0    0.90    0.12 
  -2   3   0    1.22    0.18 
  -2   3   0    0.85    0.09 
   1  -3   0   29.33    1.53 
   1  -3   0   30.12    1.53 
  -1   3   0   28.99    1.53 
  -1   3   0   31.65    1.46 
  -1   3   0   30.41    1.38 
  -1   3   0   30.03    1.57 
  -1   3   0   28.21    1.53 
  -1   3   0   31.06    1.64 
  -1   3   0   31.98    1.53 
  -1   3   0   29.96    1.42 
   0   3   0   26.00    1.44 
   0   3   0   28.53    1.33 
   0   3   0   28.61    1.41 
   0   3   0   28.52    1.51 
  -1  -3   0   85.34    4.21 
  -1  -3   0   79.29    4.21 
   1   3   0   80.01    4.02 
   1   3   0   84.66    3.79 
   1   3   0   79.99    4.21 
   1   3   0   85.17    3.79 
   1   3   0   83.54    4.13 
   1   3   0   87.76    4.03 
   1   3   0   82.67    4.41 
   1   3   0   87.03    3.89 
   1   3   0   81.51    4.21 
  -2  -3   0   16.39    0.96 
   2   3   0   16.88    0.84 
   2   3   0   16.50    0.96 
   2   3   0   18.57    0.85 
   2   3   0   17.78    0.96 
   2   3   0   17.47    0.96 
   2   3   0   18.90    0.90 
   2   3   0   19.50    0.94 
   2   3   0   16.12    0.89 
   2   3   0   19.25    0.88 
   3   3   0    8.77    0.53 
   3   3   0    9.08    0.51 
   3   3   0    9.09    0.50 
   4   3   0    9.25    0.55 
   4   3   0    9.30    0.53 
   4   3   0    8.87    0.57 
   5   3   0    0.38    0.10 
   5   3   0    0.29    0.16 
   5   3   0    0.54    0.17 
   5   3   0    0.12    0.21 
   5   3   0    0.45    0.17 
   5   3   0    0.42    0.10 
   5   3   0    0.45    0.15 
   6   3   0   30.07    1.69 
   6   3   0   32.17    1.54 
   6   3   0   33.59    1.69 
   7   3   0    0.08    0.15 
   8   3   0    4.13    0.29 
  -7   4   0    4.48    0.32 
  -6   4   0    4.94    0.31 
  -6   4   0    4.77    0.32 
  -6   4   0    5.06    0.41 
  -6   4   0    4.81    0.31 
  -5   4   0    4.34    0.47 
  -5   4   0    5.11    0.37 
  -5   4   0    3.61    0.36 
  -5   4   0    4.32    0.26 
  -5   4   0    3.92    0.29 
  -5   4   0    4.50    0.30 
  -5   4   0    4.12    0.34 
  -4   4   0    6.48    0.50 
  -4   4   0    6.18    0.40 
  -4   4   0    6.76    0.42 
  -4   4   0    6.86    0.46 
  -4   4   0    6.29    0.35 
  -4   4   0    6.59    0.50 
  -4   4   0    6.21    0.41 
  -4   4   0    6.71    0.37 
  -4   4   0    6.14    0.44 
  -4   4   0    6.70    0.32 
  -3   4   0   22.04    1.03 
  -3   4   0   21.42    0.92 
  -3   4   0   20.39    1.10 
  -3   4   0   22.10    1.09 
  -3   4   0   22.84    1.25 
  -3   4   0   22.20    1.21 
  -3   4   0   21.60    0.89 
  -3   4   0   21.19    1.06 
  -3   4   0   23.91    1.21 
  -3   4   0   21.08    1.19 
  -3   4   0   20.95    1.03 
  -2   4   0   15.98    0.91 
  -2   4   0   14.94    0.86 
  -1   4   0    0.22    0.12 
  -1   4   0    0.29    0.14 
  -1   4   0    0.27    0.16 
   0   4   0   17.55    0.98 
   0   4   0   19.81    0.99 
   0   4   0   18.86    1.05 
   1   4   0  116.51    6.35 
   1   4   0  123.75    5.95 
   2   4   0    9.37    0.57 
   2   4   0    9.43    0.49 
   2   4   0    9.14    0.47 
   3   4   0    8.06    0.47 
   3   4   0    8.33    0.51 
   3   4   0    8.19    0.48 
   4   4   0    4.77    0.39 
   4   4   0    5.45    0.43 
   4   4   0    4.88    0.38 
   4   4   0    5.07    0.28 
   4   4   0    5.35    0.26 
   4   4   0    4.93    0.32 
   4   4   0    4.77    0.27 
   4   4   0    4.96    0.37 
   4   4   0    5.29    0.39 
   5   4   0    7.64    0.49 
   5   4   0    7.57    0.39 
   5   4   0    8.25    0.42 
   5   4   0    8.01    0.38 
   5   4   0    8.15    0.54 
   5   4   0    7.61    0.53 
   5   4   0    7.51    0.53 
   5   4   0    8.62    0.46 
   6   4   0    0.38    0.11 
   6   4   0    0.22    0.14 
   6   4   0    0.59    0.15 
   7   4   0    3.24    0.30 
   7   4   0    3.68    0.24 
   7   4   0    3.24    0.30 
   8   4   0    6.53    0.38 
  -7   5   0    0.11    0.12 
  -6   5   0   11.36    0.64 
  -6   5   0   11.38    0.50 
  -6   5   0    9.59    0.56 
  -6   5   0   11.18    0.48 
  -5   5   0    6.08    0.34 
  -5   5   0    5.75    0.40 
  -5   5   0    6.48    0.31 
  -5   5   0    5.41    0.41 
  -5   5   0    5.80    0.42 
  -4   5   0   83.13    3.34 
  -4   5   0   83.33    3.24 
  -4   5   0   82.66    4.26 
  -4   5   0   81.02    3.77 
  -4   5   0   72.14    4.35 
  -3   5   0   10.31    0.72 
  -3   5   0   12.03    0.66 
  -3   5   0   10.70    0.66 
  -3   5   0   10.52    0.46 
  -3   5   0   10.57    0.57 
  -3   5   0   10.95    0.49 
  -3   5   0    9.95    0.59 
  -2   5   0   -0.06    0.15 
  -2   5   0   -0.17    0.16 
  -2   5   0    0.03    0.17 
  -2   5   0    0.13    0.13 
  -2   5   0   -0.14    0.15 
  -2   5   0    0.05    0.06 
  -2   5   0    0.10    0.19 
  -2   5   0   -0.03    0.08 
  -1   5   0    0.59    0.13 
  -1   5   0    0.55    0.11 
  -1   5   0    0.54    0.20 
  -1   5   0    0.48    0.04 
  -1   5   0    0.58    0.16 
  -1   5   0    0.51    0.06 
  -1   5   0    0.57    0.15 
  -1   5   0    0.72    0.14 
   0   5   0    3.79    0.31 
   0   5   0    3.81    0.33 
   0   5   0    3.83    0.33 
   0   5   0    4.27    0.34 
   0   5   0    3.67    0.30 
   1   5   0    3.63    0.32 
   1   5   0    3.56    0.28 
   1   5   0    3.46    0.32 
   1   5   0    4.13    0.35 
   1   5   0    3.52    0.17 
   1   5   0    3.54    0.18 
   1   5   0    3.49    0.30 
   1   5   0    3.92    0.34 
   2   5   0   13.25    0.82 
   2   5   0   14.63    0.78 
   2   5   0   13.24    0.56 
   2   5   0   13.74    0.58 
   2   5   0   12.84    0.79 
   2   5   0   14.34    0.83 
   2   5   0   13.55    0.76 
   3   5   0    0.83    0.15 
   3   5   0    0.82    0.08 
   3   5   0    0.61    0.16 
   3   5   0    0.69    0.10 
   3   5   0    0.92    0.09 
   3   5   0    0.74    0.15 
   3   5   0    0.79    0.15 
   3   5   0    1.21    0.16 
   3   5   0    1.00    0.24 
   4   5   0    9.09    0.42 
   4   5   0    8.42    0.53 
   4   5   0    8.67    0.57 
   4   5   0    8.58    0.51 
   4   5   0    9.14    0.47 
   4   5   0    8.03    0.50 
   4   5   0    8.77    0.58 
   4   5   0    8.96    0.60 
   4   5   0    9.30    0.40 
   5   5   0    1.30    0.19 
   5   5   0    1.96    0.19 
   5   5   0    1.56    0.29 
   5   5   0    1.77    0.20 
   5   5   0    1.55    0.15 
   5   5   0    1.55    0.14 
   6   5   0    7.11    0.35 
   6   5   0    6.60    0.46 
   6   5   0    7.22    0.36 
   6   5   0    7.06    0.40 
   7   5   0    1.98    0.24 
   7   5   0    2.17    0.19 
  -6   6   0   -0.02    0.08 
  -6   6   0    0.07    0.10 
  -6   6   0    0.08    0.13 
  -5   6   0   12.41    0.53 
  -5   6   0   12.38    0.69 
  -5   6   0   11.46    0.61 
  -5   6   0   11.97    0.49 
  -5   6   0   11.01    0.65 
  -4   6   0    2.83    0.34 
  -4   6   0    3.53    0.18 
  -4   6   0    3.34    0.23 
  -4   6   0    3.57    0.34 
  -4   6   0    3.55    0.34 
  -3   6   0    1.62    0.18 
  -3   6   0    1.13    0.16 
  -3   6   0    1.37    0.11 
  -3   6   0    1.15    0.19 
  -3   6   0    0.55    0.23 
  -3   6   0    1.31    0.18 
  -2   6   0   10.36    0.62 
  -2   6   0   12.01    0.70 
  -2   6   0   11.41    0.71 
  -2   6   0   10.59    0.62 
  -2   6   0   13.34    0.65 
  -2   6   0   11.63    0.49 
  -2   6   0   10.14    0.75 
  -1   6   0    0.05    0.17 
  -1   6   0    0.15    0.19 
  -1   6   0    0.03    0.15 
  -1   6   0   -0.10    0.18 
  -1   6   0    0.10    0.17 
  -1   6   0   -0.15    0.18 
   0   6   0    4.12    0.30 
   0   6   0    4.63    0.39 
   0   6   0    4.55    0.36 
   0   6   0    4.26    0.39 
   0   6   0    4.53    0.34 
   0   6   0    4.84    0.38 
   0   6   0    3.72    0.39 
   0   6   0    4.99    0.39 
   1   6   0    6.44    0.44 
   1   6   0    5.69    0.45 
   1   6   0    5.55    0.41 
   1   6   0    5.34    0.42 
   1   6   0    5.50    0.42 
   1   6   0    6.30    0.43 
   1   6   0    6.73    0.46 
   1   6   0    5.42    0.27 
   2   6   0    6.73    0.30 
   2   6   0    6.66    0.50 
   2   6   0    6.44    0.46 
   2   6   0    6.76    0.32 
   2   6   0    7.48    0.51 
   2   6   0    6.00    0.47 
   2   6   0    6.44    0.48 
   3   6   0   16.65    0.71 
   3   6   0   14.65    0.93 
   3   6   0   16.78    0.99 
   3   6   0   15.62    0.98 
   3   6   0   16.09    0.91 
   3   6   0   18.74    1.00 
   3   6   0   16.38    0.68 
   4   6   0    0.28    0.19 
   4   6   0   -0.04    0.19 
   4   6   0    0.11    0.10 
   4   6   0   -0.10    0.19 
   4   6   0   -0.02    0.09 
   5   6   0    2.46    0.33 
   5   6   0    2.93    0.21 
   5   6   0    2.58    0.28 
   5   6   0    2.72    0.20 
   6   6   0    0.12    0.15 
   6   6   0    0.14    0.13 
   6   6   0    0.41    0.10 
   7   6   0    1.00    0.12 
   7   6   0    0.86    0.13 
  -5   7   0    0.00    0.12 
  -5   7   0    0.06    0.10 
  -4   7   0    5.37    0.39 
  -4   7   0    5.08    0.37 
  -4   7   0    5.35    0.34 
  -3   7   0    0.30    0.15 
  -3   7   0    0.47    0.18 
  -3   7   0    0.62    0.16 
  -2   7   0    1.41    0.20 
  -2   7   0    1.03    0.16 
  -2   7   0    0.98    0.18 
  -1   7   0    1.84    0.21 
  -1   7   0    1.43    0.21 
  -1   7   0    1.45    0.18 
  -1   7   0    1.88    0.21 
   0   7   0    0.37    0.17 
   0   7   0    0.36    0.20 
   0   7   0    0.28    0.15 
   0   7   0    0.54    0.21 
   1   7   0    5.22    0.41 
   1   7   0    5.33    0.41 
   1   7   0    4.44    0.38 
   1   7   0    4.98    0.43 
   1   7   0    5.37    0.43 
   2   7   0    6.60    0.30 
   2   7   0    6.73    0.47 
   2   7   0    6.17    0.47 
   2   7   0    7.16    0.51 
   3   7   0    0.37    0.20 
   3   7   0    0.12    0.19 
   3   7   0    0.37    0.08 
   3   7   0    0.19    0.16 
   4   7   0    2.45    0.18 
   4   7   0    2.87    0.30 
   4   7   0    2.47    0.15 
   4   7   0    2.68    0.33 
   4   7   0    2.42    0.31 
   5   7   0    0.03    0.15 
   5   7   0    0.08    0.16 
   5   7   0    0.09    0.08 
   5   7   0    0.15    0.07 
   5   7   0    0.08    0.14 
   6   7   0    1.00    0.15 
   6   7   0    1.14    0.12 
   6   7   0    1.18    0.09 
  -4   8   0   -0.04    0.09 
  -4   8   0   -0.15    0.10 
  -3   8   0    1.01    0.17 
  -3   8   0    1.20    0.17 
  -2   8   0    1.25    0.18 
  -2   8   0    2.17    0.22 
  -2   8   0    1.90    0.26 
  -1   8   0   -0.01    0.12 
  -1   8   0    0.06    0.16 
  -1   8   0   -0.07    0.17 
  -1   8   0    0.08    0.15 
   0   8   0    1.21    0.20 
   0   8   0    1.77    0.23 
   0   8   0    0.96    0.20 
   1   8   0    0.60    0.18 
   1   8   0    0.38    0.20 
   1   8   0    0.38    0.14 
   2   8   0    9.02    0.57 
   2   8   0   10.27    0.63 
   2   8   0    8.85    0.60 
   3   8   0    1.69    0.21 
   3   8   0    2.52    0.31 
   3   8   0    1.53    0.22 
   4   8   0    0.16    0.12 
   4   8   0    0.58    0.16 
   4   8   0    0.46    0.15 
   5   8   0    2.40    0.22 
  -1   9   0    0.14    0.12 
  -1   9   0    0.10    0.14 
   0   9   0    0.12    0.10 
   0   9   0    0.15    0.13 
   1   9   0    0.39    0.11 
   1   9   0    0.32    0.13 
   2   9   0    0.21    0.12 
   2   9   0    0.40    0.13 
   3   9   0   -0.07    0.09 
   2   9  -1    0.20    0.12 
   2   9  -1    0.06    0.11 
   1   9  -1    0.28    0.12 
   1   9  -1    0.26    0.11 
   0   9  -1   -0.10    0.12 
   0   9  -1   -0.18    0.10 
  -1   9  -1    1.62    0.20 
  -1   9  -1    1.69    0.20 
   5   8  -1    0.07    0.09 
   4   8  -1    0.46    0.11 
   4   8  -1    0.25    0.13 
   3   8  -1    0.34    0.17 
   3   8  -1    0.14    0.15 
   3   8  -1   -0.05    0.12 
   2   8  -1    0.42    0.17 
   2   8  -1    0.17    0.14 
   1   8  -1    1.50    0.20 
   1   8  -1    1.22    0.17 
   1   8  -1    1.32    0.21 
   0   8  -1    1.04    0.17 
   0   8  -1    1.51    0.20 
   0   8  -1    1.92    0.23 
  -1   8  -1    1.80    0.23 
  -1   8  -1    1.84    0.22 
  -2   8  -1    1.11    0.18 
  -2   8  -1    0.87    0.19 
  -2   8  -1    0.96    0.16 
  -3   8  -1    0.41    0.14 
  -3   8  -1    0.57    0.14 
  -4   8  -1    0.09    0.10 
  -4   8  -1   -0.17    0.10 
   6   7  -1    1.89    0.10 
   6   7  -1    2.07    0.14 
   6   7  -1    1.60    0.19 
   6   7  -1    1.53    0.18 
   5   7  -1    1.94    0.16 
   5   7  -1    1.76    0.13 
   5   7  -1    1.68    0.20 
   5   7  -1    1.28    0.19 
   4   7  -1    0.30    0.08 
   4   7  -1    0.18    0.17 
   4   7  -1    0.18    0.17 
   4   7  -1    0.23    0.09 
   3   7  -1    3.37    0.21 
   3   7  -1    2.88    0.38 
   3   7  -1    3.37    0.34 
   3   7  -1    3.61    0.35 
   2   7  -1    3.25    0.36 
   2   7  -1    4.33    0.38 
   2   7  -1    3.39    0.20 
   2   7  -1    3.44    0.39 
   1   7  -1    1.06    0.23 
   1   7  -1    0.85    0.16 
   1   7  -1    0.64    0.17 
   1   7  -1    0.36    0.18 
   0   7  -1   -0.11    0.21 
   0   7  -1   -0.13    0.18 
   0   7  -1   -0.18    0.18 
   0   7  -1   -0.04    0.18 
  -1   7  -1    0.92    0.19 
  -1   7  -1    0.70    0.15 
  -1   7  -1    1.01    0.19 
  -1   7  -1    0.87    0.16 
  -2   7  -1    0.81    0.18 
  -2   7  -1    1.09    0.18 
  -2   7  -1    0.95    0.19 
  -3   7  -1   -0.09    0.17 
  -3   7  -1   -0.03    0.14 
  -3   7  -1    0.16    0.14 
  -4   7  -1    0.05    0.14 
  -4   7  -1    0.08    0.16 
  -5   7  -1    0.05    0.12 
  -5   7  -1   -0.09    0.10 
   7   6  -1    0.82    0.12 
   7   6  -1    0.82    0.09 
   7   6  -1    0.67    0.09 
   6   6  -1    2.29    0.19 
   6   6  -1    1.80    0.15 
   6   6  -1    1.63    0.19 
   6   6  -1    1.19    0.19 
   5   6  -1    0.27    0.19 
   5   6  -1    0.32    0.17 
   5   6  -1    0.40    0.09 
   5   6  -1    0.59    0.12 
   4   6  -1    8.13    0.37 
   4   6  -1    8.37    0.39 
   4   6  -1    8.00    0.55 
   4   6  -1    7.38    0.57 
   4   6  -1    7.95    0.50 
   3   6  -1    0.13    0.10 
   3   6  -1    0.50    0.21 
   3   6  -1    0.12    0.19 
   3   6  -1    0.13    0.17 
   3   6  -1    0.17    0.21 
   2   6  -1    3.47    0.38 
   2   6  -1    2.91    0.31 
   2   6  -1    3.36    0.19 
   2   6  -1    3.92    0.36 
   2   6  -1    2.95    0.34 
   2   6  -1    3.57    0.21 
   2   6  -1    3.89    0.37 
   1   6  -1    9.49    0.61 
   1   6  -1    9.50    0.61 
   1   6  -1    9.08    0.41 
   1   6  -1    9.43    0.58 
   1   6  -1    9.25    0.38 
   1   6  -1    8.56    0.57 
   1   6  -1    8.34    0.58 
   1   6  -1   10.03    0.60 
   0   6  -1    0.27    0.16 
   0   6  -1    0.06    0.15 
   0   6  -1    0.28    0.18 
   0   6  -1    0.27    0.16 
   0   6  -1    0.16    0.17 
   0   6  -1    0.49    0.18 
   0   6  -1    0.29    0.07 
   0   6  -1    0.26    0.20 
  -1   6  -1    3.59    0.39 
  -1   6  -1    3.53    0.31 
  -1   6  -1    3.51    0.35 
  -1   6  -1    3.73    0.38 
  -1   6  -1    3.60    0.20 
  -1   6  -1    3.78    0.31 
  -1   6  -1    3.94    0.36 
  -2   6  -1    1.12    0.29 
  -2   6  -1    1.14    0.10 
  -2   6  -1    0.96    0.15 
  -2   6  -1    0.94    0.17 
  -2   6  -1    1.18    0.18 
  -2   6  -1    1.39    0.20 
  -3   6  -1    3.08    0.27 
  -3   6  -1    3.21    0.21 
  -3   6  -1    3.20    0.35 
  -3   6  -1    3.15    0.17 
  -3   6  -1    3.18    0.36 
  -3   6  -1    3.87    0.34 
  -4   6  -1    2.23    0.21 
  -4   6  -1    2.66    0.30 
  -4   6  -1    2.23    0.31 
  -4   6  -1    2.42    0.16 
  -4   6  -1    2.39    0.27 
  -5   6  -1    0.22    0.14 
  -5   6  -1    0.24    0.16 
  -5   6  -1    0.25    0.15 
  -5   6  -1    0.19    0.06 
  -5   6  -1    0.21    0.10 
  -6   6  -1    1.01    0.13 
  -6   6  -1    1.33    0.13 
   7   5  -1    3.70    0.22 
   7   5  -1    2.93    0.28 
   7   5  -1    3.60    0.21 
   7   5  -1    3.15    0.26 
   7   5  -1    3.07    0.22 
   6   5  -1    4.66    0.29 
   6   5  -1    3.87    0.32 
   6   5  -1    4.57    0.26 
   6   5  -1    4.51    0.26 
   6   5  -1    3.84    0.37 
   5   5  -1    9.89    0.62 
   5   5  -1   10.99    0.47 
   5   5  -1    9.19    0.65 
   5   5  -1   11.10    0.49 
   5   5  -1   10.76    0.54 
   4   5  -1    0.82    0.10 
   4   5  -1    0.59    0.16 
   4   5  -1    0.74    0.11 
   4   5  -1    0.80    0.20 
   4   5  -1    0.66    0.21 
   4   5  -1    1.08    0.26 
   4   5  -1    0.65    0.18 
   4   5  -1    0.96    0.11 
   4   5  -1    1.05    0.15 
   3   5  -1   34.16    1.98 
   3   5  -1   39.69    2.01 
   3   5  -1   36.29    1.74 
   3   5  -1   34.64    1.84 
   3   5  -1   35.30    1.64 
   3   5  -1   34.74    1.42 
   3   5  -1   34.67    1.66 
   3   5  -1   33.69    1.47 
   3   5  -1   33.61    1.84 
   3   5  -1   34.86    1.94 
   2   5  -1    2.26    0.20 
   2   5  -1    2.27    0.19 
   2   5  -1    1.80    0.19 
   2   5  -1    2.13    0.16 
   2   5  -1    2.90    0.32 
   2   5  -1    1.88    0.27 
   2   5  -1    2.03    0.17 
   1   5  -1    7.97    0.51 
   1   5  -1    7.96    0.35 
   1   5  -1    8.64    0.50 
   1   5  -1    7.69    0.33 
   1   5  -1    7.18    0.49 
   1   5  -1    7.71    0.49 
   1   5  -1    7.78    0.52 
   1   5  -1    7.85    0.52 
   0   5  -1   13.88    0.76 
   0   5  -1   13.98    0.84 
   0   5  -1   14.43    0.79 
   0   5  -1   13.92    0.79 
   0   5  -1   13.51    0.59 
   0   5  -1   13.99    0.82 
   0   5  -1   13.64    0.57 
   0   5  -1   13.70    0.79 
  -1   5  -1    1.48    0.13 
  -1   5  -1    1.52    0.25 
  -1   5  -1    1.52    0.11 
  -1   5  -1    1.45    0.15 
  -1   5  -1    1.25    0.14 
  -1   5  -1    1.21    0.13 
  -1   5  -1    1.33    0.16 
  -1   5  -1    1.48    0.17 
  -2   5  -1   26.86    1.28 
  -2   5  -1   24.71    1.40 
  -2   5  -1   25.36    1.34 
  -2   5  -1   24.30    1.02 
  -2   5  -1   24.12    0.99 
  -2   5  -1   24.15    1.33 
  -2   5  -1   24.30    1.18 
  -2   5  -1   20.59    1.22 
  -3   5  -1    3.29    0.29 
  -3   5  -1    3.21    0.19 
  -3   5  -1    2.85    0.37 
  -3   5  -1    2.72    0.23 
  -3   5  -1    3.67    0.35 
  -3   5  -1    3.28    0.31 
  -3   5  -1    3.55    0.34 
  -4   5  -1   11.48    0.67 
  -4   5  -1   11.95    0.54 
  -4   5  -1   12.11    0.62 
  -4   5  -1    9.96    0.76 
  -4   5  -1   11.51    0.51 
  -4   5  -1   12.18    0.70 
  -5   5  -1    4.60    0.33 
  -5   5  -1    4.76    0.36 
  -5   5  -1    4.03    0.29 
  -5   5  -1    4.58    0.26 
  -5   5  -1    4.06    0.34 
  -6   5  -1    0.01    0.09 
  -6   5  -1    0.09    0.13 
  -6   5  -1   -0.04    0.12 
  -6   5  -1   -0.03    0.16 
  -7   5  -1    0.09    0.06 
  -7   5  -1    0.02    0.11 
   8   4  -1    7.60    0.40 
   7   4  -1    3.07    0.22 
   7   4  -1    2.51    0.26 
   6   4  -1    9.16    0.49 
   6   4  -1    8.22    0.42 
   6   4  -1    9.10    0.43 
   6   4  -1    7.99    0.53 
   6   4  -1    8.89    0.44 
   5   4  -1    4.21    0.37 
   5   4  -1    3.96    0.40 
   5   4  -1    4.47    0.27 
   5   4  -1    4.26    0.36 
   5   4  -1    4.83    0.33 
   5   4  -1    4.23    0.27 
   5   4  -1    4.21    0.38 
   5   4  -1    4.44    0.26 
   4   4  -1   10.60    0.47 
   4   4  -1   10.99    0.53 
   4   4  -1   10.37    0.48 
   4   4  -1   10.32    0.62 
   4   4  -1   11.21    0.67 
   4   4  -1   11.12    0.62 
   4   4  -1   10.38    0.55 
   4   4  -1   10.54    0.60 
   3   4  -1    0.09    0.17 
   3   4  -1    0.29    0.15 
   3   4  -1    0.37    0.07 
   3   4  -1    0.42    0.17 
   3   4  -1    0.33    0.10 
   3   4  -1    0.37    0.07 
   3   4  -1    0.08    0.15 
   3   4  -1    0.24    0.13 
   3   4  -1    0.26    0.13 
   2   4  -1   20.68    0.96 
   2   4  -1   20.92    1.01 
   2   4  -1   18.80    1.11 
   2   4  -1   20.08    1.08 
   1   4  -1  116.91    5.28 
   1   4  -1  107.97    5.61 
   1   4  -1  120.62    5.62 
   1   4  -1  114.44    6.17 
   1   4  -1  117.70    5.28 
   1   4  -1  121.35    5.77 
   0   4  -1    7.81    0.50 
   0   4  -1    7.61    0.48 
  -1   4  -1   29.48    1.69 
  -1   4  -1   34.12    1.66 
  -1   4  -1   34.35    1.79 
  -2   4  -1    0.60    0.09 
  -2   4  -1    0.56    0.10 
  -2   4  -1    0.50    0.09 
  -2   4  -1    0.50    0.08 
  -2   4  -1    0.58    0.16 
  -2   4  -1    0.74    0.19 
  -3   4  -1   36.60    1.88 
  -3   4  -1   36.80    1.78 
  -3   4  -1   39.01    2.09 
  -3   4  -1   38.67    1.76 
  -3   4  -1   37.54    1.58 
  -3   4  -1   37.33    2.01 
  -3   4  -1   37.37    1.86 
  -3   4  -1   37.70    1.79 
  -3   4  -1   35.66    2.03 
  -3   4  -1   37.06    1.53 
  -3   4  -1   42.80    2.07 
  -4   4  -1    5.17    0.46 
  -4   4  -1    5.71    0.41 
  -4   4  -1    4.75    0.38 
  -4   4  -1    4.78    0.38 
  -4   4  -1    5.02    0.44 
  -4   4  -1    5.09    0.36 
  -4   4  -1    5.36    0.33 
  -4   4  -1    5.52    0.37 
  -4   4  -1    5.13    0.31 
  -4   4  -1    5.34    0.29 
  -5   4  -1    4.13    0.43 
  -5   4  -1    4.63    0.31 
  -5   4  -1    3.94    0.41 
  -5   4  -1    5.08    0.31 
  -5   4  -1    4.74    0.29 
  -5   4  -1    4.54    0.41 
  -5   4  -1    4.49    0.36 
  -6   4  -1   13.80    0.59 
  -6   4  -1   14.03    0.62 
  -6   4  -1   12.55    0.69 
  -6   4  -1   13.33    0.74 
  -7   4  -1    0.04    0.12 
  -7   4  -1   -0.09    0.11 
  -7   4  -1   -0.09    0.10 
   8   3  -1    1.71    0.15 
   7   3  -1    1.93    0.21 
   7   3  -1    2.65    0.21 
   6   3  -1    0.52    0.15 
   6   3  -1    0.11    0.16 
   6   3  -1    0.83    0.16 
   6   3  -1    0.09    0.16 
   5   3  -1   13.07    0.60 
   5   3  -1   14.55    0.70 
   5   3  -1   14.10    0.77 
   5   3  -1   14.24    0.81 
   5   3  -1   13.57    0.71 
   5   3  -1   14.24    0.80 
   5   3  -1   13.94    0.77 
   4   3  -1   10.78    0.62 
   4   3  -1    9.97    0.53 
   4   3  -1   10.85    0.60 
   4   3  -1   11.04    0.62 
   3   3  -1   53.34    2.71 
   3   3  -1   54.92    2.65 
   3   3  -1   53.39    2.50 
   2   3  -1    5.37    0.37 
   2   3  -1    4.94    0.36 
   2   3  -1    5.86    0.35 
   2   3  -1    6.24    0.35 
   2   3  -1    5.29    0.35 
   2   3  -1    5.81    0.37 
   1   3  -1    2.22    0.18 
   1   3  -1    2.14    0.19 
   1   3  -1    2.49    0.23 
   1   3  -1    2.27    0.20 
   1   3  -1    2.67    0.20 
   1   3  -1    2.53    0.18 
   1   3  -1    2.64    0.19 
   1   3  -1    2.39    0.24 
  -1  -3   1    2.30    0.20 
  -1  -3   1    2.29    0.20 
   0   3  -1   70.52    3.79 
   0   3  -1   75.88    3.42 
   0   3  -1   77.25    3.73 
   0   3  -1   78.86    3.63 
   0   3  -1   74.34    3.79 
   0   3  -1   71.19    3.82 
   0   3  -1   76.72    3.99 
   0   3  -1   76.95    3.41 
   0   3  -1   75.58    3.63 
   0  -3   1   74.98    3.79 
   0  -3   1   74.86    3.79 
  -1   3  -1   23.97    1.08 
  -1   3  -1   21.79    1.20 
  -1   3  -1   24.52    1.14 
  -1   3  -1   22.50    1.21 
  -1   3  -1   22.70    1.14 
  -1   3  -1   25.13    1.20 
  -1   3  -1   23.41    1.08 
  -1   3  -1   22.39    1.22 
  -1   3  -1   24.96    1.29 
   1  -3   1   22.29    1.21 
   1  -3   1   22.57    1.21 
  -2   3  -1   68.85    3.70 
  -2   3  -1   78.50    3.51 
  -2   3  -1   65.14    3.50 
  -2   3  -1   76.35    3.30 
  -2   3  -1   72.45    3.86 
  -3   3  -1    2.44    0.26 
  -3   3  -1    2.45    0.25 
  -3   3  -1    2.57    0.25 
  -3   3  -1    2.33    0.29 
  -4   3  -1   50.07    2.05 
  -4   3  -1   53.92    2.61 
  -4   3  -1   48.71    2.34 
  -4   3  -1   49.54    2.68 
  -4   3  -1   52.19    2.44 
  -4   3  -1   48.76    2.32 
  -4   3  -1   49.51    1.99 
  -4   3  -1   48.59    2.31 
  -4   3  -1   45.14    2.61 
  -4   3  -1   46.96    2.31 
  -5   3  -1    2.75    0.35 
  -5   3  -1    2.50    0.28 
  -5   3  -1    2.89    0.24 
  -5   3  -1    2.11    0.28 
  -5   3  -1    2.92    0.19 
  -5   3  -1    2.84    0.28 
  -5   3  -1    3.21    0.31 
  -5   3  -1    2.66    0.32 
  -5   3  -1    2.59    0.32 
  -5   3  -1    2.68    0.21 
  -6   3  -1    2.78    0.23 
  -6   3  -1    3.04    0.30 
  -6   3  -1    3.01    0.31 
  -6   3  -1    2.62    0.27 
  -7   3  -1    2.98    0.23 
  -7   3  -1    3.24    0.28 
  -8   3  -1    0.26    0.09 
  -8   3  -1    0.27    0.12 
   8   2  -1    4.19    0.26 
   7   2  -1    5.45    0.39 
   7   2  -1    6.37    0.37 
   6   2  -1   11.20    0.69 
   5   2  -1    4.32    0.37 
   5   2  -1    3.54    0.26 
   5   2  -1    4.24    0.37 
   5   2  -1    4.27    0.36 
   4   2  -1    5.26    0.39 
   4   2  -1    5.62    0.37 
   4   2  -1    5.51    0.39 
   3   2  -1    0.09    0.11 
   3   2  -1   -0.15    0.16 
   3   2  -1   -0.10    0.12 
   3   2  -1    0.11    0.16 
  -3  -2   1    0.08    0.13 
   2   2  -1   24.91    1.26 
   2   2  -1   25.49    1.17 
   2   2  -1   26.26    1.24 
   2   2  -1   25.66    1.32 
   2   2  -1   24.99    1.32 
   2   2  -1   22.15    1.23 
  -2  -2   1   24.71    1.32 
  -2  -2   1   24.81    1.32 
   1   2  -1    3.33    0.22 
   1   2  -1    3.49    0.25 
   1   2  -1    3.68    0.28 
   1   2  -1    3.57    0.23 
   1   2  -1    3.60    0.24 
   1   2  -1    3.68    0.24 
   1   2  -1    3.45    0.23 
   1   2  -1    3.66    0.24 
  -1  -2   1    3.57    0.24 
  -1  -2   1    3.78    0.25 
   0   2  -1   32.60    1.48 
   0   2  -1   31.72    1.73 
   0   2  -1   31.99    1.62 
   0   2  -1   32.47    1.57 
   0   2  -1   29.67    1.65 
   0   2  -1   31.62    1.57 
   0   2  -1   32.70    1.65 
   0   2  -1   34.19    1.65 
   0   2  -1   30.76    1.48 
   0  -2   1   33.51    1.65 
   0  -2   1   34.67    1.65 
  -1   2  -1   54.15    3.05 
  -1   2  -1   60.02    3.04 
  -1   2  -1   61.30    3.04 
  -1   2  -1   60.64    2.73 
  -1   2  -1   56.65    2.89 
  -1   2  -1   57.34    2.73 
  -1   2  -1   61.62    3.18 
  -1   2  -1   60.33    2.90 
  -1   2  -1   64.11    2.97 
   1  -2   1   59.61    3.04 
   1  -2   1   62.67    3.04 
  -2   2  -1    6.94    0.37 
  -2   2  -1    6.36    0.41 
  -2   2  -1    5.96    0.35 
  -2   2  -1    6.25    0.40 
  -2   2  -1    6.26    0.39 
  -2   2  -1    6.38    0.39 
  -2   2  -1    5.32    0.35 
  -2   2  -1    6.80    0.36 
   2  -2   1    6.53    0.41 
   2  -2   1    6.24    0.41 
  -3   2  -1  205.44   10.33 
  -3   2  -1  207.58    9.84 
  -3   2  -1  194.92   10.75 
  -3   2  -1  204.74    9.24 
  -4   2  -1   10.46    0.58 
  -4   2  -1   10.13    0.63 
  -4   2  -1   10.09    0.60 
  -4   2  -1   11.00    0.65 
  -5   2  -1    8.54    0.40 
  -5   2  -1    9.83    0.62 
  -5   2  -1    8.29    0.43 
  -5   2  -1    8.41    0.49 
  -5   2  -1    8.64    0.46 
  -5   2  -1    8.85    0.55 
  -5   2  -1    8.80    0.56 
  -6   2  -1    3.44    0.43 
  -6   2  -1    3.83    0.26 
  -6   2  -1    3.84    0.27 
  -6   2  -1    4.10    0.33 
  -7   2  -1   -0.02    0.13 
  -8   2  -1    2.34    0.22 
  -8  -1   1    5.78    0.35 
   7   1  -1    9.22    0.51 
  -7  -1   1    9.40    0.51 
   6   1  -1    1.55    0.23 
  -6  -1   1    1.67    0.24 
   5   1  -1   22.27    1.18 
   4   1  -1    0.13    0.14 
   4   1  -1    0.00    0.17 
  -4  -1   1    0.09    0.19 
   3   1  -1   29.96    1.57 
   3   1  -1   29.65    1.46 
   3   1  -1   30.84    1.38 
   3   1  -1   29.92    1.57 
  -3  -1   1   28.56    1.57 
  -3  -1   1   27.73    1.46 
  -3  -1   1   28.18    1.38 
  -3  -1   1   29.28    1.57 
   2   1  -1    3.41    0.26 
   2   1  -1    3.77    0.30 
   2   1  -1    3.70    0.24 
   2   1  -1    3.43    0.28 
   2   1  -1    3.25    0.26 
  -2  -1   1    3.51    0.30 
  -2  -1   1    3.64    0.29 
  -2  -1   1    2.98    0.25 
  -2  -1   1    3.16    0.27 
   1   1  -1  114.45    5.21 
   1   1  -1  109.75    5.58 
   1   1  -1  106.18    5.65 
   1   1  -1  120.67    5.82 
  -1  -1   1  103.86    5.19 
  -1  -1   1  122.95    5.77 
  -1  -1   1  123.03    5.77 
   0   1  -1  205.28    9.25 
   0   1  -1  192.25    9.23 
   0   1  -1  186.88   10.74 
   0   1  -1  211.75   10.25 
   0   1  -1  193.87   10.04 
   0   1  -1  218.88   10.26 
   0   1  -1  195.90    9.82 
   0   1  -1  194.18    9.82 
   0  -1   1  219.81   10.25 
   0  -1   1  213.52   10.25 
  -1   1  -1   -0.09    0.10 
  -1   1  -1    0.05    0.09 
  -1   1  -1    0.06    0.08 
  -1   1  -1   -0.09    0.08 
  -1   1  -1   -0.05    0.09 
  -1   1  -1    0.04    0.09 
  -1   1  -1    0.00    0.08 
   1  -1   1   -0.02    0.10 
   1  -1   1   -0.05    0.10 
  -2   1  -1   94.01    4.84 
  -2   1  -1   93.71    4.17 
  -2   1  -1   96.27    4.43 
  -2   1  -1   94.73    4.65 
  -2   1  -1   91.64    4.64 
   2  -1   1   93.12    4.65 
   2  -1   1   83.75    4.43 
   2  -1   1   81.21    4.17 
   2  -1   1   95.53    4.65 
  -3   1  -1   -0.07    0.13 
  -3   1  -1   -0.05    0.12 
  -3   1  -1   -0.08    0.14 
  -3   1  -1   -0.11    0.16 
  -3   1  -1   -0.06    0.14 
   3  -1   1   -0.07    0.15 
   3  -1   1   -0.02    0.16 
  -4   1  -1   42.18    2.22 
  -4   1  -1   41.12    1.94 
  -4   1  -1   39.88    2.04 
  -5   1  -1    0.68    0.11 
  -5   1  -1    0.61    0.13 
  -5   1  -1    0.60    0.17 
  -5   1  -1    0.77    0.21 
  -5   1  -1    0.45    0.20 
  -6   1  -1    0.30    0.18 
  -6   1  -1    0.36    0.13 
  -6   1  -1    0.37    0.14 
  -7   1  -1    1.36    0.14 
  -8   1  -1    0.10    0.10 
  -8   0   1    1.92    0.21 
  -7   0   1   12.08    0.63 
   6   0  -1    8.77    0.56 
  -6   0   1    8.94    0.49 
  -6   0   1    9.60    0.61 
  -5   0   1    1.25    0.18 
   4   0  -1   74.33    4.17 
  -4   0   1   84.13    3.72 
  -4   0   1   83.17    3.94 
   3   0  -1    2.30    0.28 
   3   0  -1    2.29    0.28 
   3   0  -1    1.84    0.24 
   3   0  -1    2.11    0.25 
  -3   0   1    2.15    0.28 
  -3   0   1    2.65    0.26 
  -3   0   1    2.29    0.26 
  -3   0   1    2.17    0.22 
   2   0  -1    7.98    0.48 
   2   0  -1    7.18    0.42 
   2   0  -1    8.28    0.48 
   2   0  -1    7.27    0.43 
  -2   0   1    8.08    0.48 
  -2   0   1    7.73    0.48 
  -2   0   1    7.64    0.43 
  -2   0   1    7.27    0.42 
   1   0  -1  102.85    4.90 
   1   0  -1   89.86    4.35 
   1   0  -1  101.72    4.84 
   1   0  -1   92.83    4.67 
  -1   0   1   98.33    4.84 
  -1   0   1   92.83    4.66 
  -1   0   1   99.97    4.84 
  -1   0   1   89.85    4.35 
   0   0  -1  140.03    6.63 
   0   0  -1  121.97    6.35 
   0   0  -1  142.14    6.62 
   0   0  -1  117.86    5.96 
   0   0   1  138.89    6.62 
   0   0   1  140.45    6.62 
   0   0   1  121.03    5.96 
   0   0   1  127.17    6.35 
  -1   0  -1  150.68    7.46 
  -1   0  -1  158.57    7.48 
  -1   0  -1  147.69    6.74 
  -1   0  -1  142.46    7.15 
  -1   0  -1  142.97    7.77 
   1   0   1  158.28    7.48 
   1   0   1  136.59    6.83 
   1   0   1  138.37    7.14 
   1   0   1  149.91    7.46 
   1   0   1  147.16    6.74 
  -2   0  -1    4.46    0.30 
  -2   0  -1    4.50    0.34 
  -2   0  -1    5.11    0.34 
  -2   0  -1    4.81    0.29 
  -2   0  -1    4.54    0.30 
   2   0   1    4.52    0.30 
   2   0   1    4.55    0.34 
   2   0   1    4.42    0.30 
   2   0   1    4.51    0.25 
   2   0   1    4.82    0.34 
  -3   0  -1   71.29    3.44 
  -3   0  -1   75.23    3.73 
  -3   0  -1   71.44    3.24 
  -3   0  -1   68.02    3.63 
  -3   0  -1   70.55    3.63 
   3   0   1   67.71    3.43 
   3   0   1   69.86    3.63 
   3   0   1   71.95    3.63 
   3   0   1   68.54    3.24 
  -4   0  -1    0.02    0.13 
  -4   0  -1   -0.02    0.16 
   4   0   1    0.05    0.18 
  -6   0  -1    8.03    0.46 
  -6   0  -1    8.89    0.56 
  -7   0  -1   13.10    0.67 
  -8   0  -1    3.93    0.27 
  -8   1   1    3.06    0.26 
  -7   1   1    4.81    0.38 
  -7   1   1    5.98    0.34 
  -6   1   1    0.92    0.17 
  -6   1   1    0.99    0.22 
  -6   1   1    0.69    0.12 
  -6   1   1    0.52    0.23 
  -5   1   1   64.39    3.08 
  -5   1   1   53.52    2.78 
  -5   1   1   56.83    2.81 
  -5   1   1   61.85    2.79 
  -5   1   1   59.69    2.93 
  -4   1   1   -0.04    0.12 
  -4   1   1    0.04    0.12 
  -4   1   1   -0.06    0.15 
   3  -1  -1  143.80    7.26 
   3  -1  -1  140.78    7.25 
  -3   1   1  134.77    7.25 
  -3   1   1  144.30    7.27 
  -3   1   1  154.01    7.55 
  -3   1   1  144.07    6.91 
  -3   1   1  135.43    7.25 
  -3   1   1  146.19    6.51 
   2  -1  -1  124.56    6.52 
   2  -1  -1  145.25    6.82 
   2  -1  -1  141.59    6.82 
   2  -1  -1  123.76    6.13 
  -2   1   1  131.63    6.85 
  -2   1   1  142.06    6.13 
  -2   1   1  137.76    6.82 
  -2   1   1  139.70    6.56 
  -2   1   1  146.07    7.15 
  -2   1   1  118.03    6.13 
   1  -1  -1    4.10    0.25 
   1  -1  -1    4.06    0.26 
  -1   1   1    3.56    0.22 
  -1   1   1    3.59    0.23 
  -1   1   1    3.55    0.20 
  -1   1   1    3.95    0.23 
  -1   1   1    3.97    0.24 
  -1   1   1    4.04    0.24 
  -1   1   1    3.87    0.26 
  -1   1   1    4.24    0.26 
   0  -1  -1   95.38    4.48 
   0   1   1   89.79    4.55 
   0   1   1   94.80    4.48 
   0   1   1   82.69    4.40 
   0   1   1   86.29    4.72 
   0   1   1   92.87    4.48 
   0   1   1   81.50    4.15 
  -1  -1  -1    0.31    0.10 
  -1  -1  -1    0.29    0.10 
  -1  -1  -1    0.30    0.08 
   1   1   1    0.25    0.10 
   1   1   1    0.26    0.06 
   1   1   1    0.36    0.10 
   1   1   1    0.33    0.09 
   1   1   1    0.40    0.08 
   1   1   1    0.35    0.07 
   1   1   1    0.16    0.06 
  -2  -1  -1  191.50    9.02 
  -2  -1  -1  202.09   10.02 
  -2  -1  -1  190.05    9.58 
  -2  -1  -1  208.18   10.02 
   2   1   1  197.95    9.27 
   2   1   1  202.53    9.12 
   2   1   1  201.30   10.02 
   2   1   1  201.51   10.02 
   2   1   1  193.68    9.66 
  -3  -1  -1    0.20    0.15 
  -3  -1  -1    0.20    0.17 
  -3  -1  -1    0.14    0.12 
  -3  -1  -1    0.23    0.17 
   3   1   1    0.19    0.15 
   3   1   1    0.23    0.13 
   3   1   1    0.17    0.15 
   3   1   1    0.16    0.17 
  -4  -1  -1   18.29    1.19 
   4   1   1   21.91    1.09 
   4   1   1   22.24    1.04 
   6   1   1    1.11    0.14 
   6   1   1    1.15    0.23 
   7   1   1    4.88    0.34 
  -8   2   1    0.19    0.12 
  -7   2   1    6.62    0.37 
  -7   2   1    6.92    0.42 
  -6   2   1   12.82    0.87 
  -6   2   1   14.27    0.74 
  -6   2   1   14.90    0.73 
  -6   2   1   16.29    0.79 
  -6   2   1   13.97    0.63 
  -5   2   1    2.30    0.29 
  -5   2   1    2.12    0.22 
  -5   2   1    2.34    0.30 
  -5   2   1    2.25    0.25 
  -5   2   1    2.32    0.21 
  -5   2   1    2.28    0.26 
  -5   2   1    2.37    0.19 
  -4   2   1    4.75    0.36 
  -4   2   1    4.88    0.35 
  -4   2   1    4.72    0.36 
  -3   2   1   17.84    0.89 
  -3   2   1   18.90    1.02 
  -3   2   1   17.83    0.93 
   2  -2  -1   53.81    2.74 
   2  -2  -1   55.43    2.75 
  -2   2   1   50.55    2.45 
  -2   2   1   51.44    2.74 
  -2   2   1   56.82    2.46 
  -2   2   1   56.37    2.86 
  -2   2   1   55.74    2.61 
  -2   2   1   54.95    2.75 
  -2   2   1   48.11    2.60 
  -2   2   1   53.02    2.74 
   1  -2  -1   13.01    0.67 
   1  -2  -1   13.56    0.67 
  -1   2   1   11.23    0.61 
  -1   2   1   12.20    0.69 
  -1   2   1   13.46    0.66 
  -1   2   1   12.41    0.66 
  -1   2   1   12.63    0.72 
  -1   2   1   13.16    0.63 
  -1   2   1   11.83    0.63 
  -1   2   1   12.80    0.60 
  -1   2   1   13.20    0.67 
  -1   2   1   13.08    0.60 
   0   2   1   75.63    3.75 
   0   2   1   73.08    3.89 
   0   2   1   73.65    3.64 
   0   2   1   72.45    3.43 
  -1  -2  -1    1.94    0.17 
  -1  -2  -1    1.85    0.17 
   1   2   1    1.85    0.17 
   1   2   1    1.55    0.20 
   1   2   1    1.68    0.15 
   1   2   1    1.71    0.14 
   1   2   1    1.87    0.16 
   1   2   1    1.69    0.21 
   1   2   1    1.79    0.16 
   1   2   1    1.84    0.17 
   1   2   1    2.00    0.16 
  -2  -2  -1    0.07    0.13 
  -2  -2  -1    0.25    0.13 
   2   2   1    0.14    0.09 
   2   2   1    0.21    0.11 
   2   2   1    0.20    0.11 
   2   2   1    0.19    0.11 
   2   2   1    0.17    0.10 
   2   2   1    0.18    0.13 
   2   2   1    0.08    0.11 
   2   2   1    0.17    0.13 
  -3  -2  -1   28.36    1.56 
   3   2   1   29.07    1.45 
   3   2   1   29.91    1.48 
   3   2   1   30.80    1.38 
   3   2   1   26.35    1.54 
   3   2   1   26.95    1.55 
   3   2   1   31.50    1.39 
   4   2   1    8.05    0.49 
   4   2   1    8.49    0.52 
   4   2   1    8.42    0.51 
   5   2   1    3.52    0.35 
   5   2   1    3.56    0.35 
   5   2   1    3.37    0.25 
   5   2   1    3.67    0.34 
   6   2   1   16.44    0.94 
   6   2   1   17.30    0.85 
   7   2   1    0.33    0.12 
   8   2   1    3.15    0.27 
  -8   3   1    0.81    0.15 
  -7   3   1    1.53    0.19 
  -7   3   1    1.31    0.14 
  -6   3   1   -0.05    0.17 
  -6   3   1   -0.12    0.14 
  -6   3   1    0.00    0.13 
  -6   3   1   -0.08    0.11 
  -5   3   1    4.15    0.35 
  -5   3   1    3.59    0.27 
  -5   3   1    3.73    0.26 
  -5   3   1    4.38    0.33 
  -5   3   1    3.85    0.23 
  -5   3   1    3.93    0.28 
  -5   3   1    4.49    0.44 
  -5   3   1    3.96    0.30 
  -5   3   1    3.96    0.38 
  -4   3   1    0.06    0.14 
  -4   3   1   -0.12    0.12 
  -4   3   1    0.21    0.18 
  -4   3   1   -0.11    0.13 
  -4   3   1    0.15    0.12 
  -4   3   1    0.16    0.17 
  -4   3   1   -0.11    0.10 
  -4   3   1    0.19    0.12 
  -4   3   1    0.00    0.10 
  -4   3   1    0.18    0.16 
  -4   3   1   -0.04    0.06 
  -3   3   1   36.21    1.99 
  -3   3   1   35.38    1.92 
  -3   3   1   36.87    1.80 
  -3   3   1   37.75    1.71 
   2  -3  -1    1.26    0.16 
  -2   3   1    1.20    0.15 
  -2   3   1    1.59    0.20 
  -2   3   1    1.22    0.14 
  -2   3   1    1.56    0.17 
  -2   3   1    1.78    0.17 
  -2   3   1    1.48    0.18 
  -2   3   1    1.45    0.16 
  -1   3   1  265.14   13.57 
  -1   3   1  267.41   12.75 
  -1   3   1  259.26   13.15 
  -1   3   1  239.04   11.95 
   0   3   1   98.61    5.24 
   0   3   1   97.74    5.04 
   0   3   1  102.42    4.89 
   0   3   1   97.78    4.61 
  -1  -3  -1    0.08    0.07 
   1   3   1    0.09    0.07 
   1   3   1    0.06    0.06 
   1   3   1    0.08    0.07 
   1   3   1   -0.02    0.13 
   1   3   1    0.14    0.07 
   1   3   1    0.14    0.09 
   1   3   1    0.23    0.14 
   1   3   1    0.04    0.07 
   1   3   1    0.11    0.07 
  -2  -3  -1    2.02    0.22 
   2   3   1    2.29    0.24 
   2   3   1    2.18    0.23 
   2   3   1    2.20    0.22 
   2   3   1    2.10    0.18 
   2   3   1    1.91    0.17 
   2   3   1    1.99    0.22 
   2   3   1    2.12    0.20 
   2   3   1    2.14    0.22 
   3   3   1   16.32    0.83 
   3   3   1   16.58    0.80 
   3   3   1   16.67    0.85 
   3   3   1   15.19    0.86 
   4   3   1    3.77    0.31 
   4   3   1    3.50    0.23 
   4   3   1    3.46    0.33 
   4   3   1    3.75    0.33 
   5   3   1   19.03    0.95 
   5   3   1   18.96    1.00 
   5   3   1   17.03    0.76 
   5   3   1   19.00    0.99 
   5   3   1   17.15    0.90 
   6   3   1    0.22    0.14 
   6   3   1    0.44    0.20 
   6   3   1    0.16    0.20 
   7   3   1    5.48    0.40 
   8   3   1   -0.05    0.12 
  -7   4   1    0.95    0.15 
  -6   4   1    9.40    0.55 
  -6   4   1    8.74    0.43 
  -6   4   1    9.24    0.46 
  -5   4   1    0.70    0.26 
  -5   4   1    0.55    0.20 
  -5   4   1    0.72    0.16 
  -5   4   1    0.57    0.16 
  -5   4   1    0.54    0.13 
  -5   4   1    0.55    0.10 
  -5   4   1    0.46    0.13 
  -4   4   1   14.53    0.88 
  -4   4   1   14.50    0.83 
  -4   4   1   14.38    0.74 
  -4   4   1   14.51    0.90 
  -4   4   1   14.12    0.77 
  -4   4   1   13.85    0.74 
  -4   4   1   15.07    0.78 
  -4   4   1   14.97    0.65 
  -4   4   1   14.59    0.72 
  -4   4   1   14.99    0.62 
  -3   4   1   14.99    0.79 
  -3   4   1   12.99    0.71 
  -3   4   1   13.19    0.59 
  -3   4   1   13.55    0.57 
  -3   4   1   13.08    0.68 
  -3   4   1   14.54    0.83 
  -3   4   1   13.07    0.78 
  -3   4   1   13.88    0.70 
  -3   4   1   12.78    0.66 
  -3   4   1   14.20    0.67 
  -3   4   1   13.55    0.81 
  -2   4   1   34.74    1.86 
  -2   4   1   32.91    1.78 
  -1   4   1   11.31    0.65 
  -1   4   1   10.81    0.61 
  -1   4   1    9.92    0.54 
  -1   4   1   10.65    0.59 
   0   4   1   25.71    1.40 
   0   4   1   26.33    1.31 
   0   4   1   24.28    1.34 
   0   4   1   25.81    1.23 
   1   4   1    0.31    0.11 
   1   4   1    0.26    0.17 
   1   4   1    0.21    0.15 
   2   4   1    2.10    0.19 
   2   4   1    1.91    0.16 
   2   4   1    2.25    0.25 
   2   4   1    2.18    0.18 
   2   4   1    1.62    0.15 
   2   4   1    2.36    0.21 
   3   4   1    2.72    0.31 
   3   4   1    2.51    0.26 
   3   4   1    2.32    0.25 
   4   4   1    7.68    0.50 
   4   4   1    7.50    0.46 
   4   4   1    6.73    0.51 
   4   4   1    7.60    0.49 
   4   4   1    7.67    0.35 
   4   4   1    7.46    0.42 
   4   4   1    7.93    0.39 
   4   4   1    8.34    0.51 
   4   4   1    7.56    0.37 
   4   4   1    8.48    0.50 
   5   4   1    9.85    0.65 
   5   4   1   11.10    0.48 
   5   4   1   11.52    0.58 
   5   4   1   10.85    0.50 
   5   4   1   11.84    0.65 
   5   4   1   10.17    0.69 
   5   4   1   10.29    0.63 
   6   4   1   15.05    0.75 
   6   4   1   14.86    0.64 
   6   4   1   13.96    0.66 
   6   4   1   14.97    0.83 
   7   4   1    0.19    0.15 
   7   4   1    0.26    0.11 
   8   4   1    0.21    0.11 
  -7   5   1    0.13    0.10 
  -6   5   1    0.06    0.09 
  -6   5   1    0.11    0.12 
  -6   5   1    0.10    0.15 
  -5   5   1    0.02    0.15 
  -5   5   1    0.26    0.12 
  -5   5   1    0.23    0.10 
  -5   5   1   -0.16    0.19 
  -5   5   1   -0.01    0.13 
  -4   5   1   58.00    2.71 
  -4   5   1   57.08    2.91 
  -4   5   1   57.39    2.20 
  -4   5   1   48.08    2.89 
  -4   5   1   47.98    2.98 
  -4   5   1   56.04    2.27 
  -4   5   1   56.31    2.57 
  -3   5   1    5.16    0.35 
  -3   5   1    5.60    0.46 
  -3   5   1    6.08    0.41 
  -3   5   1    5.26    0.26 
  -3   5   1    5.24    0.45 
  -3   5   1    5.38    0.42 
  -3   5   1    4.94    0.28 
  -3   5   1    5.72    0.41 
  -2   5   1    6.82    0.46 
  -2   5   1    6.05    0.46 
  -2   5   1    7.03    0.50 
  -2   5   1    6.11    0.39 
  -2   5   1    6.52    0.28 
  -2   5   1    6.29    0.40 
  -2   5   1    6.45    0.41 
  -2   5   1    6.55    0.30 
  -2   5   1    6.90    0.45 
  -1   5   1    5.89    0.42 
  -1   5   1    6.55    0.40 
  -1   5   1    6.29    0.38 
  -1   5   1    6.68    0.44 
  -1   5   1    7.03    0.47 
  -1   5   1    6.86    0.44 
   0   5   1   -0.05    0.13 
   0   5   1   -0.05    0.12 
   1   5   1    4.41    0.36 
   1   5   1    4.13    0.36 
   1   5   1    4.37    0.31 
   2   5   1   14.14    0.58 
   2   5   1   13.38    0.83 
   2   5   1   13.80    0.78 
   2   5   1   12.97    0.81 
   2   5   1   15.16    0.81 
   2   5   1   13.92    0.84 
   2   5   1   13.35    0.59 
   2   5   1   14.76    0.85 
   3   5   1    5.05    0.39 
   3   5   1    4.15    0.38 
   3   5   1    4.05    0.29 
   3   5   1    4.58    0.23 
   3   5   1    5.01    0.38 
   3   5   1    4.12    0.29 
   3   5   1    4.11    0.25 
   3   5   1    4.35    0.34 
   3   5   1    4.71    0.25 
   3   5   1    3.83    0.40 
   4   5   1    8.67    0.47 
   4   5   1    8.99    0.40 
   4   5   1    8.78    0.61 
   4   5   1    8.67    0.60 
   4   5   1    8.05    0.50 
   4   5   1    9.73    0.59 
   4   5   1    8.88    0.59 
   4   5   1    9.32    0.57 
   4   5   1    8.99    0.43 
   5   5   1   11.79    0.73 
   5   5   1   11.99    0.68 
   5   5   1   12.23    0.52 
   5   5   1   10.29    0.72 
   5   5   1   12.01    0.60 
   5   5   1   12.20    0.54 
   6   5   1    0.03    0.12 
   6   5   1   -0.02    0.14 
   6   5   1    0.30    0.17 
   6   5   1    0.26    0.11 
   7   5   1    2.94    0.20 
   7   5   1    2.64    0.27 
  -6   6   1    3.10    0.28 
  -6   6   1    2.64    0.22 
  -5   6   1    1.52    0.20 
  -5   6   1    2.46    0.13 
  -5   6   1    2.56    0.27 
  -5   6   1    2.20    0.19 
  -5   6   1    1.93    0.20 
  -4   6   1   -0.11    0.15 
  -4   6   1    0.00    0.10 
  -4   6   1    0.09    0.17 
  -4   6   1   -0.06    0.17 
  -4   6   1   -0.05    0.06 
  -3   6   1    0.62    0.14 
  -3   6   1    0.17    0.20 
  -3   6   1    0.36    0.23 
  -3   6   1    0.35    0.09 
  -3   6   1    0.50    0.15 
  -3   6   1    0.18    0.20 
  -2   6   1    5.15    0.40 
  -2   6   1    6.22    0.40 
  -2   6   1    4.76    0.35 
  -2   6   1    4.11    0.45 
  -2   6   1    5.24    0.38 
  -2   6   1    5.54    0.39 
  -1   6   1    2.45    0.30 
  -1   6   1    2.32    0.29 
  -1   6   1    1.89    0.25 
  -1   6   1    2.65    0.32 
  -1   6   1    2.44    0.23 
  -1   6   1    2.49    0.27 
  -1   6   1    2.57    0.31 
   0   6   1    4.10    0.33 
   0   6   1    3.90    0.36 
   0   6   1    4.01    0.29 
   0   6   1    4.15    0.37 
   0   6   1    4.01    0.35 
   0   6   1    4.11    0.35 
   0   6   1    4.66    0.33 
   1   6   1    7.25    0.52 
   1   6   1    8.22    0.54 
   1   6   1    8.21    0.55 
   1   6   1    7.56    0.54 
   1   6   1    8.02    0.51 
   1   6   1    7.68    0.52 
   1   6   1    6.98    0.48 
   2   6   1    0.55    0.07 
   2   6   1    0.67    0.15 
   2   6   1    0.41    0.18 
   2   6   1    0.59    0.06 
   2   6   1    0.49    0.18 
   2   6   1    0.73    0.22 
   2   6   1    0.54    0.20 
   3   6   1    2.38    0.31 
   3   6   1    2.88    0.18 
   3   6   1    2.92    0.35 
   3   6   1    3.99    0.38 
   3   6   1    2.68    0.25 
   3   6   1    2.60    0.33 
   3   6   1    2.86    0.20 
   4   6   1    2.75    0.22 
   4   6   1    2.71    0.19 
   4   6   1    2.48    0.34 
   4   6   1    2.80    0.30 
   4   6   1    2.87    0.37 
   4   6   1    2.59    0.33 
   5   6   1    5.90    0.31 
   5   6   1    5.73    0.42 
   5   6   1    5.95    0.44 
   5   6   1    6.17    0.29 
   6   6   1    4.31    0.26 
   6   6   1    4.15    0.34 
   6   6   1    4.21    0.23 
   7   6   1    0.02    0.11 
  -5   7   1    2.64    0.24 
  -4   7   1    0.18    0.14 
  -4   7   1    0.29    0.16 
  -3   7   1    0.88    0.18 
  -3   7   1    0.84    0.19 
  -3   7   1    0.99    0.14 
  -3   7   1    1.66    0.21 
  -2   7   1    0.58    0.18 
  -2   7   1    0.39    0.14 
  -2   7   1    0.40    0.19 
  -1   7   1    1.16    0.21 
  -1   7   1    1.28    0.14 
  -1   7   1    1.41    0.20 
  -1   7   1    1.11    0.16 
  -1   7   1    1.57    0.19 
   0   7   1    8.33    0.51 
   0   7   1    8.04    0.55 
   0   7   1    8.42    0.56 
   0   7   1    8.14    0.56 
   0   7   1    7.89    0.56 
   1   7   1    0.21    0.18 
   1   7   1    0.23    0.22 
   1   7   1    0.76    0.21 
   1   7   1    0.11    0.20 
   1   7   1   -0.03    0.16 
   1   7   1   -0.02    0.14 
   2   7   1    1.40    0.21 
   2   7   1    1.72    0.23 
   2   7   1    1.23    0.20 
   3   7   1    0.06    0.08 
   3   7   1    0.14    0.16 
   3   7   1    0.19    0.20 
   3   7   1    0.16    0.18 
   4   7   1    0.24    0.09 
   4   7   1    0.20    0.16 
   4   7   1    0.42    0.18 
   4   7   1    0.14    0.18 
   4   7   1    0.11    0.07 
   5   7   1    0.93    0.09 
   5   7   1    1.06    0.11 
   5   7   1    1.09    0.18 
   5   7   1    0.81    0.16 
   6   7   1    0.32    0.11 
   6   7   1    0.33    0.08 
  -4   8   1    0.64    0.12 
  -4   8   1    0.62    0.13 
  -3   8   1    0.85    0.15 
  -3   8   1    0.65    0.16 
  -2   8   1    0.04    0.12 
  -2   8   1   -0.14    0.13 
  -2   8   1   -0.28    0.16 
  -1   8   1    2.27    0.22 
  -1   8   1    2.28    0.28 
  -1   8   1    2.15    0.29 
  -1   8   1    2.26    0.30 
   0   8   1   -0.10    0.21 
   0   8   1   -0.11    0.16 
   0   8   1   -0.13    0.17 
   0   8   1    0.05    0.14 
   1   8   1    2.64    0.32 
   1   8   1    2.57    0.32 
   1   8   1    2.45    0.31 
   2   8   1    1.96    0.26 
   2   8   1    2.28    0.30 
   3   8   1    1.07    0.19 
   3   8   1    0.94    0.18 
   4   8   1    0.44    0.15 
   4   8   1    0.24    0.12 
   4   8   1    0.51    0.15 
   5   8   1   -0.16    0.10 
   5   8   1   -0.06    0.12 
  -2   9   1    0.01    0.11 
  -1   9   1   -0.09    0.13 
  -1   9   1   -0.04    0.13 
   0   9   1    2.26    0.24 
   0   9   1    1.95    0.23 
   1   9   1    0.01    0.11 
   1   9   1    0.04    0.12 
   2   9   1    1.49    0.19 
   2   9   1    1.13    0.17 
   3   9   1   -0.02    0.12 
   2   9  -2    0.19    0.10 
   2   9  -2    0.24    0.10 
   1   9  -2    0.02    0.09 
   1   9  -2   -0.06    0.11 
   0   9  -2    0.38    0.12 
  -1   9  -2    0.37    0.11 
   4   8  -2    1.21    0.16 
   4   8  -2    1.08    0.17 
   3   8  -2    3.41    0.33 
   3   8  -2    4.01    0.30 
   2   8  -2    5.50    0.40 
   2   8  -2    5.81    0.39 
   1   8  -2    3.15    0.33 
   1   8  -2    3.17    0.30 
   1   8  -2    3.05    0.31 
   0   8  -2    0.42    0.17 
   0   8  -2    0.47    0.14 
   0   8  -2    0.27    0.13 
  -1   8  -2    0.54    0.13 
  -1   8  -2    0.48    0.17 
  -2   8  -2    4.31    0.31 
  -2   8  -2    3.15    0.26 
  -2   8  -2    4.07    0.35 
  -3   8  -2   -0.06    0.11 
  -3   8  -2   -0.06    0.13 
   6   7  -2    1.71    0.13 
   6   7  -2    1.47    0.09 
   6   7  -2    1.30    0.18 
   5   7  -2    0.65    0.15 
   5   7  -2    1.10    0.14 
   5   7  -2    1.14    0.11 
   5   7  -2    1.50    0.11 
   4   7  -2    3.44    0.38 
   4   7  -2    4.33    0.33 
   4   7  -2    3.89    0.31 
   4   7  -2    3.97    0.23 
   4   7  -2    4.41    0.20 
   3   7  -2    1.24    0.22 
   3   7  -2    1.46    0.11 
   3   7  -2    1.20    0.17 
   3   7  -2    1.66    0.16 
   2   7  -2    5.49    0.28 
   2   7  -2    4.94    0.46 
   2   7  -2    6.40    0.45 
   2   7  -2    5.74    0.42 
   1   7  -2   -0.13    0.07 
   1   7  -2   -0.19    0.18 
   1   7  -2   -0.04    0.16 
   1   7  -2   -0.14    0.15 
   1   7  -2    0.13    0.21 
   0   7  -2   14.43    0.78 
   0   7  -2   14.09    0.84 
   0   7  -2   13.57    0.84 
  -1   7  -2    0.91    0.19 
  -1   7  -2    0.66    0.16 
  -1   7  -2    1.04    0.19 
  -1   7  -2    0.59    0.15 
  -2   7  -2    0.29    0.17 
  -2   7  -2    0.45    0.19 
  -2   7  -2    0.26    0.17 
  -3   7  -2    3.15    0.32 
  -3   7  -2    3.21    0.30 
  -3   7  -2    3.40    0.28 
  -4   7  -2    0.08    0.14 
  -4   7  -2    0.11    0.12 
  -5   7  -2    1.66    0.17 
   7   6  -2    0.16    0.06 
   7   6  -2    0.13    0.07 
   6   6  -2    6.37    0.30 
   6   6  -2    5.51    0.41 
   6   6  -2    5.73    0.38 
   5   6  -2    0.45    0.16 
   5   6  -2    0.78    0.12 
   5   6  -2    0.26    0.19 
   4   6  -2    0.44    0.21 
   4   6  -2    0.87    0.18 
   4   6  -2    0.72    0.11 
   4   6  -2    0.66    0.17 
   3   6  -2    4.30    0.23 
   3   6  -2    4.28    0.26 
   3   6  -2    3.97    0.38 
   3   6  -2    4.46    0.38 
   3   6  -2    4.85    0.39 
   3   6  -2    4.18    0.34 
   2   6  -2    2.32    0.22 
   2   6  -2    2.75    0.34 
   2   6  -2    2.47    0.32 
   2   6  -2    2.50    0.16 
   2   6  -2    1.96    0.23 
   2   6  -2    2.49    0.18 
   1   6  -2    1.96    0.27 
   1   6  -2    2.13    0.30 
   1   6  -2    1.87    0.20 
   1   6  -2    2.14    0.28 
   1   6  -2    2.39    0.23 
   1   6  -2    2.20    0.14 
   1   6  -2    2.15    0.17 
   0   6  -2    0.96    0.21 
   0   6  -2    0.56    0.24 
   0   6  -2    0.98    0.15 
   0   6  -2    0.91    0.08 
   0   6  -2    1.05    0.20 
   0   6  -2    0.91    0.07 
   0   6  -2    1.06    0.17 
   0   6  -2    1.19    0.17 
  -1   6  -2    9.82    0.63 
  -1   6  -2   10.02    0.56 
  -1   6  -2    8.50    0.68 
  -1   6  -2    9.14    0.53 
  -1   6  -2    9.60    0.61 
  -1   6  -2    9.55    0.43 
  -2   6  -2   10.52    0.65 
  -2   6  -2    9.96    0.60 
  -2   6  -2   10.22    0.67 
  -2   6  -2   10.31    0.47 
  -2   6  -2   11.85    0.63 
  -2   6  -2   10.19    0.44 
  -3   6  -2   -0.05    0.17 
  -3   6  -2    0.03    0.10 
  -3   6  -2   -0.03    0.17 
  -3   6  -2   -0.20    0.18 
  -3   6  -2   -0.01    0.07 
  -4   6  -2    3.20    0.28 
  -4   6  -2    2.87    0.30 
  -4   6  -2    3.23    0.32 
  -4   6  -2    3.37    0.23 
  -4   6  -2    3.26    0.19 
  -5   6  -2    0.39    0.11 
  -5   6  -2    0.61    0.14 
  -5   6  -2    0.37    0.13 
  -5   6  -2    0.52    0.07 
  -5   6  -2    0.37    0.16 
  -6   6  -2    2.78    0.17 
  -6   6  -2    2.65    0.21 
  -6   6  -2    2.64    0.21 
   7   5  -2    2.21    0.19 
   7   5  -2    2.25    0.18 
   7   5  -2    1.99    0.16 
   7   5  -2    1.90    0.23 
   6   5  -2    1.85    0.22 
   6   5  -2    1.80    0.22 
   5   5  -2    6.51    0.32 
   5   5  -2    5.65    0.45 
   5   5  -2    6.48    0.34 
   5   5  -2    6.48    0.37 
   5   5  -2    5.63    0.43 
   4   5  -2   12.24    0.74 
   4   5  -2   11.30    0.67 
   4   5  -2   11.45    0.58 
   4   5  -2   11.68    0.53 
   4   5  -2   10.55    0.72 
   4   5  -2   11.06    0.70 
   4   5  -2   11.97    0.51 
   3   5  -2    0.84    0.21 
   3   5  -2    0.71    0.09 
   3   5  -2    0.92    0.21 
   3   5  -2    0.71    0.19 
   3   5  -2    0.67    0.18 
   3   5  -2    0.71    0.16 
   3   5  -2    0.64    0.08 
   3   5  -2    0.60    0.10 
   3   5  -2    0.75    0.15 
   2   5  -2   16.38    0.76 
   2   5  -2   16.76    0.90 
   2   5  -2   13.95    0.89 
   2   5  -2   16.22    0.69 
   2   5  -2   16.93    0.81 
   2   5  -2   16.00    0.93 
   2   5  -2   16.64    0.95 
   2   5  -2   15.65    0.88 
   1   5  -2    1.19    0.16 
   1   5  -2    1.71    0.16 
   1   5  -2    1.35    0.16 
   1   5  -2    1.45    0.24 
   1   5  -2    1.84    0.26 
   1   5  -2    1.85    0.18 
   1   5  -2    1.64    0.25 
   1   5  -2    1.53    0.15 
   1   5  -2    1.49    0.14 
   0   5  -2   11.39    0.64 
   0   5  -2   11.55    0.67 
   0   5  -2   11.35    0.46 
   0   5  -2   10.81    0.67 
   0   5  -2   10.69    0.72 
   0   5  -2   11.09    0.48 
   0   5  -2   10.49    0.67 
   0   5  -2   10.90    0.65 
   0   5  -2   11.71    0.68 
  -1   5  -2    0.15    0.14 
  -1   5  -2    0.29    0.07 
  -1   5  -2    0.30    0.14 
  -1   5  -2    0.33    0.16 
  -1   5  -2    0.21    0.18 
  -1   5  -2    0.29    0.17 
  -1   5  -2    0.11    0.22 
  -1   5  -2    0.33    0.09 
  -2   5  -2    2.76    0.17 
  -2   5  -2    2.40    0.30 
  -2   5  -2    2.24    0.30 
  -2   5  -2    2.28    0.26 
  -2   5  -2    2.81    0.36 
  -2   5  -2    2.47    0.22 
  -2   5  -2    2.62    0.19 
  -3   5  -2    7.46    0.58 
  -3   5  -2    7.19    0.46 
  -3   5  -2    7.31    0.37 
  -3   5  -2    7.93    0.35 
  -3   5  -2    7.26    0.46 
  -3   5  -2    7.99    0.51 
  -3   5  -2    7.85    0.52 
  -4   5  -2    1.46    0.15 
  -4   5  -2    1.94    0.30 
  -4   5  -2    1.77    0.13 
  -4   5  -2    1.84    0.19 
  -4   5  -2    1.87    0.19 
  -4   5  -2    1.80    0.20 
  -5   5  -2    1.40    0.16 
  -5   5  -2    1.86    0.19 
  -5   5  -2    1.55    0.17 
  -5   5  -2    1.34    0.15 
  -5   5  -2    1.46    0.20 
  -6   5  -2   -0.07    0.10 
  -6   5  -2   -0.12    0.09 
  -6   5  -2   -0.06    0.11 
  -6   5  -2    0.01    0.14 
  -7   5  -2    4.10    0.19 
  -7   5  -2    3.93    0.25 
  -7   5  -2    4.10    0.22 
   8   4  -2    1.16    0.17 
   7   4  -2    1.11    0.15 
   7   4  -2    0.74    0.17 
   7   4  -2    0.67    0.11 
   6   4  -2    9.51    0.50 
   6   4  -2    8.58    0.42 
   6   4  -2    9.45    0.46 
   6   4  -2    8.40    0.54 
   5   4  -2    4.87    0.28 
   5   4  -2    4.10    0.38 
   5   4  -2    5.40    0.34 
   5   4  -2    4.20    0.26 
   5   4  -2    4.21    0.33 
   5   4  -2    4.97    0.28 
   4   4  -2    7.11    0.46 
   4   4  -2    6.34    0.45 
   4   4  -2    6.99    0.34 
   4   4  -2    7.16    0.36 
   4   4  -2    7.70    0.52 
   4   4  -2    7.10    0.47 
   4   4  -2    7.20    0.41 
   4   4  -2    7.02    0.37 
   3   4  -2   38.68    1.65 
   3   4  -2   41.90    2.03 
   3   4  -2   40.71    1.86 
   3   4  -2   35.79    2.05 
   3   4  -2   40.41    1.60 
   3   4  -2   36.37    1.87 
   3   4  -2   41.60    1.97 
   3   4  -2   41.89    2.17 
   2   4  -2    0.30    0.13 
   2   4  -2    0.39    0.12 
   2   4  -2    0.40    0.15 
   2   4  -2    0.62    0.18 
   1   4  -2    4.95    0.38 
   1   4  -2    4.81    0.37 
   1   4  -2    4.68    0.28 
   1   4  -2    4.17    0.27 
   1   4  -2    4.18    0.26 
   1   4  -2    4.70    0.27 
   0   4  -2    5.81    0.31 
   0   4  -2    5.78    0.43 
   0   4  -2    5.88    0.30 
   0   4  -2    5.96    0.32 
   0   4  -2    6.09    0.39 
  -1   4  -2    0.36    0.13 
  -1   4  -2    0.30    0.08 
  -1   4  -2    0.37    0.09 
  -1   4  -2    0.03    0.16 
  -1   4  -2    0.45    0.09 
  -1   4  -2    0.24    0.08 
  -2   4  -2    0.41    0.12 
  -2   4  -2    0.06    0.10 
  -2   4  -2    0.26    0.13 
  -2   4  -2    0.11    0.08 
  -2   4  -2   -0.05    0.12 
  -2   4  -2    0.09    0.10 
  -2   4  -2    0.08    0.18 
  -3   4  -2   -0.03    0.10 
  -3   4  -2   -0.32    0.11 
  -3   4  -2   -0.05    0.19 
  -3   4  -2    0.02    0.13 
  -3   4  -2   -0.24    0.10 
  -3   4  -2   -0.07    0.15 
  -3   4  -2    0.08    0.11 
  -3   4  -2    0.06    0.17 
  -3   4  -2   -0.13    0.12 
  -3   4  -2   -0.01    0.15 
  -3   4  -2   -0.32    0.12 
  -4   4  -2    8.12    0.46 
  -4   4  -2    7.89    0.51 
  -4   4  -2    8.65    0.44 
  -4   4  -2    7.97    0.58 
  -4   4  -2    8.01    0.38 
  -4   4  -2    7.81    0.51 
  -4   4  -2    8.32    0.41 
  -4   4  -2    7.96    0.50 
  -4   4  -2    7.82    0.47 
  -4   4  -2    8.00    0.58 
  -5   4  -2    0.00    0.23 
  -5   4  -2   -0.05    0.14 
  -5   4  -2    0.07    0.13 
  -5   4  -2    0.11    0.13 
  -5   4  -2   -0.28    0.18 
  -5   4  -2   -0.02    0.13 
  -5   4  -2   -0.13    0.16 
  -6   4  -2   66.30    2.60 
  -6   4  -2   65.20    2.69 
  -6   4  -2   59.36    3.01 
  -6   4  -2   66.47    3.02 
  -6   4  -2   64.77    3.17 
  -7   4  -2    0.01    0.14 
  -7   4  -2    0.16    0.10 
  -7   4  -2    0.07    0.11 
   8   3  -2    0.27    0.12 
   7   3  -2   13.32    0.66 
   7   3  -2   12.69    0.68 
   6   3  -2    3.04    0.30 
   6   3  -2    2.94    0.35 
   6   3  -2    3.82    0.32 
   5   3  -2   11.50    0.62 
   5   3  -2   12.20    0.71 
   5   3  -2   10.83    0.52 
   5   3  -2   12.54    0.70 
   5   3  -2   12.54    0.61 
   5   3  -2   11.84    0.68 
   5   3  -2   10.98    0.66 
   4   3  -2   29.87    1.47 
   4   3  -2   32.06    1.59 
   4   3  -2   32.52    1.56 
   4   3  -2   31.75    1.48 
   4   3  -2   27.32    1.45 
   3   3  -2    1.13    0.16 
   3   3  -2    1.28    0.19 
   3   3  -2    1.04    0.16 
   2   3  -2   37.90    2.06 
   2   3  -2   39.65    1.89 
   2   3  -2   37.46    1.94 
   2   3  -2   38.28    1.78 
   1   3  -2    0.13    0.08 
   1   3  -2    0.14    0.10 
   1   3  -2    0.06    0.11 
   1   3  -2    0.10    0.13 
   1   3  -2    0.19    0.10 
   1   3  -2    0.18    0.12 
   1   3  -2    0.16    0.15 
   1   3  -2    0.20    0.10 
  -1  -3   2    0.20    0.12 
   0   3  -2   76.33    3.45 
   0   3  -2   70.31    3.61 
   0   3  -2   76.53    3.24 
   0   3  -2   59.96    3.78 
   0   3  -2   71.96    3.61 
   0   3  -2   76.56    3.53 
   0   3  -2   69.85    3.44 
   0   3  -2   65.25    3.61 
   0   3  -2   72.46    3.24 
   0  -3   2   71.72    3.61 
   0  -3   2   72.05    3.61 
  -1   3  -2   14.81    0.75 
  -1   3  -2   14.81    0.81 
  -1   3  -2   15.35    0.86 
  -1   3  -2   13.81    0.79 
  -1   3  -2   13.76    0.80 
  -1   3  -2   16.23    0.72 
  -1   3  -2   14.62    0.71 
  -1   3  -2   15.47    0.75 
  -1   3  -2   15.84    0.79 
   1  -3   2   14.30    0.81 
  -2   3  -2    3.58    0.32 
  -2   3  -2    3.28    0.26 
  -2   3  -2    3.04    0.29 
  -2   3  -2    3.34    0.26 
  -3   3  -2   24.16    1.33 
  -3   3  -2   25.11    1.25 
  -3   3  -2   24.57    1.18 
  -3   3  -2   24.55    1.38 
  -4   3  -2    1.48    0.23 
  -4   3  -2    1.30    0.23 
  -4   3  -2    1.51    0.13 
  -4   3  -2    1.75    0.22 
  -4   3  -2    1.35    0.15 
  -4   3  -2    1.43    0.12 
  -4   3  -2    1.50    0.26 
  -4   3  -2    1.30    0.14 
  -4   3  -2    1.46    0.10 
  -5   3  -2   20.43    1.06 
  -5   3  -2   21.02    1.01 
  -5   3  -2   19.33    1.19 
  -5   3  -2   20.51    0.99 
  -5   3  -2   22.69    1.08 
  -5   3  -2   20.27    0.89 
  -5   3  -2   19.59    1.10 
  -5   3  -2   21.10    0.86 
  -5   3  -2   19.73    1.01 
  -6   3  -2    0.75    0.18 
  -6   3  -2    0.74    0.13 
  -6   3  -2    0.78    0.15 
  -6   3  -2    0.70    0.16 
  -7   3  -2    2.52    0.26 
  -7   3  -2    2.51    0.23 
  -7   3  -2    2.99    0.31 
  -8   3  -2    9.95    0.51 
  -8   3  -2    9.15    0.42 
   8   2  -2    9.33    0.49 
   6   2  -2   20.59    0.99 
   6   2  -2   19.46    1.09 
   6   2  -2   19.35    1.06 
   5   2  -2    7.87    0.54 
   5   2  -2    7.74    0.53 
   5   2  -2    9.00    0.52 
   4   2  -2   37.51    1.91 
   4   2  -2   38.54    1.81 
   4   2  -2   38.47    1.94 
   3   2  -2   66.30    3.55 
   3   2  -2   70.18    3.35 
   3   2  -2   67.35    3.41 
   3   2  -2   70.27    3.16 
   2   2  -2    1.26    0.19 
   2   2  -2    1.22    0.15 
   2   2  -2    1.15    0.15 
   2   2  -2    1.41    0.13 
  -2  -2   2    1.10    0.18 
  -2  -2   2    1.08    0.18 
   1   2  -2   66.56    3.31 
   1   2  -2   63.97    3.22 
   1   2  -2   66.05    2.97 
   1   2  -2   62.40    2.96 
   1   2  -2   66.71    3.31 
   1   2  -2   59.26    3.15 
   1   2  -2   68.69    3.15 
  -1  -2   2   65.23    3.31 
  -1  -2   2   65.51    3.31 
   0   2  -2    9.95    0.51 
   0   2  -2    9.97    0.54 
   0   2  -2    9.08    0.50 
   0   2  -2   10.42    0.54 
   0   2  -2    9.47    0.48 
   0   2  -2    8.63    0.50 
   0   2  -2    9.82    0.48 
   0   2  -2    9.83    0.57 
   0   2  -2    9.95    0.54 
   0  -2   2    9.98    0.55 
   0  -2   2    9.89    0.54 
  -1   2  -2   62.92    3.11 
  -1   2  -2   59.67    3.11 
  -1   2  -2   61.90    2.97 
  -1   2  -2   57.42    3.11 
  -1   2  -2   58.60    2.96 
  -1   2  -2   65.23    2.80 
  -1   2  -2   62.53    3.25 
  -1   2  -2   56.66    2.79 
   1  -2   2   64.21    3.12 
   1  -2   2   62.60    3.12 
  -2   2  -2   94.84    4.96 
  -2   2  -2   95.80    4.77 
  -2   2  -2   97.01    4.27 
  -2   2  -2   90.33    4.76 
  -2   2  -2   90.21    4.76 
  -2   2  -2   98.34    4.54 
   2  -2   2   91.97    4.76 
   2  -2   2   90.11    4.76 
  -3   2  -2    3.21    0.27 
  -3   2  -2    2.95    0.26 
  -3   2  -2    2.87    0.28 
  -3   2  -2    2.01    0.27 
  -4   2  -2   10.68    0.60 
  -4   2  -2   11.08    0.66 
  -4   2  -2   10.24    0.65 
  -4   2  -2   10.19    0.60 
  -5   2  -2    1.48    0.14 
  -5   2  -2    1.42    0.13 
  -5   2  -2    1.41    0.11 
  -5   2  -2    1.60    0.27 
  -5   2  -2    1.59    0.15 
  -5   2  -2    1.28    0.26 
  -5   2  -2    1.52    0.19 
  -5   2  -2    1.61    0.22 
  -5   2  -2    1.57    0.22 
  -6   2  -2    5.18    0.37 
  -6   2  -2    5.64    0.32 
  -6   2  -2    4.58    0.30 
  -6   2  -2    4.79    0.48 
  -7   2  -2    0.42    0.16 
  -7   2  -2    0.58    0.14 
  -7   2  -2    0.65    0.10 
  -8   2  -2    0.80    0.15 
   9   1  -2    3.82    0.22 
  -9  -1   2    4.05    0.22 
   8   1  -2    2.18    0.22 
  -7  -1   2    7.44    0.42 
   6   1  -2    0.14    0.15 
   5   1  -2   12.49    0.70 
  -5  -1   2   12.71    0.73 
   4   1  -2   20.98    1.05 
   4   1  -2   18.94    1.04 
   4   1  -2   20.02    1.00 
   3   1  -2    3.02    0.22 
   3   1  -2    2.90    0.27 
   3   1  -2    2.71    0.28 
   3   1  -2    2.96    0.27 
   3   1  -2    2.57    0.30 
  -3  -1   2    2.67    0.30 
  -3  -1   2    2.78    0.25 
  -3  -1   2    2.63    0.27 
  -3  -1   2    2.37    0.30 
   2   1  -2   86.51    4.30 
   2   1  -2   91.86    4.44 
   2   1  -2   87.74    4.23 
   2   1  -2   91.52    4.44 
   2   1  -2   87.61    3.98 
  -2  -1   2   82.70    3.98 
  -2  -1   2   88.22    4.44 
  -2  -1   2   87.37    4.44 
  -2  -1   2   82.04    4.23 
   1   1  -2    1.22    0.16 
   1   1  -2    0.96    0.14 
   1   1  -2    1.08    0.14 
   1   1  -2    1.12    0.11 
   1   1  -2    1.05    0.12 
  -1  -1   2    0.95    0.14 
  -1  -1   2    1.13    0.16 
  -1  -1   2    0.87    0.11 
  -1  -1   2    0.91    0.12 
   0   1  -2  111.73    6.06 
   0   1  -2  122.16    5.96 
   0   1  -2  103.77    5.79 
   0   1  -2  123.56    5.51 
   0   1  -2  120.95    5.86 
   0   1  -2  131.90    6.12 
   0  -1   2  113.39    5.45 
   0  -1   2  127.56    6.05 
   0  -1   2  126.51    6.05 
  -1   1  -2    0.57    0.09 
  -1   1  -2    0.56    0.11 
  -1   1  -2    0.45    0.10 
  -1   1  -2    0.49    0.11 
   1  -1   2    0.64    0.12 
   1  -1   2    0.44    0.09 
   1  -1   2    0.54    0.13 
  -2   1  -2   49.94    2.33 
  -2   1  -2   49.35    2.54 
  -2   1  -2   50.04    2.47 
  -2   1  -2   48.85    2.20 
  -2   1  -2   48.22    2.46 
   2  -1   2   50.60    2.47 
   2  -1   2   43.27    2.33 
   2  -1   2   47.68    2.46 
   2  -1   2   42.14    2.20 
  -3   1  -2   72.97    3.92 
  -3   1  -2   71.48    3.93 
  -3   1  -2   80.73    3.52 
  -3   1  -2   79.22    3.73 
  -3   1  -2   78.90    4.06 
   3  -1   2   74.89    3.93 
  -4   1  -2    0.61    0.14 
  -4   1  -2    0.80    0.18 
  -4   1  -2    0.61    0.13 
  -5   1  -2    2.56    0.28 
  -5   1  -2    2.12    0.18 
  -5   1  -2    2.48    0.22 
  -5   1  -2    2.69    0.29 
  -6   1  -2    0.15    0.21 
  -6   1  -2    0.21    0.13 
  -7   1  -2    5.58    0.35 
  -8   1  -2    6.05    0.36 
  -8   1  -2    5.80    0.32 
  -8   0   2    6.33    0.37 
  -7   0   2    2.65    0.23 
  -6   0   2    5.70    0.35 
  -6   0   2    6.03    0.46 
  -5   0   2    0.76    0.18 
   4   0  -2   37.43    2.22 
  -4   0   2   45.22    2.17 
  -4   0   2   42.61    2.07 
  -4   0   2   41.09    1.96 
   3   0  -2   69.16    3.47 
   3   0  -2   68.28    3.09 
   3   0  -2   68.60    3.47 
   3   0  -2   64.72    3.28 
  -3   0   2   69.10    3.09 
  -3   0   2   67.59    3.28 
  -3   0   2   66.07    3.46 
  -3   0   2   64.31    3.46 
   2   0  -2    6.04    0.35 
   2   0  -2    6.67    0.42 
   2   0  -2    6.45    0.42 
   2   0  -2    6.11    0.38 
  -2   0   2    6.28    0.37 
  -2   0   2    6.35    0.37 
  -2   0   2    6.24    0.40 
  -2   0   2    6.42    0.42 
   1   0  -2  252.22   13.19 
   1   0  -2  278.53   13.59 
   1   0  -2  289.29   13.58 
   1   0  -2  250.51   12.98 
   1   0  -2  270.12   12.24 
  -1   0   2  282.07   13.56 
  -1   0   2  258.01   12.98 
  -1   0   2  272.48   12.24 
  -1   0   2  280.73   13.56 
  -1   0   2  247.72   13.60 
   0   0  -2   32.21    1.62 
   0   0  -2   31.38    1.50 
   0   0  -2   35.42    1.67 
   0   0  -2   33.12    1.67 
   0   0  -2   30.05    1.59 
   0   0   2   35.63    1.68 
   0   0   2   31.77    1.50 
   0   0   2   31.40    1.59 
   0   0   2   32.21    1.67 
   0   0   2   34.45    1.67 
  -1   0  -2   62.52    3.09 
  -1   0  -2   59.97    2.91 
  -1   0  -2   68.66    3.24 
  -1   0  -2   68.89    3.24 
  -1   0  -2   59.96    3.37 
   1   0   2   67.34    3.24 
   1   0   2   60.38    2.91 
   1   0   2   62.87    3.09 
   1   0   2   60.47    2.96 
   1   0   2   68.46    3.24 
  -2   0  -2    0.00    0.12 
  -2   0  -2    0.10    0.13 
  -2   0  -2   -0.02    0.11 
  -2   0  -2    0.06    0.09 
  -2   0  -2    0.09    0.09 
   2   0   2    0.09    0.12 
   2   0   2   -0.01    0.09 
   2   0   2    0.11    0.10 
   2   0   2    0.08    0.12 
   2   0   2    0.05    0.08 
  -3   0  -2   66.86    3.43 
  -3   0  -2   68.35    3.52 
  -3   0  -2   66.95    3.06 
  -3   0  -2   66.80    3.25 
  -3   0  -2   65.92    3.43 
   3   0   2   65.09    3.25 
   3   0   2   65.78    3.43 
   3   0   2   67.62    3.43 
   3   0   2   65.35    3.06 
  -4   0  -2   37.17    1.83 
  -4   0  -2   38.77    1.74 
   4   0   2   33.60    1.96 
  -6   0  -2    3.94    0.28 
  -7   0  -2   19.18    0.96 
  -8   1   2   -0.11    0.09 
  -7   1   2   10.60    0.56 
  -7   1   2   10.73    0.59 
  -6   1   2    1.31    0.27 
  -6   1   2    1.70    0.28 
  -6   1   2    1.55    0.15 
  -5   1   2    3.63    0.27 
  -5   1   2    3.87    0.36 
  -5   1   2    3.56    0.32 
  -5   1   2    3.57    0.35 
  -5   1   2    3.48    0.24 
  -4   1   2   21.77    1.08 
  -4   1   2   21.81    1.13 
  -4   1   2   22.11    1.18 
   3  -1  -2    6.22    0.45 
   3  -1  -2    5.92    0.45 
  -3   1   2    6.48    0.39 
  -3   1   2    6.58    0.38 
  -3   1   2    6.44    0.39 
  -3   1   2    5.75    0.42 
  -3   1   2    6.01    0.44 
   2  -1  -2    0.10    0.10 
   2  -1  -2   -0.02    0.13 
   2  -1  -2    0.09    0.14 
   2  -1  -2   -0.03    0.11 
  -2   1   2    0.00    0.12 
  -2   1   2    0.04    0.09 
  -2   1   2    0.00    0.09 
  -2   1   2   -0.08    0.11 
  -2   1   2    0.04    0.13 
  -2   1   2    0.06    0.10 
   1  -1  -2    0.92    0.12 
   1  -1  -2    0.86    0.12 
  -1   1   2    0.68    0.08 
  -1   1   2    0.73    0.10 
  -1   1   2    0.67    0.08 
  -1   1   2    0.93    0.11 
  -1   1   2    0.83    0.09 
  -1   1   2    0.77    0.10 
  -1   1   2    0.84    0.12 
  -1   1   2    0.76    0.11 
   0  -1  -2  182.11    8.59 
   0  -1  -2  191.86    8.59 
   0   1   2  170.10    8.68 
   0   1   2  171.33    8.57 
   0   1   2  148.04    8.36 
   0   1   2  174.54    8.22 
   0   1   2  179.27    8.58 
   0   1   2  157.07    7.90 
   0   1   2  166.96    7.73 
   0   1   2  168.62    7.74 
   0   1   2  158.34    8.21 
  -1  -1  -2  154.44    7.24 
  -1  -1  -2  149.81    7.17 
  -1  -1  -2  133.80    6.45 
   1   1   2  149.74    7.17 
   1   1   2  133.50    6.60 
   1   1   2  141.72    6.52 
   1   1   2  133.54    6.89 
  -2  -1  -2  761.12   39.47 
  -2  -1  -2  770.47   37.13 
  -2  -1  -2  863.72   41.22 
  -2  -1  -2  831.63   41.20 
   2   1   2  845.54   41.21 
   2   1   2  815.83   39.50 
   2   1   2  829.25   37.17 
   2   1   2  812.89   37.91 
   2   1   2  831.55   41.20 
  -3  -1  -2   32.93    1.79 
  -3  -1  -2   33.23    1.67 
  -3  -1  -2   33.01    1.79 
  -3  -1  -2   33.21    1.59 
   3   1   2   33.22    1.78 
   3   1   2   35.17    1.59 
   3   1   2   34.86    1.59 
   3   1   2   33.19    1.79 
   3   1   2   34.22    1.67 
  -4  -1  -2    0.62    0.18 
   4   1   2    1.13    0.17 
   4   1   2    1.29    0.19 
   6   1   2   13.40    0.69 
   7   1   2    1.87    0.22 
  -8  -1  -2    4.42    0.30 
  -8   2   2    5.79    0.36 
  -7   2   2    3.43    0.32 
  -7   2   2    3.44    0.26 
  -6   2   2    4.81    0.29 
  -6   2   2    5.55    0.31 
  -6   2   2    5.32    0.35 
  -6   2   2    4.74    0.37 
  -6   2   2    4.61    0.46 
  -5   2   2    0.15    0.20 
  -5   2   2    0.12    0.10 
  -5   2   2    0.19    0.12 
  -5   2   2    0.14    0.13 
  -5   2   2    0.16    0.15 
  -5   2   2    0.21    0.20 
  -5   2   2    0.21    0.10 
  -4   2   2   17.65    0.88 
  -4   2   2   17.17    0.91 
  -4   2   2   17.38    0.97 
  -3   2   2    5.49    0.37 
  -3   2   2    5.17    0.35 
  -3   2   2    4.69    0.33 
  -3   2   2    4.72    0.34 
   2  -2  -2   23.72    1.20 
   2  -2  -2   23.69    1.20 
  -2   2   2   20.77    1.12 
  -2   2   2   23.73    1.07 
  -2   2   2   23.93    1.24 
  -2   2   2   24.38    1.12 
  -2   2   2   21.40    1.19 
  -2   2   2   22.24    1.19 
  -2   2   2   21.68    1.06 
  -2   2   2   22.93    1.19 
  -2   2   2   20.24    1.06 
   1  -2  -2   22.04    1.07 
   1  -2  -2   21.86    1.07 
  -1   2   2   20.20    1.01 
  -1   2   2   20.62    1.07 
  -1   2   2   21.03    1.13 
  -1   2   2   19.29    0.98 
  -1   2   2   20.99    1.01 
  -1   2   2   20.23    1.09 
  -1   2   2   21.00    1.07 
  -1   2   2   21.12    0.96 
  -1   2   2   19.38    0.95 
   0   2   2    0.29    0.08 
   0   2   2    0.24    0.10 
   0   2   2    0.24    0.09 
   0   2   2    0.26    0.08 
  -1  -2  -2   43.36    2.08 
  -1  -2  -2   43.14    2.08 
   1   2   2   42.30    2.07 
   1   2   2   37.90    2.15 
   1   2   2   40.14    1.91 
   1   2   2   41.11    1.86 
   1   2   2   38.95    2.02 
   1   2   2   41.32    2.07 
   1   2   2   41.56    1.98 
   1   2   2   39.88    1.86 
   1   2   2   38.33    1.97 
  -2  -2  -2   91.05    4.37 
  -2  -2  -2   88.85    4.36 
   2   2   2   86.40    4.36 
   2   2   2   85.89    4.00 
   2   2   2   90.95    3.91 
   2   2   2   88.01    4.24 
   2   2   2   89.29    4.16 
   2   2   2   77.03    3.91 
   2   2   2   73.85    4.15 
   2   2   2   87.13    4.36 
  -3  -2  -2    0.21    0.17 
   3   2   2    0.10    0.13 
   3   2   2    0.28    0.13 
   3   2   2    0.25    0.14 
   3   2   2    0.28    0.12 
   3   2   2    0.51    0.17 
   4   2   2   56.40    2.77 
   4   2   2   55.81    2.61 
   5   2   2    5.11    0.41 
   5   2   2    4.61    0.31 
   5   2   2    5.21    0.41 
   5   2   2    5.89    0.39 
   6   2   2    2.93    0.35 
   6   2   2    2.65    0.26 
   7   2   2    2.32    0.24 
   8   2   2    1.96    0.22 
  -8   3   2    0.43    0.11 
  -7   3   2    4.10    0.34 
  -7   3   2    4.18    0.27 
  -6   3   2    2.68    0.22 
  -6   3   2    2.53    0.29 
  -6   3   2    2.92    0.28 
  -5   3   2    8.21    0.42 
  -5   3   2    8.93    0.49 
  -5   3   2    8.43    0.60 
  -5   3   2    8.73    0.57 
  -5   3   2    8.11    0.40 
  -5   3   2    8.28    0.46 
  -5   3   2    8.24    0.42 
  -5   3   2    8.97    0.51 
  -5   3   2    7.91    0.52 
  -5   3   2    7.53    0.52 
  -4   3   2    4.18    0.30 
  -4   3   2    4.49    0.33 
  -4   3   2    4.78    0.27 
  -4   3   2    5.18    0.35 
  -4   3   2    4.34    0.25 
  -4   3   2    4.96    0.34 
  -4   3   2    5.46    0.42 
  -4   3   2    4.26    0.25 
  -4   3   2    4.78    0.36 
  -4   3   2    4.47    0.31 
  -3   3   2    5.30    0.38 
  -3   3   2    5.25    0.33 
  -3   3   2    5.06    0.34 
  -3   3   2    5.17    0.37 
   2  -3  -2   37.89    2.03 
  -2   3   2   37.78    1.92 
  -2   3   2   37.01    1.81 
  -2   3   2   42.06    1.93 
  -2   3   2   36.64    2.02 
  -2   3   2   42.27    2.14 
  -2   3   2   41.71    1.82 
  -2   3   2   40.78    2.06 
  -1   3   2   59.65    2.91 
  -1   3   2   59.69    3.01 
  -1   3   2   61.21    3.13 
  -1   3   2   54.34    2.74 
   0   3   2   23.45    1.21 
   0   3   2   23.17    1.25 
   0   3   2   22.60    1.11 
   0   3   2   22.69    1.17 
  -1  -3  -2   10.31    0.53 
  -1  -3  -2    9.70    0.53 
   1   3   2    9.69    0.50 
   1   3   2   10.30    0.56 
   1   3   2   10.24    0.48 
   1   3   2    9.92    0.53 
   1   3   2    9.26    0.56 
   1   3   2    9.83    0.53 
   1   3   2   10.38    0.53 
   1   3   2   10.47    0.48 
   1   3   2   10.60    0.50 
  -2  -3  -2   24.29    1.35 
   2   3   2   27.18    1.24 
   2   3   2   27.47    1.27 
   2   3   2   25.24    1.20 
   2   3   2   26.11    1.31 
   2   3   2   27.89    1.20 
   2   3   2   22.87    1.26 
   2   3   2   25.48    1.35 
   2   3   2   24.23    1.34 
   3   3   2   10.62    0.58 
   3   3   2   10.18    0.58 
   3   3   2   10.86    0.56 
   3   3   2   10.59    0.60 
   4   3   2    0.11    0.14 
   4   3   2    0.28    0.14 
   4   3   2   -0.04    0.17 
   4   3   2   -0.01    0.09 
   5   3   2   11.64    0.67 
   5   3   2   11.02    0.60 
   5   3   2   12.21    0.71 
   5   3   2   11.99    0.69 
   5   3   2   10.89    0.50 
   5   3   2   11.37    0.59 
   6   3   2    1.11    0.26 
   7   3   2    1.23    0.19 
   8   3   2    3.17    0.27 
  -7   4   2    0.40    0.16 
  -6   4   2    2.41    0.28 
  -6   4   2    1.51    0.14 
  -6   4   2    1.61    0.16 
  -5   4   2    3.36    0.33 
  -5   4   2    3.06    0.26 
  -5   4   2    2.77    0.25 
  -5   4   2    3.17    0.23 
  -5   4   2    3.20    0.26 
  -5   4   2    3.29    0.36 
  -5   4   2    3.25    0.43 
  -4   4   2    5.32    0.37 
  -4   4   2    5.88    0.35 
  -4   4   2    5.50    0.29 
  -4   4   2    5.82    0.31 
  -4   4   2    5.64    0.46 
  -4   4   2    5.95    0.33 
  -4   4   2    5.35    0.40 
  -4   4   2    5.13    0.37 
  -4   4   2    6.03    0.38 
  -3   4   2   44.68    2.28 
  -3   4   2   48.77    2.34 
  -3   4   2   43.77    1.99 
  -3   4   2   40.38    2.03 
  -3   4   2   43.34    2.10 
  -3   4   2   40.54    2.02 
  -3   4   2   44.41    2.36 
  -3   4   2   42.37    1.74 
  -3   4   2   40.50    2.12 
  -3   4   2   42.50    2.30 
  -3   4   2   43.39    1.79 
  -2   4   2   16.90    0.96 
  -2   4   2   16.11    0.92 
  -1   4   2   13.39    0.74 
  -1   4   2   12.03    0.65 
  -1   4   2   13.38    0.76 
  -1   4   2   13.47    0.70 
   0   4   2   49.28    2.33 
   0   4   2   48.22    2.54 
   0   4   2   49.69    2.64 
   0   4   2   50.10    2.47 
   1   4   2    5.39    0.35 
   1   4   2    5.87    0.36 
   1   4   2    5.75    0.39 
   2   4   2   11.03    0.57 
   2   4   2    9.14    0.52 
   2   4   2   10.76    0.51 
   2   4   2   10.44    0.53 
   2   4   2    9.78    0.50 
   2   4   2   10.30    0.60 
   3   4   2    3.70    0.29 
   3   4   2    3.63    0.29 
   3   4   2    3.86    0.32 
   3   4   2    3.92    0.34 
   4   4   2   23.83    1.13 
   4   4   2   24.10    1.23 
   4   4   2   24.52    1.19 
   4   4   2   23.28    1.32 
   4   4   2   24.36    1.24 
   4   4   2   21.95    0.97 
   4   4   2   21.84    1.10 
   4   4   2   20.46    1.31 
   4   4   2   21.97    1.28 
   4   4   2   23.17    0.94 
   5   4   2    4.75    0.33 
   5   4   2    4.48    0.35 
   5   4   2    4.10    0.40 
   5   4   2    4.09    0.40 
   5   4   2    4.30    0.38 
   5   4   2    4.17    0.27 
   5   4   2    4.44    0.27 
   6   4   2    2.05    0.27 
   6   4   2    1.98    0.19 
   7   4   2    2.96    0.30 
   8   4   2    3.18    0.24 
  -7   5   2    2.91    0.27 
  -6   5   2    1.86    0.22 
  -6   5   2    1.93    0.21 
  -6   5   2    2.14    0.18 
  -5   5   2    1.11    0.20 
  -5   5   2    0.74    0.14 
  -5   5   2    0.86    0.10 
  -5   5   2    0.79    0.16 
  -5   5   2    0.67    0.12 
  -4   5   2    8.84    0.50 
  -4   5   2    7.79    0.62 
  -4   5   2    9.00    0.55 
  -4   5   2    8.77    0.52 
  -4   5   2    7.91    0.38 
  -4   5   2    7.51    0.40 
  -3   5   2    0.07    0.20 
  -3   5   2    0.04    0.17 
  -3   5   2   -0.03    0.09 
  -3   5   2    0.22    0.08 
  -3   5   2   -0.01    0.18 
  -3   5   2    0.33    0.22 
  -3   5   2    0.42    0.14 
  -3   5   2    0.21    0.13 
  -2   5   2   15.56    0.65 
  -2   5   2   17.22    0.91 
  -2   5   2   15.41    0.84 
  -2   5   2   15.89    0.68 
  -2   5   2   16.08    0.92 
  -2   5   2   16.16    0.90 
  -2   5   2   16.28    0.96 
  -2   5   2   15.97    0.87 
  -2   5   2   15.96    0.80 
  -1   5   2    0.95    0.17 
  -1   5   2    0.87    0.12 
  -1   5   2    0.86    0.11 
  -1   5   2    0.82    0.11 
  -1   5   2    1.44    0.21 
   0   5   2    6.12    0.44 
   0   5   2    6.71    0.40 
   0   5   2    6.31    0.41 
   0   5   2    6.40    0.42 
   1   5   2   24.31    1.29 
   1   5   2   24.75    1.21 
   2   5   2    0.34    0.19 
   2   5   2    0.21    0.14 
   2   5   2    0.06    0.18 
   2   5   2    0.21    0.18 
   2   5   2    0.24    0.18 
   2   5   2   -0.07    0.17 
   2   5   2   -0.01    0.06 
   2   5   2    0.13    0.08 
   3   5   2   70.55    2.98 
   3   5   2   66.91    3.89 
   3   5   2   75.51    2.89 
   3   5   2   75.31    4.06 
   3   5   2   70.03    3.37 
   3   5   2   71.57    3.71 
   3   5   2   74.95    3.29 
   3   5   2   74.04    3.63 
   3   5   2   70.08    4.01 
   4   5   2    0.46    0.08 
   4   5   2    0.27    0.13 
   4   5   2    0.51    0.10 
   4   5   2    0.45    0.21 
   4   5   2    0.49    0.17 
   4   5   2    0.43    0.17 
   4   5   2    0.74    0.19 
   4   5   2    0.52    0.15 
   4   5   2    0.57    0.10 
   4   5   2    0.45    0.15 
   5   5   2    9.19    0.43 
   5   5   2    8.87    0.41 
   5   5   2    7.97    0.56 
   5   5   2    8.62    0.58 
   5   5   2    9.53    0.57 
   5   5   2    7.89    0.61 
   6   5   2    2.16    0.22 
   6   5   2    1.81    0.18 
   7   5   2   -0.01    0.15 
   8   5   2    1.95    0.18 
  -6   6   2   -0.03    0.12 
  -6   6   2   -0.06    0.10 
  -5   6   2    0.50    0.07 
  -5   6   2    0.37    0.19 
  -5   6   2    0.43    0.15 
  -5   6   2    0.36    0.10 
  -5   6   2    0.46    0.16 
  -4   6   2    6.14    0.31 
  -4   6   2    6.48    0.44 
  -4   6   2    6.32    0.42 
  -4   6   2    6.69    0.46 
  -3   6   2   15.79    0.84 
  -3   6   2   14.08    0.77 
  -3   6   2   12.41    0.89 
  -3   6   2   13.91    0.61 
  -3   6   2   14.44    0.82 
  -3   6   2   14.24    0.72 
  -2   6   2   51.56    2.73 
  -2   6   2   49.48    2.52 
  -2   6   2   50.25    2.41 
  -2   6   2   51.41    2.77 
  -2   6   2   52.58    2.64 
  -1   6   2   14.17    0.77 
  -1   6   2   13.50    0.68 
  -1   6   2   13.36    0.75 
  -1   6   2   12.72    0.79 
  -1   6   2   12.63    0.71 
  -1   6   2   11.46    0.81 
  -1   6   2   14.36    0.78 
   0   6   2    4.31    0.36 
   0   6   2    4.47    0.38 
   0   6   2    4.16    0.35 
   0   6   2    4.18    0.36 
   0   6   2    3.90    0.36 
   0   6   2    3.73    0.28 
   0   6   2    3.78    0.32 
   0   6   2    3.90    0.30 
   0   6   2    4.17    0.34 
   1   6   2    0.65    0.14 
   1   6   2    0.72    0.14 
   1   6   2    0.45    0.20 
   1   6   2    0.59    0.14 
   1   6   2    0.78    0.21 
   1   6   2    0.69    0.19 
   2   6   2   21.44    0.93 
   2   6   2   20.75    1.24 
   2   6   2   20.92    1.20 
   2   6   2   24.18    1.30 
   2   6   2   23.35    1.29 
   2   6   2   22.00    1.20 
   2   6   2   22.04    1.29 
   3   6   2    1.52    0.21 
   3   6   2    1.60    0.16 
   3   6   2    1.05    0.18 
   3   6   2    1.53    0.14 
   3   6   2    1.72    0.21 
   3   6   2    1.59    0.21 
   3   6   2    1.37    0.29 
   4   6   2    4.29    0.43 
   4   6   2    6.09    0.43 
   4   6   2    5.36    0.43 
   4   6   2    4.92    0.41 
   4   6   2    5.47    0.29 
   4   6   2    5.36    0.27 
   4   6   2    4.93    0.43 
   5   6   2    8.14    0.53 
   5   6   2    7.59    0.36 
   5   6   2    7.83    0.38 
   5   6   2    7.73    0.53 
   6   6   2    0.87    0.16 
   7   6   2    1.46    0.18 
  -5   7   2    0.03    0.14 
  -4   7   2    2.18    0.25 
  -4   7   2    2.82    0.29 
  -3   7   2    5.83    0.38 
  -3   7   2    4.51    0.35 
  -3   7   2    5.71    0.41 
  -2   7   2   10.67    0.57 
  -2   7   2   10.33    0.64 
  -2   7   2    8.73    0.55 
  -2   7   2   11.10    0.64 
  -1   7   2    0.96    0.16 
  -1   7   2    1.30    0.20 
  -1   7   2    1.37    0.17 
  -1   7   2    1.37    0.18 
  -1   7   2    1.20    0.20 
  -1   7   2    1.15    0.16 
   0   7   2    4.51    0.38 
   0   7   2    3.70    0.36 
   0   7   2    4.72    0.38 
   0   7   2    3.38    0.37 
   0   7   2    3.76    0.37 
   0   7   2    3.81    0.37 
   0   7   2    4.17    0.29 
   1   7   2    2.29    0.31 
   1   7   2    2.58    0.28 
   1   7   2    1.81    0.22 
   1   7   2    1.34    0.27 
   1   7   2    2.49    0.34 
   1   7   2    2.35    0.34 
   2   7   2    0.54    0.21 
   2   7   2    0.41    0.22 
   2   7   2    0.25    0.17 
   2   7   2    0.53    0.22 
   3   7   2    6.75    0.32 
   3   7   2    7.03    0.49 
   3   7   2    7.71    0.51 
   3   7   2    6.46    0.48 
   3   7   2    6.97    0.51 
   4   7   2    0.07    0.08 
   4   7   2   -0.02    0.14 
   4   7   2   -0.13    0.18 
   4   7   2   -0.03    0.19 
   5   7   2    3.36    0.30 
   5   7   2    3.49    0.29 
   6   7   2    1.53    0.19 
  -3   8   2    0.66    0.16 
  -2   8   2    0.71    0.15 
  -2   8   2    0.99    0.19 
  -1   8   2    0.42    0.13 
  -1   8   2    0.38    0.18 
  -1   8   2    0.37    0.17 
  -1   8   2    0.49    0.16 
   0   8   2    0.02    0.16 
   0   8   2    0.02    0.16 
   0   8   2    0.13    0.18 
   0   8   2    0.14    0.18 
   1   8   2    0.43    0.20 
   1   8   2    0.13    0.16 
   1   8   2    0.13    0.18 
   2   8   2    0.05    0.16 
   2   8   2    0.35    0.19 
   2   8   2    0.14    0.18 
   3   8   2    0.01    0.13 
   3   8   2   -0.05    0.18 
   3   8   2    0.36    0.18 
   4   8   2    3.01    0.27 
   4   8   2    2.98    0.28 
   5   8   2    0.37    0.13 
   5   8   2    0.45    0.13 
  -2   9   2    0.08    0.11 
  -1   9   2   -0.24    0.12 
  -1   9   2    0.03    0.11 
   0   9   2    0.08    0.12 
   0   9   2    0.06    0.13 
   1   9   2    0.25    0.12 
   1   9   2    0.17    0.14 
   2   9   2    0.02    0.17 
   2   9   2   -0.11    0.14 
   3   9   2    1.43    0.18 
   3   9   2    1.07    0.17 
   4   8  -3    0.58    0.12 
   4   8  -3    0.59    0.12 
   3   8  -3    0.82    0.18 
   3   8  -3    0.45    0.14 
   2   8  -3    8.37    0.50 
   2   8  -3    8.83    0.55 
   1   8  -3    0.21    0.14 
   1   8  -3    0.36    0.16 
   1   8  -3    0.15    0.13 
   0   8  -3    3.33    0.37 
   0   8  -3    3.29    0.30 
   0   8  -3    3.33    0.30 
  -1   8  -3    0.04    0.13 
  -1   8  -3   -0.05    0.16 
  -2   8  -3    0.12    0.12 
  -2   8  -3    0.27    0.11 
  -2   8  -3    0.05    0.15 
  -3   8  -3   -0.15    0.10 
  -3   8  -3   -0.04    0.11 
   6   7  -3    1.17    0.11 
   5   7  -3    0.17    0.08 
   5   7  -3    0.26    0.11 
   5   7  -3    0.21    0.13 
   5   7  -3    0.32    0.06 
   4   7  -3    2.49    0.15 
   4   7  -3    2.44    0.18 
   4   7  -3    2.27    0.31 
   4   7  -3    2.33    0.23 
   3   7  -3    5.55    0.25 
   3   7  -3    5.39    0.37 
   3   7  -3    5.37    0.44 
   3   7  -3    5.79    0.42 
   3   7  -3    5.55    0.28 
   2   7  -3   -0.03    0.15 
   2   7  -3   -0.01    0.21 
   2   7  -3    0.02    0.09 
   2   7  -3    0.05    0.14 
   1   7  -3    4.94    0.25 
   1   7  -3    5.13    0.39 
   1   7  -3    4.94    0.43 
   1   7  -3    5.41    0.40 
   0   7  -3    6.20    0.49 
   0   7  -3    6.12    0.44 
   0   7  -3    5.85    0.46 
  -1   7  -3    3.36    0.39 
  -1   7  -3    3.19    0.28 
  -1   7  -3    3.22    0.30 
  -1   7  -3    3.69    0.33 
  -2   7  -3    0.13    0.13 
  -2   7  -3   -0.02    0.18 
  -2   7  -3    0.19    0.16 
  -3   7  -3    1.34    0.19 
  -3   7  -3    1.56    0.20 
  -3   7  -3    1.26    0.20 
  -4   7  -3    0.25    0.13 
  -4   7  -3    0.16    0.15 
  -5   7  -3   -0.12    0.10 
   7   6  -3    2.91    0.16 
   6   6  -3    1.28    0.14 
   6   6  -3    1.64    0.21 
   5   6  -3   25.14    1.02 
   5   6  -3   25.46    1.06 
   5   6  -3   25.24    1.39 
   5   6  -3   23.51    1.31 
   4   6  -3   -0.07    0.17 
   4   6  -3    0.00    0.17 
   4   6  -3   -0.02    0.11 
   4   6  -3   -0.02    0.10 
   4   6  -3   -0.05    0.19 
   3   6  -3    5.22    0.43 
   3   6  -3    4.57    0.35 
   3   6  -3    4.48    0.25 
   3   6  -3    4.94    0.39 
   3   6  -3    4.65    0.27 
   2   6  -3    2.33    0.22 
   2   6  -3    2.40    0.17 
   2   6  -3    1.88    0.27 
   2   6  -3    2.78    0.34 
   2   6  -3    2.21    0.20 
   2   6  -3    1.98    0.23 
   2   6  -3    2.41    0.31 
   1   6  -3    0.56    0.09 
   1   6  -3    0.49    0.19 
   1   6  -3    0.48    0.08 
   1   6  -3    0.61    0.18 
   1   6  -3    0.49    0.18 
   1   6  -3    0.48    0.21 
   1   6  -3    0.36    0.19 
   0   6  -3   16.93    0.74 
   0   6  -3   16.68    1.00 
   0   6  -3   16.77    1.00 
   0   6  -3   16.65    0.71 
   0   6  -3   19.12    1.03 
   0   6  -3   17.31    0.94 
  -1   6  -3    0.51    0.18 
  -1   6  -3    0.73    0.17 
  -1   6  -3    0.58    0.08 
  -1   6  -3    0.88    0.21 
  -1   6  -3    0.68    0.21 
  -1   6  -3    0.49    0.24 
  -1   6  -3    0.57    0.11 
  -2   6  -3    0.42    0.19 
  -2   6  -3    0.56    0.08 
  -2   6  -3    0.56    0.11 
  -2   6  -3    0.47    0.18 
  -2   6  -3    0.66    0.20 
  -2   6  -3    0.50    0.25 
  -3   6  -3    0.67    0.19 
  -3   6  -3    0.98    0.10 
  -3   6  -3    0.93    0.12 
  -3   6  -3    0.87    0.18 
  -3   6  -3    1.13    0.19 
  -4   6  -3   -0.02    0.11 
  -4   6  -3    0.09    0.15 
  -4   6  -3    0.04    0.15 
  -4   6  -3    0.10    0.07 
  -5   6  -3    0.70    0.14 
  -5   6  -3    1.00    0.08 
  -5   6  -3    1.03    0.12 
  -5   6  -3    1.04    0.15 
  -6   6  -3    0.77    0.12 
  -6   6  -3    0.87    0.09 
   7   5  -3    0.26    0.08 
   7   5  -3    0.32    0.09 
   7   5  -3    0.15    0.10 
   6   5  -3    8.43    0.55 
   6   5  -3    9.72    0.45 
   6   5  -3    9.74    0.59 
   6   5  -3    9.86    0.44 
   6   5  -3   10.01    0.50 
   5   5  -3    0.17    0.19 
   5   5  -3    0.11    0.16 
   5   5  -3    0.18    0.11 
   5   5  -3    0.31    0.12 
   5   5  -3    0.53    0.12 
   4   5  -3   10.53    0.64 
   4   5  -3   10.16    0.45 
   4   5  -3    9.68    0.60 
   4   5  -3   10.05    0.62 
   4   5  -3   10.37    0.48 
   4   5  -3   10.00    0.53 
   4   5  -3    9.23    0.65 
   3   5  -3    1.62    0.20 
   3   5  -3    1.77    0.18 
   3   5  -3    1.42    0.20 
   3   5  -3    1.74    0.17 
   3   5  -3    1.30    0.20 
   3   5  -3    1.34    0.12 
   3   5  -3    1.86    0.18 
   3   5  -3    1.50    0.24 
   3   5  -3    2.12    0.20 
   2   5  -3   22.12    0.92 
   2   5  -3   21.53    1.04 
   2   5  -3   23.26    1.26 
   2   5  -3   19.97    1.21 
   2   5  -3   21.74    1.24 
   2   5  -3   21.84    0.90 
   2   5  -3   22.47    1.18 
   2   5  -3   21.60    1.17 
   2   5  -3   22.69    1.10 
   2   5  -3   20.86    1.04 
   1   5  -3   39.11    2.03 
   1   5  -3   35.43    1.98 
   1   5  -3   35.56    1.45 
   1   5  -3   36.40    1.86 
   1   5  -3   35.78    2.00 
   1   5  -3   36.44    1.88 
   1   5  -3   34.75    1.94 
   1   5  -3   34.85    1.50 
   0   5  -3    2.05    0.25 
   0   5  -3    2.64    0.30 
   0   5  -3    2.05    0.20 
   0   5  -3    2.28    0.27 
   0   5  -3    2.26    0.30 
   0   5  -3    2.48    0.25 
   0   5  -3    2.18    0.17 
   0   5  -3    2.11    0.16 
  -1   5  -3   27.25    1.13 
  -1   5  -3   27.21    1.54 
  -1   5  -3   26.81    1.48 
  -1   5  -3   25.27    1.28 
  -1   5  -3   26.36    1.09 
  -1   5  -3   27.22    1.49 
  -1   5  -3   28.01    1.41 
  -2   5  -3    5.28    0.43 
  -2   5  -3    5.43    0.39 
  -2   5  -3    5.03    0.29 
  -2   5  -3    5.38    0.40 
  -2   5  -3    5.02    0.27 
  -2   5  -3    4.96    0.47 
  -2   5  -3    5.73    0.40 
  -3   5  -3    2.38    0.34 
  -3   5  -3    2.75    0.20 
  -3   5  -3    2.72    0.23 
  -3   5  -3    2.81    0.30 
  -3   5  -3    2.73    0.34 
  -3   5  -3    2.59    0.23 
  -4   5  -3    0.88    0.14 
  -4   5  -3    0.95    0.15 
  -4   5  -3    0.93    0.18 
  -4   5  -3    0.89    0.13 
  -4   5  -3    0.93    0.11 
  -5   5  -3    0.61    0.13 
  -5   5  -3    0.36    0.11 
  -5   5  -3    0.50    0.15 
  -5   5  -3    0.50    0.17 
  -6   5  -3    6.36    0.30 
  -6   5  -3    5.53    0.34 
  -6   5  -3    6.14    0.36 
  -6   5  -3    6.19    0.33 
  -7   5  -3    1.21    0.13 
   8   4  -3    0.06    0.07 
   8   4  -3    0.03    0.08 
   7   4  -3    5.92    0.43 
   7   4  -3    6.90    0.38 
   6   4  -3    1.34    0.14 
   6   4  -3    0.63    0.19 
   6   4  -3    1.03    0.13 
   5   4  -3   31.70    1.40 
   5   4  -3   29.05    1.20 
   5   4  -3   27.74    1.54 
   5   4  -3   27.62    1.24 
   5   4  -3   31.17    1.41 
   5   4  -3   27.83    1.55 
   4   4  -3    3.08    0.26 
   4   4  -3    2.47    0.28 
   4   4  -3    2.69    0.20 
   4   4  -3    2.74    0.19 
   4   4  -3    2.41    0.29 
   4   4  -3    2.74    0.35 
   4   4  -3    2.81    0.30 
   4   4  -3    2.75    0.21 
   3   4  -3    6.30    0.33 
   3   4  -3    6.28    0.36 
   3   4  -3    5.64    0.41 
   3   4  -3    6.56    0.31 
   3   4  -3    6.52    0.47 
   3   4  -3    6.93    0.41 
   3   4  -3    7.01    0.44 
   3   4  -3    6.01    0.45 
   3   4  -3    6.43    0.32 
   3   4  -3    6.56    0.42 
   2   4  -3   13.75    0.76 
   2   4  -3   13.35    0.70 
   2   4  -3   13.20    0.68 
   2   4  -3   12.69    0.79 
   1   4  -3   23.46    1.39 
   1   4  -3   25.16    1.30 
   1   4  -3   25.38    1.23 
   1   4  -3   25.06    1.17 
   0   4  -3   47.01    2.50 
   0   4  -3   44.81    2.32 
   0   4  -3   45.19    2.11 
   0   4  -3   46.88    2.24 
  -1   4  -3   -0.02    0.10 
  -1   4  -3   -0.07    0.17 
  -1   4  -3   -0.02    0.10 
  -2   4  -3   28.39    1.56 
  -2   4  -3   31.25    1.32 
  -2   4  -3   30.45    1.27 
  -2   4  -3   31.85    1.50 
  -2   4  -3   33.52    1.76 
  -2   4  -3   35.29    1.64 
  -2   4  -3   33.32    1.47 
  -2   4  -3   30.21    1.48 
  -2   4  -3   29.99    1.70 
  -2   4  -3   30.78    1.72 
  -3   4  -3    7.34    0.42 
  -3   4  -3    6.82    0.32 
  -3   4  -3    6.43    0.37 
  -3   4  -3    6.69    0.41 
  -3   4  -3    6.69    0.46 
  -3   4  -3    6.95    0.43 
  -3   4  -3    5.83    0.39 
  -3   4  -3    6.82    0.43 
  -3   4  -3    6.98    0.52 
  -3   4  -3    6.56    0.35 
  -4   4  -3    5.31    0.39 
  -4   4  -3    4.53    0.38 
  -4   4  -3    5.02    0.45 
  -4   4  -3    5.78    0.40 
  -4   4  -3    5.60    0.40 
  -4   4  -3    5.48    0.29 
  -4   4  -3    5.32    0.34 
  -4   4  -3    5.63    0.33 
  -4   4  -3    4.79    0.37 
  -5   4  -3    4.88    0.31 
  -5   4  -3    4.61    0.35 
  -5   4  -3    4.84    0.28 
  -5   4  -3    4.28    0.33 
  -5   4  -3    4.82    0.33 
  -6   4  -3   15.97    0.84 
  -6   4  -3   15.78    0.68 
  -6   4  -3   15.97    0.71 
  -6   4  -3   14.05    0.79 
  -6   4  -3   16.37    0.77 
  -7   4  -3    8.07    0.37 
  -7   4  -3    7.68    0.46 
  -7   4  -3    7.92    0.39 
   8   3  -3    4.48    0.32 
   8   3  -3    4.32    0.23 
   8   3  -3    4.69    0.29 
   7   3  -3    1.14    0.16 
   6   3  -3   41.96    1.99 
   6   3  -3   40.98    1.98 
   5   3  -3    0.93    0.22 
   5   3  -3    1.17    0.23 
   5   3  -3    1.15    0.13 
   5   3  -3    0.97    0.13 
   5   3  -3    1.02    0.12 
   5   3  -3    1.02    0.20 
   4   3  -3   12.09    0.66 
   4   3  -3   12.92    0.66 
   4   3  -3   10.44    0.64 
   4   3  -3   10.95    0.52 
   4   3  -3   13.14    0.69 
   4   3  -3   11.17    0.59 
   4   3  -3   11.34    0.58 
   4   3  -3   11.14    0.50 
   3   3  -3    2.90    0.30 
   3   3  -3    3.06    0.25 
   3   3  -3    2.97    0.29 
   2   3  -3    1.05    0.17 
   2   3  -3    1.14    0.15 
   2   3  -3    1.25    0.16 
   2   3  -3    1.15    0.17 
   1   3  -3   12.21    0.71 
   1   3  -3   10.97    0.67 
   1   3  -3   11.95    0.60 
   1   3  -3   12.35    0.66 
   1   3  -3   12.14    0.63 
   0   3  -3    0.01    0.16 
   0   3  -3    0.04    0.12 
   0   3  -3    0.02    0.12 
   0   3  -3   -0.04    0.11 
   0   3  -3   -0.07    0.08 
   0   3  -3   -0.03    0.10 
   0   3  -3   -0.03    0.10 
   0   3  -3   -0.08    0.09 
   0  -3   3    0.08    0.12 
  -1   3  -3  180.42   10.33 
  -1   3  -3  212.45    9.92 
  -1   3  -3  209.89    9.29 
  -1   3  -3  213.89   10.77 
  -2   3  -3    1.14    0.20 
  -2   3  -3    1.41    0.16 
  -2   3  -3    1.37    0.16 
  -2   3  -3    1.23    0.17 
  -3   3  -3   35.98    1.61 
  -3   3  -3   32.76    1.80 
  -3   3  -3   32.71    1.61 
  -3   3  -3   34.59    1.87 
  -4   3  -3   27.59    1.46 
  -4   3  -3   26.17    1.12 
  -4   3  -3   26.62    1.27 
  -4   3  -3   26.59    1.50 
  -4   3  -3   26.22    1.27 
  -4   3  -3   25.89    1.27 
  -4   3  -3   26.10    1.09 
  -5   3  -3    0.26    0.23 
  -5   3  -3    0.22    0.15 
  -5   3  -3    0.39    0.09 
  -5   3  -3    0.32    0.15 
  -5   3  -3    0.29    0.11 
  -5   3  -3    0.14    0.21 
  -5   3  -3    0.28    0.15 
  -5   3  -3    0.34    0.13 
  -5   3  -3    0.08    0.18 
  -6   3  -3    6.91    0.44 
  -6   3  -3    7.70    0.41 
  -6   3  -3    7.61    0.39 
  -6   3  -3    8.36    0.51 
  -6   3  -3    7.96    0.46 
  -7   3  -3    0.09    0.13 
  -7   3  -3   -0.11    0.11 
  -7   3  -3    0.00    0.15 
  -7   3  -3   -0.05    0.13 
  -8   3  -3    3.71    0.20 
  -8   3  -3    3.60    0.24 
   7   2  -3   11.62    0.61 
   6   2  -3    0.00    0.16 
   6   2  -3    0.18    0.13 
   5   2  -3    8.34    0.48 
   5   2  -3    9.22    0.56 
   5   2  -3    9.26    0.57 
   5   2  -3    8.62    0.56 
   4   2  -3   43.85    2.21 
   4   2  -3   45.01    2.10 
   4   2  -3   44.31    2.25 
   3   2  -3   26.63    1.35 
   3   2  -3   27.22    1.28 
   3   2  -3   26.06    1.37 
   2   2  -3    0.31    0.15 
   2   2  -3    0.25    0.13 
   2   2  -3    0.40    0.13 
   2   2  -3    0.40    0.13 
   2   2  -3    0.50    0.14 
  -2  -2   3    0.29    0.15 
  -2  -2   3    0.38    0.16 
   1   2  -3   38.49    1.80 
   1   2  -3   32.93    1.70 
   1   2  -3   33.03    1.80 
   1   2  -3   37.77    1.91 
   1   2  -3   38.41    1.70 
   1   2  -3   37.08    1.84 
   1   2  -3   37.91    1.91 
  -1  -2   3   38.10    1.91 
  -1  -2   3   37.03    1.91 
   0   2  -3   61.60    3.11 
   0   2  -3   55.84    2.79 
   0   2  -3   62.67    2.96 
   0   2  -3   62.26    3.24 
   0   2  -3   61.78    3.02 
   0  -2   3   61.55    3.12 
   0  -2   3   61.07    3.12 
  -1   2  -3   39.35    1.99 
  -1   2  -3   38.17    1.98 
  -1   2  -3   39.26    1.78 
  -1   2  -3   40.06    2.07 
  -1   2  -3   41.09    1.88 
  -1   2  -3   36.18    1.96 
  -1   2  -3   35.14    1.77 
  -1   2  -3   35.04    1.88 
   1  -2   3   40.74    1.99 
   1  -2   3   38.87    1.99 
  -2   2  -3   13.27    0.68 
  -2   2  -3   12.53    0.74 
  -2   2  -3   13.83    0.66 
  -2   2  -3   11.76    0.73 
  -2   2  -3   12.95    0.75 
  -3   2  -3   49.43    2.66 
  -3   2  -3   48.74    2.30 
  -3   2  -3   49.95    2.44 
  -4   2  -3    8.41    0.52 
  -4   2  -3    8.41    0.55 
  -4   2  -3    9.01    0.57 
  -4   2  -3    8.76    0.53 
  -4   2  -3    7.64    0.44 
  -5   2  -3   15.73    0.88 
  -5   2  -3   15.42    0.73 
  -5   2  -3   14.95    0.81 
  -5   2  -3   14.65    0.83 
  -5   2  -3   14.07    0.63 
  -5   2  -3   14.72    0.75 
  -5   2  -3   13.76    0.74 
  -5   2  -3   14.36    0.88 
  -6   2  -3    0.93    0.19 
  -6   2  -3    0.42    0.19 
  -6   2  -3    0.74    0.12 
  -6   2  -3    0.81    0.12 
  -7   2  -3    4.41    0.35 
  -7   2  -3    4.00    0.32 
  -7   2  -3    3.90    0.24 
  -8   2  -3    0.64    0.13 
  -8   2  -3    0.31    0.12 
   8   1  -3    4.39    0.28 
  -8  -1   3    3.80    0.28 
  -7  -1   3    1.03    0.14 
   5   1  -3    0.66    0.14 
  -5  -1   3    0.69    0.15 
   4   1  -3   53.71    2.45 
   4   1  -3   52.63    2.61 
   4   1  -3   50.59    2.58 
  -4  -1   3   51.63    2.68 
   3   1  -3   24.20    1.22 
   3   1  -3   23.33    1.32 
   3   1  -3   24.90    1.22 
   3   1  -3   24.41    1.33 
   3   1  -3   25.87    1.16 
  -3  -1   3   23.23    1.25 
  -3  -1   3   24.25    1.16 
  -3  -1   3   23.21    1.21 
  -3  -1   3   22.80    1.32 
  -3  -1   3   23.36    1.32 
   2   1  -3    1.47    0.16 
   2   1  -3    1.34    0.19 
   2   1  -3    1.21    0.13 
   2   1  -3    1.26    0.13 
   2   1  -3    1.29    0.20 
  -2  -1   3    0.92    0.13 
  -2  -1   3    1.26    0.20 
  -2  -1   3    1.09    0.13 
  -2  -1   3    0.94    0.15 
  -2  -1   3    1.16    0.20 
   1   1  -3   70.88    3.86 
   1   1  -3   77.12    3.46 
   1   1  -3   74.57    3.74 
   1   1  -3   77.48    3.68 
   1   1  -3   80.10    3.86 
  -1  -1   3   78.81    3.86 
  -1  -1   3   73.86    3.68 
  -1  -1   3   78.44    3.86 
  -1  -1   3   71.70    3.46 
   0   1  -3    4.67    0.29 
   0   1  -3    5.36    0.33 
   0   1  -3    4.72    0.29 
   0   1  -3    4.65    0.32 
   0   1  -3    5.00    0.28 
   0  -1   3    4.57    0.29 
   0  -1   3    5.24    0.33 
   0  -1   3    4.21    0.29 
   0  -1   3    5.00    0.33 
  -1   1  -3   12.52    0.65 
  -1   1  -3   13.11    0.71 
  -1   1  -3   12.84    0.62 
  -1   1  -3   12.53    0.71 
  -1   1  -3   14.46    0.71 
   1  -1   3   12.90    0.71 
   1  -1   3   12.82    0.71 
   1  -1   3   11.30    0.65 
   1  -1   3   11.50    0.62 
  -2   1  -3   40.96    1.94 
  -2   1  -3   41.46    2.12 
  -2   1  -3   39.53    2.06 
  -2   1  -3   41.42    1.83 
  -2   1  -3   38.71    2.05 
   2  -1   3   40.71    2.06 
   2  -1   3   36.78    1.83 
   2  -1   3   39.70    2.05 
   2  -1   3   35.90    1.93 
  -3   1  -3    7.17    0.43 
  -3   1  -3    6.08    0.48 
  -3   1  -3    7.19    0.45 
  -3   1  -3    7.29    0.41 
   3  -1   3    6.62    0.47 
  -4   1  -3    6.26    0.43 
  -4   1  -3    6.79    0.43 
  -4   1  -3    6.31    0.42 
  -5   1  -3   17.67    0.92 
  -5   1  -3   17.47    0.95 
  -5   1  -3   16.66    0.86 
  -6   1  -3   16.39    0.98 
  -6   1  -3   16.10    0.82 
  -7   1  -3    0.19    0.12 
  -8   1  -3    0.62    0.14 
  -8   1  -3    0.85    0.14 
  -8   1  -3    0.68    0.09 
  -8   0   3    0.83    0.12 
  -7   0   3    6.23    0.38 
  -6   0   3    0.22    0.17 
  -6   0   3    0.19    0.13 
   5   0  -3   40.93    2.03 
  -5   0   3   43.21    2.12 
  -5   0   3   36.59    1.92 
   4   0  -3   52.74    2.59 
  -4   0   3   49.26    2.56 
  -4   0   3   51.16    2.43 
  -4   0   3   53.91    2.68 
   3   0  -3   14.76    0.81 
   3   0  -3   15.78    0.78 
   3   0  -3   15.85    0.89 
   3   0  -3   15.53    0.90 
  -3   0   3   16.53    0.79 
  -3   0   3   15.45    0.80 
  -3   0   3   16.16    0.83 
  -3   0   3   14.67    0.89 
  -3   0   3   14.84    0.89 
   2   0  -3    0.47    0.12 
   2   0  -3    0.47    0.14 
   2   0  -3    0.40    0.08 
   2   0  -3    0.47    0.17 
   2   0  -3    0.45    0.11 
  -2   0   3    0.40    0.10 
  -2   0   3    0.38    0.09 
  -2   0   3    0.27    0.12 
  -2   0   3    0.28    0.12 
  -2   0   3    0.36    0.16 
   1   0  -3   49.03    2.66 
   1   0  -3   57.58    2.76 
   1   0  -3   53.04    2.47 
   1   0  -3   52.78    2.62 
   1   0  -3   59.01    2.76 
  -1   0   3   53.59    2.76 
  -1   0   3   54.30    2.62 
  -1   0   3   54.61    2.47 
  -1   0   3   55.73    2.76 
  -1   0   3   50.72    2.75 
   0   0  -3  268.72   12.79 
   0   0  -3  263.63   13.58 
   0   0  -3  298.85   14.19 
   0   0  -3  288.56   14.19 
   0   0   3  270.64   13.57 
   0   0   3  296.21   14.17 
   0   0   3  288.19   14.16 
   0   0   3  279.67   14.25 
   0   0   3  272.59   12.75 
  -1   0  -3   -0.01    0.11 
  -1   0  -3    0.05    0.10 
  -1   0  -3   -0.10    0.11 
  -1   0  -3    0.00    0.09 
  -1   0  -3    0.10    0.08 
   1   0   3    0.09    0.09 
   1   0   3    0.08    0.11 
   1   0   3    0.08    0.09 
   1   0   3    0.00    0.09 
   1   0   3   -0.01    0.11 
  -2   0  -3   48.47    2.36 
  -2   0  -3   44.25    2.41 
  -2   0  -3   46.46    2.23 
  -2   0  -3   45.50    2.35 
  -2   0  -3   46.42    2.10 
   2   0   3   45.83    2.35 
   2   0   3   45.54    2.10 
   2   0   3   42.09    2.12 
   2   0   3   44.02    2.22 
   2   0   3   46.84    2.35 
  -3   0  -3   86.19    4.00 
  -3   0  -3   84.65    3.77 
  -3   0  -3   81.29    4.22 
  -3   0  -3   84.00    4.34 
  -3   0  -3   80.69    4.22 
   3   0   3   80.24    3.81 
   3   0   3   82.15    4.22 
   3   0   3   78.66    3.77 
   3   0   3   80.62    4.22 
   3   0   3   82.91    4.00 
  -4   0  -3    8.84    0.52 
  -4   0  -3    8.47    0.52 
  -6   0  -3    0.34    0.12 
  -7   0  -3    0.49    0.14 
  -8   0  -3    4.25    0.28 
  -8   1   3    3.16    0.20 
  -7   1   3    0.50    0.14 
  -6   1   3    9.50    0.55 
  -6   1   3    9.93    0.52 
  -6   1   3    9.54    0.65 
  -6   1   3   10.22    0.54 
  -5   1   3    1.37    0.22 
  -5   1   3    0.82    0.18 
  -5   1   3    1.02    0.22 
  -5   1   3    1.20    0.12 
  -5   1   3    1.06    0.10 
  -4   1   3   46.61    2.28 
  -4   1   3   44.73    2.16 
  -4   1   3   46.37    2.39 
   3  -1  -3   57.58    2.99 
  -3   1   3   61.86    2.66 
  -3   1   3   62.38    2.82 
  -3   1   3   50.94    2.97 
  -3   1   3   57.87    2.95 
  -3   1   3   54.15    2.98 
   2  -1  -3    9.51    0.54 
   2  -1  -3   11.15    0.62 
   2  -1  -3    9.60    0.56 
   2  -1  -3   11.28    0.62 
  -2   1   3   10.27    0.60 
  -2   1   3   10.04    0.61 
  -2   1   3   10.97    0.54 
  -2   1   3   11.30    0.56 
  -2   1   3   10.51    0.59 
   1  -1  -3   14.68    0.81 
   1  -1  -3   18.55    0.91 
   1  -1  -3   18.29    0.91 
  -1   1   3   16.22    0.91 
  -1   1   3   17.34    0.81 
  -1   1   3   17.69    0.85 
  -1   1   3   17.02    0.91 
  -1   1   3   16.90    0.90 
   0  -1  -3   12.86    0.65 
   0  -1  -3   12.69    0.64 
   0   1   3   12.94    0.65 
   0   1   3   11.13    0.58 
   0   1   3   11.74    0.64 
   0   1   3   12.18    0.58 
   0   1   3   11.76    0.58 
   0   1   3   12.02    0.61 
   0   1   3   10.59    0.60 
   0   1   3   12.12    0.65 
  -1  -1  -3   11.29    0.58 
  -1  -1  -3    9.91    0.54 
  -1  -1  -3    9.73    0.51 
  -1  -1  -3   11.07    0.59 
   1   1   3   10.06    0.51 
   1   1   3   10.79    0.54 
   1   1   3   10.67    0.58 
   1   1   3   10.11    0.52 
   1   1   3    9.47    0.51 
   1   1   3   10.70    0.58 
  -2  -1  -3  998.07   48.31 
  -2  -1  -3 1000.00   48.30 
  -2  -1  -3  897.55   43.54 
  -2  -1  -3  894.57   46.27 
   2   1   3  985.43   48.28 
   2   1   3  963.77   43.56 
   2   1   3  955.13   44.44 
   2   1   3  967.65   48.28 
   2   1   3  970.35   46.30 
  -3  -1  -3   12.31    0.65 
  -3  -1  -3   12.19    0.74 
  -3  -1  -3   11.99    0.75 
  -3  -1  -3   11.88    0.67 
   3   1   3   12.38    0.74 
   3   1   3   12.90    0.63 
   3   1   3   12.21    0.75 
   3   1   3   13.20    0.68 
   3   1   3   13.51    0.65 
   4   1   3   57.42    2.69 
   4   1   3   57.94    2.84 
   6   1   3    3.31    0.27 
  -7  -1  -3   -0.07    0.13 
   7   1   3   -0.28    0.15 
  -8  -1  -3    4.25    0.29 
  -9  -1  -3    0.07    0.06 
   9   1   3    0.02    0.09 
  -8   2   3    0.24    0.13 
  -8   2   3   -0.09    0.10 
  -7   2   3    2.56    0.23 
  -7   2   3    2.10    0.24 
  -7   2   3    1.99    0.21 
  -7   2   3    2.62    0.18 
  -6   2   3    0.31    0.22 
  -6   2   3    0.24    0.13 
  -6   2   3    0.33    0.15 
  -6   2   3    0.25    0.12 
  -5   2   3   12.94    0.73 
  -5   2   3   13.12    0.79 
  -5   2   3   13.24    0.68 
  -5   2   3   12.66    0.59 
  -5   2   3   12.60    0.56 
  -5   2   3   13.19    0.66 
  -5   2   3   12.69    0.72 
  -5   2   3   12.99    0.65 
  -4   2   3    6.36    0.46 
  -4   2   3    6.82    0.42 
  -4   2   3    6.60    0.42 
  -3   2   3  103.24    5.00 
  -3   2   3  101.68    5.26 
  -3   2   3  104.20    4.71 
   2  -2  -3   33.37    1.67 
   2  -2  -3   32.74    1.67 
  -2   2   3   29.44    1.56 
  -2   2   3   30.19    1.66 
  -2   2   3   31.34    1.66 
  -2   2   3   34.06    1.57 
  -2   2   3   29.82    1.48 
  -2   2   3   32.77    1.66 
  -2   2   3   34.78    1.48 
  -2   2   3   30.49    1.49 
   1  -2  -3   14.79    0.75 
   1  -2  -3   14.56    0.75 
  -1   2   3   12.85    0.68 
  -1   2   3   14.94    0.79 
  -1   2   3   14.06    0.76 
  -1   2   3   14.65    0.67 
  -1   2   3   13.12    0.70 
  -1   2   3   13.66    0.75 
   0  -2  -3   15.35    0.78 
   0   2   3   14.80    0.70 
   0   2   3   15.30    0.80 
   0   2   3   14.26    0.74 
   0   2   3   15.64    0.82 
   0   2   3   15.48    0.74 
   0   2   3   15.65    0.78 
   0   2   3   14.15    0.76 
   0   2   3   14.56    0.73 
   0   2   3   15.18    0.78 
  -1  -2  -3  102.38    4.86 
  -1  -2  -3  100.81    4.86 
   1   2   3   95.78    4.66 
   1   2   3   98.76    4.86 
   1   2   3   95.10    4.47 
   1   2   3   90.81    4.37 
   1   2   3  101.62    4.39 
   1   2   3   92.77    4.73 
   1   2   3   86.18    4.64 
   1   2   3   97.12    4.85 
  -2  -2  -3    2.60    0.25 
  -2  -2  -3    2.75    0.25 
   2   2   3    2.38    0.19 
   2   2   3    2.57    0.23 
   2   2   3    2.96    0.25 
   2   2   3    2.76    0.23 
   2   2   3    2.70    0.23 
   2   2   3    2.49    0.21 
   2   2   3    2.41    0.24 
  -3  -2  -3   14.21    0.87 
   3   2   3   14.39    0.86 
   3   2   3   15.70    0.76 
   3   2   3   15.37    0.76 
   3   2   3   15.40    0.79 
   4   2   3   50.29    2.53 
   4   2   3   51.70    2.42 
   4   2   3   51.42    2.39 
   5   2   3   26.94    1.40 
   5   2   3   27.72    1.34 
   5   2   3   25.93    1.30 
   6   2   3    1.10    0.25 
   6   2   3    1.04    0.16 
   7   2   3    5.93    0.37 
  -8   3   3    6.07    0.36 
  -8   3   3    6.13    0.30 
  -7   3   3    0.01    0.12 
  -7   3   3    0.03    0.11 
  -6   3   3    3.14    0.39 
  -6   3   3    2.70    0.24 
  -6   3   3    2.38    0.29 
  -6   3   3    2.73    0.32 
  -6   3   3    2.41    0.26 
  -5   3   3    0.07    0.16 
  -5   3   3    0.19    0.12 
  -5   3   3    0.14    0.22 
  -5   3   3   -0.08    0.07 
  -5   3   3   -0.16    0.19 
  -5   3   3    0.11    0.13 
  -5   3   3    0.02    0.12 
  -5   3   3   -0.04    0.16 
  -5   3   3   -0.21    0.21 
  -4   3   3   34.80    1.77 
  -4   3   3   37.60    1.89 
  -4   3   3   36.28    1.89 
  -4   3   3   32.00    1.67 
  -4   3   3   37.67    1.69 
  -4   3   3   35.51    1.49 
  -4   3   3   35.55    1.44 
  -4   3   3   35.42    1.75 
  -4   3   3   35.48    1.68 
  -4   3   3   34.04    1.68 
  -3   3   3   37.52    1.73 
  -3   3   3   37.20    1.82 
  -3   3   3   36.12    1.94 
   2  -3  -3    1.19    0.16 
  -2   3   3    1.22    0.16 
  -2   3   3    1.22    0.14 
  -2   3   3    1.32    0.14 
  -2   3   3    1.17    0.14 
  -2   3   3    1.48    0.19 
  -2   3   3    1.37    0.13 
  -2   3   3    1.34    0.18 
  -2   3   3    1.19    0.14 
  -1   3   3   47.44    2.49 
  -1   3   3   44.34    2.18 
  -1   3   3   48.50    2.41 
  -1   3   3   46.09    2.31 
   0   3   3    0.25    0.14 
   0   3   3    0.14    0.10 
   0   3   3    0.18    0.10 
   0   3   3    0.38    0.14 
  -1  -3  -3   45.14    2.33 
   1   3   3   44.21    2.43 
   1   3   3   47.37    2.09 
   1   3   3   44.63    2.22 
   1   3   3   48.63    2.22 
   1   3   3   48.70    2.09 
   1   3   3   46.48    2.29 
   1   3   3   45.64    2.33 
   1   3   3   45.24    2.16 
   1   3   3   42.66    2.33 
  -2  -3  -3   13.87    0.82 
   2   3   3   13.70    0.75 
   2   3   3   14.14    0.81 
   2   3   3   15.71    0.76 
   2   3   3   14.63    0.72 
   2   3   3   15.09    0.76 
   2   3   3   16.29    0.73 
   2   3   3   14.73    0.82 
   2   3   3   15.99    0.80 
   3   3   3    1.78    0.22 
   3   3   3    1.47    0.20 
   3   3   3    1.68    0.20 
   3   3   3    1.65    0.21 
   4   3   3   18.79    0.92 
   4   3   3   16.62    0.88 
   4   3   3   18.93    0.96 
   4   3   3   18.48    0.99 
   4   3   3   18.38    0.92 
   5   3   3    0.74    0.11 
   5   3   3    0.50    0.12 
   5   3   3    0.74    0.15 
   5   3   3    0.67    0.22 
   5   3   3    0.40    0.19 
   5   3   3    0.45    0.22 
   6   3   3    9.66    0.57 
   6   3   3   10.77    0.54 
   6   3   3   10.05    0.64 
   7   3   3    0.90    0.18 
   8   3   3    2.12    0.25 
  -7   4   3    2.73    0.20 
  -7   4   3    2.62    0.25 
  -6   4   3    2.41    0.27 
  -6   4   3    1.65    0.16 
  -6   4   3    2.00    0.20 
  -5   4   3    1.92    0.33 
  -5   4   3    2.10    0.24 
  -5   4   3    1.52    0.15 
  -5   4   3    2.27    0.20 
  -5   4   3    2.58    0.28 
  -4   4   3   12.67    0.67 
  -4   4   3   13.53    0.58 
  -4   4   3   13.25    0.75 
  -4   4   3   13.32    0.72 
  -4   4   3   12.68    0.81 
  -4   4   3   12.28    0.66 
  -4   4   3   13.29    0.56 
  -4   4   3   12.21    0.81 
  -3   4   3    0.07    0.19 
  -3   4   3    0.05    0.16 
  -3   4   3   -0.04    0.14 
  -3   4   3    0.13    0.11 
  -3   4   3   -0.09    0.09 
  -3   4   3    0.00    0.11 
  -3   4   3   -0.18    0.08 
  -3   4   3   -0.04    0.14 
  -3   4   3    0.06    0.17 
  -2   4   3   23.16    1.26 
  -2   4   3   23.25    1.30 
  -1   4   3    0.70    0.13 
  -1   4   3    0.63    0.12 
  -1   4   3    0.67    0.15 
  -1   4   3    0.65    0.16 
   0   4   3   37.94    1.96 
   0   4   3   37.47    2.02 
   0   4   3   38.71    1.79 
   0   4   3   36.59    1.89 
   1   4   3    1.59    0.20 
   1   4   3    1.63    0.21 
   1   4   3    1.33    0.15 
   2   4   3   41.29    1.80 
   2   4   3   38.20    1.80 
   2   4   3   39.86    1.98 
   2   4   3   33.60    1.90 
   2   4   3   41.30    1.90 
   2   4   3   40.37    1.87 
   3   4   3   25.72    1.28 
   3   4   3   26.33    1.30 
   3   4   3   25.35    1.23 
   3   4   3   25.99    1.36 
   4   4   3    0.15    0.10 
   4   4   3    0.19    0.10 
   4   4   3    0.08    0.15 
   4   4   3    0.17    0.16 
   4   4   3   -0.04    0.15 
   4   4   3    0.16    0.16 
   4   4   3   -0.02    0.17 
   4   4   3    0.10    0.17 
   4   4   3    0.20    0.12 
   4   4   3   -0.08    0.16 
   5   4   3   18.76    0.85 
   5   4   3   19.92    0.82 
   5   4   3   19.76    1.09 
   5   4   3   18.92    1.05 
   5   4   3   19.84    0.97 
   5   4   3   21.19    1.07 
   5   4   3   18.87    1.01 
   6   4   3    0.60    0.15 
   6   4   3    0.63    0.12 
   7   4   3    2.83    0.31 
   8   4   3    4.97    0.32 
  -7   5   3   -0.03    0.13 
  -6   5   3    1.06    0.11 
  -6   5   3    0.98    0.13 
  -6   5   3    1.20    0.20 
  -5   5   3    0.92    0.12 
  -5   5   3    0.92    0.17 
  -5   5   3    0.87    0.10 
  -5   5   3    1.04    0.14 
  -5   5   3    1.23    0.17 
  -4   5   3    6.73    0.48 
  -4   5   3    7.32    0.43 
  -4   5   3    6.71    0.32 
  -4   5   3    6.20    0.55 
  -4   5   3    7.31    0.45 
  -4   5   3    6.14    0.35 
  -3   5   3   23.62    1.15 
  -3   5   3   20.55    0.83 
  -3   5   3   20.42    0.99 
  -3   5   3   19.47    1.17 
  -3   5   3   20.53    0.87 
  -3   5   3   17.46    1.20 
  -3   5   3   20.73    1.05 
  -3   5   3   20.05    1.20 
  -3   5   3   20.78    1.14 
  -2   5   3    0.54    0.13 
  -2   5   3    0.30    0.15 
  -2   5   3    0.59    0.11 
  -2   5   3    0.58    0.06 
  -2   5   3    0.51    0.16 
  -2   5   3    0.72    0.21 
  -2   5   3    0.55    0.05 
  -2   5   3    0.53    0.16 
  -2   5   3    0.46    0.19 
  -2   5   3    0.56    0.18 
  -1   5   3   21.29    1.16 
  -1   5   3   20.89    1.13 
  -1   5   3   20.57    1.12 
  -1   5   3   20.22    0.98 
  -1   5   3   20.04    1.14 
  -1   5   3   19.84    1.04 
   0   5   3    1.18    0.18 
   0   5   3    0.99    0.18 
   0   5   3    1.05    0.18 
   0   5   3    1.20    0.18 
   1   5   3   17.21    0.86 
   1   5   3   16.07    0.91 
   2   5   3    3.45    0.18 
   2   5   3    3.79    0.32 
   2   5   3    2.80    0.28 
   2   5   3    3.75    0.35 
   2   5   3    3.09    0.35 
   2   5   3    3.18    0.32 
   2   5   3    3.19    0.17 
   2   5   3    3.31    0.34 
   3   5   3    4.91    0.38 
   3   5   3    4.84    0.24 
   3   5   3    5.46    0.26 
   3   5   3    4.38    0.30 
   3   5   3    4.59    0.36 
   3   5   3    5.21    0.40 
   3   5   3    4.26    0.26 
   3   5   3    5.97    0.42 
   3   5   3    4.74    0.29 
   3   5   3    4.70    0.41 
   4   5   3   10.17    0.63 
   4   5   3    9.56    0.56 
   4   5   3   10.08    0.44 
   4   5   3    8.94    0.65 
   4   5   3   10.01    0.50 
   4   5   3   10.15    0.59 
   4   5   3    9.14    0.54 
   4   5   3    9.97    0.63 
   4   5   3    9.94    0.46 
   5   5   3    0.28    0.20 
   5   5   3    0.27    0.11 
   5   5   3    0.15    0.21 
   5   5   3    0.27    0.13 
   5   5   3    0.39    0.18 
   6   5   3    4.22    0.26 
   6   5   3    4.23    0.39 
   7   5   3    0.40    0.16 
   8   5   3    1.96    0.19 
  -6   6   3   -0.07    0.10 
  -6   6   3    0.18    0.15 
  -5   6   3    0.69    0.11 
  -5   6   3    0.84    0.16 
  -5   6   3    0.81    0.17 
  -4   6   3    3.59    0.28 
  -4   6   3    3.01    0.21 
  -4   6   3    3.47    0.34 
  -4   6   3    3.26    0.33 
  -3   6   3    0.53    0.18 
  -3   6   3    0.04    0.18 
  -3   6   3    0.13    0.08 
  -3   6   3    0.42    0.19 
  -2   6   3  123.43    6.40 
  -2   6   3  120.87    6.28 
  -2   6   3  121.22    6.10 
  -2   6   3  116.77    5.54 
  -2   6   3  112.90    5.80 
  -1   6   3    1.61    0.17 
  -1   6   3    1.44    0.16 
  -1   6   3    1.37    0.18 
  -1   6   3    1.10    0.19 
  -1   6   3    1.43    0.24 
  -1   6   3    1.37    0.15 
  -1   6   3    0.96    0.22 
  -1   6   3    1.40    0.15 
  -1   6   3    1.48    0.16 
   0   6   3    6.25    0.48 
   0   6   3    6.50    0.48 
   0   6   3    5.98    0.40 
   0   6   3    6.84    0.44 
   0   6   3    5.74    0.43 
   0   6   3    6.21    0.47 
   0   6   3    6.32    0.42 
   0   6   3    6.47    0.41 
   0   6   3    6.18    0.37 
   1   6   3    0.12    0.12 
   1   6   3   -0.07    0.21 
   1   6   3    0.17    0.18 
   1   6   3    0.19    0.20 
   1   6   3    0.05    0.13 
   1   6   3    0.06    0.19 
   1   6   3   -0.03    0.17 
   1   6   3    0.25    0.20 
   2   6   3    0.61    0.05 
   2   6   3    0.76    0.20 
   2   6   3    0.91    0.18 
   2   6   3    0.84    0.17 
   2   6   3    0.64    0.07 
   2   6   3    0.93    0.25 
   2   6   3    0.70    0.14 
   3   6   3    1.67    0.14 
   3   6   3    1.56    0.20 
   3   6   3    1.59    0.21 
   3   6   3    1.62    0.26 
   3   6   3    1.10    0.17 
   3   6   3    1.89    0.21 
   3   6   3    1.73    0.16 
   4   6   3    0.69    0.24 
   4   6   3    0.88    0.18 
   4   6   3    0.74    0.09 
   4   6   3    0.79    0.21 
   4   6   3    0.81    0.17 
   4   6   3    0.76    0.10 
   5   6   3    0.22    0.09 
   5   6   3    0.38    0.20 
   5   6   3    0.32    0.11 
   6   6   3    0.71    0.16 
   7   6   3    1.42    0.18 
  -5   7   3    0.00    0.10 
  -5   7   3    0.00    0.12 
  -4   7   3    2.56    0.31 
  -4   7   3    3.15    0.29 
  -4   7   3    2.73    0.31 
  -3   7   3   13.19    0.68 
  -3   7   3   12.74    0.71 
  -3   7   3   13.82    0.76 
  -2   7   3    0.43    0.14 
  -2   7   3    0.58    0.14 
  -2   7   3    0.84    0.19 
  -2   7   3    0.64    0.18 
  -1   7   3    1.34    0.19 
  -1   7   3    0.94    0.19 
  -1   7   3    0.95    0.22 
  -1   7   3    1.21    0.15 
  -1   7   3    1.11    0.14 
  -1   7   3    0.84    0.17 
   0   7   3   12.80    0.81 
   0   7   3   13.23    0.78 
   0   7   3   12.82    0.69 
   0   7   3   13.77    0.74 
   0   7   3   13.17    0.82 
   0   7   3   12.97    0.66 
   0   7   3   12.80    0.76 
   1   7   3    2.35    0.26 
   1   7   3    2.81    0.32 
   1   7   3    2.32    0.28 
   1   7   3    2.15    0.24 
   1   7   3    2.45    0.32 
   2   7   3    0.45    0.15 
   2   7   3    0.84    0.21 
   2   7   3    0.62    0.21 
   2   7   3    1.03    0.20 
   3   7   3    0.42    0.19 
   3   7   3    0.23    0.08 
   3   7   3    0.37    0.17 
   4   7   3    1.42    0.23 
   4   7   3    1.71    0.22 
   5   7   3    0.18    0.16 
   5   7   3   -0.03    0.14 
   6   7   3    2.08    0.22 
  -4   8   3    0.06    0.10 
  -3   8   3    0.50    0.13 
  -3   8   3    0.77    0.16 
  -3   8   3    0.75    0.16 
  -2   8   3    3.47    0.28 
  -2   8   3    3.64    0.33 
  -2   8   3    3.54    0.31 
  -2   8   3    3.29    0.27 
  -1   8   3   -0.05    0.16 
  -1   8   3   -0.26    0.15 
  -1   8   3   -0.04    0.15 
   0   8   3    0.89    0.22 
   0   8   3    1.09    0.18 
   0   8   3    0.85    0.17 
   0   8   3    0.82    0.19 
   0   8   3    0.79    0.17 
   1   8   3    0.00    0.17 
   1   8   3   -0.18    0.14 
   1   8   3   -0.09    0.22 
   1   8   3    0.09    0.16 
   2   8   3    2.24    0.26 
   2   8   3    2.45    0.32 
   2   8   3    2.80    0.28 
   2   8   3    2.82    0.31 
   3   8   3    1.73    0.23 
   3   8   3    2.09    0.24 
   4   8   3   -0.19    0.16 
   4   8   3    0.25    0.16 
   5   8   3    0.44    0.14 
   5   8   3    0.37    0.14 
  -2   9   3    0.21    0.12 
  -2   9   3    0.00    0.09 
  -1   9   3    0.86    0.13 
   0   9   3    0.09    0.14 
   0   9   3    0.05    0.14 
   1   9   3    1.18    0.16 
   2   9   3    0.37    0.12 
   2   9   3    0.71    0.18 
   3   9   3    0.17    0.11 
   3   9   3    0.00    0.13 
   4   8  -4    0.95    0.14 
   3   8  -4   -0.10    0.11 
   3   8  -4    0.04    0.12 
   2   8  -4    1.81    0.19 
   2   8  -4    1.80    0.22 
   1   8  -4    0.27    0.16 
   1   8  -4    0.77    0.17 
   1   8  -4    0.68    0.14 
   0   8  -4    0.19    0.11 
   0   8  -4    0.22    0.15 
  -1   8  -4    0.42    0.16 
  -1   8  -4    0.29    0.11 
  -2   8  -4    0.08    0.13 
  -2   8  -4    0.20    0.12 
  -3   8  -4    2.73    0.23 
   5   7  -4    1.92    0.12 
   5   7  -4    2.03    0.15 
   5   7  -4    2.11    0.21 
   4   7  -4    0.46    0.10 
   4   7  -4    0.37    0.13 
   4   7  -4    0.21    0.13 
   4   7  -4    0.38    0.08 
   3   7  -4    3.28    0.21 
   3   7  -4    3.47    0.18 
   3   7  -4    3.69    0.32 
   3   7  -4    3.43    0.27 
   2   7  -4    0.39    0.18 
   2   7  -4    0.22    0.15 
   2   7  -4    0.33    0.14 
   2   7  -4    0.36    0.09 
   1   7  -4    4.05    0.22 
   1   7  -4    4.17    0.37 
   1   7  -4    3.77    0.40 
   1   7  -4    3.94    0.35 
   0   7  -4    0.28    0.14 
   0   7  -4    0.25    0.20 
   0   7  -4    0.67    0.15 
   0   7  -4    0.39    0.09 
  -1   7  -4    0.23    0.09 
  -1   7  -4   -0.02    0.15 
  -1   7  -4    0.49    0.15 
  -1   7  -4    0.24    0.16 
  -2   7  -4    3.78    0.32 
  -2   7  -4    3.09    0.19 
  -2   7  -4    3.85    0.31 
  -2   7  -4    3.23    0.31 
  -3   7  -4    0.57    0.13 
  -3   7  -4    0.45    0.16 
  -3   7  -4    0.89    0.17 
  -4   7  -4    3.90    0.28 
  -4   7  -4    3.64    0.26 
   6   6  -4    0.14    0.09 
   6   6  -4    0.02    0.13 
   6   6  -4    0.12    0.08 
   5   6  -4   13.78    0.60 
   5   6  -4   13.07    0.78 
   5   6  -4   15.43    0.63 
   5   6  -4   14.95    0.85 
   4   6  -4    7.46    0.49 
   4   6  -4    7.03    0.46 
   4   6  -4    6.85    0.35 
   4   6  -4    7.11    0.33 
   3   6  -4   -0.01    0.10 
   3   6  -4   -0.16    0.19 
   3   6  -4   -0.17    0.18 
   3   6  -4   -0.07    0.17 
   3   6  -4    0.08    0.11 
   2   6  -4    9.75    0.61 
   2   6  -4    9.14    0.61 
   2   6  -4    9.65    0.58 
   2   6  -4    7.48    0.60 
   2   6  -4    9.81    0.44 
   2   6  -4   10.81    0.63 
   2   6  -4    9.57    0.42 
   1   6  -4    1.11    0.21 
   1   6  -4    0.61    0.19 
   1   6  -4    0.74    0.20 
   1   6  -4    0.60    0.09 
   1   6  -4    0.46    0.18 
   1   6  -4    0.73    0.10 
   1   6  -4    0.86    0.17 
   0   6  -4    0.78    0.25 
   0   6  -4    0.95    0.09 
   0   6  -4    0.94    0.10 
   0   6  -4    1.25    0.18 
   0   6  -4    0.80    0.22 
   0   6  -4    0.71    0.14 
  -1   6  -4    2.69    0.30 
  -1   6  -4    3.05    0.21 
  -1   6  -4    3.10    0.39 
  -1   6  -4    2.93    0.41 
  -1   6  -4    2.98    0.33 
  -1   6  -4    3.61    0.29 
  -1   6  -4    2.98    0.19 
  -2   6  -4    3.79    0.32 
  -2   6  -4    3.00    0.39 
  -2   6  -4    3.54    0.21 
  -2   6  -4    3.69    0.23 
  -2   6  -4    3.70    0.31 
  -3   6  -4    2.45    0.33 
  -3   6  -4    2.82    0.29 
  -3   6  -4    2.35    0.18 
  -3   6  -4    2.50    0.21 
  -3   6  -4    2.30    0.24 
  -4   6  -4    0.57    0.14 
  -4   6  -4    0.47    0.11 
  -4   6  -4    0.47    0.18 
  -4   6  -4    0.34    0.08 
  -5   6  -4    1.57    0.19 
  -5   6  -4    1.66    0.11 
  -5   6  -4    1.92    0.18 
   7   5  -4    0.41    0.09 
   7   5  -4    0.48    0.09 
   7   5  -4    0.29    0.07 
   7   5  -4    0.28    0.12 
   6   5  -4    1.84    0.20 
   6   5  -4    1.81    0.20 
   5   5  -4    6.26    0.34 
   5   5  -4    6.16    0.44 
   5   5  -4    5.84    0.40 
   5   5  -4    6.56    0.37 
   5   5  -4    6.12    0.31 
   4   5  -4    1.39    0.20 
   4   5  -4    0.80    0.12 
   4   5  -4    1.01    0.13 
   4   5  -4    1.39    0.27 
   4   5  -4    1.02    0.16 
   3   5  -4   10.14    0.44 
   3   5  -4    9.82    0.59 
   3   5  -4   10.39    0.62 
   3   5  -4    9.90    0.51 
   3   5  -4    9.72    0.62 
   3   5  -4    9.38    0.55 
   3   5  -4    8.64    0.55 
   3   5  -4   10.11    0.62 
   3   5  -4   10.19    0.46 
   2   5  -4    4.38    0.42 
   2   5  -4    4.29    0.32 
   2   5  -4    4.37    0.32 
   2   5  -4    4.92    0.25 
   2   5  -4    5.46    0.43 
   2   5  -4    4.78    0.27 
   2   5  -4    4.88    0.37 
   2   5  -4    5.18    0.37 
   2   5  -4    4.47    0.40 
   2   5  -4    4.69    0.29 
   1   5  -4    9.67    0.49 
   1   5  -4    9.38    0.42 
   1   5  -4    8.84    0.59 
   1   5  -4    9.94    0.66 
   1   5  -4    9.53    0.62 
   1   5  -4    9.77    0.62 
   1   5  -4    9.64    0.57 
   1   5  -4    9.47    0.44 
   1   5  -4    9.39    0.51 
   1   5  -4   10.38    0.62 
   0   5  -4    2.15    0.16 
   0   5  -4    2.24    0.27 
   0   5  -4    1.66    0.20 
   0   5  -4    2.09    0.28 
   0   5  -4    2.06    0.18 
   0   5  -4    2.42    0.31 
   0   5  -4    1.82    0.30 
   0   5  -4    1.97    0.25 
  -1   5  -4   -0.09    0.22 
  -1   5  -4   -0.16    0.15 
  -1   5  -4    0.08    0.10 
  -1   5  -4    0.05    0.18 
  -1   5  -4    0.12    0.09 
  -1   5  -4    0.05    0.12 
  -1   5  -4    0.19    0.18 
  -2   5  -4    3.33    0.33 
  -2   5  -4    3.61    0.22 
  -2   5  -4    3.42    0.38 
  -2   5  -4    3.55    0.35 
  -2   5  -4    3.56    0.25 
  -2   5  -4    3.93    0.30 
  -2   5  -4    3.61    0.41 
  -3   5  -4   -0.03    0.11 
  -3   5  -4   -0.05    0.17 
  -3   5  -4   -0.01    0.12 
  -3   5  -4    0.04    0.23 
  -3   5  -4   -0.16    0.18 
  -3   5  -4   -0.15    0.13 
  -4   5  -4    5.62    0.42 
  -4   5  -4    5.58    0.44 
  -4   5  -4    6.26    0.34 
  -4   5  -4    6.19    0.31 
  -5   5  -4    1.52    0.20 
  -5   5  -4    2.24    0.16 
  -5   5  -4    2.06    0.25 
  -5   5  -4    1.81    0.19 
  -6   5  -4    0.07    0.12 
  -6   5  -4    0.18    0.08 
  -6   5  -4    0.18    0.11 
  -6   5  -4    0.15    0.11 
   8   4  -4    0.08    0.09 
   7   4  -4    3.66    0.32 
   7   4  -4    4.00    0.28 
   6   4  -4    9.66    0.49 
   6   4  -4   10.26    0.54 
   6   4  -4    9.33    0.45 
   6   4  -4   10.54    0.62 
   5   4  -4    0.30    0.10 
   5   4  -4    0.25    0.19 
   5   4  -4    0.20    0.10 
   5   4  -4    0.14    0.15 
   4   4  -4   24.64    1.15 
   4   4  -4   27.23    1.36 
   4   4  -4   23.24    1.20 
   4   4  -4   24.04    1.29 
   4   4  -4   23.90    0.99 
   4   4  -4   23.13    1.16 
   4   4  -4   22.10    1.27 
   4   4  -4   23.80    1.02 
   3   4  -4    6.42    0.43 
   3   4  -4    6.40    0.42 
   3   4  -4    5.97    0.32 
   3   4  -4    5.50    0.37 
   3   4  -4    6.24    0.46 
   3   4  -4    5.85    0.31 
   3   4  -4    6.49    0.45 
   3   4  -4    6.23    0.30 
   3   4  -4    5.57    0.40 
   3   4  -4    6.16    0.41 
   2   4  -4   32.43    1.53 
   2   4  -4   30.21    1.35 
   2   4  -4   31.96    1.81 
   2   4  -4   33.74    1.67 
   2   4  -4   32.55    1.79 
   2   4  -4   31.39    1.76 
   2   4  -4   34.96    1.61 
   2   4  -4   30.64    1.52 
   1   4  -4   52.84    2.57 
   1   4  -4   51.41    2.42 
   1   4  -4   51.97    2.65 
   1   4  -4   53.79    2.85 
   0   4  -4    3.31    0.26 
   0   4  -4    3.10    0.29 
   0   4  -4    3.54    0.39 
   0   4  -4    3.19    0.26 
  -1   4  -4    0.94    0.15 
  -1   4  -4    1.30    0.16 
  -1   4  -4    1.26    0.09 
  -1   4  -4    1.41    0.17 
  -1   4  -4    1.12    0.10 
  -1   4  -4    1.21    0.14 
  -1   4  -4    1.23    0.23 
  -1   4  -4    1.24    0.09 
  -2   4  -4    2.33    0.17 
  -2   4  -4    1.81    0.14 
  -2   4  -4    1.74    0.17 
  -2   4  -4    2.10    0.29 
  -2   4  -4    2.12    0.25 
  -2   4  -4    2.06    0.12 
  -2   4  -4    1.77    0.16 
  -2   4  -4    1.84    0.13 
  -2   4  -4    1.53    0.17 
  -3   4  -4   11.66    0.52 
  -3   4  -4   11.75    0.66 
  -3   4  -4   11.26    0.61 
  -3   4  -4   11.11    0.50 
  -3   4  -4   11.14    0.74 
  -3   4  -4   11.39    0.60 
  -3   4  -4   11.92    0.65 
  -3   4  -4   10.20    0.67 
  -3   4  -4   11.45    0.58 
  -4   4  -4    4.44    0.26 
  -4   4  -4    3.92    0.37 
  -4   4  -4    4.17    0.31 
  -4   4  -4    4.10    0.29 
  -4   4  -4    4.18    0.37 
  -4   4  -4    4.44    0.34 
  -4   4  -4    4.29    0.34 
  -4   4  -4    4.02    0.40 
  -5   4  -4    1.61    0.16 
  -5   4  -4    1.40    0.16 
  -5   4  -4    1.32    0.16 
  -5   4  -4    1.67    0.14 
  -5   4  -4    1.38    0.15 
  -6   4  -4   -0.18    0.11 
  -6   4  -4    0.03    0.14 
  -6   4  -4   -0.20    0.13 
  -6   4  -4   -0.10    0.12 
  -6   4  -4   -0.20    0.10 
  -7   4  -4    0.08    0.10 
  -7   4  -4   -0.04    0.08 
  -7   4  -4    0.00    0.11 
   8   3  -4    2.24    0.21 
   8   3  -4    2.69    0.22 
   7   3  -4    2.91    0.28 
   7   3  -4    3.15    0.22 
   6   3  -4    0.73    0.16 
   5   3  -4    8.00    0.57 
   5   3  -4    8.93    0.50 
   5   3  -4    8.82    0.56 
   5   3  -4    8.33    0.58 
   5   3  -4    9.84    0.48 
   4   3  -4    0.73    0.20 
   4   3  -4    0.75    0.12 
   4   3  -4    0.74    0.22 
   4   3  -4    0.65    0.09 
   4   3  -4    0.80    0.17 
   4   3  -4    0.87    0.10 
   4   3  -4    0.65    0.08 
   3   3  -4   14.83    0.83 
   3   3  -4   14.83    0.78 
   3   3  -4   15.34    0.81 
   2   3  -4    3.21    0.28 
   2   3  -4    3.42    0.29 
   2   3  -4    3.21    0.31 
   2   3  -4    3.24    0.29 
   1   3  -4   64.19    3.47 
   1   3  -4   65.49    2.98 
   1   3  -4   62.51    3.23 
   1   3  -4   66.96    3.16 
   0   3  -4   62.30    3.26 
   0   3  -4   61.05    2.96 
   0   3  -4   59.44    3.03 
   0   3  -4   60.36    2.79 
  -1   3  -4   14.29    0.76 
  -1   3  -4   14.25    0.84 
  -1   3  -4   14.55    0.72 
  -2   3  -4   12.66    0.75 
  -2   3  -4   13.91    0.73 
  -2   3  -4   13.96    0.83 
  -2   3  -4   14.35    0.70 
  -3   3  -4    7.64    0.46 
  -3   3  -4    7.57    0.36 
  -3   3  -4    7.57    0.40 
  -3   3  -4    7.59    0.43 
  -3   3  -4    7.49    0.37 
  -3   3  -4    8.32    0.50 
  -3   3  -4    8.11    0.55 
  -3   3  -4    8.59    0.47 
  -4   3  -4    1.36    0.12 
  -4   3  -4    1.04    0.14 
  -4   3  -4    1.08    0.11 
  -4   3  -4    0.86    0.22 
  -4   3  -4    0.90    0.19 
  -4   3  -4    0.91    0.21 
  -4   3  -4    1.18    0.10 
  -4   3  -4    1.09    0.22 
  -4   3  -4    0.95    0.14 
  -5   3  -4    9.65    0.67 
  -5   3  -4   10.46    0.57 
  -5   3  -4   10.63    0.49 
  -5   3  -4   10.86    0.52 
  -5   3  -4    9.05    0.66 
  -5   3  -4   10.71    0.57 
  -5   3  -4   10.63    0.50 
  -6   3  -4    0.56    0.14 
  -6   3  -4    0.49    0.13 
  -6   3  -4    0.57    0.15 
  -6   3  -4    0.76    0.18 
  -6   3  -4    0.74    0.14 
  -7   3  -4    6.49    0.35 
  -7   3  -4    6.64    0.43 
  -7   3  -4    7.40    0.39 
   8   2  -4    2.27    0.19 
  -8  -2   4    1.81    0.19 
   7   2  -4    7.07    0.41 
   6   2  -4    1.26    0.15 
   5   2  -4    5.32    0.33 
   5   2  -4    5.31    0.40 
   4   2  -4   -0.19    0.17 
   4   2  -4    0.09    0.14 
   4   2  -4    0.15    0.14 
   3   2  -4    0.07    0.15 
   3   2  -4    0.10    0.13 
   3   2  -4    0.12    0.12 
   2   2  -4  107.61    4.58 
   2   2  -4   96.86    5.10 
   2   2  -4   94.71    5.10 
   2   2  -4  104.72    4.85 
   2   2  -4  102.25    4.94 
  -2  -2   4   93.34    5.11 
   1   2  -4   72.31    3.09 
   1   2  -4   67.52    3.34 
   1   2  -4   69.02    3.27 
   1   2  -4   66.59    3.45 
  -1  -2   4   64.39    3.45 
  -1  -2   4   63.36    3.45 
   0   2  -4   18.17    0.94 
   0   2  -4   18.10    0.91 
   0   2  -4   18.65    1.01 
   0   2  -4   17.35    0.98 
   0  -2   4   17.37    0.99 
   0  -2   4   18.22    0.99 
  -1   2  -4   25.83    1.39 
  -1   2  -4   26.02    1.26 
  -1   2  -4   25.23    1.34 
  -1   2  -4   24.35    1.33 
  -1   2  -4   26.19    1.19 
   1  -2   4   24.10    1.35 
   1  -2   4   24.11    1.35 
  -2   2  -4    0.28    0.13 
  -2   2  -4    0.22    0.13 
  -2   2  -4    0.21    0.13 
  -3   2  -4    5.82    0.41 
  -3   2  -4    5.91    0.38 
  -3   2  -4    5.74    0.38 
  -4   2  -4   14.19    0.73 
  -4   2  -4   12.74    0.76 
  -4   2  -4   13.14    0.70 
  -4   2  -4   11.98    0.64 
  -4   2  -4   12.29    0.63 
  -4   2  -4   12.29    0.64 
  -4   2  -4   11.56    0.54 
  -5   2  -4    1.74    0.24 
  -5   2  -4    2.11    0.21 
  -5   2  -4    2.12    0.20 
  -5   2  -4    2.09    0.17 
  -5   2  -4    1.75    0.29 
  -5   2  -4    1.74    0.22 
  -5   2  -4    1.81    0.26 
  -6   2  -4   13.86    0.73 
  -6   2  -4   14.12    0.71 
  -7   2  -4    2.66    0.30 
  -7   2  -4    2.44    0.29 
  -7   2  -4    2.47    0.17 
  -8   2  -4    3.56    0.25 
  -8   2  -4    3.23    0.24 
   8   1  -4    5.39    0.31 
  -8  -1   4    4.51    0.29 
   7   1  -4    2.23    0.24 
  -7  -1   4    2.72    0.25 
   5   1  -4   15.14    0.83 
   4   1  -4    0.37    0.15 
   4   1  -4    0.25    0.14 
   4   1  -4    0.27    0.13 
  -4  -1   4    0.38    0.11 
   3   1  -4   27.82    1.52 
   3   1  -4   28.72    1.41 
   3   1  -4   27.29    1.52 
   3   1  -4   29.02    1.41 
   3   1  -4   28.95    1.33 
  -3  -1   4   27.16    1.44 
  -3  -1   4   25.45    1.51 
   2   1  -4    1.66    0.22 
   2   1  -4    1.78    0.20 
   2   1  -4    1.88    0.21 
   2   1  -4    1.75    0.21 
   2   1  -4    1.83    0.19 
  -2  -1   4    1.64    0.15 
  -2  -1   4    1.37    0.16 
  -2  -1   4    1.70    0.22 
  -2  -1   4    1.72    0.23 
  -2  -1   4    1.74    0.21 
   1   1  -4  129.64    6.17 
   1   1  -4  124.52    6.17 
   1   1  -4  118.96    6.03 
   1   1  -4  122.22    5.92 
   1   1  -4  124.05    5.54 
  -1  -1   4  115.24    5.88 
  -1  -1   4  123.21    6.17 
  -1  -1   4  112.85    5.54 
  -1  -1   4  125.36    6.17 
   0   1  -4   25.88    1.29 
   0   1  -4   26.39    1.28 
   0   1  -4   26.30    1.21 
   0   1  -4   26.15    1.36 
   0   1  -4   26.63    1.36 
   0  -1   4   26.38    1.37 
   0  -1   4   26.44    1.37 
   0  -1   4   23.78    1.28 
   0  -1   4   24.33    1.21 
  -1   1  -4    8.62    0.50 
  -1   1  -4    8.33    0.49 
  -1   1  -4    8.52    0.45 
  -1   1  -4    8.19    0.49 
  -1   1  -4    7.99    0.43 
   1  -1   4    8.30    0.51 
   1  -1   4    7.89    0.50 
   1  -1   4    7.09    0.45 
   1  -1   4    7.51    0.44 
  -2   1  -4    5.83    0.37 
  -2   1  -4    5.06    0.37 
  -2   1  -4    5.30    0.34 
  -2   1  -4    5.25    0.39 
  -2   1  -4    5.53    0.34 
   2  -1   4    5.05    0.39 
   2  -1   4    5.41    0.39 
   2  -1   4    4.42    0.27 
  -3   1  -4    0.70    0.14 
  -3   1  -4    0.55    0.16 
  -3   1  -4    0.78    0.14 
  -3   1  -4    0.63    0.20 
  -4   1  -4   19.29    1.08 
  -4   1  -4   18.06    1.02 
  -4   1  -4   20.26    0.98 
  -5   1  -4   31.31    1.53 
  -5   1  -4   32.18    1.56 
  -5   1  -4   31.39    1.63 
  -6   1  -4    0.35    0.19 
  -6   1  -4    0.73    0.12 
  -6   1  -4    0.82    0.16 
  -7   1  -4    6.09    0.42 
  -7   1  -4    6.23    0.36 
  -8   1  -4   -0.05    0.07 
  -8   1  -4    0.03    0.10 
  -8   1  -4   -0.16    0.12 
  -7   0   4    2.68    0.26 
  -6   0   4   11.31    0.73 
  -6   0   4   12.57    0.62 
  -5   0   4    0.20    0.11 
  -5   0   4    0.49    0.17 
   4   0  -4   22.08    1.17 
  -4   0   4   22.26    1.13 
  -4   0   4   24.15    1.23 
  -4   0   4   23.10    1.18 
   3   0  -4   16.51    0.97 
   3   0  -4   16.76    0.88 
   3   0  -4   17.04    0.85 
   3   0  -4   17.04    0.98 
   3   0  -4   16.51    0.87 
  -3   0   4   17.34    0.90 
  -3   0   4   17.96    0.85 
  -3   0   4   17.53    0.88 
  -3   0   4   15.76    0.97 
  -3   0   4   15.26    0.96 
   2   0  -4    0.47    0.08 
   2   0  -4    0.42    0.17 
   2   0  -4    0.60    0.14 
   2   0  -4    0.65    0.18 
   2   0  -4    0.52    0.11 
  -2   0   4    0.43    0.15 
  -2   0   4    0.50    0.17 
  -2   0   4    0.65    0.10 
  -2   0   4    0.50    0.14 
  -2   0   4    0.53    0.11 
   1   0  -4   39.76    1.89 
   1   0  -4   37.72    1.88 
   1   0  -4   34.77    1.77 
   1   0  -4   33.26    1.79 
   1   0  -4   36.11    1.68 
  -1   0   4   36.42    1.88 
  -1   0   4   36.98    1.68 
  -1   0   4   37.43    1.88 
  -1   0   4   35.09    1.85 
  -1   0   4   35.24    1.77 
   0   0  -4   75.12    3.42 
   0   0  -4   78.42    3.82 
   0   0  -4   69.99    3.63 
   0   0  -4   76.73    3.81 
   0   0   4   72.53    3.64 
   0   0   4   74.76    3.82 
   0   0   4   75.54    3.43 
   0   0   4   75.98    3.82 
  -1   0  -4    8.60    0.47 
  -1   0  -4    8.69    0.52 
  -1   0  -4    8.48    0.44 
  -1   0  -4    9.44    0.51 
   1   0   4    8.57    0.45 
   1   0   4    8.59    0.51 
   1   0   4    7.96    0.47 
   1   0   4    8.58    0.53 
  -2   0  -4    0.51    0.15 
  -2   0  -4    0.38    0.14 
  -2   0  -4    0.41    0.17 
  -2   0  -4    0.55    0.11 
  -2   0  -4    0.45    0.10 
   2   0   4    0.36    0.13 
   2   0   4    0.25    0.17 
   2   0   4    0.34    0.13 
   2   0   4    0.42    0.09 
   2   0   4    0.41    0.17 
  -3   0  -4   34.33    1.81 
  -3   0  -4   35.39    1.60 
  -3   0  -4   34.82    1.69 
  -3   0  -4   31.71    1.80 
  -3   0  -4   33.60    1.82 
   3   0   4   33.92    1.68 
   3   0   4   32.25    1.80 
   3   0   4   34.00    1.82 
   3   0   4   33.19    1.59 
  -4   0  -4   18.54    1.03 
  -4   0  -4   20.77    1.00 
  -5   0  -4    6.95    0.39 
  -6   0  -4   10.18    0.54 
  -7   0  -4    0.81    0.15 
  -8   0  -4    2.10    0.21 
  -8   1   4    4.70    0.26 
  -8   1   4    4.26    0.32 
  -7   1   4    7.27    0.46 
  -7   1   4    6.81    0.44 
  -7   1   4    8.54    0.42 
  -6   1   4    0.22    0.12 
  -6   1   4    0.09    0.19 
  -6   1   4    0.01    0.12 
  -5   1   4   19.78    1.02 
  -5   1   4   19.64    0.96 
  -5   1   4   21.07    1.10 
  -5   1   4   19.60    1.05 
  -5   1   4   18.89    0.96 
  -5   1   4   19.20    0.99 
  -4   1   4    0.78    0.15 
  -4   1   4    0.56    0.18 
  -4   1   4    0.57    0.14 
   3  -1  -4   13.19    0.83 
  -3   1   4   12.33    0.82 
  -3   1   4   14.59    0.78 
  -3   1   4   15.30    0.73 
  -3   1   4   14.62    0.74 
   2  -1  -4    7.27    0.45 
   2  -1  -4    8.58    0.51 
   2  -1  -4    8.24    0.51 
   2  -1  -4    7.39    0.44 
  -2   1   4    7.98    0.50 
  -2   1   4    8.54    0.45 
  -2   1   4    8.32    0.46 
  -2   1   4    7.45    0.49 
  -2   1   4    8.59    0.45 
   1  -1  -4   72.68    3.45 
   1  -1  -4   73.06    3.46 
   1  -1  -4   61.29    3.28 
   1  -1  -4   62.90    3.10 
  -1   1   4   68.46    3.45 
  -1   1   4   72.35    3.29 
  -1   1   4   69.29    3.46 
  -1   1   4   72.60    3.10 
  -1   1   4   58.13    3.09 
   0  -1  -4  137.77    6.43 
   0  -1  -4  116.39    5.78 
   0  -1  -4  140.91    6.43 
   0   1   4  128.56    6.46 
   0   1   4  109.77    6.42 
   0   1   4  128.43    6.19 
   0   1   4  128.73    5.78 
  -1  -1  -4   36.66    1.82 
  -1  -1  -4   40.18    2.04 
  -1  -1  -4   35.70    1.92 
  -1  -1  -4   45.60    2.04 
   1   1   4   37.55    1.85 
   1   1   4   39.68    2.04 
   1   1   4   39.72    1.93 
   1   1   4   39.51    1.82 
   1   1   4   40.51    2.03 
  -2  -1  -4   13.56    0.77 
  -2  -1  -4   12.62    0.73 
  -2  -1  -4   12.43    0.71 
  -2  -1  -4   14.19    0.78 
  -2  -1  -4   13.30    0.68 
   2   1   4   13.81    0.68 
   2   1   4   13.77    0.78 
   2   1   4   14.50    0.68 
   2   1   4   13.85    0.77 
   2   1   4   14.08    0.71 
  -3  -1  -4    6.28    0.47 
  -3  -1  -4    5.75    0.45 
   3   1   4    7.07    0.40 
   3   1   4    5.83    0.44 
   3   1   4    6.30    0.47 
   3   1   4    6.61    0.41 
   3   1   4    6.63    0.37 
   4   1   4   11.92    0.63 
   4   1   4   11.73    0.67 
   6   1   4    2.16    0.23 
   7   1   4    5.60    0.35 
  -8  -1  -4    0.72    0.12 
   8   1   4    0.66    0.14 
  -9  -1  -4    5.87    0.30 
  -8   2   4    1.58    0.17 
  -7   2   4    4.22    0.27 
  -7   2   4    4.70    0.26 
  -7   2   4    4.41    0.31 
  -6   2   4   12.08    0.63 
  -6   2   4   11.69    0.63 
  -6   2   4   10.34    0.74 
  -6   2   4   11.10    0.52 
  -6   2   4   12.39    0.59 
  -5   2   4    1.41    0.22 
  -5   2   4    1.90    0.28 
  -5   2   4    2.02    0.21 
  -5   2   4    1.63    0.24 
  -5   2   4    1.88    0.21 
  -5   2   4    1.62    0.15 
  -5   2   4    1.72    0.18 
  -5   2   4    1.91    0.19 
  -4   2   4   13.92    0.75 
  -4   2   4   14.31    0.74 
  -4   2   4   12.76    0.68 
  -4   2   4   14.45    0.79 
  -3   2   4   96.14    4.93 
  -3   2   4   97.26    4.41 
  -3   2   4   95.80    4.68 
   2  -2  -4    3.90    0.31 
   2  -2  -4    4.05    0.30 
  -2   2   4    4.53    0.28 
  -2   2   4    4.04    0.26 
  -2   2   4    3.98    0.30 
  -2   2   4    3.45    0.29 
  -2   2   4    3.39    0.25 
  -2   2   4    4.44    0.32 
  -2   2   4    4.71    0.29 
   1  -2  -4   71.60    3.61 
   1  -2  -4   75.84    3.61 
  -1   2   4   73.61    3.63 
  -1   2   4   71.17    3.31 
  -1   2   4   75.81    3.24 
  -1   2   4   67.02    3.60 
  -1   2   4   76.10    3.44 
  -1   2   4   67.69    3.60 
  -1   2   4   67.97    3.24 
  -1   2   4   64.14    3.44 
   0  -2  -4   71.77    3.39 
   0   2   4   69.74    3.39 
   0   2   4   60.17    3.23 
   0   2   4   60.11    3.29 
   0   2   4   70.58    3.42 
   0   2   4   69.38    3.24 
   0   2   4   69.20    3.05 
   0   2   4   66.21    3.12 
   0   2   4   65.73    3.05 
   0   2   4   66.28    3.39 
  -1  -2  -4   46.64    2.24 
  -1  -2  -4   44.54    2.24 
   1   2   4   41.08    2.00 
   1   2   4   45.91    2.12 
   1   2   4   44.85    2.24 
   1   2   4   44.72    2.01 
   1   2   4   39.36    2.12 
   1   2   4   42.96    2.05 
   1   2   4   43.90    2.17 
   1   2   4   42.37    2.23 
  -2  -2  -4   21.84    1.18 
  -2  -2  -4   21.73    1.18 
   2   2   4   22.98    1.04 
   2   2   4   21.72    1.06 
   2   2   4   22.44    1.10 
   2   2   4   20.15    1.17 
   2   2   4   21.99    1.18 
   3   2   4   38.71    1.82 
   3   2   4   39.07    1.79 
   3   2   4   35.62    2.02 
   3   2   4   39.34    1.89 
   4   2   4   92.41    4.33 
   4   2   4   92.04    4.52 
   4   2   4   93.26    4.26 
   5   2   4   12.24    0.68 
   5   2   4   11.43    0.60 
   5   2   4   11.70    0.70 
   6   2   4    4.92    0.31 
   6   2   4    4.26    0.42 
   7   2   4   -0.14    0.14 
  -8   3   4    0.55    0.07 
  -8   3   4    0.07    0.10 
  -7   3   4    3.78    0.32 
  -7   3   4    4.20    0.29 
  -7   3   4    3.54    0.27 
  -7   3   4    3.38    0.38 
  -7   3   4    3.57    0.25 
  -6   3   4    4.23    0.32 
  -6   3   4    4.57    0.30 
  -6   3   4    4.12    0.43 
  -6   3   4    4.22    0.26 
  -5   3   4   33.97    1.69 
  -5   3   4   35.59    1.61 
  -5   3   4   35.29    1.38 
  -5   3   4   29.37    1.63 
  -5   3   4   32.58    1.96 
  -5   3   4   33.26    1.84 
  -5   3   4   34.79    1.60 
  -5   3   4   34.43    1.43 
  -4   3   4    0.38    0.18 
  -4   3   4    0.50    0.12 
  -4   3   4    0.27    0.14 
  -4   3   4    0.42    0.09 
  -4   3   4    0.44    0.10 
  -4   3   4    0.43    0.15 
  -4   3   4    0.30    0.17 
  -4   3   4    0.30    0.07 
  -4   3   4    0.55    0.12 
  -4   3   4    0.27    0.12 
  -3   3   4    0.39    0.12 
  -3   3   4    0.32    0.14 
  -3   3   4    0.62    0.15 
  -2   3   4    0.03    0.11 
  -2   3   4    0.02    0.09 
  -2   3   4    0.14    0.10 
  -2   3   4    0.09    0.08 
  -2   3   4    0.06    0.13 
  -2   3   4    0.00    0.08 
   1  -3  -4   11.57    0.65 
   1  -3  -4   12.17    0.65 
  -1   3   4   11.75    0.65 
  -1   3   4   13.09    0.59 
  -1   3   4   12.06    0.62 
  -1   3   4   12.68    0.62 
  -1   3   4   13.39    0.62 
  -1   3   4   13.23    0.71 
  -1   3   4   10.33    0.65 
  -1   3   4   12.45    0.58 
  -1   3   4   13.47    0.71 
   0  -3  -4   71.00    3.59 
   0  -3  -4   67.99    3.59 
   0   3   4   67.59    3.52 
   0   3   4   73.35    3.34 
   0   3   4   76.91    3.66 
   0   3   4   71.89    3.59 
  -1  -3  -4    0.58    0.10 
  -1  -3  -4    0.50    0.10 
   1   3   4    0.58    0.09 
   1   3   4    0.53    0.11 
   1   3   4    0.57    0.14 
   1   3   4    0.50    0.09 
   1   3   4    0.53    0.10 
   1   3   4    0.47    0.11 
   1   3   4    0.39    0.08 
   1   3   4    0.58    0.11 
   2   3   4   82.19    3.96 
   2   3   4   76.02    4.16 
   2   3   4   81.00    3.82 
   2   3   4   83.19    4.05 
   2   3   4   85.80    3.73 
   3   3   4    0.01    0.12 
   3   3   4   -0.01    0.13 
   3   3   4    0.14    0.14 
   3   3   4    0.02    0.15 
   4   3   4   31.00    1.45 
   4   3   4   30.01    1.46 
   4   3   4   31.15    1.56 
   4   3   4   29.75    1.52 
   4   3   4   27.88    1.43 
   5   3   4   17.65    0.94 
   5   3   4   16.46    0.86 
   5   3   4   17.18    0.91 
   5   3   4   17.97    0.85 
   5   3   4   18.89    0.99 
   5   3   4   16.02    0.73 
   6   3   4    5.07    0.36 
   6   3   4    4.19    0.40 
   6   3   4    4.76    0.31 
   8   3   4    0.67    0.16 
   8   3   4    0.55    0.09 
  -7   4   4    4.67    0.27 
  -7   4   4    4.72    0.25 
  -7   4   4    3.87    0.33 
  -6   4   4    1.51    0.15 
  -6   4   4    1.23    0.20 
  -6   4   4    1.15    0.15 
  -6   4   4    1.25    0.19 
  -6   4   4    1.04    0.12 
  -5   4   4    0.49    0.12 
  -5   4   4    0.52    0.11 
  -5   4   4    0.40    0.14 
  -5   4   4    0.48    0.09 
  -5   4   4    0.75    0.20 
  -5   4   4    0.60    0.15 
  -5   4   4    0.49    0.25 
  -4   4   4   13.89    0.75 
  -4   4   4   13.96    0.92 
  -4   4   4   14.11    0.73 
  -4   4   4   13.90    0.86 
  -4   4   4   13.79    0.72 
  -4   4   4   14.18    0.70 
  -4   4   4   14.84    0.76 
  -4   4   4   15.09    0.81 
  -4   4   4   14.85    0.64 
  -4   4   4   14.65    0.61 
  -3   4   4    1.40    0.22 
  -3   4   4    1.16    0.09 
  -3   4   4    1.02    0.17 
  -3   4   4    1.19    0.12 
  -3   4   4    1.32    0.13 
  -3   4   4    1.14    0.10 
  -3   4   4    1.63    0.18 
  -3   4   4    1.35    0.16 
  -3   4   4    1.39    0.10 
  -3   4   4    1.40    0.15 
  -2   4   4    1.13    0.19 
  -2   4   4    1.14    0.20 
  -1   4   4   11.85    0.69 
  -1   4   4   10.63    0.60 
  -1   4   4   12.23    0.68 
   0   4   4    6.99    0.42 
   0   4   4    7.35    0.42 
   0   4   4    7.32    0.45 
   0   4   4    7.71    0.48 
   1   4   4  190.69    8.86 
   2   4   4   10.84    0.62 
   2   4   4   11.13    0.56 
   2   4   4    9.90    0.52 
   2   4   4   10.63    0.59 
   2   4   4   10.81    0.53 
   3   4   4   14.99    0.78 
   3   4   4   14.54    0.74 
   3   4   4   14.96    0.84 
   3   4   4   14.55    0.79 
   4   4   4    1.25    0.22 
   4   4   4    0.83    0.18 
   4   4   4    1.00    0.17 
   4   4   4    1.19    0.09 
   4   4   4    1.44    0.21 
   4   4   4    0.96    0.09 
   4   4   4    1.08    0.11 
   4   4   4    1.47    0.24 
   4   4   4    1.25    0.11 
   4   4   4    0.99    0.15 
   4   4   4    0.95    0.22 
   5   4   4    2.69    0.33 
   5   4   4    2.68    0.32 
   5   4   4    2.33    0.29 
   5   4   4    2.82    0.30 
   5   4   4    2.68    0.22 
   5   4   4    2.29    0.28 
   5   4   4    3.32    0.36 
   5   4   4    2.09    0.19 
   5   4   4    2.77    0.20 
   6   4   4    3.40    0.30 
   6   4   4    3.36    0.26 
   6   4   4    3.55    0.37 
   6   4   4    3.15    0.23 
   6   4   4    3.02    0.21 
   7   4   4   -0.08    0.17 
   8   4   4    1.09    0.14 
  -7   5   4    0.53    0.07 
  -7   5   4    0.74    0.15 
  -6   5   4    0.58    0.11 
  -6   5   4    0.62    0.18 
  -6   5   4    0.52    0.09 
  -5   5   4    1.54    0.16 
  -5   5   4    1.14    0.13 
  -5   5   4    1.24    0.11 
  -5   5   4    1.46    0.20 
  -4   5   4    0.03    0.18 
  -4   5   4   -0.27    0.10 
  -4   5   4   -0.02    0.23 
  -4   5   4   -0.15    0.15 
  -4   5   4   -0.32    0.17 
  -4   5   4   -0.01    0.15 
  -4   5   4   -0.30    0.09 
  -3   5   4    4.40    0.23 
  -3   5   4    5.26    0.38 
  -3   5   4    4.08    0.41 
  -3   5   4    4.46    0.25 
  -3   5   4    4.59    0.34 
  -3   5   4    4.44    0.44 
  -3   5   4    4.63    0.34 
  -2   5   4    6.87    0.31 
  -2   5   4    6.95    0.46 
  -2   5   4    7.39    0.51 
  -2   5   4    7.05    0.41 
  -2   5   4    6.53    0.44 
  -2   5   4    7.35    0.43 
  -2   5   4    5.74    0.50 
  -2   5   4    6.67    0.29 
  -1   5   4    2.09    0.25 
  -1   5   4    2.16    0.19 
  -1   5   4    2.06    0.24 
  -1   5   4    2.01    0.26 
  -1   5   4    1.93    0.26 
  -1   5   4    2.18    0.26 
   0   5   4   36.70    1.72 
   0   5   4   35.15    1.81 
   0   5   4   32.73    1.94 
   0   5   4   38.64    1.89 
   1   5   4    0.50    0.20 
   1   5   4    0.30    0.16 
   1   5   4    0.64    0.17 
   1   5   4    0.46    0.18 
   1   5   4    0.44    0.18 
   2   5   4   30.46    1.22 
   2   5   4   30.06    1.74 
   2   5   4   29.24    1.59 
   2   5   4   29.92    1.26 
   2   5   4   31.94    1.49 
   2   5   4   31.52    1.59 
   2   5   4   32.04    1.75 
   2   5   4   30.07    1.50 
   2   5   4   28.12    1.72 
   3   5   4    0.27    0.10 
   3   5   4    0.29    0.19 
   3   5   4    0.35    0.20 
   3   5   4    0.37    0.20 
   3   5   4    0.26    0.16 
   3   5   4    0.33    0.13 
   3   5   4    0.54    0.19 
   3   5   4    0.37    0.07 
   3   5   4    0.56    0.21 
   3   5   4    0.48    0.07 
   3   5   4    0.08    0.08 
   4   5   4    5.24    0.47 
   4   5   4    4.88    0.43 
   4   5   4    5.74    0.44 
   4   5   4    5.85    0.45 
   4   5   4    5.42    0.33 
   4   5   4    5.35    0.27 
   4   5   4    4.89    0.36 
   4   5   4    5.06    0.36 
   4   5   4    5.54    0.30 
   5   5   4    1.63    0.14 
   5   5   4    1.40    0.19 
   5   5   4    1.40    0.19 
   5   5   4    1.32    0.26 
   5   5   4    1.46    0.13 
   6   5   4    0.28    0.19 
   6   5   4    0.12    0.09 
   7   5   4    3.78    0.33 
   8   5   4    0.61    0.11 
  -6   6   4    0.97    0.12 
  -6   6   4    1.13    0.18 
  -5   6   4    0.36    0.15 
  -5   6   4    0.45    0.14 
  -5   6   4    0.09    0.09 
  -4   6   4    1.74    0.19 
  -4   6   4    1.26    0.11 
  -4   6   4    1.44    0.21 
  -4   6   4    1.42    0.16 
  -3   6   4   -0.06    0.16 
  -3   6   4   -0.18    0.08 
  -3   6   4   -0.03    0.17 
  -3   6   4    0.09    0.19 
  -3   6   4   -0.24    0.22 
  -3   6   4    0.13    0.18 
  -2   6   4   16.70    0.81 
  -2   6   4   16.84    0.91 
  -2   6   4   16.24    0.86 
  -2   6   4   15.40    0.99 
  -2   6   4   13.33    0.94 
  -2   6   4   16.82    0.90 
  -1   6   4    1.22    0.17 
  -1   6   4    1.36    0.17 
  -1   6   4    1.13    0.15 
  -1   6   4    1.22    0.20 
  -1   6   4    1.78    0.24 
  -1   6   4    1.20    0.18 
  -1   6   4    1.19    0.14 
  -1   6   4    1.61    0.15 
  -1   6   4    1.35    0.16 
   0   6   4    1.33    0.19 
   0   6   4    1.52    0.16 
   0   6   4    1.43    0.15 
   0   6   4    1.23    0.17 
   0   6   4    1.29    0.17 
   0   6   4    1.19    0.21 
   0   6   4    1.59    0.15 
   0   6   4    1.52    0.18 
   0   6   4    1.48    0.19 
   1   6   4    7.89    0.51 
   1   6   4    8.51    0.57 
   1   6   4    8.46    0.57 
   1   6   4    7.84    0.47 
   1   6   4    7.35    0.50 
   1   6   4    8.12    0.49 
   1   6   4    7.95    0.55 
   2   6   4   -0.07    0.21 
   2   6   4   -0.05    0.18 
   2   6   4    0.08    0.16 
   2   6   4    0.08    0.19 
   2   6   4   -0.01    0.14 
   2   6   4   -0.02    0.21 
   2   6   4   -0.08    0.08 
   2   6   4    0.12    0.20 
   3   6   4    7.24    0.54 
   3   6   4    7.03    0.34 
   3   6   4    7.50    0.48 
   3   6   4    6.60    0.53 
   3   6   4    7.19    0.53 
   3   6   4    7.10    0.32 
   4   6   4    3.12    0.36 
   4   6   4    2.46    0.19 
   4   6   4    1.95    0.34 
   4   6   4    2.89    0.21 
   4   6   4    2.65    0.32 
   4   6   4    2.48    0.34 
   5   6   4   13.88    0.88 
   5   6   4   14.30    0.62 
   5   6   4   15.77    0.85 
   5   6   4   14.20    0.64 
   6   6   4    3.81    0.35 
   7   6   4    0.21    0.13 
  -5   7   4    1.57    0.20 
  -5   7   4    1.89    0.21 
  -4   7   4    2.18    0.29 
  -4   7   4    2.42    0.23 
  -4   7   4    2.33    0.24 
  -3   7   4    0.28    0.18 
  -3   7   4    0.37    0.19 
  -2   7   4    0.01    0.19 
  -2   7   4    0.57    0.17 
  -2   7   4    0.22    0.18 
  -2   7   4    0.37    0.15 
  -2   7   4    0.55    0.14 
  -1   7   4    7.35    0.56 
  -1   7   4    7.93    0.45 
  -1   7   4    7.57    0.53 
  -1   7   4    7.37    0.49 
  -1   7   4    7.89    0.51 
  -1   7   4    8.11    0.51 
  -1   7   4    7.13    0.48 
   0   7   4   16.46    0.78 
   0   7   4   17.18    0.96 
   0   7   4   14.68    0.95 
   0   7   4   16.83    0.97 
   0   7   4   14.55    0.87 
   0   7   4   15.24    0.90 
   0   7   4   15.17    0.82 
   0   7   4   15.03    0.88 
   1   7   4    2.11    0.21 
   1   7   4    1.78    0.21 
   1   7   4    1.84    0.20 
   1   7   4    1.69    0.18 
   1   7   4    1.86    0.24 
   2   7   4    5.58    0.48 
   2   7   4    6.06    0.49 
   2   7   4    6.53    0.49 
   2   7   4    5.78    0.42 
   3   7   4    2.22    0.25 
   3   7   4    2.32    0.34 
   3   7   4    2.01    0.16 
   3   7   4    2.36    0.32 
   4   7   4    1.88    0.22 
   4   7   4    2.00    0.26 
   4   7   4    2.18    0.31 
   5   7   4    2.42    0.32 
   5   7   4    2.22    0.27 
   6   7   4    0.09    0.12 
  -4   8   4    0.48    0.12 
  -4   8   4    0.64    0.12 
  -3   8   4    1.02    0.16 
  -3   8   4    1.05    0.17 
  -3   8   4    0.78    0.16 
  -2   8   4    0.76    0.16 
  -2   8   4    0.75    0.13 
  -2   8   4    0.79    0.16 
  -1   8   4    0.21    0.15 
  -1   8   4    0.10    0.16 
  -1   8   4    0.22    0.13 
  -1   8   4    0.24    0.15 
   0   8   4    1.42    0.18 
   0   8   4    1.76    0.22 
   0   8   4    1.42    0.18 
   0   8   4    1.92    0.28 
   0   8   4    1.41    0.21 
   0   8   4    1.50    0.18 
   0   8   4    1.35    0.16 
   1   8   4    1.91    0.25 
   1   8   4    1.22    0.17 
   1   8   4    2.19    0.28 
   1   8   4    1.65    0.20 
   1   8   4    1.82    0.24 
   2   8   4    0.19    0.17 
   2   8   4    0.18    0.18 
   3   8   4    0.41    0.19 
   3   8   4    0.35    0.16 
   3   8   4    0.31    0.19 
   4   8   4    0.70    0.19 
   4   8   4    0.37    0.18 
   5   8   4    0.67    0.14 
   5   8   4    0.83    0.17 
  -1   9   4   -0.15    0.11 
   1   9   4   -0.20    0.14 
   2   9   4    0.08    0.15 
   3   9   4    0.51    0.14 
   3   8  -5    0.72    0.12 
   3   8  -5    0.97    0.14 
   2   8  -5    0.13    0.11 
   2   8  -5    0.21    0.12 
   1   8  -5    1.74    0.24 
   1   8  -5    2.11    0.23 
   1   8  -5    2.03    0.22 
   0   8  -5    0.02    0.14 
   0   8  -5    0.02    0.12 
  -1   8  -5    2.92    0.29 
  -1   8  -5    3.26    0.26 
  -2   8  -5    0.59    0.11 
  -2   8  -5    0.52    0.12 
   5   7  -5    1.09    0.08 
   5   7  -5    1.09    0.12 
   5   7  -5    0.83    0.15 
   4   7  -5    0.19    0.11 
   4   7  -5    0.20    0.06 
   4   7  -5    0.22    0.08 
   4   7  -5    0.04    0.14 
   3   7  -5    0.06    0.13 
   3   7  -5   -0.08    0.07 
   3   7  -5    0.06    0.09 
   3   7  -5   -0.02    0.14 
   2   7  -5    6.87    0.49 
   2   7  -5    7.23    0.33 
   2   7  -5    6.87    0.42 
   2   7  -5    6.83    0.30 
   2   7  -5    6.90    0.46 
   1   7  -5    2.59    0.35 
   1   7  -5    2.54    0.29 
   1   7  -5    2.39    0.18 
   1   7  -5    2.20    0.27 
   0   7  -5   16.79    0.95 
   0   7  -5   16.20    0.96 
   0   7  -5   16.16    0.70 
  -1   7  -5    2.36    0.18 
  -1   7  -5    2.82    0.25 
  -1   7  -5    2.62    0.36 
  -2   7  -5    0.58    0.15 
  -2   7  -5    0.82    0.18 
  -2   7  -5    0.98    0.10 
  -2   7  -5    0.98    0.14 
  -3   7  -5    1.83    0.21 
  -3   7  -5    2.21    0.26 
  -4   7  -5    0.13    0.10 
  -4   7  -5    0.13    0.10 
   6   6  -5    7.56    0.33 
   6   6  -5    7.27    0.35 
   6   6  -5    7.59    0.46 
   5   6  -5    8.52    0.39 
   5   6  -5    8.40    0.38 
   5   6  -5    7.68    0.53 
   4   6  -5    0.78    0.12 
   4   6  -5    0.70    0.19 
   4   6  -5    0.65    0.15 
   4   6  -5    0.84    0.12 
   3   6  -5    4.06    0.34 
   3   6  -5    4.19    0.39 
   3   6  -5    4.01    0.23 
   3   6  -5    4.06    0.26 
   2   6  -5    0.06    0.10 
   2   6  -5    0.26    0.17 
   2   6  -5    0.24    0.18 
   2   6  -5    0.10    0.17 
   2   6  -5    0.33    0.10 
   1   6  -5    6.85    0.55 
   1   6  -5    9.16    0.60 
   1   6  -5    8.73    0.55 
   1   6  -5    8.94    0.41 
   1   6  -5    8.80    0.39 
   1   6  -5    8.83    0.54 
   0   6  -5    4.53    0.50 
   0   6  -5    5.50    0.26 
   0   6  -5    5.50    0.42 
   0   6  -5    5.44    0.40 
   0   6  -5    5.30    0.29 
   0   6  -5    5.27    0.47 
  -1   6  -5    4.79    0.46 
  -1   6  -5    4.31    0.33 
  -1   6  -5    4.97    0.26 
  -1   6  -5    5.95    0.39 
  -1   6  -5    5.08    0.28 
  -1   6  -5    5.02    0.39 
  -2   6  -5   19.36    1.03 
  -2   6  -5   21.60    1.15 
  -2   6  -5   20.46    0.84 
  -2   6  -5   20.45    1.16 
  -2   6  -5   20.31    0.88 
  -3   6  -5    0.31    0.17 
  -3   6  -5   -0.01    0.15 
  -3   6  -5    0.17    0.08 
  -3   6  -5    0.14    0.11 
  -3   6  -5    0.24    0.14 
  -4   6  -5    1.75    0.15 
  -4   6  -5    1.93    0.15 
  -4   6  -5    1.48    0.19 
  -4   6  -5    1.61    0.18 
  -5   6  -5    0.03    0.09 
  -5   6  -5   -0.08    0.11 
   7   5  -5    3.32    0.26 
   7   5  -5    3.12    0.19 
   7   5  -5    3.26    0.18 
   6   5  -5    0.13    0.10 
   6   5  -5    0.01    0.14 
   6   5  -5    0.12    0.11 
   6   5  -5    0.15    0.10 
   5   5  -5    8.81    0.47 
   5   5  -5    8.72    0.41 
   5   5  -5    8.73    0.58 
   5   5  -5    8.97    0.42 
   4   5  -5   12.75    0.58 
   4   5  -5   13.82    0.77 
   4   5  -5   11.76    0.72 
   4   5  -5   12.55    0.65 
   4   5  -5   13.23    0.56 
   3   5  -5   22.44    1.20 
   3   5  -5   22.93    1.27 
   3   5  -5   23.26    0.93 
   3   5  -5   19.05    1.15 
   3   5  -5   20.14    1.21 
   3   5  -5   24.90    1.29 
   3   5  -5   22.92    1.08 
   3   5  -5   23.24    0.96 
   2   5  -5    8.26    0.50 
   2   5  -5    9.10    0.59 
   2   5  -5    8.78    0.59 
   2   5  -5    8.32    0.59 
   2   5  -5    8.59    0.47 
   2   5  -5   10.02    0.59 
   2   5  -5    9.18    0.52 
   2   5  -5    8.93    0.41 
   2   5  -5    9.15    0.43 
   2   5  -5    8.66    0.52 
   1   5  -5    0.33    0.20 
   1   5  -5    0.49    0.10 
   1   5  -5    0.26    0.12 
   1   5  -5    0.19    0.22 
   1   5  -5    0.47    0.19 
   1   5  -5    0.46    0.09 
   1   5  -5    0.57    0.16 
   1   5  -5    0.57    0.14 
   1   5  -5    0.48    0.11 
   1   5  -5    0.50    0.17 
   0   5  -5    6.88    0.39 
   0   5  -5    6.59    0.55 
   0   5  -5    7.21    0.34 
   0   5  -5    6.86    0.47 
   0   5  -5    6.76    0.51 
   0   5  -5    6.17    0.37 
   0   5  -5    7.05    0.33 
   0   5  -5    7.14    0.45 
   0   5  -5    7.05    0.47 
  -1   5  -5    2.44    0.25 
  -1   5  -5    2.24    0.25 
  -1   5  -5    2.47    0.36 
  -1   5  -5    2.30    0.22 
  -1   5  -5    2.40    0.30 
  -1   5  -5    2.56    0.20 
  -1   5  -5    2.61    0.19 
  -2   5  -5   15.18    1.01 
  -2   5  -5   15.40    0.94 
  -2   5  -5   16.39    0.71 
  -2   5  -5   16.78    0.68 
  -2   5  -5   16.52    0.91 
  -2   5  -5   16.10    0.83 
  -3   5  -5    8.91    0.59 
  -3   5  -5    8.92    0.54 
  -3   5  -5    9.26    0.42 
  -3   5  -5    9.68    0.57 
  -3   5  -5    8.16    0.65 
  -3   5  -5    9.45    0.45 
  -4   5  -5    0.76    0.11 
  -4   5  -5    0.60    0.16 
  -4   5  -5    0.98    0.14 
  -4   5  -5    0.69    0.16 
  -5   5  -5    1.58    0.19 
  -5   5  -5    2.09    0.16 
  -5   5  -5    1.67    0.14 
  -6   5  -5    1.20    0.13 
  -6   5  -5    1.07    0.11 
  -6   5  -5    1.04    0.15 
   7   4  -5    0.37    0.14 
   7   4  -5    0.57    0.12 
   6   4  -5    5.95    0.31 
   6   4  -5    5.44    0.43 
   6   4  -5    6.56    0.37 
   6   4  -5    5.26    0.29 
   5   4  -5    5.89    0.41 
   5   4  -5    5.46    0.31 
   5   4  -5    5.74    0.31 
   5   4  -5    5.46    0.38 
   5   4  -5    5.84    0.32 
   4   4  -5    3.60    0.23 
   4   4  -5    3.37    0.37 
   4   4  -5    3.07    0.34 
   4   4  -5    3.10    0.24 
   4   4  -5    2.96    0.34 
   4   4  -5    3.99    0.30 
   4   4  -5    3.58    0.22 
   4   4  -5    3.75    0.36 
   3   4  -5   11.04    0.67 
   3   4  -5   11.24    0.63 
   3   4  -5   11.58    0.66 
   3   4  -5   11.38    0.52 
   3   4  -5   11.49    0.56 
   3   4  -5   11.96    0.70 
   3   4  -5   12.30    0.70 
   3   4  -5   10.49    0.64 
   3   4  -5   11.37    0.69 
   3   4  -5   11.15    0.59 
   2   4  -5    0.05    0.16 
   2   4  -5    0.11    0.12 
   2   4  -5    0.30    0.14 
   2   4  -5    0.22    0.16 
   2   4  -5   -0.05    0.18 
   2   4  -5    0.24    0.18 
   2   4  -5    0.00    0.18 
   2   4  -5    0.20    0.17 
   2   4  -5    0.24    0.10 
   2   4  -5    0.06    0.14 
   1   4  -5   30.93    1.62 
   1   4  -5   29.28    1.49 
   1   4  -5   30.28    1.36 
   1   4  -5   29.76    1.62 
   1   4  -5   27.60    1.55 
   1   4  -5   30.32    1.44 
   1   4  -5   27.18    1.20 
   1   4  -5   27.91    1.16 
   1   4  -5   26.80    1.36 
   1   4  -5   26.53    1.57 
   0   4  -5    2.34    0.24 
   0   4  -5    1.81    0.22 
   0   4  -5    2.29    0.29 
   0   4  -5    1.84    0.18 
   0   4  -5    2.18    0.30 
   0   4  -5    1.97    0.28 
   0   4  -5    1.83    0.22 
   0   4  -5    2.07    0.24 
   0   4  -5    1.92    0.17 
   0   4  -5    1.87    0.24 
  -1   4  -5   29.20    1.61 
  -1   4  -5   28.99    1.19 
  -1   4  -5   28.11    1.15 
  -1   4  -5   28.14    1.34 
  -1   4  -5   27.18    1.53 
  -1   4  -5   29.56    1.42 
  -1   4  -5   27.08    1.34 
  -1   4  -5   26.73    1.55 
  -1   4  -5   29.36    1.47 
  -1   4  -5   28.03    1.35 
  -2   4  -5   24.44    1.02 
  -2   4  -5   22.65    1.31 
  -2   4  -5   23.63    1.32 
  -2   4  -5   23.58    1.15 
  -2   4  -5   24.79    1.17 
  -2   4  -5   23.81    0.98 
  -2   4  -5   24.49    1.23 
  -2   4  -5   24.12    1.39 
  -3   4  -5    5.46    0.32 
  -3   4  -5    5.85    0.36 
  -3   4  -5    5.77    0.30 
  -3   4  -5    5.95    0.39 
  -3   4  -5    5.89    0.42 
  -3   4  -5    5.40    0.39 
  -3   4  -5    4.96    0.41 
  -3   4  -5    5.28    0.47 
  -3   4  -5    5.63    0.39 
  -4   4  -5    6.87    0.42 
  -4   4  -5    6.21    0.52 
  -4   4  -5    6.94    0.47 
  -4   4  -5    7.02    0.35 
  -4   4  -5    7.02    0.42 
  -4   4  -5    7.12    0.38 
  -4   4  -5    6.73    0.45 
  -5   4  -5   -0.01    0.12 
  -5   4  -5   -0.12    0.13 
  -5   4  -5   -0.05    0.13 
  -5   4  -5    0.05    0.13 
  -5   4  -5    0.05    0.14 
  -6   4  -5    2.58    0.22 
  -6   4  -5    2.68    0.25 
  -6   4  -5    3.12    0.22 
  -6   4  -5    3.07    0.26 
  -6   4  -5    2.54    0.27 
  -7   4  -5    0.70    0.11 
  -7   4  -5    0.68    0.11 
  -7   4  -5    0.92    0.11 
   8   3  -5    0.22    0.09 
   8   3  -5    0.05    0.08 
   7   3  -5    3.87    0.30 
   7   3  -5    3.54    0.24 
   6   3  -5    2.92    0.31 
   6   3  -5    2.81    0.24 
   5   3  -5    2.95    0.34 
   5   3  -5    3.12    0.26 
   5   3  -5    3.28    0.34 
   5   3  -5    3.02    0.30 
   4   3  -5   11.34    0.65 
   4   3  -5   12.28    0.67 
   4   3  -5   10.62    0.58 
   4   3  -5   10.63    0.49 
   4   3  -5   11.42    0.64 
   4   3  -5   10.69    0.57 
   3   3  -5    3.67    0.31 
   3   3  -5    2.89    0.23 
   3   3  -5    3.30    0.33 
   3   3  -5    2.83    0.25 
   3   3  -5    3.55    0.32 
   2   3  -5   12.81    0.80 
   2   3  -5   12.49    0.72 
   2   3  -5   13.38    0.71 
   2   3  -5   13.49    0.69 
   1   3  -5   14.23    0.75 
   1   3  -5   14.45    0.84 
   1   3  -5   14.18    0.72 
   1   3  -5   13.63    0.76 
   0   3  -5   15.60    0.85 
   0   3  -5   16.68    0.94 
   0   3  -5   16.14    0.83 
   0   3  -5   15.62    0.79 
  -1   3  -5    0.14    0.13 
  -1   3  -5    0.00    0.17 
  -1   3  -5    0.16    0.13 
  -2   3  -5   13.65    0.70 
  -2   3  -5   13.69    0.74 
  -2   3  -5   13.79    0.83 
  -3   3  -5   12.94    0.63 
  -3   3  -5   11.20    0.71 
  -3   3  -5   12.27    0.55 
  -3   3  -5   12.68    0.66 
  -3   3  -5   12.72    0.70 
  -3   3  -5   12.97    0.77 
  -3   3  -5   11.94    0.61 
  -3   3  -5   12.75    0.69 
  -3   3  -5   11.74    0.53 
  -3   3  -5   11.55    0.63 
  -4   3  -5    0.33    0.15 
  -4   3  -5    0.35    0.16 
  -4   3  -5    0.39    0.11 
  -4   3  -5    0.27    0.18 
  -4   3  -5    0.28    0.19 
  -4   3  -5    0.36    0.10 
  -4   3  -5    0.29    0.19 
  -4   3  -5    0.19    0.17 
  -4   3  -5    0.36    0.13 
  -5   3  -5    2.65    0.26 
  -5   3  -5    3.54    0.31 
  -5   3  -5    2.66    0.19 
  -5   3  -5    2.70    0.25 
  -5   3  -5    3.16    0.31 
  -5   3  -5    2.76    0.31 
  -6   3  -5    0.11    0.13 
  -6   3  -5    0.37    0.15 
  -6   3  -5    0.23    0.15 
  -6   3  -5    0.09    0.13 
  -6   3  -5    0.16    0.13 
  -7   3  -5    1.51    0.14 
  -7   3  -5    1.58    0.20 
  -7   3  -5    1.81    0.21 
   8   2  -5    1.22    0.15 
  -8  -2   5    1.45    0.18 
   7   2  -5    0.61    0.13 
   6   2  -5    7.93    0.44 
   5   2  -5   13.79    0.70 
   4   2  -5   46.52    2.15 
   4   2  -5   45.82    2.29 
   4   2  -5   41.43    2.15 
   4   2  -5   46.97    2.26 
   3   2  -5   43.45    2.23 
   3   2  -5   44.84    2.09 
   3   2  -5   44.65    2.20 
   2   2  -5    0.08    0.16 
   2   2  -5   -0.01    0.12 
   2   2  -5    0.03    0.13 
   2   2  -5    0.11    0.14 
   1   2  -5    9.38    0.60 
   1   2  -5   10.59    0.56 
   1   2  -5    9.75    0.62 
   1   2  -5   10.72    0.55 
   1   2  -5   10.63    0.56 
  -1  -2   5    9.48    0.62 
   0   2  -5   23.52    1.29 
   0   2  -5   24.62    1.20 
   0   2  -5   24.61    1.14 
   0   2  -5   25.66    1.33 
   0   2  -5   24.34    1.23 
   0  -2   5   22.65    1.30 
   0  -2   5   22.08    1.30 
  -1   2  -5    2.34    0.26 
  -1   2  -5    2.39    0.23 
  -1   2  -5    2.28    0.22 
  -1   2  -5    2.18    0.27 
  -2   2  -5   32.01    1.49 
  -2   2  -5   31.02    1.72 
  -2   2  -5   31.22    1.57 
  -3   2  -5   53.17    2.88 
  -3   2  -5   53.15    2.64 
  -3   2  -5   53.73    2.49 
  -4   2  -5   11.39    0.69 
  -4   2  -5   11.29    0.65 
  -4   2  -5   10.71    0.52 
  -4   2  -5   10.52    0.49 
  -4   2  -5   10.70    0.59 
  -4   2  -5   10.75    0.58 
  -4   2  -5   12.53    0.68 
  -4   2  -5   11.93    0.58 
  -5   2  -5    1.64    0.13 
  -5   2  -5    1.26    0.27 
  -5   2  -5    1.92    0.15 
  -5   2  -5    1.65    0.17 
  -5   2  -5    1.52    0.16 
  -5   2  -5    1.56    0.28 
  -5   2  -5    1.51    0.25 
  -6   2  -5    5.76    0.35 
  -6   2  -5    5.59    0.39 
  -7   2  -5    4.37    0.24 
  -7   2  -5    4.47    0.34 
  -7   2  -5    4.55    0.34 
  -8   2  -5    0.44    0.11 
  -8   2  -5    0.28    0.10 
   8   1  -5    0.50    0.11 
  -8  -1   5    0.55    0.11 
   7   1  -5    7.77    0.46 
  -7  -1   5    8.05    0.44 
   6   1  -5    8.43    0.47 
   4   1  -5   66.23    3.30 
   3   1  -5    2.25    0.22 
   3   1  -5    2.11    0.21 
   3   1  -5    1.80    0.25 
   3   1  -5    2.33    0.24 
  -3  -1   5    1.45    0.23 
   2   1  -5  214.79   10.76 
   2   1  -5  218.12   10.76 
   2   1  -5  228.33    9.67 
   2   1  -5  206.85   10.52 
   2   1  -5  220.90   10.32 
  -2  -1   5  200.11   10.75 
  -2  -1   5  215.28    9.67 
  -2  -1   5  206.37   10.27 
  -2  -1   5  203.20   10.76 
   1   1  -5   21.48    1.15 
   1   1  -5   21.06    1.07 
   1   1  -5   21.32    1.01 
   1   1  -5   21.50    1.06 
   1   1  -5   21.98    1.15 
  -1  -1   5   20.87    1.16 
  -1  -1   5   19.88    1.02 
  -1  -1   5   19.97    1.06 
  -1  -1   5   21.07    1.15 
   0   1  -5    1.08    0.11 
   0   1  -5    1.11    0.15 
   0   1  -5    1.06    0.16 
   0   1  -5    1.21    0.12 
   0   1  -5    1.00    0.17 
   0  -1   5    0.91    0.20 
   0  -1   5    0.98    0.12 
   0  -1   5    0.94    0.17 
   0  -1   5    0.84    0.15 
  -1   1  -5    0.54    0.13 
  -1   1  -5    0.72    0.12 
  -1   1  -5    0.63    0.17 
  -1   1  -5    0.77    0.14 
  -1   1  -5    0.63    0.15 
   1  -1   5    0.49    0.14 
   1  -1   5    0.54    0.19 
   1  -1   5    0.50    0.12 
   1  -1   5    0.48    0.18 
  -2   1  -5    7.08    0.41 
  -2   1  -5    7.50    0.44 
  -2   1  -5    6.39    0.44 
  -2   1  -5    6.68    0.48 
  -2   1  -5    7.04    0.41 
   2  -1   5    6.16    0.35 
   2  -1   5    6.73    0.48 
   2  -1   5    6.26    0.45 
  -3   1  -5   63.45    2.93 
  -3   1  -5   62.92    3.11 
  -3   1  -5   63.35    3.38 
  -4   1  -5   10.04    0.61 
  -4   1  -5    9.72    0.59 
  -4   1  -5   10.13    0.60 
  -5   1  -5   21.09    0.99 
  -5   1  -5   20.30    1.11 
  -5   1  -5   20.46    1.01 
  -5   1  -5   19.71    1.07 
  -6   1  -5    2.36    0.21 
  -6   1  -5    2.85    0.25 
  -6   1  -5    2.69    0.33 
  -7   1  -5    3.46    0.32 
  -7   1  -5    3.36    0.25 
  -8   1  -5    1.82    0.13 
  -8   1  -5    1.74    0.19 
  -8   1  -5    1.54    0.16 
  -8   0   5   15.57    0.77 
  -7   0   5    0.68    0.14 
  -6   0   5    0.66    0.11 
  -5   0   5   18.44    0.99 
  -5   0   5   17.16    0.88 
  -4   0   5   14.22    0.79 
  -4   0   5   14.66    0.80 
  -4   0   5   14.19    0.77 
   3   0  -5   39.48    2.06 
   3   0  -5   40.31    2.20 
  -3   0   5   42.72    2.05 
  -3   0   5   44.10    1.95 
  -3   0   5   44.44    2.14 
  -3   0   5   37.27    2.19 
   2   0  -5    3.95    0.33 
   2   0  -5    3.30    0.23 
   2   0  -5    3.71    0.29 
   2   0  -5    3.76    0.28 
   2   0  -5    3.83    0.33 
  -2   0   5    3.59    0.25 
  -2   0   5    3.15    0.31 
  -2   0   5    3.88    0.31 
   1   0  -5  166.23    7.79 
   1   0  -5  147.70    7.56 
   1   0  -5  161.35    7.79 
   1   0  -5  149.37    7.43 
   1   0  -5  151.18    7.00 
  -1   0   5  155.74    7.79 
  -1   0   5  150.08    7.00 
  -1   0   5  156.46    7.44 
  -1   0   5  151.58    7.79 
  -1   0   5  150.60    7.80 
   0   0  -5  124.11    6.29 
   0   0  -5  135.40    6.60 
   0   0  -5  132.00    6.59 
   0   0  -5  130.38    5.93 
   0   0   5  127.50    6.59 
   0   0   5  132.74    5.93 
   0   0   5  132.04    6.60 
   0   0   5  128.24    6.29 
  -1   0  -5    0.26    0.15 
  -1   0  -5    0.42    0.14 
  -1   0  -5    0.42    0.09 
  -1   0  -5    0.31    0.14 
   1   0   5    0.35    0.10 
   1   0   5    0.09    0.15 
   1   0   5    0.13    0.15 
   1   0   5    0.28    0.15 
  -2   0  -5   57.84    2.95 
  -2   0  -5   56.19    2.95 
  -2   0  -5   57.06    2.63 
  -2   0  -5   57.79    2.78 
  -2   0  -5   57.38    3.02 
   2   0   5   55.80    2.78 
   2   0   5   56.45    2.65 
   2   0   5   57.65    2.63 
   2   0   5   55.84    2.94 
   2   0   5   56.89    2.95 
  -3   0  -5    5.65    0.37 
  -3   0  -5    5.41    0.34 
  -3   0  -5    5.68    0.44 
  -3   0  -5    4.74    0.39 
  -3   0  -5    5.23    0.35 
   3   0   5    5.12    0.34 
   3   0   5    4.94    0.39 
   3   0   5    5.30    0.37 
  -4   0  -5   55.26    2.59 
  -5   0  -5    9.63    0.51 
  -6   0  -5    5.58    0.37 
  -7   0  -5    0.31    0.14 
  -8   0  -5    1.08    0.12 
   8   0   5    0.95    0.15 
  -8   1   5    1.08    0.11 
  -7   1   5    6.75    0.38 
  -6   1   5    7.60    0.58 
  -6   1   5    9.32    0.47 
  -6   1   5    8.65    0.50 
  -5   1   5    1.83    0.27 
  -5   1   5    2.47    0.26 
  -5   1   5    2.67    0.32 
  -5   1   5    2.43    0.22 
  -5   1   5    2.45    0.28 
  -4   1   5   29.75    1.51 
  -4   1   5   30.51    1.58 
  -4   1   5   29.00    1.44 
  -3   1   5    9.72    0.52 
  -3   1   5   10.16    0.54 
  -3   1   5    8.16    0.61 
  -3   1   5   10.09    0.57 
   2  -1  -5  157.10    7.67 
   2  -1  -5  151.34    7.67 
  -2   1   5  131.14    7.66 
  -2   1   5  154.43    7.68 
  -2   1   5  162.17    6.89 
   1  -1  -5    0.50    0.12 
   1  -1  -5    0.42    0.09 
   1  -1  -5    0.52    0.15 
   1  -1  -5    0.64    0.16 
  -1   1   5    0.39    0.15 
  -1   1   5    0.51    0.11 
  -1   1   5    0.46    0.14 
  -1   1   5    0.62    0.12 
  -1   1   5    0.49    0.13 
   0  -1  -5    7.74    0.47 
   0  -1  -5    7.75    0.47 
   0  -1  -5    7.08    0.42 
   0  -1  -5    6.97    0.41 
   0   1   5    7.87    0.45 
   0   1   5    8.44    0.48 
   0   1   5    7.01    0.46 
   0   1   5    7.77    0.43 
   0   1   5    7.78    0.42 
  -1  -1  -5  128.37    6.49 
  -1  -1  -5  138.08    6.80 
  -1  -1  -5  143.57    6.81 
  -1  -1  -5  123.10    6.11 
   1   1   5  134.67    6.11 
   1   1   5  136.53    6.27 
   1   1   5  127.02    6.79 
   1   1   5  139.04    6.80 
   1   1   5  139.21    6.51 
  -2  -1  -5    6.19    0.38 
  -2  -1  -5    6.21    0.44 
  -2  -1  -5    5.61    0.36 
  -2  -1  -5    5.98    0.44 
  -2  -1  -5    5.90    0.38 
   2   1   5    6.56    0.39 
   2   1   5    5.63    0.41 
   2   1   5    6.33    0.44 
   2   1   5    6.61    0.37 
   2   1   5    6.68    0.38 
  -3  -1  -5   48.70    2.67 
   3   1   5   51.95    2.37 
   3   1   5   49.57    2.68 
   3   1   5   52.95    2.51 
   3   1   5   50.94    2.39 
   4   1   5    0.42    0.18 
   4   1   5    0.36    0.16 
   5   1   5   45.40    2.18 
   6   1   5    1.74    0.17 
  -7  -1  -5    4.55    0.31 
   7   1   5    4.96    0.32 
  -8  -1  -5    3.66    0.26 
   8   1   5    3.42    0.26 
  -8   2   5    3.23    0.26 
  -8   2   5    3.08    0.31 
  -7   2   5    0.48    0.13 
  -7   2   5    0.38    0.11 
  -6   2   5    5.38    0.35 
  -6   2   5    4.20    0.31 
  -6   2   5    4.81    0.29 
  -6   2   5    4.55    0.28 
  -6   2   5    4.28    0.44 
  -5   2   5    9.23    0.45 
  -5   2   5    9.48    0.48 
  -5   2   5    9.33    0.62 
  -5   2   5    9.41    0.43 
  -5   2   5    9.27    0.52 
  -5   2   5    8.56    0.56 
  -5   2   5    9.39    0.51 
  -5   2   5    8.63    0.57 
  -4   2   5    7.60    0.45 
  -4   2   5    6.66    0.39 
  -4   2   5    7.41    0.49 
  -4   2   5    6.87    0.37 
  -4   2   5    6.68    0.44 
  -3   2   5    5.13    0.34 
  -3   2   5    5.27    0.34 
  -3   2   5    4.95    0.39 
  -2   2   5    0.38    0.12 
  -2   2   5    0.15    0.15 
  -2   2   5    0.21    0.13 
  -2   2   5    0.23    0.14 
   1  -2  -5   21.42    1.09 
   1  -2  -5   20.81    1.09 
  -1   2   5   22.09    0.99 
  -1   2   5   19.30    1.08 
  -1   2   5   22.58    0.96 
  -1   2   5   18.83    0.96 
  -1   2   5   22.51    1.08 
  -1   2   5   19.82    1.08 
  -1   2   5   17.76    1.01 
  -1   2   5   17.87    1.01 
   0  -2  -5    0.34    0.11 
   0   2   5    0.21    0.10 
   0   2   5    0.26    0.11 
   0   2   5    0.31    0.13 
   0   2   5    0.24    0.12 
   0   2   5    0.18    0.12 
   0   2   5    0.18    0.09 
   0   2   5    0.31    0.13 
   0   2   5    0.17    0.10 
   0   2   5    0.21    0.05 
  -1  -2  -5    0.12    0.12 
  -1  -2  -5    0.10    0.13 
   1   2   5    0.24    0.13 
   1   2   5    0.12    0.13 
   1   2   5    0.15    0.11 
   1   2   5    0.08    0.10 
   1   2   5    0.15    0.10 
   1   2   5   -0.06    0.12 
   1   2   5    0.11    0.11 
  -2  -2  -5   96.36    4.89 
  -2  -2  -5   91.21    4.89 
   2   2   5   97.12    4.47 
   2   2   5   99.29    4.38 
   2   2   5   90.56    4.88 
   2   2   5  100.23    4.65 
   3   2   5    3.38    0.29 
   3   2   5    3.25    0.29 
   3   2   5    3.21    0.28 
   4   2   5  369.76   17.62 
   4   2   5  360.55   16.58 
   5   2   5    7.45    0.41 
   5   2   5    7.51    0.54 
   5   2   5    7.49    0.50 
   6   2   5    9.96    0.67 
   6   2   5   10.73    0.56 
   7   2   5    1.95    0.23 
  -8   3   5    2.25    0.17 
  -7   3   5    5.42    0.28 
  -7   3   5    5.62    0.35 
  -7   3   5    5.21    0.37 
  -7   3   5    5.38    0.32 
  -7   3   5    5.33    0.44 
  -6   3   5   10.69    0.50 
  -6   3   5   10.66    0.52 
  -6   3   5   10.19    0.60 
  -6   3   5   11.87    0.75 
  -5   3   5    0.06    0.12 
  -5   3   5   -0.12    0.18 
  -5   3   5    0.11    0.12 
  -5   3   5   -0.19    0.22 
  -5   3   5    0.13    0.21 
  -5   3   5   -0.03    0.15 
  -4   3   5   12.67    0.66 
  -4   3   5   11.62    0.63 
  -4   3   5   12.68    0.73 
  -4   3   5   12.32    0.52 
  -4   3   5   10.68    0.60 
  -4   3   5   12.02    0.58 
  -4   3   5   12.05    0.54 
  -3   3   5    3.29    0.28 
  -3   3   5    2.74    0.33 
  -2   3   5   33.09    1.50 
  -2   3   5   30.27    1.52 
  -2   3   5   32.53    1.58 
  -2   3   5   32.63    1.70 
   1  -3  -5   34.46    1.92 
  -1   3   5   36.12    1.83 
  -1   3   5   37.30    1.72 
  -1   3   5   39.83    1.73 
  -1   3   5   39.76    1.96 
  -1   3   5   39.69    1.83 
  -1   3   5   34.66    1.92 
  -1   3   5   38.54    1.78 
   0  -3  -5    7.69    0.46 
   0  -3  -5    8.13    0.46 
   0   3   5    8.83    0.43 
   0   3   5    9.16    0.50 
   0   3   5    7.86    0.46 
   0   3   5    8.04    0.43 
   0   3   5    9.10    0.42 
   0   3   5    8.69    0.46 
   0   3   5    8.23    0.46 
   0   3   5    7.68    0.44 
   0   3   5    8.31    0.41 
  -1  -3  -5   12.17    0.71 
   1   3   5   12.78    0.69 
   1   3   5   11.94    0.66 
   1   3   5   14.10    0.64 
   1   3   5   13.25    0.71 
   1   3   5   13.98    0.66 
   1   3   5   12.33    0.71 
   1   3   5   12.94    0.63 
   1   3   5   13.79    0.68 
   2   3   5    9.21    0.52 
   2   3   5    9.20    0.53 
   2   3   5    9.62    0.55 
   2   3   5   10.04    0.51 
   3   3   5   63.20    3.12 
   3   3   5   62.56    3.01 
   3   3   5   66.54    3.20 
   3   3   5   62.54    2.94 
   4   3   5    2.35    0.27 
   4   3   5    1.95    0.24 
   4   3   5    2.40    0.27 
   4   3   5    2.09    0.20 
   4   3   5    2.38    0.26 
   4   3   5    2.37    0.26 
   5   3   5   13.20    0.75 
   5   3   5   11.98    0.70 
   5   3   5   11.46    0.63 
   5   3   5   12.51    0.61 
   5   3   5   11.55    0.53 
   5   3   5   11.41    0.68 
   6   3   5   29.76    1.36 
   6   3   5   27.93    1.36 
   6   3   5   26.14    1.51 
   8   3   5    3.02    0.25 
   8   3   5    2.71    0.16 
  -7   4   5    3.36    0.29 
  -7   4   5    4.41    0.24 
  -7   4   5    4.88    0.26 
  -6   4   5    4.92    0.32 
  -6   4   5    5.33    0.37 
  -6   4   5    5.62    0.32 
  -6   4   5    5.43    0.29 
  -6   4   5    5.44    0.47 
  -5   4   5    3.33    0.27 
  -5   4   5    3.88    0.31 
  -5   4   5    3.65    0.26 
  -5   4   5    3.68    0.24 
  -5   4   5    3.08    0.42 
  -5   4   5    3.48    0.48 
  -5   4   5    3.82    0.28 
  -4   4   5    0.12    0.14 
  -4   4   5    0.23    0.11 
  -4   4   5    0.20    0.16 
  -4   4   5    0.11    0.14 
  -4   4   5   -0.03    0.17 
  -4   4   5    0.16    0.10 
  -4   4   5    0.11    0.11 
  -4   4   5    0.08    0.20 
  -4   4   5    0.52    0.23 
  -4   4   5    0.16    0.14 
  -3   4   5   14.25    0.78 
  -3   4   5   13.42    0.71 
  -3   4   5   15.62    0.72 
  -3   4   5   14.59    0.74 
  -3   4   5   15.29    0.83 
  -3   4   5   15.65    0.88 
  -3   4   5   15.11    0.62 
  -3   4   5   15.40    0.64 
  -3   4   5   13.79    0.91 
  -3   4   5   14.69    0.76 
  -2   4   5    2.45    0.31 
  -1   4   5   51.37    2.59 
  -1   4   5   48.07    2.35 
   0   4   5   47.21    2.50 
   0   4   5   53.18    2.61 
   0   4   5   50.76    2.38 
   1   4   5    6.49    0.41 
   1   4   5    6.76    0.42 
   2   4   5   21.12    0.98 
   2   4   5   21.16    1.03 
   2   4   5   19.66    1.09 
   2   4   5   20.20    1.03 
   3   4   5    0.73    0.21 
   3   4   5    0.79    0.08 
   3   4   5    0.62    0.19 
   3   4   5    0.82    0.12 
   3   4   5    0.79    0.17 
   3   4   5    0.76    0.15 
   3   4   5    0.77    0.14 
   3   4   5    0.80    0.18 
   3   4   5    0.57    0.22 
   3   4   5    0.75    0.12 
   4   4   5   19.84    0.83 
   4   4   5   20.40    1.03 
   4   4   5   19.44    0.97 
   4   4   5   21.69    1.10 
   4   4   5   19.18    0.99 
   4   4   5   21.52    1.10 
   4   4   5   17.71    1.15 
   4   4   5   19.75    0.86 
   4   4   5   20.32    1.05 
   5   4   5    1.52    0.29 
   5   4   5    1.32    0.13 
   5   4   5    1.62    0.21 
   5   4   5    1.40    0.15 
   5   4   5    1.13    0.18 
   5   4   5    1.42    0.12 
   5   4   5    1.46    0.25 
   6   4   5    0.98    0.12 
   6   4   5    1.04    0.21 
   6   4   5    0.93    0.14 
   6   4   5    1.15    0.16 
   6   4   5    1.03    0.10 
   7   4   5    1.18    0.17 
   7   4   5    1.21    0.13 
   8   4   5   -0.05    0.09 
   8   4   5    0.02    0.13 
  -7   5   5    2.47    0.14 
  -7   5   5    2.18    0.17 
  -7   5   5    2.21    0.20 
  -6   5   5    2.32    0.21 
  -6   5   5    2.06    0.26 
  -6   5   5    2.26    0.18 
  -5   5   5    0.06    0.09 
  -5   5   5    0.00    0.11 
  -5   5   5    0.14    0.18 
  -5   5   5    0.17    0.14 
  -5   5   5    0.19    0.18 
  -4   5   5    7.67    0.63 
  -4   5   5    9.67    0.56 
  -4   5   5    8.94    0.55 
  -4   5   5    8.65    0.47 
  -4   5   5    8.41    0.41 
  -4   5   5    8.66    0.39 
  -4   5   5    8.53    0.66 
  -3   5   5    1.18    0.18 
  -3   5   5    1.32    0.17 
  -3   5   5    1.71    0.17 
  -3   5   5    1.44    0.13 
  -3   5   5    1.42    0.17 
  -3   5   5    1.22    0.28 
  -3   5   5    1.07    0.13 
  -2   5   5   19.17    1.23 
  -2   5   5   20.15    0.84 
  -2   5   5   20.50    0.87 
  -2   5   5   21.25    1.00 
  -2   5   5   20.24    1.16 
  -2   5   5   21.85    1.15 
  -2   5   5   20.26    1.05 
  -2   5   5   21.59    1.14 
  -1   5   5   19.10    1.02 
  -1   5   5   16.99    1.10 
  -1   5   5   19.14    0.96 
  -1   5   5   17.68    0.93 
  -1   5   5   19.33    1.05 
  -1   5   5   18.99    0.90 
   0   5   5    4.89    0.39 
   0   5   5    4.71    0.41 
   0   5   5    4.74    0.28 
   0   5   5    3.90    0.39 
   0   5   5    5.10    0.35 
   0   5   5    4.55    0.34 
   1   5   5   12.68    0.82 
   1   5   5   13.34    0.56 
   1   5   5   13.19    0.70 
   1   5   5   13.74    0.83 
   1   5   5   12.62    0.80 
   1   5   5   13.36    0.74 
   1   5   5   15.01    0.72 
   1   5   5   13.10    0.54 
   2   5   5   -0.14    0.07 
   2   5   5   -0.23    0.19 
   2   5   5    0.05    0.18 
   2   5   5   -0.26    0.19 
   2   5   5    0.07    0.16 
   2   5   5   -0.09    0.09 
   2   5   5   -0.18    0.13 
   2   5   5   -0.21    0.19 
   2   5   5   -0.39    0.14 
   3   5   5    1.15    0.10 
   3   5   5    0.85    0.17 
   3   5   5    0.95    0.15 
   3   5   5    1.03    0.18 
   3   5   5    1.03    0.13 
   3   5   5    0.91    0.08 
   3   5   5    1.08    0.23 
   3   5   5    1.07    0.25 
   3   5   5    0.99    0.17 
   3   5   5    1.15    0.18 
   3   5   5    0.96    0.09 
   4   5   5    1.39    0.19 
   4   5   5    1.53    0.12 
   4   5   5    1.38    0.22 
   4   5   5    1.44    0.29 
   4   5   5    1.28    0.19 
   4   5   5    1.58    0.21 
   4   5   5    1.42    0.19 
   4   5   5    1.43    0.13 
   4   5   5    1.46    0.27 
   4   5   5    1.31    0.12 
   5   5   5    8.02    0.37 
   5   5   5    8.76    0.55 
   5   5   5    7.06    0.58 
   5   5   5    7.71    0.43 
   5   5   5    7.74    0.39 
   5   5   5    7.22    0.53 
   6   5   5    5.25    0.29 
   6   5   5    5.50    0.31 
   6   5   5    5.52    0.40 
   7   5   5    0.32    0.10 
   7   5   5    0.37    0.14 
   8   5   5    1.71    0.17 
  -6   6   5    2.88    0.18 
  -6   6   5    2.95    0.28 
  -5   6   5    2.91    0.28 
  -5   6   5    2.55    0.25 
  -5   6   5    2.18    0.18 
  -4   6   5   -0.05    0.09 
  -4   6   5    0.06    0.19 
  -4   6   5   -0.09    0.17 
  -4   6   5   -0.02    0.12 
  -4   6   5    0.04    0.18 
  -3   6   5    3.01    0.41 
  -3   6   5    4.08    0.36 
  -3   6   5    3.48    0.20 
  -3   6   5    3.53    0.35 
  -3   6   5    3.48    0.43 
  -3   6   5    3.56    0.32 
  -2   6   5    0.45    0.17 
  -2   6   5    0.80    0.25 
  -2   6   5    1.12    0.17 
  -2   6   5    0.69    0.19 
  -2   6   5    0.88    0.21 
  -2   6   5    0.74    0.17 
  -1   6   5    9.05    0.50 
  -1   6   5    9.23    0.47 
  -1   6   5    7.83    0.56 
  -1   6   5    8.41    0.53 
  -1   6   5    8.10    0.58 
  -1   6   5    8.70    0.60 
  -1   6   5    8.65    0.54 
   0   6   5    3.94    0.37 
   0   6   5    4.20    0.29 
   0   6   5    3.66    0.40 
   0   6   5    4.23    0.33 
   0   6   5    3.76    0.36 
   0   6   5    4.02    0.31 
   0   6   5    4.06    0.33 
   0   6   5    3.79    0.34 
   0   6   5    3.67    0.35 
   0   6   5    3.65    0.33 
   1   6   5    8.78    0.56 
   1   6   5    9.29    0.62 
   1   6   5    9.18    0.48 
   1   6   5    9.26    0.64 
   1   6   5    9.79    0.53 
   1   6   5    9.83    0.64 
   1   6   5    8.62    0.54 
   2   6   5    4.21    0.42 
   2   6   5    4.15    0.21 
   2   6   5    4.00    0.38 
   2   6   5    3.91    0.36 
   2   6   5    4.52    0.42 
   2   6   5    4.06    0.19 
   2   6   5    4.18    0.41 
   2   6   5    4.02    0.32 
   3   6   5    0.01    0.08 
   3   6   5   -0.13    0.21 
   3   6   5    0.01    0.21 
   3   6   5   -0.22    0.10 
   3   6   5    0.00    0.21 
   3   6   5   -0.32    0.21 
   3   6   5    0.00    0.18 
   3   6   5   -0.04    0.23 
   4   6   5    0.86    0.19 
   4   6   5    0.89    0.09 
   4   6   5    1.32    0.20 
   4   6   5    1.16    0.30 
   4   6   5    0.90    0.24 
   4   6   5    1.01    0.12 
   5   6   5   12.52    0.71 
   5   6   5   12.72    0.75 
   5   6   5   11.56    0.54 
   5   6   5   12.01    0.52 
   5   6   5   11.39    0.74 
   6   6   5    0.25    0.19 
   7   6   5    2.93    0.27 
  -5   7   5   -0.05    0.12 
  -5   7   5    0.13    0.11 
  -4   7   5    0.20    0.18 
  -4   7   5    0.19    0.15 
  -3   7   5   -0.15    0.17 
  -3   7   5   -0.18    0.16 
  -3   7   5    0.08    0.15 
  -2   7   5    9.16    0.52 
  -2   7   5    9.11    0.54 
  -2   7   5    9.95    0.58 
  -2   7   5    8.41    0.64 
  -2   7   5    9.64    0.59 
  -1   7   5    8.57    0.51 
  -1   7   5    6.29    0.53 
  -1   7   5    8.59    0.45 
  -1   7   5    7.84    0.46 
  -1   7   5    8.27    0.50 
  -1   7   5    6.24    0.58 
   0   7   5   69.39    3.10 
   0   7   5   67.44    3.26 
   0   7   5   64.50    3.59 
   0   7   5   63.99    3.75 
   0   7   5   63.07    3.43 
   0   7   5   67.88    3.77 
   0   7   5   68.74    3.52 
   1   7   5    6.47    0.52 
   1   7   5    6.84    0.50 
   1   7   5    7.18    0.47 
   1   7   5    6.28    0.49 
   1   7   5    6.19    0.42 
   2   7   5    0.72    0.17 
   2   7   5    0.82    0.20 
   2   7   5    0.78    0.23 
   2   7   5    0.93    0.18 
   3   7   5    0.33    0.18 
   3   7   5    0.33    0.21 
   3   7   5    0.51    0.08 
   3   7   5    0.62    0.21 
   4   7   5    1.67    0.16 
   4   7   5    1.29    0.22 
   4   7   5    1.53    0.24 
   4   7   5    1.36    0.22 
   5   7   5    0.23    0.06 
   5   7   5    0.35    0.16 
   5   7   5    0.17    0.15 
   6   7   5    0.69    0.16 
  -4   8   5   -0.07    0.09 
  -4   8   5    0.06    0.12 
  -3   8   5    0.65    0.14 
  -3   8   5    0.58    0.15 
  -2   8   5    0.08    0.15 
  -2   8   5   -0.21    0.12 
  -2   8   5   -0.03    0.11 
  -1   8   5    9.89    0.58 
  -1   8   5    9.82    0.58 
  -1   8   5    8.74    0.63 
  -1   8   5    9.54    0.54 
  -1   8   5   10.15    0.51 
   0   8   5    5.04    0.41 
   0   8   5    5.35    0.41 
   0   8   5    4.80    0.37 
   0   8   5    4.93    0.31 
   0   8   5    4.99    0.43 
   1   8   5   -0.13    0.14 
   1   8   5    0.22    0.19 
   1   8   5   -0.10    0.20 
   2   8   5    8.92    0.59 
   2   8   5    9.65    0.64 
   2   8   5   10.42    0.65 
   3   8   5    0.02    0.19 
   3   8   5    0.01    0.19 
   3   8   5    0.05    0.16 
   4   8   5    0.43    0.17 
   5   8   5    0.30    0.14 
   1   9   5    0.04    0.13 
   1   9   5    0.37    0.15 
   2   9   5   -0.14    0.14 
   3   9   5    0.16    0.13 
   3   8  -6    0.70    0.12 
   2   8  -6   -0.03    0.08 
   1   8  -6    0.40    0.11 
   1   8  -6    0.52    0.14 
   0   8  -6    1.27    0.17 
   0   8  -6    1.09    0.15 
  -1   8  -6    0.06    0.12 
  -1   8  -6    0.07    0.09 
   5   7  -6   -0.02    0.06 
   5   7  -6    0.00    0.07 
   4   7  -6    3.12    0.27 
   4   7  -6    2.79    0.15 
   4   7  -6    2.96    0.17 
   3   7  -6    0.71    0.16 
   3   7  -6    0.97    0.14 
   3   7  -6    1.04    0.10 
   3   7  -6    0.79    0.10 
   2   7  -6    0.12    0.14 
   2   7  -6    0.32    0.10 
   2   7  -6    0.46    0.07 
   2   7  -6    0.27    0.12 
   2   7  -6    0.54    0.14 
   1   7  -6    3.63    0.38 
   1   7  -6    3.79    0.22 
   1   7  -6    4.36    0.32 
   1   7  -6    4.02    0.34 
   0   7  -6    0.20    0.15 
   0   7  -6    0.44    0.17 
   0   7  -6    0.20    0.09 
   0   7  -6    0.04    0.18 
  -1   7  -6    2.39    0.17 
  -1   7  -6    2.47    0.23 
  -1   7  -6    2.25    0.24 
  -2   7  -6    1.60    0.14 
  -2   7  -6    1.50    0.21 
  -2   7  -6    1.28    0.19 
  -2   7  -6    1.41    0.16 
  -3   7  -6    0.48    0.12 
  -3   7  -6    0.21    0.14 
  -4   7  -6    0.39    0.10 
   6   6  -6    0.06    0.07 
   6   6  -6    0.21    0.08 
   6   6  -6   -0.04    0.10 
   5   6  -6   20.72    1.14 
   5   6  -6   20.12    0.84 
   4   6  -6    0.91    0.18 
   4   6  -6    0.83    0.10 
   4   6  -6    0.66    0.12 
   3   6  -6    1.97    0.25 
   3   6  -6    2.16    0.21 
   3   6  -6    2.03    0.18 
   3   6  -6    1.85    0.26 
   2   6  -6    7.13    0.54 
   2   6  -6    7.96    0.35 
   2   6  -6    7.22    0.48 
   2   6  -6    7.92    0.38 
   2   6  -6    7.78    0.52 
   1   6  -6    0.36    0.14 
   1   6  -6    0.33    0.10 
   1   6  -6    0.44    0.14 
   1   6  -6    0.29    0.11 
   1   6  -6    0.25    0.20 
   0   6  -6    1.53    0.19 
   0   6  -6    1.08    0.17 
   0   6  -6    1.17    0.12 
   0   6  -6    0.92    0.21 
   0   6  -6    1.38    0.11 
  -1   6  -6   -0.19    0.12 
  -1   6  -6   -0.05    0.09 
  -1   6  -6   -0.35    0.19 
  -1   6  -6   -0.14    0.14 
  -1   6  -6   -0.09    0.11 
  -2   6  -6    0.65    0.19 
  -2   6  -6    1.01    0.16 
  -2   6  -6    0.26    0.12 
  -2   6  -6    0.31    0.17 
  -2   6  -6    0.56    0.10 
  -3   6  -6    1.06    0.11 
  -3   6  -6    1.33    0.18 
  -3   6  -6    1.25    0.14 
  -3   6  -6    1.49    0.17 
  -3   6  -6    1.03    0.17 
  -4   6  -6    0.73    0.14 
  -4   6  -6    0.57    0.14 
  -4   6  -6    0.63    0.10 
  -4   6  -6    0.77    0.09 
  -5   6  -6    2.89    0.18 
  -5   6  -6    2.68    0.21 
   7   5  -6    1.95    0.14 
   7   5  -6    1.72    0.19 
   6   5  -6    4.64    0.34 
   6   5  -6    4.39    0.26 
   6   5  -6    4.45    0.27 
   6   5  -6    4.52    0.25 
   5   5  -6    1.74    0.22 
   5   5  -6    2.38    0.21 
   5   5  -6    2.16    0.23 
   5   5  -6    2.34    0.21 
   4   5  -6    0.00    0.12 
   4   5  -6   -0.02    0.11 
   4   5  -6   -0.21    0.12 
   4   5  -6    0.13    0.14 
   3   5  -6   44.79    2.38 
   3   5  -6   47.77    2.51 
   3   5  -6   49.50    2.17 
   3   5  -6   44.34    2.46 
   3   5  -6   39.83    2.36 
   3   5  -6   47.55    1.92 
   3   5  -6   47.32    1.86 
   2   5  -6    8.13    0.56 
   2   5  -6    9.24    0.43 
   2   5  -6    8.39    0.52 
   2   5  -6    8.88    0.57 
   2   5  -6    8.70    0.53 
   2   5  -6    8.73    0.47 
   2   5  -6    8.87    0.59 
   2   5  -6    8.76    0.40 
   1   5  -6    8.37    0.70 
   1   5  -6   10.74    0.45 
   1   5  -6    9.08    0.55 
   1   5  -6    9.59    0.63 
   1   5  -6   10.57    0.52 
   1   5  -6    9.90    0.66 
   1   5  -6   10.39    0.57 
   1   5  -6   10.45    0.47 
   1   5  -6    9.80    0.56 
   1   5  -6   10.38    0.63 
   0   5  -6    1.66    0.17 
   0   5  -6    1.40    0.19 
   0   5  -6    1.58    0.19 
   0   5  -6    1.52    0.19 
   0   5  -6    1.37    0.33 
   0   5  -6    1.27    0.12 
   0   5  -6    1.76    0.18 
   0   5  -6    1.48    0.17 
   0   5  -6    1.19    0.20 
  -1   5  -6    6.58    0.37 
  -1   5  -6    4.85    0.33 
  -1   5  -6    5.72    0.40 
  -1   5  -6    5.90    0.29 
  -1   5  -6    5.04    0.35 
  -1   5  -6    5.96    0.31 
  -1   5  -6    4.74    0.46 
  -1   5  -6    5.07    0.31 
  -1   5  -6    5.46    0.51 
  -1   5  -6    5.44    0.38 
  -2   5  -6    3.68    0.43 
  -2   5  -6    4.05    0.25 
  -2   5  -6    3.71    0.27 
  -2   5  -6    3.69    0.37 
  -2   5  -6    4.01    0.33 
  -2   5  -6    3.38    0.39 
  -3   5  -6    1.47    0.13 
  -3   5  -6    1.19    0.20 
  -3   5  -6    1.40    0.14 
  -3   5  -6    1.19    0.17 
  -3   5  -6    1.05    0.17 
  -4   5  -6   -0.12    0.13 
  -4   5  -6   -0.16    0.13 
  -4   5  -6   -0.06    0.18 
  -4   5  -6    0.05    0.11 
  -5   5  -6    0.06    0.12 
  -5   5  -6    0.22    0.12 
  -5   5  -6    0.17    0.09 
  -6   5  -6    1.45    0.12 
  -6   5  -6    1.39    0.13 
  -6   5  -6    1.01    0.14 
   7   4  -6    2.16    0.21 
   7   4  -6    1.90    0.24 
   6   4  -6    0.22    0.13 
   6   4  -6    0.10    0.16 
   5   4  -6    4.84    0.30 
   5   4  -6    5.67    0.39 
   5   4  -6    5.24    0.36 
   5   4  -6    5.15    0.29 
   4   4  -6   10.05    0.66 
   4   4  -6   11.93    0.69 
   4   4  -6   11.11    0.59 
   4   4  -6   11.64    0.56 
   4   4  -6   11.00    0.51 
   4   4  -6   10.47    0.68 
   3   4  -6    3.69    0.24 
   3   4  -6    4.12    0.32 
   3   4  -6    4.27    0.36 
   3   4  -6    3.89    0.25 
   3   4  -6    4.21    0.26 
   3   4  -6    3.87    0.38 
   3   4  -6    3.96    0.36 
   2   4  -6   19.37    1.10 
   2   4  -6   19.80    0.95 
   2   4  -6   19.82    1.10 
   2   4  -6   20.96    1.03 
   2   4  -6   17.99    0.93 
   2   4  -6   18.99    1.17 
   2   4  -6   20.58    1.07 
   2   4  -6   18.07    1.04 
   2   4  -6   19.67    0.84 
   2   4  -6   19.79    0.81 
   2   4  -6   20.05    0.99 
   1   4  -6    1.70    0.21 
   1   4  -6    1.83    0.12 
   1   4  -6    2.09    0.31 
   1   4  -6    2.10    0.25 
   1   4  -6    2.12    0.16 
   1   4  -6    1.58    0.22 
   1   4  -6    2.34    0.26 
   1   4  -6    1.59    0.17 
   1   4  -6    1.55    0.17 
   1   4  -6    1.64    0.23 
   0   4  -6   44.89    2.07 
   0   4  -6   46.39    2.19 
   0   4  -6   45.00    2.37 
   0   4  -6   42.93    2.28 
   0   4  -6   41.79    2.40 
   0   4  -6   44.47    1.79 
   0   4  -6   41.78    2.44 
   0   4  -6   46.19    2.26 
   0   4  -6   43.89    2.09 
   0   4  -6   45.42    1.84 
  -1   4  -6    1.46    0.13 
  -1   4  -6    1.31    0.20 
  -1   4  -6    1.24    0.20 
  -1   4  -6    1.17    0.17 
  -1   4  -6    1.06    0.12 
  -1   4  -6    1.17    0.20 
  -1   4  -6    1.09    0.11 
  -1   4  -6    1.09    0.13 
  -1   4  -6    1.13    0.27 
  -1   4  -6    1.22    0.10 
  -2   4  -6    7.07    0.45 
  -2   4  -6    6.66    0.53 
  -2   4  -6    6.38    0.40 
  -2   4  -6    6.65    0.39 
  -2   4  -6    6.89    0.32 
  -2   4  -6    5.89    0.47 
  -2   4  -6    6.58    0.34 
  -2   4  -6    6.73    0.45 
  -2   4  -6    6.38    0.43 
  -3   4  -6   15.52    0.65 
  -3   4  -6   15.85    0.76 
  -3   4  -6   13.26    0.83 
  -3   4  -6   15.56    0.67 
  -3   4  -6   15.55    0.85 
  -3   4  -6   14.11    0.94 
  -3   4  -6   15.07    0.80 
  -3   4  -6   14.92    0.86 
  -4   4  -6   -0.08    0.14 
  -4   4  -6   -0.20    0.15 
  -4   4  -6   -0.15    0.12 
  -4   4  -6    0.06    0.15 
  -5   4  -6    2.13    0.18 
  -5   4  -6    2.24    0.16 
  -5   4  -6    1.71    0.20 
  -5   4  -6    1.74    0.16 
  -6   4  -6    0.43    0.12 
  -6   4  -6    0.14    0.09 
  -6   4  -6    0.30    0.11 
  -6   4  -6    0.37    0.10 
  -6   4  -6    0.24    0.11 
  -7   4  -6    1.52    0.14 
   8   3  -6    0.80    0.12 
   8   3  -6    1.43    0.16 
   7   3  -6    0.41    0.09 
   7   3  -6    0.36    0.12 
   6   3  -6    0.79    0.15 
   6   3  -6    0.60    0.12 
   5   3  -6    1.93    0.22 
   5   3  -6    1.96    0.18 
   4   3  -6   13.27    0.69 
   4   3  -6   13.73    0.68 
   4   3  -6   13.45    0.78 
   4   3  -6   13.38    0.75 
   4   3  -6   13.35    0.58 
   4   3  -6   13.95    0.78 
   3   3  -6   38.98    1.94 
   3   3  -6   39.48    1.67 
   3   3  -6   40.34    1.96 
   3   3  -6   42.89    1.97 
   3   3  -6   38.55    1.72 
   3   3  -6   43.54    2.10 
   3   3  -6   44.91    2.07 
   2   3  -6    4.08    0.39 
   2   3  -6    3.72    0.25 
   2   3  -6    4.32    0.32 
   2   3  -6    4.11    0.33 
   2   3  -6    3.67    0.33 
   1   3  -6   64.14    3.06 
   1   3  -6   68.03    3.57 
   1   3  -6   68.53    3.25 
   1   3  -6   64.34    3.31 
   0   3  -6    0.32    0.19 
   0   3  -6    0.09    0.14 
   0   3  -6    0.13    0.14 
   0   3  -6    0.11    0.12 
  -1   3  -6   45.38    2.61 
  -1   3  -6   50.53    2.37 
  -2   3  -6    5.40    0.40 
  -2   3  -6    6.63    0.40 
  -2   3  -6    5.77    0.30 
  -2   3  -6    5.78    0.33 
  -2   3  -6    5.81    0.36 
  -2   3  -6    6.82    0.42 
  -2   3  -6    5.53    0.30 
  -2   3  -6    6.61    0.47 
  -3   3  -6    3.09    0.22 
  -3   3  -6    3.28    0.21 
  -3   3  -6    3.20    0.32 
  -3   3  -6    2.93    0.29 
  -3   3  -6    2.86    0.31 
  -3   3  -6    3.56    0.34 
  -3   3  -6    2.83    0.23 
  -3   3  -6    3.06    0.33 
  -3   3  -6    2.45    0.31 
  -4   3  -6    9.69    0.45 
  -4   3  -6   10.42    0.57 
  -4   3  -6    9.80    0.50 
  -4   3  -6    9.98    0.56 
  -4   3  -6    9.54    0.61 
  -4   3  -6   10.01    0.62 
  -4   3  -6    9.08    0.65 
  -4   3  -6   10.27    0.49 
  -5   3  -6   -0.15    0.07 
  -5   3  -6   -0.09    0.16 
  -5   3  -6   -0.10    0.13 
  -5   3  -6   -0.09    0.13 
  -5   3  -6   -0.01    0.17 
  -5   3  -6    0.15    0.14 
  -6   3  -6    6.03    0.38 
  -6   3  -6    6.07    0.33 
  -6   3  -6    5.69    0.35 
  -6   3  -6    5.46    0.37 
  -6   3  -6    6.14    0.36 
  -7   3  -6    0.63    0.13 
  -7   3  -6    0.86    0.13 
  -7   3  -6    0.85    0.11 
   8   2  -6    1.58    0.15 
  -8  -2   6    1.36    0.15 
   7   2  -6    1.71    0.21 
   6   2  -6    0.31    0.14 
   5   2  -6    7.09    0.42 
   4   2  -6   44.56    2.18 
   4   2  -6   44.56    2.08 
   4   2  -6   42.96    2.20 
   4   2  -6   41.73    2.08 
   3   2  -6    4.63    0.34 
   3   2  -6    4.51    0.33 
   3   2  -6    4.52    0.36 
   2   2  -6   35.13    1.74 
   2   2  -6   35.62    1.65 
   2   2  -6   34.13    1.77 
   1   2  -6    3.04    0.28 
   1   2  -6    3.28    0.27 
   1   2  -6    3.51    0.27 
   0   2  -6   24.72    1.17 
   0   2  -6   25.52    1.25 
   0   2  -6   24.82    1.35 
   0   2  -6   22.29    1.32 
   0   2  -6   24.33    1.23 
  -1   2  -6    0.91    0.16 
  -1   2  -6    0.84    0.14 
  -1   2  -6    0.69    0.17 
  -2   2  -6   25.60    1.33 
  -2   2  -6   26.38    1.26 
  -2   2  -6   26.64    1.46 
  -3   2  -6   48.44    2.60 
  -3   2  -6   56.87    2.56 
  -3   2  -6   57.16    2.96 
  -3   2  -6   56.60    2.71 
  -4   2  -6    0.70    0.10 
  -4   2  -6    0.72    0.10 
  -4   2  -6    0.38    0.21 
  -4   2  -6    0.60    0.21 
  -4   2  -6    0.73    0.19 
  -4   2  -6    0.70    0.16 
  -5   2  -6   22.30    1.07 
  -5   2  -6   22.32    1.08 
  -5   2  -6   22.77    1.07 
  -5   2  -6   21.35    1.23 
  -5   2  -6   19.62    1.17 
  -6   2  -6    2.83    0.23 
  -6   2  -6    2.68    0.26 
  -6   2  -6    3.02    0.30 
  -7   2  -6    6.05    0.37 
  -7   2  -6    6.11    0.38 
  -8   2  -6    2.12    0.18 
  -8   2  -6    2.50    0.19 
   8   1  -6    2.66    0.22 
  -8  -1   6    2.85    0.21 
   7   1  -6    0.58    0.15 
  -7  -1   6    0.32    0.14 
   6   1  -6    9.27    0.51 
   3   1  -6   10.84    0.61 
   3   1  -6   11.49    0.62 
   3   1  -6   11.25    0.63 
   2   1  -6    4.00    0.34 
   2   1  -6    4.24    0.35 
   2   1  -6    4.46    0.30 
   2   1  -6    4.13    0.28 
   2   1  -6    4.29    0.30 
  -2  -1   6    3.99    0.36 
   1   1  -6  110.73    4.94 
   1   1  -6  113.36    5.24 
   1   1  -6  109.29    5.51 
   1   1  -6  108.58    5.52 
   1   1  -6  113.25    5.33 
  -1  -1   6  105.51    5.52 
  -1  -1   6  102.07    4.94 
  -1  -1   6  104.14    5.52 
  -1  -1   6  105.39    5.25 
   0   1  -6   17.95    0.99 
   0   1  -6   18.71    0.91 
   0   1  -6   19.09    0.87 
   0   1  -6   17.78    0.99 
   0  -1   6   16.43    0.91 
   0  -1   6   17.18    0.88 
   0  -1   6   17.22    1.01 
   0  -1   6   17.58    1.00 
  -1   1  -6   89.88    4.24 
  -1   1  -6   85.69    4.46 
  -1   1  -6   90.47    4.00 
  -1   1  -6   94.08    4.62 
  -1   1  -6   86.41    4.46 
   1  -1   6   80.91    4.46 
   1  -1   6   81.79    4.47 
  -2   1  -6   14.76    0.73 
  -2   1  -6   14.91    0.82 
  -2   1  -6   13.23    0.84 
  -2   1  -6   14.48    0.76 
   2  -1   6   13.02    0.83 
  -3   1  -6    1.68    0.21 
  -3   1  -6    1.84    0.21 
  -3   1  -6    1.71    0.20 
  -4   1  -6    9.31    0.54 
  -4   1  -6    9.71    0.57 
  -4   1  -6    8.58    0.49 
  -5   1  -6   13.20    0.66 
  -5   1  -6   12.68    0.67 
  -6   1  -6   10.77    0.57 
  -6   1  -6   10.62    0.60 
  -7   1  -6    1.31    0.13 
  -7   1  -6    1.23    0.17 
  -8   1  -6    3.55    0.19 
  -8   1  -6    4.06    0.28 
  -8   1  -6    3.79    0.26 
  -8   0   6    2.43    0.19 
  -7   0   6   33.34    1.61 
  -6   0   6    1.89    0.24 
  -5   0   6   20.27    1.00 
  -4   0   6   17.60    0.97 
  -4   0   6   17.76    0.93 
   3   0  -6    0.65    0.19 
  -3   0   6    1.06    0.17 
  -3   0   6    1.06    0.14 
   2   0  -6   43.85    2.24 
   2   0  -6   44.68    2.23 
   2   0  -6   47.42    2.38 
   2   0  -6   46.30    2.11 
   2   0  -6   44.60    2.38 
  -2   0   6   47.35    2.24 
  -2   0   6   42.02    2.37 
  -2   0   6   42.11    2.38 
  -2   0   6   47.97    2.11 
  -2   0   6   46.30    2.33 
   1   0  -6   13.00    0.65 
   1   0  -6   12.98    0.74 
   1   0  -6   13.26    0.75 
   1   0  -6   12.35    0.68 
   1   0  -6   12.11    0.65 
  -1   0   6   12.30    0.75 
  -1   0   6   13.90    0.69 
  -1   0   6   12.44    0.69 
  -1   0   6   13.55    0.67 
  -1   0   6   12.08    0.74 
   0   0  -6   12.07    0.69 
   0   0  -6   12.00    0.60 
   0   0  -6   11.82    0.63 
   0   0  -6   11.88    0.69 
   0   0   6   11.91    0.64 
   0   0   6   12.17    0.61 
   0   0   6   10.95    0.68 
   0   0   6   11.47    0.70 
  -1   0  -6    0.48    0.18 
  -1   0  -6    0.31    0.15 
  -1   0  -6    0.31    0.13 
  -1   0  -6    0.23    0.15 
   1   0   6    0.32    0.16 
   1   0   6    0.22    0.14 
   1   0   6    0.51    0.20 
   1   0   6    0.34    0.17 
  -2   0  -6   20.32    1.07 
  -2   0  -6   19.86    1.06 
  -2   0  -6   19.76    0.94 
  -2   0  -6   19.28    0.98 
  -2   0  -6   18.62    1.08 
   2   0   6   18.19    1.06 
   2   0   6   19.85    0.93 
   2   0   6   18.66    0.94 
   2   0   6   18.02    1.08 
   2   0   6   18.85    0.98 
  -3   0  -6    7.77    0.48 
  -3   0  -6    8.11    0.48 
  -3   0  -6    7.79    0.47 
  -5   0  -6    9.80    0.52 
  -6   0  -6    0.36    0.13 
  -7   0  -6   15.07    0.76 
  -8   0  -6    2.72    0.19 
   8   0   6    2.42    0.22 
  -8   1   6    5.11    0.38 
  -8   1   6    4.32    0.23 
  -8   1   6    4.73    0.31 
  -7   1   6    0.92    0.21 
  -6   1   6    3.08    0.25 
  -5   1   6    0.19    0.15 
  -5   1   6    0.41    0.20 
  -5   1   6    0.19    0.12 
  -5   1   6    0.10    0.20 
  -5   1   6    0.20    0.19 
  -4   1   6   40.24    1.89 
  -4   1   6   41.48    2.08 
  -4   1   6   40.35    1.98 
  -4   1   6   36.38    1.89 
  -3   1   6   97.39    4.94 
  -3   1   6   95.86    4.44 
   2  -1  -6    0.26    0.14 
  -2   1   6    0.08    0.11 
  -2   1   6    0.20    0.14 
  -2   1   6    0.31    0.15 
  -2   1   6    0.35    0.15 
  -2   1   6    0.10    0.14 
   1  -1  -6   48.33    2.41 
   1  -1  -6   44.17    2.15 
   1  -1  -6   42.65    2.27 
   1  -1  -6   47.35    2.41 
  -1   1   6   47.70    2.28 
  -1   1   6   49.09    2.39 
  -1   1   6   43.24    2.41 
  -1   1   6   49.74    2.15 
  -1   1   6   45.69    2.41 
   0  -1  -6    8.28    0.50 
   0  -1  -6    7.14    0.43 
   0  -1  -6    7.78    0.48 
   0  -1  -6    7.09    0.44 
   0   1   6    7.41    0.48 
   0   1   6    8.08    0.45 
   0   1   6    8.21    0.47 
   0   1   6    7.53    0.50 
   0   1   6    8.16    0.44 
  -1  -1  -6   58.09    2.96 
  -1  -1  -6   59.33    2.97 
  -1  -1  -6   55.94    2.65 
  -1  -1  -6   54.15    2.80 
   1   1   6   59.61    2.81 
   1   1   6   56.91    2.97 
   1   1   6   58.64    2.69 
   1   1   6   60.12    2.65 
   1   1   6   53.85    2.96 
  -2  -1  -6   15.14    0.88 
  -2  -1  -6   14.60    0.88 
  -2  -1  -6   14.21    0.83 
   2   1   6   16.18    0.77 
   2   1   6   14.70    0.87 
   2   1   6   14.75    0.89 
   2   1   6   15.98    0.77 
   2   1   6   16.12    0.80 
  -3  -1  -6   13.04    0.87 
   3   1   6   14.52    0.90 
   3   1   6   15.52    0.76 
   3   1   6   15.51    0.75 
   3   1   6   15.54    0.80 
   4   1   6   40.68    1.96 
   4   1   6   41.97    2.08 
   5   1   6    0.82    0.13 
   6   1   6    8.32    0.48 
  -7  -1  -6    0.03    0.12 
   7   1   6    0.19    0.14 
  -8  -1  -6    2.94    0.23 
   8   1   6    2.82    0.23 
  -7   2   6   13.23    0.64 
  -7   2   6   16.55    0.93 
  -7   2   6   13.93    0.71 
  -7   2   6   15.39    0.76 
  -6   2   6    0.21    0.11 
  -6   2   6    0.17    0.13 
  -6   2   6    0.41    0.13 
  -5   2   6   20.00    0.84 
  -5   2   6   19.19    1.01 
  -5   2   6   20.61    0.97 
  -5   2   6   19.59    1.13 
  -5   2   6   19.95    0.87 
  -4   2   6    5.56    0.29 
  -4   2   6    6.13    0.42 
  -4   2   6    5.49    0.29 
  -4   2   6    5.75    0.42 
  -4   2   6    5.73    0.32 
  -4   2   6    5.77    0.34 
  -3   2   6   21.21    1.04 
  -3   2   6   20.92    1.15 
  -2   2   6   61.11    2.96 
  -2   2   6   61.36    3.13 
  -2   2   6   59.62    2.80 
   1  -2  -6    4.15    0.31 
   1  -2  -6    3.97    0.31 
  -1   2   6    4.25    0.33 
  -1   2   6    4.21    0.30 
  -1   2   6    4.52    0.30 
  -1   2   6    3.23    0.29 
  -1   2   6    4.28    0.29 
  -1   2   6    3.62    0.31 
   0  -2  -6   16.91    0.94 
   0   2   6   16.32    0.94 
   0   2   6   15.08    0.83 
   0   2   6   18.97    0.84 
   0   2   6   15.70    0.93 
   0   2   6   18.62    0.93 
   0   2   6   17.87    0.85 
   0   2   6   18.05    0.88 
  -1  -2  -6   22.07    1.16 
  -1  -2  -6   21.52    1.16 
   1   2   6   21.30    1.04 
   1   2   6   18.41    1.15 
   1   2   6   22.80    1.08 
   1   2   6   21.42    1.16 
   1   2   6   22.15    1.03 
   2   2   6   30.63    1.45 
   2   2   6   31.17    1.43 
   2   2   6   31.08    1.51 
   2   2   6   27.84    1.61 
   3   2   6   15.32    0.78 
   3   2   6   15.79    0.82 
   3   2   6   15.09    0.79 
   4   2   6   23.98    1.14 
   4   2   6   22.37    1.14 
   4   2   6   22.83    1.20 
   4   2   6   22.61    1.11 
   5   2   6   24.45    1.17 
   5   2   6   24.10    1.28 
   5   2   6   23.22    1.21 
   6   2   6    2.35    0.30 
   6   2   6    1.99    0.25 
   7   2   6    1.67    0.17 
   8   2   6    1.18    0.13 
  -8   3   6    8.22    0.37 
  -7   3   6    0.11    0.10 
  -7   3   6    0.37    0.11 
  -7   3   6    0.23    0.19 
  -7   3   6    0.59    0.12 
  -6   3   6    4.65    0.29 
  -6   3   6    4.89    0.36 
  -6   3   6    5.30    0.31 
  -6   3   6    5.17    0.50 
  -6   3   6    4.70    0.34 
  -5   3   6    0.13    0.17 
  -5   3   6    0.12    0.18 
  -5   3   6   -0.02    0.12 
  -5   3   6    0.18    0.23 
  -5   3   6   -0.06    0.10 
  -5   3   6    0.17    0.15 
  -5   3   6   -0.07    0.21 
  -4   3   6   15.42    0.80 
  -4   3   6   15.64    0.84 
  -4   3   6   16.42    0.78 
  -4   3   6   16.15    0.84 
  -4   3   6   16.23    0.69 
  -4   3   6   16.26    1.02 
  -4   3   6   16.39    0.95 
  -4   3   6   16.89    0.71 
  -4   3   6   15.98    0.87 
  -3   3   6    5.18    0.35 
  -3   3   6    4.94    0.35 
  -3   3   6    4.42    0.40 
  -2   3   6    1.12    0.15 
  -2   3   6    1.12    0.19 
  -2   3   6    1.05    0.16 
  -2   3   6    1.14    0.15 
  -1   3   6  149.89    6.96 
  -1   3   6  155.12    6.80 
  -1   3   6  150.28    7.63 
  -1   3   6  155.81    7.23 
  -1   3   6  137.85    6.80 
   0  -3  -6    6.70    0.44 
   0   3   6    6.43    0.39 
   0   3   6    7.97    0.40 
   0   3   6    8.20    0.41 
   0   3   6    8.07    0.45 
   0   3   6    8.35    0.49 
   0   3   6    7.51    0.44 
   0   3   6    7.40    0.39 
   0   3   6    6.83    0.44 
   1   3   6   92.78    4.19 
   1   3   6   95.10    4.33 
   1   3   6   96.95    4.09 
   1   3   6   85.24    4.42 
   1   3   6   77.39    4.55 
   2   3   6   67.14    2.98 
   2   3   6   62.62    3.05 
   2   3   6   63.68    3.15 
   2   3   6   65.43    3.23 
   3   3   6    0.90    0.17 
   3   3   6    1.14    0.17 
   3   3   6    0.98    0.21 
   3   3   6    1.12    0.19 
   4   3   6   14.71    0.78 
   4   3   6   15.10    0.72 
   4   3   6   12.82    0.86 
   4   3   6   14.70    0.76 
   4   3   6   13.77    0.64 
   4   3   6   16.43    0.83 
   4   3   6   15.90    0.81 
   4   3   6   13.57    0.72 
   4   3   6   13.52    0.61 
   5   3   6    3.53    0.36 
   5   3   6    3.42    0.23 
   5   3   6    3.32    0.34 
   5   3   6    3.48    0.26 
   5   3   6    3.63    0.35 
   5   3   6    3.40    0.31 
   5   3   6    3.09    0.37 
   6   3   6   16.49    0.87 
   6   3   6   17.48    0.85 
   7   3   6    0.23    0.15 
   7   3   6    0.20    0.11 
   8   3   6    0.24    0.11 
   8   3   6    0.26    0.13 
  -7   4   6    1.03    0.12 
  -7   4   6    1.09    0.13 
  -7   4   6    0.88    0.15 
  -6   4   6    4.52    0.47 
  -6   4   6    5.06    0.35 
  -6   4   6    4.77    0.30 
  -6   4   6    5.04    0.28 
  -6   4   6    5.51    0.31 
  -5   4   6    4.02    0.36 
  -5   4   6    4.08    0.28 
  -5   4   6    4.33    0.30 
  -5   4   6    4.37    0.25 
  -5   4   6    3.62    0.48 
  -4   4   6   -0.05    0.15 
  -4   4   6    0.14    0.13 
  -4   4   6   -0.16    0.22 
  -4   4   6    0.10    0.16 
  -4   4   6    0.24    0.11 
  -4   4   6    0.25    0.11 
  -4   4   6    0.18    0.15 
  -4   4   6    0.12    0.09 
  -4   4   6   -0.09    0.22 
  -3   4   6   25.06    1.19 
  -3   4   6   26.20    1.02 
  -3   4   6   25.41    1.05 
  -3   4   6   24.57    1.18 
  -3   4   6   24.67    1.24 
  -3   4   6   23.94    1.37 
  -3   4   6   24.65    1.25 
  -3   4   6   23.16    1.18 
  -3   4   6   27.49    1.35 
  -3   4   6   23.06    1.47 
  -2   4   6   22.86    1.24 
  -2   4   6   22.13    0.91 
  -2   4   6   23.07    1.21 
  -2   4   6   22.35    0.94 
  -2   4   6   22.52    1.07 
  -2   4   6   22.78    1.04 
  -2   4   6   22.15    1.10 
  -2   4   6   21.04    1.12 
  -1   4   6    6.42    0.40 
  -1   4   6    6.79    0.47 
   0   4   6    6.81    0.43 
   0   4   6    7.10    0.48 
   1   4   6   41.88    1.97 
   1   4   6   37.09    2.05 
   1   4   6   41.39    1.88 
   1   4   6   37.94    1.99 
   1   4   6   43.09    1.88 
   1   4   6   44.70    1.99 
   2   4   6   23.79    1.13 
   2   4   6   24.31    1.18 
   2   4   6   22.88    1.23 
   2   4   6   23.59    1.18 
   3   4   6   17.54    0.93 
   3   4   6   17.44    1.00 
   3   4   6   16.24    0.69 
   3   4   6   15.15    0.97 
   3   4   6   17.15    0.84 
   3   4   6   15.33    0.80 
   3   4   6   15.72    0.90 
   3   4   6   16.38    0.71 
   3   4   6   18.05    0.87 
   3   4   6   16.94    0.88 
   4   4   6    7.55    0.48 
   4   4   6    7.32    0.48 
   4   4   6    7.19    0.42 
   4   4   6    7.00    0.54 
   4   4   6    7.59    0.51 
   4   4   6    8.19    0.55 
   4   4   6    7.33    0.35 
   4   4   6    7.77    0.52 
   4   4   6    7.06    0.37 
   5   4   6    2.41    0.36 
   5   4   6    2.60    0.33 
   5   4   6    2.61    0.21 
   5   4   6    3.17    0.39 
   5   4   6    3.09    0.37 
   5   4   6    2.45    0.30 
   5   4   6    2.54    0.23 
   6   4   6   -0.17    0.12 
   6   4   6    0.07    0.20 
   6   4   6   -0.12    0.15 
   6   4   6   -0.07    0.14 
   6   4   6    0.02    0.06 
   7   4   6    3.52    0.29 
   7   4   6    3.31    0.24 
   7   4   6    3.97    0.34 
   8   4   6    0.10    0.09 
   8   4   6    0.07    0.12 
  -7   5   6    0.10    0.06 
  -7   5   6    0.25    0.08 
  -7   5   6   -0.03    0.11 
  -6   5   6    1.73    0.19 
  -6   5   6    1.57    0.15 
  -6   5   6    1.38    0.21 
  -6   5   6    1.06    0.13 
  -5   5   6   -0.01    0.11 
  -5   5   6    0.14    0.09 
  -5   5   6    0.09    0.11 
  -5   5   6   -0.03    0.14 
  -5   5   6   -0.09    0.23 
  -4   5   6    0.24    0.19 
  -4   5   6    0.62    0.15 
  -4   5   6    0.69    0.23 
  -4   5   6    0.42    0.10 
  -4   5   6    0.66    0.14 
  -4   5   6    0.49    0.11 
  -3   5   6    6.56    0.29 
  -3   5   6    5.83    0.53 
  -3   5   6    6.33    0.31 
  -3   5   6    6.17    0.41 
  -3   5   6    6.23    0.49 
  -3   5   6    6.98    0.45 
  -3   5   6    6.29    0.40 
  -2   5   6    0.28    0.15 
  -2   5   6    0.20    0.19 
  -2   5   6    0.23    0.06 
  -2   5   6    0.22    0.08 
  -2   5   6    0.10    0.14 
  -2   5   6    0.15    0.13 
  -2   5   6    0.13    0.21 
  -2   5   6    0.11    0.16 
  -1   5   6    1.59    0.19 
  -1   5   6    1.90    0.20 
  -1   5   6    2.01    0.23 
  -1   5   6    1.83    0.23 
  -1   5   6    1.63    0.18 
  -1   5   6    1.93    0.27 
  -1   5   6    1.74    0.16 
  -1   5   6    1.71    0.10 
   0   5   6    4.20    0.41 
   0   5   6    4.39    0.34 
   0   5   6    4.96    0.36 
   0   5   6    5.36    0.41 
   0   5   6    4.82    0.22 
   0   5   6    4.11    0.42 
   0   5   6    4.94    0.31 
   1   5   6    8.51    0.61 
   1   5   6    9.23    0.61 
   1   5   6    8.96    0.39 
   1   5   6    8.16    0.58 
   1   5   6    9.08    0.47 
   1   5   6    8.95    0.37 
   1   5   6    9.65    0.53 
   1   5   6    9.19    0.51 
   2   5   6    6.65    0.40 
   2   5   6    7.04    0.44 
   2   5   6    5.82    0.48 
   2   5   6    5.44    0.43 
   2   5   6    5.49    0.46 
   2   5   6    6.45    0.46 
   2   5   6    6.38    0.29 
   2   5   6    7.07    0.50 
   2   5   6    6.62    0.30 
   3   5   6   21.33    1.29 
   3   5   6   21.89    0.94 
   3   5   6   20.93    1.20 
   3   5   6   25.05    1.31 
   3   5   6   22.33    1.20 
   3   5   6   21.57    1.05 
   3   5   6   21.00    1.06 
   3   5   6   21.95    1.29 
   3   5   6   22.75    0.91 
   3   5   6   21.81    1.14 
   3   5   6   22.48    1.11 
   4   5   6   12.25    0.52 
   4   5   6   11.44    0.76 
   4   5   6   12.37    0.73 
   4   5   6   11.90    0.76 
   4   5   6   12.11    0.67 
   4   5   6   11.96    0.65 
   4   5   6   11.56    0.76 
   4   5   6   12.20    0.60 
   4   5   6   11.79    0.70 
   4   5   6   11.98    0.55 
   5   5   6    0.05    0.18 
   5   5   6   -0.13    0.19 
   5   5   6   -0.03    0.13 
   5   5   6    0.21    0.13 
   5   5   6    0.06    0.11 
   6   5   6    0.34    0.16 
   6   5   6    0.18    0.11 
   6   5   6    0.15    0.13 
   7   5   6    1.66    0.17 
   7   5   6    1.50    0.17 
   7   5   6    1.08    0.12 
   7   5   6    1.72    0.22 
  -6   6   6    2.36    0.15 
  -6   6   6    2.22    0.22 
  -5   6   6    0.45    0.14 
  -5   6   6    0.19    0.09 
  -5   6   6    0.40    0.13 
  -4   6   6    0.09    0.22 
  -4   6   6   -0.10    0.14 
  -4   6   6    0.12    0.12 
  -4   6   6   -0.07    0.09 
  -3   6   6    0.78    0.22 
  -3   6   6    0.62    0.15 
  -3   6   6    0.62    0.08 
  -3   6   6    0.50    0.14 
  -3   6   6    0.77    0.18 
  -2   6   6    3.51    0.34 
  -2   6   6    3.27    0.39 
  -2   6   6    2.70    0.34 
  -2   6   6    3.76    0.27 
  -2   6   6    2.68    0.28 
  -1   6   6    2.57    0.23 
  -1   6   6    2.44    0.28 
  -1   6   6    2.23    0.30 
  -1   6   6    2.01    0.29 
  -1   6   6    2.27    0.23 
  -1   6   6    2.61    0.26 
  -1   6   6    1.86    0.24 
   0   6   6    1.22    0.14 
   0   6   6    1.10    0.17 
   0   6   6    1.05    0.19 
   0   6   6    1.20    0.18 
   0   6   6    1.39    0.14 
   0   6   6    1.40    0.23 
   0   6   6    1.02    0.17 
   1   6   6    1.87    0.22 
   1   6   6    2.10    0.23 
   1   6   6    1.80    0.21 
   1   6   6    1.69    0.19 
   1   6   6    1.99    0.28 
   1   6   6    1.74    0.21 
   1   6   6    1.82    0.21 
   2   6   6    8.18    0.57 
   2   6   6    9.34    0.38 
   2   6   6    9.14    0.61 
   2   6   6    8.98    0.40 
   2   6   6    8.47    0.62 
   2   6   6    8.36    0.58 
   2   6   6    9.69    0.51 
   2   6   6    9.87    0.64 
   3   6   6    5.29    0.45 
   3   6   6    4.38    0.39 
   3   6   6    4.05    0.42 
   3   6   6    3.91    0.41 
   3   6   6    4.44    0.22 
   3   6   6    4.28    0.43 
   3   6   6    4.43    0.24 
   4   6   6    1.89    0.19 
   4   6   6    1.80    0.25 
   4   6   6    1.93    0.17 
   4   6   6    1.92    0.23 
   4   6   6    2.22    0.30 
   5   6   6    0.37    0.10 
   5   6   6    0.46    0.22 
   5   6   6    0.31    0.19 
   5   6   6    0.27    0.12 
   5   6   6   -0.14    0.17 
   6   6   6    1.19    0.22 
   7   6   6    0.06    0.06 
   7   6   6    0.09    0.13 
  -5   7   6    0.25    0.11 
  -5   7   6    0.16    0.12 
  -4   7   6    0.95    0.16 
  -4   7   6    1.28    0.20 
  -3   7   6    0.23    0.15 
  -3   7   6    0.19    0.14 
  -3   7   6    0.02    0.17 
  -3   7   6    0.13    0.20 
  -2   7   6    0.27    0.18 
  -2   7   6    0.22    0.19 
  -2   7   6    0.59    0.16 
  -2   7   6    0.45    0.17 
  -1   7   6   -0.34    0.18 
  -1   7   6   -0.39    0.20 
  -1   7   6    0.53    0.16 
  -1   7   6    0.11    0.17 
  -1   7   6    0.45    0.16 
  -1   7   6    0.10    0.14 
   0   7   6   32.89    1.99 
   0   7   6   35.25    2.03 
   0   7   6   34.42    1.67 
   0   7   6   36.73    1.76 
   0   7   6   35.87    1.90 
   0   7   6   36.68    2.04 
   1   7   6    0.94    0.21 
   1   7   6    0.59    0.22 
   1   7   6    0.70    0.18 
   1   7   6    0.61    0.22 
   1   7   6    0.51    0.22 
   1   7   6    0.43    0.14 
   2   7   6    2.94    0.37 
   2   7   6    2.91    0.38 
   2   7   6    2.66    0.35 
   2   7   6    2.89    0.39 
   3   7   6   -0.01    0.21 
   3   7   6    0.02    0.20 
   3   7   6    0.11    0.17 
   3   7   6    0.16    0.08 
   4   7   6    0.25    0.20 
   4   7   6    0.38    0.20 
   4   7   6    0.39    0.09 
   4   7   6    0.43    0.06 
   4   7   6    0.32    0.17 
   5   7   6   -0.04    0.09 
   5   7   6   -0.22    0.18 
   5   7   6    0.09    0.17 
   5   7   6   -0.07    0.06 
   6   7   6    1.90    0.11 
   6   7   6    1.97    0.15 
   6   7   6    1.68    0.20 
  -4   8   6    0.32    0.11 
  -4   8   6    0.50    0.12 
  -3   8   6    0.43    0.11 
  -3   8   6    0.63    0.16 
  -2   8   6    5.02    0.35 
  -2   8   6    4.51    0.38 
  -2   8   6    5.05    0.33 
  -1   8   6    2.29    0.31 
  -1   8   6    2.31    0.23 
  -1   8   6    2.89    0.27 
   0   8   6    0.01    0.18 
   0   8   6    0.26    0.20 
   0   8   6   -0.03    0.14 
   0   8   6    0.03    0.12 
   0   8   6    0.05    0.20 
   1   8   6    0.72    0.20 
   1   8   6    0.38    0.17 
   1   8   6    0.78    0.18 
   1   8   6    0.36    0.23 
   2   8   6    9.19    0.61 
   2   8   6   10.01    0.60 
   2   8   6    7.94    0.56 
   3   8   6    0.26    0.19 
   3   8   6    0.14    0.19 
   3   8   6    0.40    0.22 
   4   8   6   -0.07    0.16 
   4   8   6   -0.06    0.19 
   5   8   6    0.79    0.14 
  -1   9   6    0.42    0.10 
   0   9   6   -0.02    0.13 
   1   9   6   -0.15    0.13 
   1   9   6   -0.18    0.15 
   2   9   6   -0.05    0.13 
   2   9   6   -0.19    0.12 
   2   9   6    0.10    0.16 
   3   9   6    0.30    0.14 
   3   9   6    0.15    0.13 
   1   8  -7    1.42    0.16 
   0   8  -7    0.06    0.11 
   0   8  -7    0.07    0.08 
   4   7  -7    0.32    0.10 
   4   7  -7    0.31    0.07 
   3   7  -7    1.30    0.10 
   3   7  -7    1.44    0.19 
   3   7  -7    1.51    0.14 
   2   7  -7    1.59    0.15 
   2   7  -7    1.40    0.20 
   2   7  -7    1.38    0.19 
   2   7  -7    1.35    0.16 
   2   7  -7    1.49    0.10 
   1   7  -7    0.74    0.18 
   1   7  -7    1.16    0.11 
   1   7  -7    1.00    0.15 
   1   7  -7    1.28    0.16 
   0   7  -7    6.81    0.45 
   0   7  -7    7.21    0.50 
   0   7  -7    7.17    0.33 
  -1   7  -7    0.15    0.15 
  -1   7  -7    0.10    0.11 
  -1   7  -7   -0.08    0.08 
  -2   7  -7    2.20    0.15 
  -2   7  -7    2.15    0.21 
  -2   7  -7    2.30    0.27 
  -3   7  -7   -0.08    0.10 
  -3   7  -7    0.07    0.10 
   6   6  -7    1.50    0.15 
   5   6  -7    0.31    0.08 
   5   6  -7    0.27    0.13 
   4   6  -7    1.59    0.14 
   4   6  -7    0.69    0.12 
   4   6  -7    1.11    0.15 
   3   6  -7    0.09    0.15 
   3   6  -7   -0.01    0.11 
   3   6  -7    0.09    0.09 
   3   6  -7    0.01    0.15 
   2   6  -7    0.03    0.10 
   2   6  -7   -0.09    0.13 
   2   6  -7   -0.08    0.17 
   2   6  -7   -0.15    0.15 
   2   6  -7   -0.04    0.11 
   1   6  -7    5.70    0.40 
   1   6  -7    6.10    0.40 
   1   6  -7    5.64    0.49 
   1   6  -7    6.01    0.29 
   1   6  -7    5.99    0.31 
   0   6  -7    1.45    0.18 
   0   6  -7    1.22    0.17 
   0   6  -7    1.39    0.21 
   0   6  -7    1.13    0.12 
   0   6  -7    1.32    0.13 
  -1   6  -7   10.44    0.60 
  -1   6  -7   11.74    0.50 
  -1   6  -7   11.85    0.68 
  -1   6  -7   11.93    0.52 
  -1   6  -7   11.46    0.72 
  -2   6  -7    4.37    0.24 
  -2   6  -7    3.88    0.34 
  -2   6  -7    4.29    0.39 
  -2   6  -7    4.23    0.26 
  -2   6  -7    4.32    0.32 
  -3   6  -7    3.55    0.28 
  -3   6  -7    3.20    0.31 
  -3   6  -7    3.53    0.20 
  -3   6  -7    3.64    0.24 
  -4   6  -7    0.37    0.11 
  -4   6  -7    0.42    0.08 
  -4   6  -7    0.37    0.12 
  -4   6  -7    0.50    0.11 
  -5   6  -7    0.49    0.09 
  -5   6  -7    0.38    0.10 
   6   5  -7    2.84    0.19 
   6   5  -7    2.77    0.20 
   6   5  -7    2.97    0.19 
   6   5  -7    2.89    0.27 
   5   5  -7    1.24    0.14 
   5   5  -7    1.05    0.12 
   5   5  -7    1.06    0.13 
   5   5  -7    0.79    0.15 
   4   5  -7    2.16    0.24 
   4   5  -7    2.50    0.22 
   4   5  -7    3.10    0.31 
   4   5  -7    2.12    0.23 
   3   5  -7   12.98    0.57 
   3   5  -7   12.94    0.63 
   3   5  -7   12.83    0.55 
   3   5  -7   10.76    0.74 
   3   5  -7   12.05    0.73 
   2   5  -7    1.01    0.25 
   2   5  -7    1.34    0.12 
   2   5  -7    1.16    0.14 
   2   5  -7    1.56    0.16 
   2   5  -7    1.38    0.14 
   2   5  -7    1.44    0.18 
   2   5  -7    0.91    0.20 
   1   5  -7    3.12    0.34 
   1   5  -7    3.65    0.24 
   1   5  -7    3.30    0.36 
   1   5  -7    3.31    0.41 
   1   5  -7    3.91    0.28 
   1   5  -7    3.45    0.31 
   1   5  -7    3.77    0.24 
   1   5  -7    3.44    0.47 
   0   5  -7    8.46    0.38 
   0   5  -7    8.80    0.50 
   0   5  -7    8.32    0.58 
   0   5  -7    7.15    0.48 
   0   5  -7    8.41    0.39 
   0   5  -7    7.78    0.52 
   0   5  -7    8.08    0.43 
   0   5  -7    7.29    0.62 
  -1   5  -7    4.59    0.26 
  -1   5  -7    3.70    0.30 
  -1   5  -7    4.24    0.45 
  -1   5  -7    3.90    0.34 
  -1   5  -7    4.12    0.42 
  -1   5  -7    4.04    0.28 
  -1   5  -7    4.28    0.24 
  -2   5  -7   15.61    0.90 
  -2   5  -7   15.51    0.79 
  -2   5  -7   15.58    0.66 
  -2   5  -7   15.50    0.69 
  -2   5  -7   15.84    0.88 
  -2   5  -7   14.75    0.75 
  -3   5  -7    0.14    0.13 
  -3   5  -7    0.31    0.18 
  -3   5  -7    0.26    0.16 
  -3   5  -7    0.11    0.13 
  -3   5  -7    0.29    0.11 
  -4   5  -7   12.54    0.67 
  -4   5  -7   12.91    0.57 
  -4   5  -7   12.89    0.54 
  -4   5  -7   11.26    0.71 
  -5   5  -7    0.77    0.16 
  -5   5  -7    0.69    0.12 
  -5   5  -7    1.14    0.11 
  -6   5  -7    0.12    0.09 
  -6   5  -7    0.10    0.06 
  -6   5  -7    0.13    0.07 
   7   4  -7    3.51    0.26 
   7   4  -7    3.75    0.24 
   6   4  -7    3.19    0.22 
   6   4  -7    3.27    0.27 
   6   4  -7    3.17    0.27 
   5   4  -7    1.11    0.16 
   5   4  -7    1.35    0.13 
   5   4  -7    1.36    0.19 
   5   4  -7    1.71    0.14 
   4   4  -7    5.18    0.39 
   4   4  -7    5.28    0.29 
   4   4  -7    5.23    0.37 
   4   4  -7    5.43    0.31 
   4   4  -7    5.16    0.30 
   3   4  -7    0.10    0.19 
   3   4  -7    0.14    0.09 
   3   4  -7    0.32    0.14 
   3   4  -7    0.25    0.17 
   3   4  -7    0.13    0.13 
   3   4  -7   -0.01    0.18 
   3   4  -7    0.30    0.18 
   3   4  -7    0.29    0.13 
   2   4  -7   33.84    2.01 
   2   4  -7   35.41    1.69 
   2   4  -7   34.99    1.84 
   2   4  -7   36.60    1.50 
   2   4  -7   35.13    1.45 
   2   4  -7   35.33    1.95 
   2   4  -7   36.51    1.69 
   2   4  -7   36.87    1.72 
   1   4  -7    3.47    0.29 
   1   4  -7    3.56    0.25 
   1   4  -7    2.67    0.38 
   1   4  -7    3.40    0.41 
   1   4  -7    3.26    0.29 
   1   4  -7    3.97    0.34 
   1   4  -7    3.55    0.29 
   1   4  -7    3.82    0.33 
   1   4  -7    3.64    0.21 
   1   4  -7    3.96    0.32 
   0   4  -7    0.55    0.19 
   0   4  -7    0.75    0.12 
   0   4  -7    0.85    0.13 
   0   4  -7    0.70    0.12 
   0   4  -7    0.53    0.19 
   0   4  -7    0.80    0.27 
   0   4  -7    0.68    0.14 
   0   4  -7    0.47    0.17 
   0   4  -7    0.74    0.12 
  -1   4  -7   14.09    0.72 
  -1   4  -7   13.20    0.84 
  -1   4  -7   11.98    0.67 
  -1   4  -7   12.60    0.65 
  -1   4  -7   13.07    0.56 
  -1   4  -7   12.87    0.75 
  -1   4  -7   11.82    0.74 
  -1   4  -7   12.91    0.58 
  -1   4  -7   13.25    0.72 
  -2   4  -7   -0.06    0.12 
  -2   4  -7    0.16    0.16 
  -2   4  -7   -0.19    0.16 
  -2   4  -7    0.19    0.17 
  -2   4  -7    0.13    0.13 
  -2   4  -7    0.12    0.16 
  -2   4  -7    0.06    0.11 
  -2   4  -7    0.09    0.12 
  -2   4  -7    0.27    0.22 
  -3   4  -7    7.55    0.62 
  -3   4  -7    9.47    0.52 
  -3   4  -7    8.80    0.44 
  -3   4  -7    8.29    0.55 
  -3   4  -7    8.85    0.41 
  -3   4  -7    8.92    0.49 
  -4   4  -7   -0.12    0.12 
  -4   4  -7   -0.24    0.14 
  -4   4  -7   -0.13    0.18 
  -4   4  -7   -0.03    0.14 
  -5   4  -7    2.37    0.25 
  -5   4  -7    2.44    0.26 
  -5   4  -7    2.40    0.21 
  -5   4  -7    2.27    0.23 
  -6   4  -7    4.72    0.28 
  -6   4  -7    5.12    0.26 
  -6   4  -7    4.31    0.31 
   7   3  -7    0.46    0.12 
   7   3  -7    1.08    0.15 
   7   3  -7    0.67    0.09 
   6   3  -7    2.21    0.20 
   6   3  -7    2.29    0.21 
   5   3  -7   19.25    0.93 
   5   3  -7   18.52    0.94 
   4   3  -7    5.25    0.37 
   4   3  -7    4.82    0.42 
   4   3  -7    5.93    0.33 
   4   3  -7    5.52    0.43 
   3   3  -7   12.01    0.57 
   3   3  -7   12.89    0.73 
   3   3  -7   12.33    0.55 
   3   3  -7   12.25    0.65 
   3   3  -7   12.75    0.72 
   3   3  -7   12.65    0.64 
   3   3  -7   13.42    0.75 
   3   3  -7   13.17    0.73 
   2   3  -7   17.86    0.96 
   2   3  -7   14.12    0.69 
   2   3  -7   16.75    0.86 
   2   3  -7   16.48    0.83 
   2   3  -7   15.49    0.90 
   2   3  -7   14.76    0.67 
   2   3  -7   15.10    0.78 
   2   3  -7   16.09    0.78 
   2   3  -7   17.01    0.87 
   1   3  -7    3.62    0.32 
   1   3  -7    3.41    0.23 
   1   3  -7    3.49    0.31 
   1   3  -7    3.93    0.32 
   1   3  -7    3.64    0.37 
   0   3  -7   49.03    2.60 
   0   3  -7   42.26    2.26 
   0   3  -7   49.76    2.35 
   0   3  -7   49.54    2.23 
  -1   3  -7    0.59    0.17 
  -1   3  -7    0.82    0.22 
  -1   3  -7    0.83    0.13 
  -1   3  -7    0.76    0.10 
  -1   3  -7    0.79    0.16 
  -1   3  -7    0.76    0.09 
  -1   3  -7    0.84    0.16 
  -2   3  -7   12.27    0.74 
  -2   3  -7   10.90    0.66 
  -2   3  -7   10.85    0.57 
  -2   3  -7   11.53    0.52 
  -2   3  -7   11.03    0.59 
  -2   3  -7   12.17    0.66 
  -2   3  -7   11.53    0.63 
  -2   3  -7   10.92    0.50 
  -3   3  -7    0.09    0.18 
  -3   3  -7   -0.01    0.10 
  -3   3  -7   -0.02    0.11 
  -3   3  -7    0.06    0.12 
  -3   3  -7    0.05    0.19 
  -3   3  -7    0.05    0.19 
  -3   3  -7    0.23    0.13 
  -3   3  -7   -0.03    0.15 
  -4   3  -7   13.66    0.65 
  -4   3  -7   10.69    0.76 
  -4   3  -7   13.63    0.60 
  -4   3  -7   11.23    0.82 
  -4   3  -7   13.96    0.59 
  -4   3  -7   13.59    0.69 
  -4   3  -7   13.86    0.69 
  -5   3  -7    1.22    0.15 
  -5   3  -7    1.36    0.13 
  -5   3  -7    1.47    0.17 
  -5   3  -7    1.02    0.17 
  -5   3  -7    1.18    0.16 
  -6   3  -7    0.68    0.15 
  -6   3  -7    0.99    0.12 
  -6   3  -7    0.66    0.14 
  -6   3  -7    0.71    0.11 
  -7   3  -7    2.91    0.20 
  -7   3  -7    2.41    0.21 
  -7   3  -7    2.78    0.21 
   8   2  -7    0.57    0.08 
  -8  -2   7    0.43    0.10 
   7   2  -7    2.47    0.22 
   6   2  -7    8.01    0.44 
   5   2  -7    0.45    0.15 
   4   2  -7   20.49    1.01 
   4   2  -7   20.59    1.11 
   4   2  -7   20.97    1.08 
   3   2  -7    3.49    0.28 
   3   2  -7    4.60    0.37 
   3   2  -7    4.61    0.35 
   3   2  -7    4.63    0.34 
   2   2  -7   16.82    0.91 
   2   2  -7   17.23    0.87 
   2   2  -7   17.19    0.90 
   1   2  -7    4.37    0.32 
   1   2  -7    3.89    0.31 
   1   2  -7    4.13    0.30 
   0   2  -7    2.00    0.26 
   0   2  -7    1.98    0.23 
   0   2  -7    1.73    0.22 
  -1   2  -7   64.42    3.11 
  -1   2  -7   62.96    3.40 
  -1   2  -7   62.90    2.94 
  -2   2  -7    2.66    0.30 
  -2   2  -7    2.68    0.27 
  -2   2  -7    2.74    0.30 
  -3   2  -7    2.43    0.25 
  -3   2  -7    1.87    0.13 
  -3   2  -7    1.88    0.22 
  -3   2  -7    1.92    0.20 
  -3   2  -7    2.01    0.27 
  -3   2  -7    2.17    0.23 
  -4   2  -7    4.86    0.41 
  -4   2  -7    4.40    0.27 
  -4   2  -7    4.34    0.34 
  -4   2  -7    4.11    0.38 
  -4   2  -7    4.78    0.30 
  -4   2  -7    4.39    0.39 
  -5   2  -7    0.68    0.14 
  -5   2  -7    0.67    0.17 
  -5   2  -7    0.35    0.19 
  -5   2  -7    0.60    0.13 
  -6   2  -7    1.10    0.15 
  -6   2  -7    1.07    0.12 
  -6   2  -7    1.09    0.16 
  -7   2  -7   -0.05    0.13 
  -7   2  -7    0.08    0.12 
   8   1  -7    2.11    0.18 
  -8  -1   7    2.16    0.18 
   7   1  -7    3.07    0.24 
  -7  -1   7    2.83    0.23 
   6   1  -7    0.14    0.13 
   3   1  -7   56.21    2.81 
   3   1  -7   57.48    2.67 
   2   1  -7   16.81    0.84 
   2   1  -7   14.76    0.93 
   2   1  -7   16.93    0.83 
   2   1  -7   17.31    0.82 
  -2  -1   7   12.84    0.94 
   1   1  -7  101.15    4.40 
   1   1  -7   94.71    4.66 
   1   1  -7   90.43    4.91 
   1   1  -7  101.87    4.74 
  -1  -1   7   90.95    4.93 
   0   1  -7   52.99    2.48 
   0   1  -7   50.35    2.64 
   0  -1   7   47.80    2.65 
  -1   1  -7    3.26    0.29 
  -1   1  -7    3.39    0.28 
  -1   1  -7    2.94    0.32 
  -1   1  -7    3.13    0.28 
   1  -1   7    2.76    0.34 
  -2   1  -7   52.57    2.57 
  -2   1  -7   52.59    2.79 
  -2   1  -7   50.59    2.42 
  -3   1  -7    9.37    0.59 
  -3   1  -7    9.39    0.57 
  -3   1  -7    9.88    0.56 
  -4   1  -7   13.66    0.70 
  -4   1  -7   13.74    0.77 
  -4   1  -7   14.62    0.80 
  -5   1  -7    0.66    0.15 
  -6   1  -7    0.21    0.16 
  -6   1  -7    0.37    0.14 
  -7   1  -7    3.56    0.25 
  -7   1  -7    3.77    0.32 
  -8   1  -7    0.26    0.10 
  -8   1  -7    0.20    0.08 
  -7   0   7   12.64    0.65 
  -6   0   7   11.62    0.60 
  -5   0   7    3.21    0.25 
  -4   0   7   78.65    3.74 
  -3   0   7    3.39    0.33 
  -3   0   7    3.39    0.32 
  -3   0   7    3.24    0.26 
   2   0  -7   81.12    3.97 
   2   0  -7   83.42    3.75 
   2   0  -7   77.68    4.20 
  -2   0   7   87.49    3.75 
  -2   0   7   70.88    4.19 
  -2   0   7   84.66    4.15 
  -2   0   7   87.88    3.98 
  -2   0   7   77.37    4.20 
   1   0  -7   67.23    3.52 
   1   0  -7   66.22    3.32 
   1   0  -7   70.40    3.14 
   1   0  -7   68.53    3.51 
  -1   0   7   64.52    3.52 
  -1   0   7   71.46    3.14 
  -1   0   7   62.23    3.52 
  -1   0   7   72.16    3.33 
  -1   0   7   69.19    3.47 
   0   0  -7   63.08    3.09 
   0   0  -7   64.78    3.27 
   0   0  -7   66.30    2.92 
   0   0  -7   62.72    3.27 
   0   0   7   57.65    3.26 
   0   0   7   60.64    3.27 
   0   0   7   65.22    2.92 
   0   0   7   64.68    3.09 
  -1   0  -7   58.18    3.02 
  -1   0  -7   60.44    3.03 
  -1   0  -7   58.70    2.69 
  -1   0  -7   60.22    2.85 
   1   0   7   57.70    2.70 
   1   0   7   56.66    3.03 
   1   0   7   59.24    2.86 
   1   0   7   54.19    3.02 
  -2   0  -7    5.40    0.44 
  -2   0  -7    5.53    0.37 
  -2   0  -7    5.61    0.37 
  -2   0  -7    4.78    0.40 
  -2   0  -7    5.55    0.36 
   2   0   7    5.50    0.38 
   2   0   7    5.38    0.38 
   2   0   7    4.71    0.41 
   2   0   7    5.54    0.33 
  -3   0  -7   17.16    0.92 
  -3   0  -7   17.42    0.89 
  -5   0  -7    8.76    0.48 
  -6   0  -7   10.06    0.55 
  -7   0  -7    0.29    0.13 
  -8   0  -7    3.17    0.20 
   8   0   7    2.87    0.24 
  -8   1   7    1.02    0.18 
  -7   1   7    4.34    0.28 
  -6   1   7    5.38    0.34 
  -6   1   7    5.89    0.41 
  -5   1   7    6.90    0.53 
  -5   1   7    7.94    0.56 
  -5   1   7    8.47    0.44 
  -4   1   7    5.97    0.45 
  -4   1   7    6.19    0.36 
  -4   1   7    6.72    0.45 
  -3   1   7   28.35    1.42 
  -3   1   7   26.76    1.47 
  -3   1   7   28.23    1.35 
  -2   1   7    0.01    0.13 
  -2   1   7    0.11    0.16 
  -2   1   7    0.11    0.14 
  -2   1   7   -0.05    0.17 
   1  -1  -7   30.03    1.66 
   1  -1  -7   31.74    1.67 
  -1   1   7   33.67    1.56 
  -1   1   7   32.65    1.48 
  -1   1   7   33.16    1.63 
  -1   1   7   27.61    1.66 
  -1   1   7   28.60    1.66 
   0  -1  -7   12.56    0.74 
   0  -1  -7   12.45    0.74 
   0   1   7   13.61    0.70 
   0   1   7   11.26    0.73 
   0   1   7   13.10    0.65 
   0   1   7   12.78    0.67 
   0   1   7   11.60    0.74 
  -1  -1  -7    0.07    0.14 
  -1  -1  -7    0.11    0.17 
   1   1   7    0.12    0.14 
   1   1   7    0.18    0.13 
   1   1   7    0.12    0.15 
   1   1   7    0.17    0.14 
   1   1   7    0.17    0.16 
  -2  -1  -7   79.12    4.32 
  -2  -1  -7   79.06    4.44 
   2   1   7   80.63    4.33 
   2   1   7   90.61    4.10 
   2   1   7   90.02    3.93 
   2   1   7   84.64    3.86 
   3   1   7    3.23    0.31 
   3   1   7    3.40    0.27 
   3   1   7    3.32    0.28 
   5   1   7   21.24    1.05 
   6   1   7    1.48    0.18 
  -7  -1  -7    8.46    0.49 
   7   1   7    9.37    0.50 
  -8  -1  -7    0.39    0.10 
   8   1   7    0.31    0.11 
  -8   2   7    0.73    0.15 
  -7   2   7    0.84    0.17 
  -7   2   7    0.56    0.20 
  -6   2   7   10.56    0.49 
  -6   2   7   11.02    0.60 
  -6   2   7   11.17    0.56 
  -5   2   7    0.41    0.09 
  -5   2   7    0.03    0.19 
  -5   2   7    0.38    0.18 
  -5   2   7    0.36    0.10 
  -5   2   7    0.19    0.20 
  -5   2   7    0.11    0.22 
  -4   2   7   20.57    0.93 
  -4   2   7   21.37    1.05 
  -4   2   7   21.56    0.90 
  -4   2   7   22.67    1.21 
  -4   2   7   20.91    1.09 
  -4   2   7   22.77    1.15 
  -4   2   7   21.54    1.05 
  -3   2   7   15.42    0.82 
  -3   2   7   15.68    0.89 
  -3   2   7   16.09    0.85 
  -2   2   7   16.30    0.89 
  -2   2   7   16.22    0.81 
  -2   2   7   15.60    0.84 
  -1   2   7    0.08    0.15 
  -1   2   7    0.30    0.14 
  -1   2   7    0.11    0.16 
  -1   2   7    0.30    0.16 
  -1   2   7    0.32    0.15 
   0   2   7   42.78    1.87 
   0   2   7   42.53    2.09 
   0   2   7   36.75    2.10 
   0   2   7   41.99    1.91 
   0   2   7   36.23    2.09 
   0   2   7   40.39    1.97 
   1   2   7   75.16    4.19 
   1   2   7   83.54    3.75 
   1   2   7   83.05    3.83 
   1   2   7   85.46    3.98 
   2   2   7   24.84    1.23 
   2   2   7   23.21    1.18 
   2   2   7   23.98    1.16 
   3   2   7   12.44    0.69 
   3   2   7   12.06    0.67 
   3   2   7   12.99    0.67 
   4   2   7    0.99    0.21 
   4   2   7    1.16    0.22 
   4   2   7    0.72    0.20 
   4   2   7    0.96    0.11 
   5   2   7    3.56    0.26 
   5   2   7    3.04    0.36 
   6   2   7    2.03    0.25 
   7   2   7    1.67    0.17 
   8   2   7    2.67    0.19 
  -7   3   7    3.21    0.24 
  -7   3   7    3.66    0.25 
  -7   3   7    2.99    0.22 
  -7   3   7    3.33    0.37 
  -6   3   7    0.28    0.11 
  -6   3   7    0.43    0.22 
  -6   3   7    0.25    0.14 
  -6   3   7    0.34    0.17 
  -6   3   7    0.50    0.13 
  -5   3   7   10.24    0.48 
  -5   3   7    9.78    0.56 
  -5   3   7   11.55    0.75 
  -5   3   7   10.02    0.46 
  -5   3   7    9.54    0.69 
  -5   3   7    9.71    0.55 
  -4   3   7    1.30    0.16 
  -4   3   7    1.56    0.24 
  -4   3   7    1.51    0.14 
  -4   3   7    1.35    0.20 
  -4   3   7    1.42    0.13 
  -4   3   7    1.47    0.27 
  -4   3   7    1.20    0.11 
  -4   3   7    1.22    0.23 
  -4   3   7    1.26    0.13 
  -3   3   7   16.02    0.82 
  -3   3   7   17.87    0.85 
  -3   3   7   17.09    0.70 
  -3   3   7   16.90    0.73 
  -3   3   7   17.38    0.96 
  -3   3   7   17.28    0.89 
  -3   3   7   16.34    0.81 
  -3   3   7   16.71    1.03 
  -3   3   7   16.03    0.86 
  -2   3   7    3.89    0.34 
  -2   3   7    3.98    0.31 
  -2   3   7    4.22    0.30 
  -2   3   7    4.02    0.30 
  -1   3   7    7.09    0.42 
  -1   3   7    7.24    0.41 
  -1   3   7    6.91    0.40 
  -1   3   7    6.75    0.46 
   0   3   7    7.82    0.50 
   0   3   7    7.89    0.45 
   0   3   7    8.22    0.44 
   0   3   7    7.81    0.46 
   1   3   7    0.12    0.15 
   1   3   7    0.08    0.13 
   1   3   7    0.12    0.16 
   2   3   7    0.90    0.17 
   2   3   7    1.04    0.20 
   2   3   7    0.89    0.16 
   2   3   7    0.97    0.18 
   3   3   7    5.11    0.40 
   3   3   7    5.16    0.38 
   3   3   7    5.16    0.38 
   3   3   7    5.63    0.40 
   4   3   7   11.76    0.69 
   4   3   7   11.47    0.64 
   4   3   7   11.37    0.62 
   4   3   7   11.02    0.62 
   4   3   7   10.83    0.48 
   4   3   7   11.16    0.56 
   4   3   7   10.12    0.70 
   4   3   7   10.30    0.51 
   4   3   7   10.71    0.58 
   5   3   7   16.70    0.82 
   5   3   7   16.56    0.94 
   5   3   7   13.96    0.87 
   5   3   7   17.58    0.81 
   5   3   7   16.19    0.69 
   5   3   7   15.44    0.96 
   5   3   7   15.64    0.91 
   6   3   7   44.10    2.08 
   6   3   7   42.49    2.06 
   7   3   7    3.68    0.32 
   7   3   7    3.75    0.25 
   8   3   7    0.05    0.11 
   8   3   7    0.07    0.11 
  -7   4   7    2.61    0.18 
  -7   4   7    2.63    0.20 
  -7   4   7    2.83    0.33 
  -7   4   7    2.31    0.22 
  -6   4   7    0.44    0.21 
  -6   4   7    0.29    0.10 
  -6   4   7    0.28    0.12 
  -6   4   7    0.72    0.13 
  -6   4   7    0.32    0.10 
  -5   4   7    0.75    0.12 
  -5   4   7    0.77    0.14 
  -5   4   7    0.70    0.17 
  -5   4   7    0.43    0.24 
  -5   4   7    0.67    0.10 
  -4   4   7   29.65    1.16 
  -4   4   7   27.05    1.30 
  -4   4   7   27.00    1.63 
  -4   4   7   26.01    1.52 
  -4   4   7   28.17    1.38 
  -4   4   7   28.37    1.30 
  -4   4   7   28.26    1.13 
  -4   4   7   26.01    1.38 
  -4   4   7   25.32    1.31 
  -3   4   7   26.19    1.25 
  -3   4   7   27.43    1.32 
  -3   4   7   25.73    1.56 
  -3   4   7   26.60    1.08 
  -3   4   7   25.96    1.25 
  -3   4   7   26.10    1.33 
  -3   4   7   26.85    1.46 
  -3   4   7   26.37    1.12 
  -3   4   7   26.20    1.25 
  -2   4   7    4.26    0.26 
  -2   4   7    4.74    0.34 
  -2   4   7    4.73    0.30 
  -2   4   7    4.97    0.32 
  -2   4   7    5.01    0.29 
  -2   4   7    4.58    0.33 
  -2   4   7    5.06    0.39 
  -2   4   7    3.86    0.43 
  -2   4   7    4.58    0.23 
  -2   4   7    4.40    0.25 
  -2   4   7    4.91    0.28 
  -1   4   7    3.54    0.21 
  -1   4   7    3.49    0.21 
  -1   4   7    3.49    0.28 
  -1   4   7    3.25    0.21 
  -1   4   7    3.33    0.35 
   0   4   7   10.72    0.52 
   0   4   7   11.32    0.55 
   0   4   7   10.99    0.65 
   0   4   7   11.18    0.53 
   0   4   7   10.86    0.60 
   0   4   7   10.39    0.55 
   1   4   7    1.45    0.17 
   1   4   7    1.50    0.21 
   1   4   7    1.59    0.19 
   2   4   7    3.16    0.26 
   2   4   7    2.30    0.26 
   2   4   7    2.68    0.33 
   2   4   7    2.70    0.27 
   2   4   7    3.38    0.25 
   2   4   7    2.22    0.31 
   2   4   7    2.52    0.18 
   3   4   7    2.36    0.32 
   3   4   7    2.34    0.32 
   3   4   7    2.64    0.26 
   3   4   7    2.32    0.20 
   3   4   7    2.49    0.28 
   3   4   7    2.37    0.23 
   3   4   7    2.79    0.28 
   3   4   7    2.56    0.25 
   3   4   7    2.01    0.28 
   3   4   7    2.18    0.22 
   3   4   7    2.44    0.18 
   4   4   7    4.64    0.38 
   4   4   7    3.46    0.41 
   4   4   7    3.98    0.40 
   4   4   7    4.72    0.37 
   4   4   7    4.46    0.25 
   4   4   7    4.50    0.38 
   4   4   7    4.39    0.31 
   4   4   7    4.31    0.27 
   4   4   7    4.89    0.43 
   4   4   7    4.91    0.25 
   5   4   7    6.57    0.37 
   5   4   7    6.92    0.42 
   5   4   7    6.52    0.49 
   5   4   7    6.31    0.53 
   5   4   7    6.69    0.35 
   5   4   7    6.99    0.51 
   6   4   7    6.47    0.48 
   6   4   7    6.36    0.34 
   6   4   7    5.84    0.35 
   6   4   7    6.51    0.40 
   7   4   7    1.05    0.20 
   7   4   7    0.87    0.13 
   7   4   7    1.01    0.15 
   8   4   7    9.05    0.51 
   8   4   7    8.90    0.45 
  -7   5   7    0.56    0.08 
  -7   5   7    0.68    0.12 
  -6   5   7    0.40    0.14 
  -6   5   7    0.55    0.10 
  -6   5   7    0.62    0.09 
  -6   5   7    0.50    0.20 
  -5   5   7    6.76    0.41 
  -5   5   7    6.11    0.59 
  -5   5   7    6.36    0.34 
  -5   5   7    6.34    0.38 
  -5   5   7    6.71    0.31 
  -4   5   7    0.15    0.12 
  -4   5   7    0.08    0.17 
  -4   5   7    0.09    0.09 
  -4   5   7    0.12    0.11 
  -4   5   7   -0.42    0.22 
  -3   5   7    7.59    0.60 
  -3   5   7    8.65    0.45 
  -3   5   7    8.36    0.51 
  -3   5   7    6.99    0.63 
  -3   5   7    8.35    0.39 
  -3   5   7    8.59    0.37 
  -2   5   7   14.02    0.68 
  -2   5   7   13.65    0.82 
  -2   5   7   13.78    0.59 
  -2   5   7   13.76    0.56 
  -2   5   7   11.31    0.82 
  -2   5   7   12.67    0.87 
  -2   5   7   15.03    0.77 
  -2   5   7   13.84    0.72 
  -1   5   7    1.05    0.17 
  -1   5   7    0.92    0.21 
  -1   5   7    0.80    0.19 
  -1   5   7    1.02    0.14 
  -1   5   7    1.09    0.15 
  -1   5   7    0.91    0.14 
  -1   5   7    0.89    0.08 
  -1   5   7    1.05    0.07 
  -1   5   7    1.05    0.25 
   0   5   7    1.79    0.11 
   0   5   7    1.58    0.18 
   0   5   7    1.72    0.15 
   0   5   7    1.52    0.21 
   0   5   7    1.63    0.17 
   0   5   7    1.68    0.15 
   0   5   7    2.03    0.25 
   0   5   7    1.77    0.19 
   0   5   7    2.10    0.22 
   0   5   7    1.55    0.26 
   1   5   7    1.54    0.19 
   1   5   7    1.60    0.10 
   1   5   7    1.71    0.19 
   1   5   7    1.48    0.14 
   1   5   7    1.33    0.18 
   1   5   7    1.56    0.24 
   1   5   7    1.50    0.12 
   1   5   7    1.61    0.17 
   2   5   7   16.79    0.72 
   2   5   7   15.23    0.91 
   2   5   7   16.07    1.00 
   2   5   7   17.01    0.89 
   2   5   7   16.92    0.69 
   2   5   7   18.47    0.87 
   2   5   7   15.81    1.00 
   2   5   7   17.11    1.02 
   3   5   7    8.16    0.40 
   3   5   7    7.89    0.59 
   3   5   7    8.01    0.55 
   3   5   7    8.24    0.54 
   3   5   7    7.96    0.46 
   3   5   7    7.56    0.58 
   3   5   7    9.04    0.60 
   3   5   7    8.24    0.38 
   3   5   7    8.38    0.43 
   3   5   7    9.31    0.47 
   4   5   7    2.33    0.19 
   4   5   7    1.47    0.31 
   4   5   7    2.34    0.31 
   4   5   7    2.26    0.23 
   4   5   7    2.35    0.27 
   4   5   7    2.34    0.24 
   4   5   7    2.04    0.25 
   4   5   7    2.41    0.23 
   4   5   7    2.21    0.23 
   5   5   7    3.52    0.35 
   5   5   7    3.82    0.26 
   5   5   7    3.92    0.28 
   5   5   7    3.29    0.37 
   5   5   7    3.97    0.24 
   6   5   7   -0.07    0.11 
   6   5   7   -0.04    0.19 
   6   5   7   -0.22    0.12 
   6   5   7   -0.26    0.12 
   7   5   7    2.48    0.18 
   7   5   7    2.30    0.21 
   7   5   7    2.18    0.18 
   7   5   7    2.36    0.24 
  -6   6   7    0.16    0.12 
  -5   6   7   -0.07    0.09 
  -5   6   7   -0.10    0.15 
  -5   6   7   -0.05    0.09 
  -5   6   7   -0.12    0.17 
  -4   6   7    2.36    0.26 
  -4   6   7    2.16    0.26 
  -4   6   7    2.34    0.18 
  -4   6   7    2.48    0.27 
  -3   6   7    1.07    0.16 
  -3   6   7    0.64    0.27 
  -3   6   7    1.03    0.14 
  -2   6   7    4.63    0.36 
  -2   6   7    3.50    0.42 
  -2   6   7    4.19    0.21 
  -2   6   7    4.27    0.33 
  -2   6   7    3.91    0.46 
  -2   6   7    4.18    0.30 
  -1   6   7    4.82    0.42 
  -1   6   7    5.24    0.36 
  -1   6   7    4.78    0.44 
  -1   6   7    5.36    0.36 
  -1   6   7    4.83    0.48 
  -1   6   7    5.59    0.38 
   0   6   7    1.27    0.21 
   0   6   7    1.40    0.24 
   0   6   7    1.56    0.25 
   0   6   7    1.90    0.20 
   0   6   7    1.53    0.16 
   0   6   7    1.49    0.16 
   0   6   7    1.72    0.20 
   1   6   7   13.46    0.79 
   1   6   7   15.33    0.92 
   1   6   7   13.35    0.89 
   1   6   7   14.00    0.89 
   1   6   7   15.63    0.76 
   1   6   7   14.97    0.72 
   1   6   7   14.65    0.62 
   2   6   7    4.94    0.46 
   2   6   7    4.62    0.40 
   2   6   7    4.80    0.22 
   2   6   7    3.79    0.39 
   2   6   7    4.60    0.46 
   2   6   7    5.01    0.24 
   2   6   7    4.59    0.44 
   3   6   7    0.84    0.29 
   3   6   7    1.38    0.11 
   3   6   7    1.30    0.09 
   3   6   7    1.21    0.22 
   3   6   7    1.27    0.19 
   3   6   7    0.88    0.22 
   3   6   7    1.31    0.22 
   4   6   7    2.60    0.35 
   4   6   7    2.77    0.18 
   4   6   7    2.22    0.28 
   4   6   7    2.20    0.26 
   4   6   7    2.48    0.20 
   5   6   7   -0.23    0.11 
   5   6   7    0.04    0.21 
   5   6   7   -0.21    0.18 
   5   6   7    0.00    0.09 
   6   6   7    1.65    0.16 
   6   6   7    1.30    0.22 
   6   6   7    1.25    0.14 
   6   6   7    1.45    0.18 
   7   6   7   -0.03    0.06 
   7   6   7   -0.09    0.12 
   7   6   7   -0.12    0.08 
  -5   7   7    0.00    0.10 
  -5   7   7   -0.03    0.13 
  -4   7   7    0.10    0.15 
  -4   7   7    0.37    0.14 
  -4   7   7    0.23    0.16 
  -3   7   7    3.46    0.42 
  -3   7   7    3.53    0.30 
  -3   7   7    3.20    0.29 
  -2   7   7    2.37    0.27 
  -2   7   7    2.30    0.22 
  -2   7   7    1.97    0.26 
  -2   7   7    2.39    0.29 
  -1   7   7    0.65    0.18 
  -1   7   7    0.14    0.19 
  -1   7   7    0.81    0.16 
  -1   7   7    0.25    0.21 
  -1   7   7    0.64    0.16 
   0   7   7    1.17    0.15 
   0   7   7    1.33    0.21 
   0   7   7    1.06    0.13 
   0   7   7    1.04    0.21 
   0   7   7    0.75    0.23 
   1   7   7    0.61    0.25 
   1   7   7    0.44    0.17 
   1   7   7    1.04    0.21 
   1   7   7    1.02    0.18 
   2   7   7    4.20    0.39 
   2   7   7    4.02    0.44 
   2   7   7    3.56    0.36 
   2   7   7    4.41    0.42 
   3   7   7    0.19    0.22 
   3   7   7    0.13    0.18 
   3   7   7    0.21    0.08 
   3   7   7    0.08    0.16 
   4   7   7    0.29    0.09 
   4   7   7    0.19    0.20 
   4   7   7    0.11    0.16 
   4   7   7    0.35    0.20 
   5   7   7    1.67    0.24 
   5   7   7    1.73    0.21 
   5   7   7    1.61    0.12 
   5   7   7    1.84    0.17 
   6   7   7    0.15    0.07 
   6   7   7    0.13    0.14 
  -4   8   7    0.27    0.10 
  -4   8   7    0.08    0.10 
  -3   8   7    0.61    0.14 
  -3   8   7    0.61    0.13 
  -2   8   7   -0.10    0.16 
  -2   8   7    0.36    0.14 
  -2   8   7    0.23    0.13 
  -1   8   7    0.65    0.14 
  -1   8   7    0.66    0.17 
  -1   8   7    0.60    0.19 
   0   8   7    1.21    0.19 
   0   8   7    1.11    0.17 
   0   8   7    0.75    0.21 
   0   8   7    0.80    0.23 
   1   8   7    8.68    0.62 
   1   8   7    9.21    0.64 
   1   8   7    9.00    0.61 
   2   8   7   19.91    1.16 
   2   8   7   17.97    1.15 
   2   8   7   20.88    1.17 
   3   8   7    1.96    0.23 
   3   8   7    1.75    0.23 
   3   8   7    2.34    0.31 
   4   8   7    0.33    0.16 
   4   8   7    0.27    0.18 
   4   8   7    0.11    0.16 
   5   8   7   -0.01    0.12 
   5   8   7    0.10    0.12 
  -2   9   7    0.07    0.10 
  -1   9   7   -0.07    0.10 
   0   9   7    0.09    0.15 
   0   9   7    0.24    0.13 
   1   9   7    1.88    0.26 
   1   9   7    1.64    0.24 
   2   9   7    3.47    0.31 
   2   9   7    3.41    0.31 
   3   9   7    0.92    0.18 
   4   7  -8    2.79    0.20 
   3   7  -8    0.82    0.14 
   3   7  -8    0.82    0.09 
   2   7  -8    2.21    0.24 
   2   7  -8    2.39    0.16 
   2   7  -8    2.43    0.27 
   1   7  -8    0.16    0.14 
   1   7  -8    0.25    0.08 
   1   7  -8    0.18    0.12 
   0   7  -8    0.02    0.14 
   0   7  -8   -0.08    0.08 
   0   7  -8    0.02    0.10 
  -1   7  -8    0.38    0.14 
  -1   7  -8    0.56    0.09 
  -1   7  -8    0.33    0.10 
  -2   7  -8    0.31    0.06 
  -2   7  -8    0.27    0.12 
   5   6  -8    1.69    0.13 
   5   6  -8    1.59    0.20 
   4   6  -8    1.65    0.16 
   4   6  -8    1.74    0.23 
   3   6  -8    3.76    0.23 
   3   6  -8    4.02    0.33 
   3   6  -8    3.92    0.34 
   3   6  -8    4.05    0.24 
   2   6  -8   -0.07    0.08 
   2   6  -8   -0.05    0.16 
   2   6  -8   -0.15    0.11 
   2   6  -8    0.06    0.10 
   1   6  -8    1.84    0.17 
   1   6  -8    2.04    0.19 
   1   6  -8    1.72    0.23 
   1   6  -8    1.23    0.22 
   1   6  -8    1.81    0.19 
   0   6  -8    3.37    0.21 
   0   6  -8    3.02    0.30 
   0   6  -8    3.25    0.23 
   0   6  -8    2.91    0.38 
  -1   6  -8    0.94    0.10 
  -1   6  -8    0.92    0.15 
  -1   6  -8    0.60    0.12 
  -1   6  -8    0.86    0.19 
  -2   6  -8    9.14    0.39 
  -2   6  -8    9.01    0.56 
  -2   6  -8    9.18    0.42 
  -2   6  -8    8.19    0.52 
  -2   6  -8    8.55    0.49 
  -3   6  -8   -0.15    0.13 
  -3   6  -8   -0.05    0.13 
  -3   6  -8   -0.01    0.07 
  -3   6  -8   -0.08    0.09 
  -4   6  -8    3.65    0.26 
  -4   6  -8    3.77    0.21 
  -4   6  -8    3.65    0.17 
   6   5  -8    0.91    0.15 
   6   5  -8    1.09    0.11 
   6   5  -8    1.06    0.11 
   5   5  -8    3.40    0.30 
   5   5  -8    3.32    0.23 
   5   5  -8    3.60    0.24 
   5   5  -8    3.63    0.22 
   4   5  -8    8.39    0.44 
   4   5  -8    7.76    0.41 
   4   5  -8    8.66    0.39 
   4   5  -8    8.17    0.54 
   3   5  -8   27.97    1.26 
   3   5  -8   26.47    1.09 
   3   5  -8   26.32    1.12 
   3   5  -8   25.25    1.44 
   3   5  -8   25.15    1.46 
   2   5  -8   16.59    0.95 
   2   5  -8   16.69    0.80 
   2   5  -8   15.29    0.93 
   2   5  -8   16.63    0.69 
   2   5  -8   16.10    0.72 
   1   5  -8    1.13    0.22 
   1   5  -8    0.94    0.13 
   1   5  -8    0.46    0.28 
   1   5  -8    1.33    0.16 
   1   5  -8    0.85    0.11 
   1   5  -8    1.08    0.13 
   1   5  -8    0.86    0.13 
   0   5  -8    4.51    0.37 
   0   5  -8    5.12    0.35 
   0   5  -8    4.52    0.31 
   0   5  -8    5.02    0.27 
   0   5  -8    4.21    0.48 
   0   5  -8    5.01    0.44 
   0   5  -8    4.86    0.30 
  -1   5  -8    7.20    0.34 
  -1   5  -8    6.95    0.35 
  -1   5  -8    5.89    0.39 
  -1   5  -8    6.56    0.44 
  -1   5  -8    6.78    0.38 
  -1   5  -8    6.94    0.51 
  -2   5  -8   -0.07    0.09 
  -2   5  -8   -0.12    0.17 
  -2   5  -8   -0.09    0.12 
  -2   5  -8   -0.02    0.13 
  -2   5  -8   -0.09    0.10 
  -3   5  -8    2.15    0.30 
  -3   5  -8    2.52    0.20 
  -3   5  -8    2.75    0.23 
  -3   5  -8    2.76    0.32 
  -4   5  -8    5.98    0.31 
  -4   5  -8    6.05    0.41 
  -4   5  -8    5.88    0.33 
  -5   5  -8    2.06    0.20 
  -5   5  -8    2.30    0.16 
  -5   5  -8    2.34    0.20 
   7   4  -8    0.26    0.08 
   7   4  -8    0.24    0.08 
   6   4  -8    5.73    0.39 
   6   4  -8    5.58    0.34 
   5   4  -8    2.90    0.23 
   5   4  -8    2.98    0.28 
   5   4  -8    3.45    0.29 
   4   4  -8    2.43    0.22 
   4   4  -8    2.18    0.17 
   4   4  -8    2.21    0.31 
   4   4  -8    2.14    0.21 
   4   4  -8    2.68    0.28 
   4   4  -8    2.56    0.30 
   3   4  -8   24.88    1.36 
   3   4  -8   24.87    1.01 
   3   4  -8   20.94    1.29 
   3   4  -8   24.95    1.04 
   3   4  -8   25.30    1.16 
   2   4  -8    5.15    0.28 
   2   4  -8    5.24    0.39 
   2   4  -8    4.89    0.36 
   2   4  -8    6.41    0.45 
   2   4  -8    5.71    0.41 
   2   4  -8    5.00    0.29 
   2   4  -8    5.55    0.32 
   2   4  -8    4.68    0.41 
   2   4  -8    4.83    0.48 
   2   4  -8    5.07    0.41 
   1   4  -8  114.93    5.79 
   1   4  -8  121.77    6.09 
   1   4  -8  116.78    6.59 
   1   4  -8  127.56    5.07 
   1   4  -8  135.15    6.48 
   1   4  -8  126.35    5.73 
   1   4  -8  118.15    6.56 
   1   4  -8  120.24    4.91 
   0   4  -8    2.26    0.26 
   0   4  -8    2.34    0.17 
   0   4  -8    2.16    0.25 
   0   4  -8    2.51    0.34 
   0   4  -8    1.80    0.25 
   0   4  -8    2.33    0.15 
   0   4  -8    2.05    0.23 
   0   4  -8    2.17    0.19 
   0   4  -8    1.68    0.32 
  -1   4  -8    8.47    0.54 
  -1   4  -8    8.14    0.39 
  -1   4  -8    8.16    0.38 
  -1   4  -8    7.57    0.44 
  -1   4  -8    6.78    0.46 
  -1   4  -8    7.91    0.51 
  -1   4  -8    7.83    0.60 
  -2   4  -8    5.66    0.36 
  -2   4  -8    5.92    0.41 
  -2   4  -8    4.98    0.47 
  -2   4  -8    5.06    0.42 
  -2   4  -8    5.56    0.30 
  -2   4  -8    5.41    0.29 
  -2   4  -8    4.39    0.37 
  -3   4  -8   -0.28    0.14 
  -3   4  -8   -0.17    0.12 
  -3   4  -8   -0.18    0.13 
  -3   4  -8   -0.18    0.18 
  -3   4  -8   -0.15    0.17 
  -4   4  -8    8.50    0.51 
  -4   4  -8    7.97    0.40 
  -4   4  -8    8.25    0.42 
  -4   4  -8    7.90    0.46 
  -5   4  -8    0.06    0.11 
  -5   4  -8    0.10    0.11 
  -5   4  -8   -0.06    0.12 
  -5   4  -8    0.15    0.12 
  -6   4  -8    0.04    0.10 
  -6   4  -8   -0.01    0.11 
  -6   4  -8    0.10    0.08 
   7   3  -8    8.24    0.42 
   7   3  -8    8.68    0.46 
   7   3  -8    8.84    0.52 
   6   3  -8    0.62    0.14 
   6   3  -8    0.86    0.12 
   6   3  -8    0.69    0.17 
   5   3  -8    1.08    0.16 
   5   3  -8    1.33    0.14 
   4   3  -8   19.60    0.95 
   4   3  -8   19.85    0.95 
   4   3  -8   18.07    1.04 
   3   3  -8    1.42    0.26 
   3   3  -8    1.12    0.22 
   3   3  -8    1.51    0.12 
   3   3  -8    1.06    0.12 
   3   3  -8    0.95    0.23 
   3   3  -8    0.95    0.13 
   3   3  -8    1.11    0.14 
   2   3  -8   46.20    2.13 
   2   3  -8   42.03    2.03 
   2   3  -8   41.58    2.01 
   2   3  -8   40.73    1.77 
   2   3  -8   45.03    2.35 
   2   3  -8   43.05    2.16 
   2   3  -8   41.18    2.31 
   2   3  -8   40.25    1.72 
   2   3  -8   42.55    2.02 
   1   3  -8    7.71    0.37 
   1   3  -8    9.23    0.58 
   1   3  -8    7.91    0.38 
   1   3  -8    7.32    0.44 
   1   3  -8    7.14    0.49 
   1   3  -8    7.79    0.42 
   1   3  -8    8.55    0.49 
   1   3  -8    8.87    0.51 
   1   3  -8    8.53    0.51 
   0   3  -8   15.94    0.83 
   0   3  -8   14.53    0.64 
   0   3  -8   14.30    0.75 
   0   3  -8   15.26    0.75 
   0   3  -8   16.51    0.94 
   0   3  -8   14.79    0.66 
   0   3  -8   15.69    0.79 
  -1   3  -8   11.99    0.72 
  -1   3  -8   12.65    0.79 
  -1   3  -8   12.00    0.62 
  -1   3  -8   12.26    0.66 
  -1   3  -8   11.98    0.55 
  -1   3  -8   12.71    0.69 
  -1   3  -8   12.72    0.53 
  -1   3  -8   11.77    0.62 
  -2   3  -8   13.11    0.66 
  -2   3  -8   13.01    0.73 
  -2   3  -8   13.03    0.70 
  -2   3  -8   12.96    0.64 
  -2   3  -8   12.08    0.74 
  -2   3  -8   12.66    0.81 
  -2   3  -8   12.18    0.55 
  -2   3  -8   12.78    0.57 
  -3   3  -8   22.20    1.20 
  -3   3  -8   22.39    0.95 
  -3   3  -8   23.31    0.98 
  -3   3  -8   23.50    1.11 
  -3   3  -8   23.18    1.10 
  -3   3  -8   21.26    1.31 
  -4   3  -8    3.69    0.32 
  -4   3  -8    2.92    0.26 
  -4   3  -8    3.06    0.23 
  -4   3  -8    3.27    0.22 
  -4   3  -8    3.36    0.34 
  -4   3  -8    2.45    0.33 
  -5   3  -8    8.35    0.48 
  -5   3  -8    7.56    0.42 
  -5   3  -8    7.13    0.40 
  -5   3  -8    8.49    0.47 
  -6   3  -8    1.31    0.16 
  -6   3  -8    1.43    0.15 
  -6   3  -8    1.52    0.14 
  -7   3  -8    0.91    0.11 
  -7   3  -8    0.67    0.09 
   8   2  -8    6.58    0.39 
   8   2  -8    6.40    0.32 
   7   2  -8    0.23    0.11 
   6   2  -8    1.85    0.23 
   5   2  -8    7.44    0.43 
   4   2  -8    1.55    0.14 
   3   2  -8   15.53    0.85 
   3   2  -8   14.77    0.77 
   3   2  -8   16.07    0.84 
   2   2  -8    0.97    0.10 
   2   2  -8    1.08    0.16 
   2   2  -8    0.86    0.19 
   2   2  -8    0.94    0.18 
   1   2  -8   60.02    2.90 
   1   2  -8   57.36    2.74 
   1   2  -8   59.01    2.94 
   0   2  -8    5.84    0.38 
   0   2  -8    5.78    0.43 
   0   2  -8    5.50    0.38 
  -1   2  -8   13.71    0.74 
  -1   2  -8   14.75    0.77 
  -1   2  -8   13.99    0.85 
  -2   2  -8   11.25    0.62 
  -2   2  -8   13.03    0.77 
  -2   2  -8   12.86    0.68 
  -2   2  -8   12.70    0.71 
  -3   2  -8    6.58    0.41 
  -3   2  -8    6.94    0.50 
  -3   2  -8    6.75    0.39 
  -3   2  -8    5.97    0.47 
  -3   2  -8    6.99    0.48 
  -4   2  -8   18.08    0.87 
  -4   2  -8   18.71    0.88 
  -4   2  -8   16.82    0.96 
  -4   2  -8   15.56    0.92 
  -5   2  -8    3.04    0.24 
  -5   2  -8    2.82    0.30 
  -5   2  -8    3.00    0.35 
  -6   2  -8    2.87    0.20 
  -6   2  -8    2.58    0.23 
  -6   2  -8    2.61    0.31 
  -7   2  -8    2.12    0.24 
  -7   2  -8    2.21    0.21 
   8   1  -8    0.07    0.08 
  -8  -1   8   -0.07    0.08 
   7   1  -8    3.30    0.26 
  -7  -1   8    3.29    0.25 
   6   1  -8    0.81    0.15 
  -6  -1   8    0.77    0.12 
   5   1  -8    7.46    0.43 
   2   1  -8  164.13    7.44 
   2   1  -8  161.59    7.90 
   1   1  -8   11.04    0.56 
   1   1  -8    8.59    0.65 
   1   1  -8   10.79    0.59 
   1   1  -8   10.90    0.58 
   0   1  -8   26.52    1.23 
   0   1  -8   23.56    1.40 
   0   1  -8   26.02    1.29 
  -1   1  -8   11.20    0.64 
  -1   1  -8    8.90    0.68 
  -1   1  -8   11.07    0.60 
  -1   1  -8   10.76    0.58 
  -2   1  -8    1.41    0.19 
  -2   1  -8    1.66    0.21 
  -2   1  -8    1.22    0.20 
  -3   1  -8    5.43    0.39 
  -3   1  -8    4.49    0.30 
  -3   1  -8    5.04    0.39 
  -3   1  -8    5.45    0.38 
  -4   1  -8    0.37    0.14 
  -5   1  -8   31.70    1.54 
  -6   1  -8    1.41    0.15 
  -6   1  -8    1.52    0.18 
  -7   1  -8    2.31    0.26 
  -7   1  -8    2.23    0.19 
  -8   1  -8    3.73    0.22 
   8   0  -8   10.26    0.56 
  -8   0   8   12.05    0.55 
  -7   0   8    5.10    0.31 
  -6   0   8    6.22    0.37 
  -5   0   8   24.68    1.21 
  -4   0   8    0.74    0.09 
  -3   0   8   40.68    1.98 
  -3   0   8   42.22    2.08 
  -2   0   8    4.41    0.38 
  -2   0   8    4.83    0.37 
   1   0  -8   27.56    1.38 
   1   0  -8   28.54    1.31 
   1   0  -8   26.30    1.50 
  -1   0   8   28.97    1.39 
  -1   0   8   24.81    1.50 
  -1   0   8   25.34    1.50 
  -1   0   8   29.51    1.33 
   0   0  -8  136.51    6.93 
   0   0  -8  141.61    6.59 
   0   0   8  123.58    6.93 
   0   0   8  144.07    6.22 
   0   0   8  142.15    6.59 
   0   0   8  127.23    6.93 
  -1   0  -8    7.14    0.43 
  -1   0  -8    6.97    0.41 
  -1   0  -8    6.39    0.48 
   1   0   8    6.70    0.42 
   1   0   8    7.26    0.45 
   1   0   8    5.81    0.48 
  -2   0  -8    2.78    0.24 
  -2   0  -8    2.85    0.27 
  -2   0  -8    2.48    0.28 
   2   0   8    2.69    0.24 
  -5   0  -8    4.55    0.33 
  -6   0  -8    0.34    0.15 
  -7   0  -8   14.41    0.73 
  -8   0  -8    0.00    0.06 
   8   0   8   -0.07    0.10 
  -8   1   8    0.28    0.12 
  -8   1   8    0.23    0.15 
  -7   1   8   10.16    0.52 
  -7   1   8   10.39    0.57 
  -6   1   8   23.53    1.15 
  -6   1   8   23.53    1.16 
  -5   1   8   31.77    1.54 
  -5   1   8   31.85    1.53 
  -4   1   8   20.41    1.02 
  -4   1   8   22.13    1.12 
  -4   1   8   21.32    1.14 
  -4   1   8   19.03    1.06 
  -4   1   8   20.04    1.01 
  -3   1   8    2.50    0.29 
  -3   1   8    1.82    0.25 
  -3   1   8    2.08    0.26 
  -2   1   8   15.20    0.76 
  -2   1   8   14.73    0.82 
  -2   1   8   14.49    0.80 
   1  -1  -8    4.41    0.39 
  -1   1   8    5.16    0.35 
  -1   1   8    5.03    0.34 
  -1   1   8    5.30    0.36 
  -1   1   8    3.57    0.37 
   0   1   8   27.90    1.37 
   0   1   8   28.84    1.31 
   0   1   8   24.33    1.48 
  -1  -1  -8   47.80    2.63 
   1   1   8   54.17    2.48 
   1   1   8   45.02    2.63 
   1   1   8   51.03    2.34 
   1   1   8   52.57    2.37 
   2   1   8    1.18    0.24 
   2   1   8    1.62    0.20 
   2   1   8    1.97    0.20 
   2   1   8    1.73    0.20 
   3   1   8   12.09    0.66 
   3   1   8   11.14    0.63 
   3   1   8   12.30    0.67 
   4   1   8    1.70    0.20 
   5   1   8    1.56    0.16 
   6   1   8    5.59    0.36 
  -7  -1  -8    0.25    0.13 
   7   1   8    0.38    0.15 
  -8  -1  -8    2.77    0.20 
   8   1   8    2.70    0.20 
  -8   2   8    1.36    0.19 
  -8   2   8    1.80    0.17 
  -7   2   8    3.62    0.39 
  -7   2   8    3.23    0.29 
  -6   2   8    5.21    0.30 
  -6   2   8    5.02    0.37 
  -6   2   8    4.72    0.28 
  -5   2   8    3.85    0.40 
  -5   2   8    3.73    0.27 
  -5   2   8    4.10    0.25 
  -5   2   8    3.60    0.34 
  -5   2   8    4.10    0.40 
  -4   2   8    0.28    0.12 
  -4   2   8    0.16    0.10 
  -4   2   8    0.15    0.16 
  -4   2   8   -0.06    0.18 
  -4   2   8    0.03    0.20 
  -4   2   8   -0.06    0.11 
  -4   2   8   -0.05    0.18 
  -3   2   8   10.84    0.58 
  -3   2   8   11.87    0.65 
  -3   2   8   11.75    0.67 
  -3   2   8   12.42    0.71 
  -2   2   8    0.12    0.17 
  -2   2   8    0.24    0.15 
  -2   2   8    0.28    0.14 
  -1   2   8   49.63    2.37 
  -1   2   8   49.69    2.32 
  -1   2   8   49.44    2.58 
  -1   2   8   50.72    2.46 
   0   2   8   73.47    3.28 
   0   2   8   66.78    3.34 
   0   2   8   74.77    3.66 
   0   2   8   70.10    3.48 
   1   2   8   16.28    0.85 
   1   2   8   17.12    0.85 
   1   2   8   16.66    0.88 
   2   2   8   21.61    1.06 
   2   2   8   21.62    1.11 
   2   2   8   21.53    1.08 
   3   2   8    0.66    0.18 
   3   2   8    0.42    0.19 
   3   2   8    0.75    0.19 
   4   2   8   16.94    0.91 
   4   2   8   16.44    0.80 
   4   2   8   14.99    0.81 
   4   2   8   16.64    0.87 
   5   2   8    6.11    0.37 
   5   2   8    5.46    0.47 
   6   2   8    1.36    0.16 
   7   2   8    6.89    0.39 
  -8  -2  -8    0.18    0.09 
   8   2   8    0.16    0.11 
  -7   3   8    2.89    0.39 
  -7   3   8    2.15    0.21 
  -7   3   8    2.41    0.20 
  -7   3   8    3.09    0.23 
  -6   3   8    1.77    0.24 
  -6   3   8    1.16    0.14 
  -6   3   8    1.30    0.14 
  -6   3   8    2.28    0.26 
  -5   3   8    9.99    0.58 
  -5   3   8   10.70    0.47 
  -5   3   8   10.74    0.50 
  -5   3   8   11.85    0.76 
  -5   3   8    8.69    0.66 
  -5   3   8   10.66    0.57 
  -4   3   8    9.20    0.40 
  -4   3   8    8.74    0.49 
  -4   3   8    8.17    0.55 
  -4   3   8    8.15    0.61 
  -4   3   8    9.46    0.65 
  -4   3   8    8.70    0.43 
  -4   3   8    8.60    0.50 
  -4   3   8    8.46    0.55 
  -4   3   8    8.95    0.44 
  -3   3   8    0.55    0.21 
  -3   3   8    0.77    0.10 
  -3   3   8    0.82    0.20 
  -3   3   8    0.62    0.09 
  -3   3   8    0.88    0.11 
  -3   3   8    0.71    0.18 
  -3   3   8    0.73    0.14 
  -3   3   8    0.62    0.08 
  -3   3   8    0.57    0.19 
  -3   3   8    0.75    0.16 
  -3   3   8    0.92    0.12 
  -2   3   8   16.88    0.86 
  -2   3   8   16.48    0.95 
  -2   3   8   16.96    0.84 
  -2   3   8   16.52    0.88 
  -1   3   8    2.42    0.26 
  -1   3   8    2.48    0.27 
  -1   3   8    2.38    0.28 
  -1   3   8    2.23    0.26 
   0   3   8   21.75    1.05 
   0   3   8   22.21    1.08 
   0   3   8   21.32    1.10 
   0   3   8   21.59    1.18 
   1   3   8   33.52    1.64 
   1   3   8   34.29    1.60 
   1   3   8   33.87    1.68 
   2   3   8    0.05    0.18 
   2   3   8    0.00    0.16 
   2   3   8    0.16    0.15 
   2   3   8    0.06    0.13 
   3   3   8    2.21    0.24 
   3   3   8    2.31    0.30 
   3   3   8    2.48    0.18 
   3   3   8    2.77    0.30 
   3   3   8    2.43    0.19 
   3   3   8    2.67    0.32 
   3   3   8    2.61    0.29 
   4   3   8   -0.18    0.17 
   4   3   8   -0.06    0.15 
   4   3   8   -0.08    0.18 
   4   3   8   -0.15    0.12 
   4   3   8    0.24    0.18 
   4   3   8    0.14    0.22 
   4   3   8   -0.11    0.10 
   4   3   8    0.06    0.20 
   4   3   8    0.12    0.13 
   5   3   8    1.84    0.30 
   5   3   8    1.96    0.21 
   5   3   8    2.52    0.29 
   5   3   8    2.51    0.23 
   5   3   8    1.74    0.30 
   5   3   8    2.26    0.32 
   6   3   8   44.96    2.12 
   6   3   8   43.60    2.11 
   7   3   8    0.61    0.16 
   7   3   8    0.69    0.11 
   8   3   8    4.61    0.30 
   8   3   8    4.64    0.32 
  -7   4   8    2.90    0.21 
  -7   4   8    2.95    0.31 
  -7   4   8    2.84    0.18 
  -6   4   8    8.08    0.39 
  -6   4   8    8.83    0.41 
  -6   4   8    8.05    0.48 
  -6   4   8    8.56    0.42 
  -6   4   8    8.25    0.63 
  -5   4   8    8.25    0.41 
  -5   4   8    8.32    0.66 
  -5   4   8    7.56    0.47 
  -5   4   8    7.81    0.38 
  -5   4   8    8.49    0.44 
  -4   4   8    0.34    0.12 
  -4   4   8    0.03    0.15 
  -4   4   8   -0.17    0.24 
  -4   4   8    0.01    0.11 
  -4   4   8    0.22    0.13 
  -4   4   8   -0.19    0.21 
  -4   4   8    0.17    0.14 
  -4   4   8    0.26    0.11 
  -3   4   8    2.38    0.31 
  -3   4   8    2.20    0.21 
  -3   4   8    2.24    0.25 
  -3   4   8    1.90    0.22 
  -3   4   8    2.24    0.18 
  -3   4   8    1.76    0.22 
  -3   4   8    2.18    0.21 
  -3   4   8    1.88    0.24 
  -3   4   8    1.84    0.22 
  -2   4   8   -0.07    0.10 
  -2   4   8    0.12    0.17 
  -2   4   8    0.00    0.08 
  -2   4   8   -0.04    0.17 
  -2   4   8   -0.21    0.11 
  -2   4   8   -0.25    0.12 
  -2   4   8    0.11    0.17 
  -2   4   8    0.06    0.19 
  -2   4   8    0.14    0.14 
  -2   4   8   -0.04    0.10 
  -2   4   8    0.06    0.12 
  -1   4   8    6.64    0.46 
  -1   4   8    6.08    0.52 
  -1   4   8    6.53    0.40 
  -1   4   8    7.08    0.38 
  -1   4   8    6.69    0.30 
  -1   4   8    6.16    0.31 
  -1   4   8    7.09    0.37 
  -1   4   8    5.63    0.34 
  -1   4   8    6.91    0.44 
  -1   4   8    6.70    0.36 
   0   4   8   13.80    0.70 
   0   4   8   13.24    0.74 
   0   4   8   13.96    0.67 
   0   4   8   13.57    0.81 
   1   4   8   59.42    2.80 
   1   4   8   60.94    2.87 
   1   4   8   56.85    2.37 
   1   4   8   58.50    2.71 
   2   4   8   13.34    0.84 
   2   4   8   14.29    0.70 
   2   4   8   12.68    0.67 
   2   4   8   13.33    0.60 
   2   4   8   14.17    0.72 
   2   4   8   13.86    0.58 
   2   4   8   14.36    0.74 
   2   4   8   12.37    0.83 
   2   4   8   13.59    0.83 
   3   4   8    0.96    0.10 
   3   4   8    0.64    0.19 
   3   4   8    0.95    0.19 
   3   4   8    0.68    0.23 
   3   4   8    0.66    0.11 
   3   4   8    0.86    0.14 
   3   4   8    1.09    0.22 
   3   4   8    1.04    0.17 
   3   4   8    0.93    0.12 
   3   4   8    0.70    0.19 
   3   4   8    0.72    0.21 
   4   4   8   19.50    1.04 
   4   4   8   19.97    1.07 
   4   4   8   19.85    1.11 
   4   4   8   17.79    1.11 
   4   4   8   20.51    0.84 
   4   4   8   21.04    0.96 
   4   4   8   19.41    1.02 
   4   4   8   20.74    0.98 
   4   4   8   20.29    0.87 
   4   4   8   20.02    1.18 
   5   4   8    7.83    0.37 
   5   4   8    7.14    0.53 
   5   4   8    6.54    0.56 
   5   4   8    7.59    0.46 
   5   4   8    8.02    0.54 
   5   4   8    7.52    0.40 
   6   4   8    0.43    0.15 
   6   4   8    0.09    0.13 
   6   4   8    0.43    0.20 
   6   4   8    0.34    0.13 
   7   4   8    0.51    0.12 
   7   4   8    1.05    0.15 
   7   4   8    0.56    0.14 
   8   4   8    6.61    0.39 
   8   4   8    7.08    0.35 
  -6   5   8    4.26    0.45 
  -6   5   8    4.68    0.26 
  -6   5   8    4.49    0.32 
  -6   5   8    4.75    0.23 
  -5   5   8   -0.01    0.11 
  -5   5   8    0.20    0.09 
  -5   5   8    0.27    0.12 
  -5   5   8   -0.01    0.26 
  -5   5   8    0.22    0.16 
  -4   5   8   13.88    0.60 
  -4   5   8   13.91    0.95 
  -4   5   8   14.37    0.63 
  -4   5   8   14.59    0.78 
  -4   5   8   14.52    0.72 
  -3   5   8    0.40    0.11 
  -3   5   8    0.23    0.18 
  -3   5   8    0.48    0.24 
  -3   5   8    0.53    0.16 
  -3   5   8    0.30    0.24 
  -3   5   8    0.39    0.09 
  -2   5   8    0.95    0.16 
  -2   5   8    0.82    0.17 
  -2   5   8    0.72    0.25 
  -2   5   8    0.92    0.08 
  -2   5   8    1.05    0.15 
  -2   5   8    1.11    0.24 
  -1   5   8   -0.02    0.21 
  -1   5   8    0.05    0.18 
  -1   5   8    0.14    0.19 
  -1   5   8    0.22    0.12 
  -1   5   8    0.19    0.08 
  -1   5   8    0.09    0.10 
  -1   5   8    0.18    0.17 
  -1   5   8    0.19    0.13 
   0   5   8   12.70    0.70 
   0   5   8   13.36    0.79 
   0   5   8   10.99    0.77 
   0   5   8   14.05    0.64 
   0   5   8   12.47    0.81 
   0   5   8   12.88    0.53 
   0   5   8   12.61    0.56 
   0   5   8   12.37    0.82 
   0   5   8   13.73    0.69 
   1   5   8   31.22    1.45 
   1   5   8   27.38    1.66 
   1   5   8   29.91    1.21 
   1   5   8   29.26    1.44 
   1   5   8   28.85    1.17 
   1   5   8   28.63    1.69 
   1   5   8   27.46    1.68 
   2   5   8    6.48    0.29 
   2   5   8    6.59    0.45 
   2   5   8    6.17    0.50 
   2   5   8    5.78    0.49 
   2   5   8    5.58    0.47 
   2   5   8    6.77    0.32 
   3   5   8   18.11    0.91 
   3   5   8   18.05    0.85 
   3   5   8   18.92    1.08 
   3   5   8   16.65    0.99 
   3   5   8   17.43    1.07 
   3   5   8   17.74    0.97 
   3   5   8   18.15    0.74 
   3   5   8   16.56    0.88 
   3   5   8   17.28    1.07 
   3   5   8   18.59    0.77 
   4   5   8    0.43    0.11 
   4   5   8    0.17    0.21 
   4   5   8    0.13    0.21 
   4   5   8    0.27    0.19 
   4   5   8    0.53    0.12 
   4   5   8    0.25    0.22 
   4   5   8    0.42    0.13 
   5   5   8    2.96    0.25 
   5   5   8    3.03    0.36 
   5   5   8    3.21    0.23 
   5   5   8    3.36    0.38 
   5   5   8    3.26    0.26 
   6   5   8    2.17    0.28 
   6   5   8    2.58    0.23 
   6   5   8    2.56    0.29 
   6   5   8    2.53    0.24 
   6   5   8    2.88    0.21 
   7   5   8   -0.02    0.09 
   7   5   8   -0.05    0.07 
   7   5   8    0.03    0.14 
   7   5   8   -0.07    0.09 
  -6   6   8    0.57    0.09 
  -6   6   8    0.75    0.13 
  -5   6   8    2.72    0.36 
  -5   6   8    2.70    0.23 
  -5   6   8    3.05    0.28 
  -4   6   8    0.03    0.13 
  -4   6   8    0.03    0.14 
  -4   6   8   -0.03    0.22 
  -3   6   8    1.01    0.16 
  -3   6   8    1.18    0.18 
  -3   6   8    0.54    0.25 
  -2   6   8    3.30    0.37 
  -2   6   8    4.18    0.36 
  -2   6   8    4.00    0.32 
  -2   6   8    3.35    0.42 
  -2   6   8    3.72    0.46 
  -2   6   8    3.86    0.21 
  -1   6   8    0.81    0.22 
  -1   6   8    0.41    0.21 
  -1   6   8    0.43    0.18 
  -1   6   8    0.30    0.13 
  -1   6   8    0.14    0.22 
   0   6   8    4.11    0.37 
   0   6   8    4.75    0.31 
   0   6   8    3.98    0.21 
   0   6   8    3.56    0.40 
   0   6   8    4.13    0.31 
   0   6   8    4.32    0.44 
   0   6   8    3.59    0.40 
   1   6   8    0.52    0.17 
   1   6   8    0.35    0.24 
   1   6   8    0.49    0.22 
   1   6   8    0.24    0.21 
   1   6   8    0.36    0.09 
   1   6   8    0.26    0.19 
   2   6   8    9.84    0.44 
   2   6   8    9.86    0.41 
   2   6   8    8.45    0.61 
   2   6   8    9.57    0.68 
   2   6   8   10.22    0.68 
   2   6   8    9.93    0.67 
   3   6   8    0.44    0.25 
   3   6   8    0.43    0.26 
   3   6   8    0.82    0.21 
   3   6   8    0.97    0.18 
   3   6   8    0.90    0.11 
   3   6   8    0.80    0.24 
   3   6   8    0.82    0.09 
   4   6   8    2.08    0.26 
   4   6   8    2.45    0.18 
   4   6   8    2.09    0.25 
   4   6   8    2.40    0.21 
   4   6   8    2.06    0.27 
   5   6   8    0.08    0.16 
   5   6   8    0.13    0.11 
   5   6   8    0.18    0.19 
   5   6   8    0.05    0.08 
   6   6   8    1.35    0.14 
   6   6   8    1.73    0.22 
   6   6   8    1.21    0.20 
   6   6   8    1.44    0.12 
   7   6   8    1.51    0.14 
   7   6   8    1.46    0.16 
   7   6   8    1.35    0.12 
  -5   7   8    1.02    0.13 
  -4   7   8    6.10    0.37 
  -4   7   8    6.01    0.49 
  -4   7   8    5.98    0.34 
  -3   7   8   -0.09    0.20 
  -3   7   8   -0.12    0.16 
  -3   7   8    0.02    0.14 
  -2   7   8    0.40    0.22 
  -2   7   8    0.36    0.14 
  -2   7   8    0.47    0.16 
  -1   7   8    0.83    0.18 
  -1   7   8    0.68    0.15 
  -1   7   8    0.81    0.19 
  -1   7   8    0.87    0.23 
   0   7   8    0.78    0.17 
   0   7   8    0.25    0.23 
   0   7   8    0.83    0.13 
   0   7   8    1.03    0.21 
   0   7   8    0.60    0.22 
   1   7   8    5.85    0.48 
   1   7   8    5.35    0.45 
   1   7   8    5.60    0.36 
   1   7   8    4.40    0.48 
   2   7   8    0.21    0.19 
   2   7   8    0.34    0.23 
   2   7   8    0.11    0.21 
   3   7   8    4.05    0.22 
   3   7   8    4.08    0.41 
   3   7   8    3.53    0.36 
   3   7   8    3.82    0.37 
   4   7   8   -0.13    0.18 
   4   7   8   -0.12    0.19 
   4   7   8    0.04    0.19 
   4   7   8   -0.03    0.09 
   5   7   8    2.04    0.16 
   5   7   8    1.92    0.22 
   5   7   8    1.95    0.12 
   5   7   8    1.45    0.20 
   6   7   8    0.28    0.07 
  -4   8   8    0.03    0.09 
  -3   8   8    0.65    0.17 
  -3   8   8    0.87    0.14 
  -3   8   8    0.64    0.14 
  -2   8   8   -0.21    0.19 
  -2   8   8   -0.06    0.12 
  -2   8   8    0.00    0.12 
  -1   8   8    0.01    0.18 
  -1   8   8    0.01    0.15 
  -1   8   8    0.03    0.16 
  -1   8   8    0.30    0.13 
   0   8   8    1.18    0.22 
   0   8   8    1.05    0.17 
   0   8   8    1.46    0.22 
   1   8   8    0.12    0.23 
   1   8   8    0.36    0.20 
   1   8   8    0.29    0.20 
   2   8   8   31.36    1.84 
   2   8   8   31.61    1.86 
   2   8   8   34.21    1.87 
   3   8   8    0.74    0.19 
   3   8   8    0.72    0.23 
   4   8   8    1.83    0.23 
   4   8   8    1.81    0.26 
   4   8   8    1.19    0.19 
   5   8   8    0.14    0.12 
  -2   9   8    0.10    0.09 
  -1   9   8   -0.01    0.11 
  -1   9   8   -0.27    0.14 
   0   9   8    0.90    0.17 
   0   9   8    0.64    0.16 
   1   9   8    3.18    0.31 
   1   9   8    3.65    0.31 
   2   9   8    0.60    0.18 
   2   9   8    0.75    0.18 
   3   9   8    0.02    0.14 
   3   7  -9    1.28    0.11 
   3   7  -9    1.37    0.14 
   2   7  -9    0.19    0.07 
   2   7  -9    0.06    0.10 
   2   7  -9    0.09    0.09 
   1   7  -9    1.35    0.17 
   1   7  -9    1.38    0.18 
   1   7  -9    1.30    0.13 
   0   7  -9    0.12    0.12 
   0   7  -9    0.00    0.07 
   0   7  -9    0.10    0.09 
  -1   7  -9    3.92    0.20 
  -1   7  -9    3.96    0.30 
  -2   7  -9    0.71    0.12 
   5   6  -9    1.75    0.12 
   5   6  -9    1.58    0.17 
   4   6  -9    0.31    0.09 
   4   6  -9    0.36    0.11 
   4   6  -9    0.66    0.09 
   3   6  -9    2.01    0.18 
   3   6  -9    2.21    0.24 
   3   6  -9    2.25    0.16 
   3   6  -9    2.46    0.24 
   2   6  -9    2.07    0.25 
   2   6  -9    2.43    0.18 
   2   6  -9    2.21    0.20 
   2   6  -9    2.08    0.23 
   1   6  -9    0.03    0.12 
   1   6  -9    0.14    0.11 
   1   6  -9    0.15    0.16 
   1   6  -9    0.02    0.09 
   0   6  -9    5.59    0.30 
   0   6  -9    5.25    0.37 
   0   6  -9    5.94    0.41 
   0   6  -9    5.84    0.28 
  -1   6  -9    1.40    0.14 
  -1   6  -9    1.01    0.18 
  -1   6  -9    1.24    0.13 
  -2   6  -9    3.98    0.27 
  -2   6  -9    3.92    0.24 
  -2   6  -9    4.16    0.22 
  -2   6  -9    3.84    0.33 
  -3   6  -9    1.74    0.18 
  -3   6  -9    1.64    0.17 
  -3   6  -9    1.70    0.13 
  -3   6  -9    1.50    0.21 
  -4   6  -9   -0.03    0.07 
  -4   6  -9    0.04    0.09 
   6   5  -9    5.05    0.32 
   5   5  -9    0.32    0.09 
   5   5  -9    0.31    0.09 
   5   5  -9    0.49    0.11 
   5   5  -9    0.33    0.12 
   4   5  -9    2.17    0.21 
   4   5  -9    2.24    0.21 
   4   5  -9    2.05    0.27 
   4   5  -9    2.37    0.20 
   3   5  -9   13.13    0.59 
   3   5  -9   13.25    0.65 
   3   5  -9   13.25    0.77 
   3   5  -9   12.20    0.75 
   3   5  -9   12.95    0.57 
   2   5  -9    0.24    0.15 
   2   5  -9    0.30    0.12 
   2   5  -9    0.39    0.13 
   2   5  -9    0.43    0.18 
   2   5  -9    0.43    0.12 
   1   5  -9    5.99    0.46 
   1   5  -9    5.33    0.33 
   1   5  -9    5.33    0.31 
   1   5  -9    4.94    0.39 
   1   5  -9    5.21    0.29 
   0   5  -9    2.62    0.23 
   0   5  -9    2.30    0.24 
   0   5  -9    2.53    0.21 
   0   5  -9    2.42    0.24 
   0   5  -9    2.77    0.26 
  -1   5  -9    6.62    0.37 
  -1   5  -9    6.67    0.35 
  -1   5  -9    6.56    0.34 
  -1   5  -9    6.45    0.49 
  -1   5  -9    6.35    0.40 
  -2   5  -9    1.37    0.14 
  -2   5  -9    1.19    0.18 
  -2   5  -9    1.25    0.18 
  -2   5  -9    1.34    0.12 
  -3   5  -9    3.22    0.33 
  -3   5  -9    3.52    0.22 
  -3   5  -9    3.91    0.33 
  -3   5  -9    3.41    0.25 
  -4   5  -9    0.30    0.09 
  -4   5  -9    0.32    0.14 
  -4   5  -9    0.27    0.11 
  -5   5  -9    0.14    0.08 
  -5   5  -9    0.21    0.07 
  -5   5  -9    0.19    0.11 
   6   4  -9    0.14    0.11 
   6   4  -9    0.14    0.12 
   5   4  -9   19.22    0.93 
   5   4  -9   19.15    1.08 
   5   4  -9   18.68    0.80 
   4   4  -9    2.51    0.30 
   4   4  -9    2.53    0.16 
   4   4  -9    2.66    0.21 
   4   4  -9    2.63    0.28 
   4   4  -9    2.43    0.28 
   3   4  -9    0.92    0.16 
   3   4  -9    0.84    0.14 
   3   4  -9    1.18    0.14 
   3   4  -9    1.11    0.13 
   3   4  -9    1.01    0.09 
   3   4  -9    1.11    0.18 
   2   4  -9    1.65    0.20 
   2   4  -9    1.07    0.13 
   2   4  -9    1.19    0.23 
   2   4  -9    1.16    0.14 
   2   4  -9    1.60    0.14 
   2   4  -9    1.19    0.15 
   2   4  -9    1.41    0.31 
   2   4  -9    1.66    0.14 
   1   4  -9   35.98    1.65 
   1   4  -9   34.77    1.47 
   1   4  -9   35.03    1.42 
   1   4  -9   32.38    1.77 
   1   4  -9   31.80    1.90 
   1   4  -9   38.86    1.89 
   1   4  -9   33.12    1.98 
   1   4  -9   36.06    1.66 
   0   4  -9   10.30    0.63 
   0   4  -9    8.92    0.69 
   0   4  -9    9.95    0.47 
   0   4  -9    9.73    0.53 
   0   4  -9    9.61    0.45 
   0   4  -9    9.43    0.59 
  -1   4  -9    0.25    0.22 
  -1   4  -9    0.28    0.15 
  -1   4  -9    0.40    0.15 
  -1   4  -9    0.34    0.12 
  -1   4  -9    0.62    0.13 
  -1   4  -9    0.11    0.15 
  -1   4  -9    0.25    0.18 
  -2   4  -9   15.15    0.76 
  -2   4  -9   14.71    0.88 
  -2   4  -9   13.28    0.94 
  -2   4  -9   15.31    0.68 
  -2   4  -9   15.40    0.65 
  -2   4  -9   16.60    0.78 
  -3   4  -9    2.61    0.29 
  -3   4  -9    2.70    0.23 
  -3   4  -9    2.39    0.28 
  -3   4  -9    2.88    0.29 
  -3   4  -9    2.79    0.25 
  -4   4  -9    1.58    0.16 
  -4   4  -9    1.28    0.18 
  -4   4  -9    1.63    0.14 
  -4   4  -9    1.28    0.15 
  -5   4  -9    3.03    0.23 
  -5   4  -9    3.07    0.21 
  -5   4  -9    2.85    0.24 
  -5   4  -9    2.93    0.25 
  -6   4  -9    1.92    0.15 
  -6   4  -9    1.84    0.18 
  -6   4  -9    1.85    0.18 
   7   3  -9    0.27    0.10 
   7   3  -9    0.25    0.11 
   6   3  -9   18.17    0.88 
   6   3  -9   18.01    1.02 
   6   3  -9   17.84    0.89 
   5   3  -9    0.79    0.17 
   5   3  -9    0.87    0.16 
   5   3  -9    0.98    0.13 
   4   3  -9   12.41    0.64 
   4   3  -9   11.74    0.71 
   4   3  -9   11.92    0.61 
   3   3  -9    6.10    0.49 
   3   3  -9    6.13    0.47 
   3   3  -9    6.00    0.47 
   3   3  -9    6.88    0.38 
   3   3  -9    6.31    0.41 
   3   3  -9    6.54    0.44 
   2   3  -9    0.29    0.12 
   2   3  -9   -0.04    0.17 
   2   3  -9    0.20    0.11 
   2   3  -9    0.24    0.14 
   2   3  -9    0.03    0.20 
   2   3  -9    0.19    0.14 
   2   3  -9    0.02    0.20 
   1   3  -9   18.91    0.99 
   1   3  -9   21.46    1.16 
   1   3  -9   19.48    1.02 
   1   3  -9   19.78    0.94 
   1   3  -9   18.89    0.95 
   1   3  -9   18.30    0.81 
   1   3  -9   18.69    0.83 
   0   3  -9   -0.19    0.10 
   0   3  -9   -0.07    0.16 
   0   3  -9   -0.33    0.13 
   0   3  -9   -0.18    0.11 
   0   3  -9    0.03    0.16 
   0   3  -9    0.08    0.20 
   0   3  -9   -0.12    0.12 
  -1   3  -9    5.09    0.38 
  -1   3  -9    5.27    0.46 
  -1   3  -9    4.71    0.28 
  -1   3  -9    4.83    0.39 
  -1   3  -9    4.66    0.34 
  -1   3  -9    5.22    0.31 
  -1   3  -9    5.37    0.39 
  -1   3  -9    4.75    0.27 
  -2   3  -9   10.57    0.54 
  -2   3  -9   10.29    0.63 
  -2   3  -9   10.46    0.47 
  -2   3  -9   10.47    0.63 
  -2   3  -9   10.21    0.49 
  -2   3  -9   10.36    0.70 
  -2   3  -9   10.14    0.57 
  -3   3  -9    5.00    0.28 
  -3   3  -9    4.94    0.30 
  -3   3  -9    4.94    0.35 
  -3   3  -9    4.30    0.42 
  -3   3  -9    4.71    0.32 
  -4   3  -9    8.78    0.51 
  -4   3  -9    7.85    0.40 
  -4   3  -9    8.33    0.49 
  -4   3  -9    8.38    0.43 
  -4   3  -9    8.13    0.42 
  -5   3  -9   -0.15    0.12 
  -5   3  -9    0.05    0.15 
  -5   3  -9   -0.32    0.14 
  -6   3  -9    1.37    0.12 
  -6   3  -9    1.12    0.15 
  -6   3  -9    1.50    0.15 
   7   2  -9    6.09    0.32 
  -7  -2   9    5.52    0.33 
   6   2  -9   -0.03    0.12 
   5   2  -9    9.81    0.53 
   4   2  -9    1.06    0.14 
   3   2  -9   15.02    0.73 
   3   2  -9   14.53    0.82 
   3   2  -9   13.45    0.80 
   2   2  -9   24.17    1.17 
   2   2  -9   22.40    1.16 
   2   2  -9   27.04    1.27 
   2   2  -9   22.15    1.31 
   2   2  -9   25.01    1.20 
   1   2  -9    0.71    0.13 
   1   2  -9    0.90    0.19 
   1   2  -9    0.65    0.17 
   0   2  -9   19.28    1.04 
   0   2  -9   22.89    1.23 
   0   2  -9   22.11    1.07 
   0   2  -9   21.84    1.12 
  -1   2  -9   15.65    0.85 
  -1   2  -9   16.29    0.85 
  -1   2  -9   19.06    1.03 
  -1   2  -9   18.67    0.93 
  -2   2  -9   13.71    0.71 
  -2   2  -9   14.84    0.77 
  -2   2  -9   15.04    0.81 
  -2   2  -9   15.42    0.87 
  -2   2  -9   13.42    0.72 
  -2   2  -9   13.42    0.80 
  -3   2  -9   17.66    0.92 
  -3   2  -9   18.24    0.86 
  -3   2  -9   17.16    1.03 
  -3   2  -9   16.63    0.95 
  -3   2  -9   16.79    0.87 
  -4   2  -9    0.17    0.12 
  -4   2  -9    0.16    0.16 
  -5   2  -9    3.72    0.31 
  -5   2  -9    3.26    0.26 
  -5   2  -9    2.88    0.32 
  -6   2  -9    0.27    0.15 
  -6   2  -9    0.13    0.12 
  -6   2  -9    0.24    0.08 
  -7   2  -9    1.66    0.20 
   8   1  -9    3.30    0.20 
  -8  -1   9    3.26    0.19 
   7   1  -9   -0.04    0.11 
  -7  -1   9   -0.06    0.11 
   6   1  -9    8.20    0.48 
  -6  -1   9    8.66    0.46 
   5   1  -9    0.05    0.16 
   1   1  -9   26.14    1.25 
   1   1  -9   24.56    1.30 
   0   1  -9    1.46    0.18 
   0   1  -9    1.38    0.20 
  -1   1  -9   10.16    0.64 
  -1   1  -9   10.12    0.59 
  -1   1  -9   10.04    0.57 
  -2   1  -9   11.56    0.65 
  -2   1  -9   10.92    0.63 
  -2   1  -9   11.40    0.70 
  -3   1  -9   14.41    0.84 
  -3   1  -9   14.49    0.81 
  -3   1  -9   13.53    0.71 
  -3   1  -9   13.65    0.77 
  -4   1  -9   16.19    0.81 
  -5   1  -9    3.00    0.27 
  -6   1  -9    2.82    0.25 
  -6   1  -9    2.74    0.24 
  -6   1  -9    2.83    0.31 
  -7   1  -9    1.84    0.19 
  -7   1  -9    1.98    0.17 
  -8   0   9    0.13    0.13 
  -7   0   9   21.40    1.04 
  -6   0   9    0.34    0.14 
  -5   0   9   19.70    0.98 
  -4   0   9   23.96    1.17 
  -2   0   9    7.16    0.48 
  -2   0   9    7.09    0.48 
  -1   0   9    7.51    0.48 
  -1   0   9    7.30    0.48 
   0   0   9    1.15    0.19 
   0   0   9    1.16    0.21 
   1   0   9    0.87    0.17 
   1   0   9    0.93    0.18 
  -2   0  -9   28.90    1.57 
   2   0   9   28.44    1.38 
  -5   0  -9    6.31    0.38 
  -6   0  -9   -0.05    0.14 
  -7   0  -9    0.31    0.11 
   7   0   9    0.23    0.15 
  -8   0  -9    1.89    0.13 
   8   0   9    1.68    0.15 
  -8   1   9    3.66    0.24 
  -8   1   9    3.44    0.30 
  -7   1   9    3.06    0.21 
  -6   1   9    1.46    0.16 
  -5   1   9   39.69    1.93 
  -5   1   9   41.00    1.94 
  -4   1   9    3.55    0.33 
  -4   1   9    3.42    0.36 
  -4   1   9    3.21    0.26 
  -4   1   9    2.97    0.36 
  -3   1   9   12.84    0.68 
  -3   1   9   13.73    0.76 
  -3   1   9   14.58    0.78 
  -3   1   9   13.50    0.78 
  -2   1   9   13.38    0.74 
  -2   1   9   13.80    0.76 
  -2   1   9   13.69    0.78 
  -1   1   9    4.78    0.37 
  -1   1   9    5.10    0.37 
  -1   1   9    5.10    0.36 
   0   1   9    1.07    0.20 
   0   1   9    0.75    0.21 
   0   1   9    1.24    0.19 
   1   1   9   42.07    1.97 
   1   1   9   41.10    1.96 
   1   1   9   40.97    2.06 
   2   1   9    0.06    0.16 
   2   1   9    0.21    0.18 
   2   1   9    0.23    0.16 
   3   1   9   17.03    0.89 
   3   1   9   16.45    0.92 
   4   1   9   23.44    1.15 
   5   1   9    0.62    0.15 
   6   1   9    0.65    0.17 
  -7  -1  -9    0.68    0.13 
   7   1   9    0.55    0.14 
  -8  -1  -9    1.93    0.17 
   8   1   9    1.78    0.17 
  -7   2   9    1.84    0.23 
  -7   2   9    1.96    0.24 
  -6   2   9    1.70    0.16 
  -6   2   9    1.21    0.14 
  -6   2   9    1.47    0.23 
  -6   2   9    2.09    0.21 
  -5   2   9    1.20    0.14 
  -5   2   9    1.62    0.20 
  -5   2   9    1.43    0.14 
  -4   2   9    0.21    0.12 
  -4   2   9    0.01    0.19 
  -4   2   9   -0.08    0.17 
  -4   2   9    0.10    0.11 
  -4   2   9   -0.13    0.22 
  -4   2   9    0.03    0.10 
  -4   2   9    0.11    0.18 
  -3   2   9    2.33    0.26 
  -3   2   9    2.17    0.20 
  -3   2   9    2.39    0.31 
  -3   2   9    2.13    0.26 
  -3   2   9    2.10    0.18 
  -3   2   9    1.91    0.26 
  -3   2   9    2.20    0.21 
  -2   2   9   42.95    1.99 
  -2   2   9   41.56    2.09 
  -2   2   9   41.50    2.20 
  -1   2   9    5.76    0.40 
  -1   2   9    5.89    0.40 
  -1   2   9    5.64    0.41 
  -1   2   9    6.03    0.40 
   0   2   9    9.15    0.55 
   0   2   9    9.69    0.57 
   0   2   9   10.74    0.58 
   1   2   9   16.86    0.87 
   1   2   9   17.13    0.88 
   1   2   9   17.17    0.91 
   2   2   9   -0.06    0.16 
   2   2   9    0.11    0.18 
   2   2   9    0.04    0.17 
   3   2   9    6.61    0.44 
   3   2   9    6.42    0.37 
   3   2   9    6.69    0.46 
   3   2   9    6.71    0.45 
   4   2   9    5.69    0.46 
   4   2   9    5.74    0.38 
   4   2   9    5.67    0.34 
   4   2   9    5.93    0.44 
   5   2   9    8.10    0.46 
   6   2   9    1.76    0.18 
   7   2   9    3.63    0.27 
  -8  -2  -9    1.63    0.15 
   8   2   9    1.80    0.20 
  -7   3   9    0.07    0.08 
  -7   3   9    0.21    0.19 
  -7   3   9    0.08    0.10 
  -7   3   9    0.14    0.10 
  -6   3   9    4.96    0.34 
  -6   3   9    5.58    0.49 
  -6   3   9    5.04    0.29 
  -6   3   9    4.94    0.30 
  -5   3   9    7.34    0.36 
  -5   3   9    7.40    0.39 
  -5   3   9    7.23    0.45 
  -5   3   9    8.28    0.62 
  -4   3   9    7.24    0.40 
  -4   3   9    9.07    0.62 
  -4   3   9    8.33    0.40 
  -4   3   9    8.76    0.38 
  -4   3   9    7.55    0.53 
  -4   3   9    8.21    0.47 
  -4   3   9    7.70    0.46 
  -4   3   9    7.51    0.57 
  -4   3   9    7.11    0.51 
  -3   3   9   20.61    0.95 
  -3   3   9   19.66    1.12 
  -3   3   9   19.79    0.85 
  -3   3   9   20.21    1.04 
  -3   3   9   18.98    1.02 
  -3   3   9   20.45    0.82 
  -3   3   9   19.93    1.19 
  -3   3   9   19.25    0.95 
  -3   3   9   19.90    1.01 
  -3   3   9   18.25    1.00 
  -3   3   9   19.49    0.96 
  -2   3   9    0.32    0.16 
  -2   3   9    0.21    0.16 
  -2   3   9    0.34    0.17 
  -2   3   9    0.34    0.14 
  -2   3   9    0.31    0.08 
  -2   3   9    0.48    0.11 
  -2   3   9    0.09    0.18 
  -2   3   9    0.43    0.08 
  -2   3   9    0.21    0.21 
  -2   3   9    0.36    0.11 
  -1   3   9   35.84    1.74 
  -1   3   9   36.24    1.70 
  -1   3   9   36.15    1.79 
  -1   3   9   35.12    1.90 
   0   3   9    3.92    0.34 
   0   3   9    4.07    0.36 
   0   3   9    4.23    0.34 
   0   3   9    4.32    0.33 
   1   3   9    4.42    0.35 
   1   3   9    4.49    0.34 
   1   3   9    4.44    0.35 
   2   3   9    0.23    0.17 
   2   3   9    0.37    0.18 
   2   3   9    0.62    0.19 
   2   3   9    0.50    0.09 
   3   3   9    1.53    0.23 
   3   3   9    1.42    0.15 
   3   3   9    1.55    0.12 
   3   3   9    1.30    0.22 
   3   3   9    1.50    0.13 
   3   3   9    1.33    0.26 
   3   3   9    1.72    0.26 
   3   3   9    1.56    0.13 
   4   3   9   17.25    0.93 
   4   3   9   17.19    0.94 
   4   3   9   16.72    0.75 
   4   3   9   16.81    0.98 
   4   3   9   17.14    0.78 
   4   3   9   18.04    0.89 
   4   3   9   17.66    1.00 
   4   3   9   19.19    0.87 
   4   3   9   18.83    1.06 
   5   3   9    1.27    0.27 
   5   3   9    1.07    0.19 
   5   3   9    1.47    0.15 
   5   3   9    1.08    0.17 
   6   3   9   -0.10    0.18 
   6   3   9    0.08    0.12 
   7   3   9    2.55    0.18 
   7   3   9    2.53    0.26 
   8   3   9    0.05    0.10 
   8   3   9    0.11    0.10 
  -7   4   9    3.55    0.20 
  -6   4   9    3.97    0.45 
  -6   4   9    3.81    0.23 
  -6   4   9    3.91    0.26 
  -5   4   9    1.38    0.17 
  -5   4   9    1.00    0.12 
  -5   4   9    1.34    0.15 
  -5   4   9    1.16    0.26 
  -5   4   9    1.03    0.14 
  -4   4   9    7.67    0.60 
  -4   4   9    8.27    0.40 
  -4   4   9    8.13    0.38 
  -4   4   9    7.68    0.48 
  -4   4   9    7.67    0.65 
  -4   4   9    7.74    0.44 
  -4   4   9    8.26    0.44 
  -3   4   9    2.31    0.21 
  -3   4   9    2.24    0.27 
  -3   4   9    2.08    0.24 
  -3   4   9    2.66    0.20 
  -3   4   9    2.23    0.28 
  -3   4   9    2.40    0.28 
  -3   4   9    2.13    0.32 
  -3   4   9    2.23    0.22 
  -3   4   9    2.08    0.23 
  -3   4   9    2.11    0.24 
  -2   4   9   18.83    0.99 
  -2   4   9   19.86    1.01 
  -2   4   9   19.26    0.81 
  -2   4   9   19.63    1.12 
  -2   4   9   19.44    0.95 
  -2   4   9   19.69    1.00 
  -2   4   9   18.56    0.93 
  -2   4   9   20.91    0.94 
  -2   4   9   18.86    1.16 
  -2   4   9   19.42    1.19 
  -1   4   9    0.10    0.18 
  -1   4   9   -0.04    0.12 
  -1   4   9    0.19    0.13 
  -1   4   9   -0.03    0.10 
  -1   4   9    0.02    0.14 
  -1   4   9   -0.09    0.16 
  -1   4   9    0.01    0.21 
  -1   4   9    0.15    0.14 
  -1   4   9    0.18    0.17 
  -1   4   9    0.03    0.08 
  -1   4   9   -0.07    0.11 
   0   4   9   11.03    0.58 
   0   4   9   11.80    0.53 
   0   4   9   12.00    0.64 
   0   4   9   10.98    0.75 
   0   4   9   12.51    0.63 
   0   4   9   11.00    0.76 
   0   4   9   12.61    0.68 
   0   4   9   12.35    0.51 
   0   4   9   12.22    0.72 
   0   4   9   12.47    0.61 
   1   4   9   25.39    1.57 
   1   4   9   26.22    1.55 
   1   4   9   25.45    1.57 
   1   4   9   26.89    1.11 
   1   4   9   28.64    1.35 
   1   4   9   25.12    1.29 
   1   4   9   27.09    1.14 
   1   4   9   29.18    1.36 
   1   4   9   28.54    1.30 
   1   4   9   29.17    1.37 
   2   4   9    0.11    0.18 
   2   4   9    0.07    0.12 
   2   4   9    0.01    0.18 
   2   4   9    0.02    0.14 
   2   4   9    0.05    0.10 
   2   4   9    0.12    0.17 
   2   4   9    0.18    0.20 
   2   4   9   -0.04    0.13 
   2   4   9    0.02    0.19 
   3   4   9   13.20    0.73 
   3   4   9   13.93    0.75 
   3   4   9   13.79    0.76 
   3   4   9   13.56    0.58 
   3   4   9   13.99    0.83 
   3   4   9   13.48    0.68 
   3   4   9   13.68    0.61 
   3   4   9   13.79    0.85 
   3   4   9   12.13    0.83 
   4   4   9    1.95    0.21 
   4   4   9    2.34    0.27 
   4   4   9    2.14    0.22 
   4   4   9    2.57    0.31 
   4   4   9    2.33    0.28 
   4   4   9    2.18    0.24 
   4   4   9    2.19    0.29 
   4   4   9    2.47    0.18 
   5   4   9    5.12    0.45 
   5   4   9    5.71    0.30 
   5   4   9    5.97    0.38 
   5   4   9    5.50    0.41 
   5   4   9    5.30    0.34 
   6   4   9    1.65    0.22 
   6   4   9    1.64    0.16 
   6   4   9    2.22    0.19 
   6   4   9    2.64    0.31 
   7   4   9    6.76    0.38 
   7   4   9    6.34    0.32 
   7   4   9    6.96    0.43 
  -6   5   9    0.36    0.12 
  -6   5   9    0.30    0.17 
  -6   5   9    0.28    0.08 
  -5   5   9    0.03    0.09 
  -5   5   9   -0.04    0.22 
  -5   5   9    0.08    0.12 
  -5   5   9   -0.09    0.11 
  -4   5   9    0.30    0.10 
  -4   5   9    0.67    0.16 
  -4   5   9    0.43    0.14 
  -4   5   9    0.31    0.12 
  -4   5   9    0.15    0.29 
  -3   5   9    3.64    0.38 
  -3   5   9    3.74    0.50 
  -3   5   9    3.77    0.35 
  -3   5   9    3.96    0.31 
  -3   5   9    4.03    0.22 
  -2   5   9    5.67    0.36 
  -2   5   9    5.10    0.28 
  -2   5   9    5.03    0.39 
  -2   5   9    4.20    0.46 
  -2   5   9    5.37    0.51 
  -2   5   9    5.21    0.26 
  -2   5   9    4.53    0.46 
  -1   5   9   33.76    1.96 
  -1   5   9   34.85    1.79 
  -1   5   9   36.81    2.11 
  -1   5   9   37.61    1.48 
  -1   5   9   35.89    2.10 
  -1   5   9   36.53    1.53 
  -1   5   9   40.89    1.73 
  -1   5   9   35.45    1.81 
   0   5   9    1.59    0.27 
   0   5   9    1.43    0.10 
   0   5   9    1.32    0.14 
   0   5   9    1.00    0.19 
   0   5   9    1.35    0.19 
   0   5   9    1.28    0.11 
   0   5   9    1.01    0.23 
   0   5   9    1.32    0.15 
   1   5   9    1.43    0.20 
   1   5   9    1.48    0.12 
   1   5   9    1.55    0.15 
   1   5   9    1.62    0.15 
   1   5   9    1.34    0.19 
   1   5   9    1.70    0.26 
   1   5   9    1.62    0.23 
   2   5   9    1.75    0.13 
   2   5   9    1.50    0.21 
   2   5   9    1.86    0.16 
   2   5   9    1.61    0.22 
   2   5   9    1.43    0.18 
   2   5   9    1.68    0.27 
   3   5   9    5.85    0.49 
   3   5   9    5.44    0.49 
   3   5   9    6.20    0.49 
   3   5   9    6.37    0.35 
   3   5   9    6.08    0.51 
   3   5   9    5.12    0.39 
   3   5   9    6.46    0.31 
   3   5   9    6.41    0.33 
   3   5   9    5.92    0.39 
   4   5   9    7.34    0.56 
   4   5   9    8.44    0.39 
   4   5   9    7.49    0.54 
   4   5   9    8.48    0.44 
   4   5   9    8.04    0.59 
   4   5   9    8.56    0.42 
   4   5   9    7.98    0.55 
   5   5   9    2.66    0.36 
   5   5   9    3.04    0.23 
   5   5   9    3.12    0.26 
   5   5   9    3.07    0.36 
   5   5   9    2.94    0.25 
   6   5   9    4.72    0.37 
   6   5   9    4.21    0.27 
   6   5   9    4.37    0.26 
   6   5   9    4.00    0.35 
   6   5   9    4.47    0.29 
   7   5   9   -0.03    0.10 
   7   5   9    0.11    0.09 
   7   5   9    0.09    0.13 
  -5   6   9    0.20    0.10 
  -5   6   9    0.24    0.19 
  -5   6   9    0.19    0.13 
  -4   6   9    0.03    0.16 
  -4   6   9   -0.05    0.10 
  -4   6   9    0.06    0.13 
  -4   6   9   -0.15    0.22 
  -3   6   9    5.10    0.35 
  -3   6   9    4.74    0.53 
  -3   6   9    4.87    0.27 
  -3   6   9    5.27    0.32 
  -2   6   9    2.00    0.26 
  -2   6   9    2.38    0.27 
  -2   6   9    1.98    0.23 
  -2   6   9    2.26    0.24 
  -2   6   9    2.20    0.18 
  -1   6   9   -0.08    0.23 
  -1   6   9   -0.36    0.22 
  -1   6   9   -0.10    0.10 
  -1   6   9    0.06    0.14 
  -1   6   9   -0.02    0.21 
  -1   6   9   -0.05    0.13 
   0   6   9    3.72    0.43 
   0   6   9    5.11    0.37 
   0   6   9    5.06    0.25 
   0   6   9    4.76    0.34 
   0   6   9    5.20    0.48 
   0   6   9    4.20    0.38 
   0   6   9    4.78    0.43 
   1   6   9    2.15    0.29 
   1   6   9    2.15    0.17 
   1   6   9    1.98    0.25 
   1   6   9    1.66    0.23 
   1   6   9    1.62    0.24 
   1   6   9    1.70    0.23 
   1   6   9    1.86    0.12 
   2   6   9    0.09    0.24 
   2   6   9    0.23    0.10 
   2   6   9   -0.02    0.22 
   2   6   9    0.23    0.08 
   2   6   9    0.13    0.23 
   2   6   9    0.06    0.22 
   3   6   9    0.78    0.23 
   3   6   9    0.86    0.18 
   3   6   9    0.55    0.25 
   3   6   9    1.02    0.10 
   3   6   9    1.03    0.12 
   4   6   9    0.12    0.22 
   4   6   9    0.40    0.09 
   4   6   9    0.15    0.19 
   4   6   9    0.33    0.12 
   4   6   9    0.34    0.17 
   5   6   9    7.61    0.51 
   5   6   9    7.82    0.38 
   5   6   9    7.46    0.54 
   5   6   9    7.96    0.36 
   6   6   9    0.87    0.13 
   6   6   9    0.86    0.18 
   6   6   9    0.69    0.16 
   6   6   9    0.76    0.10 
  -5   7   9    1.01    0.14 
  -4   7   9    0.19    0.12 
  -4   7   9   -0.15    0.18 
  -4   7   9    0.08    0.14 
  -3   7   9   -0.10    0.21 
  -3   7   9    0.06    0.14 
  -3   7   9    0.11    0.15 
  -2   7   9    0.66    0.23 
  -2   7   9    0.43    0.15 
  -2   7   9    0.41    0.14 
  -1   7   9    1.83    0.23 
  -1   7   9    2.05    0.20 
  -1   7   9    1.74    0.25 
  -1   7   9    1.74    0.18 
   0   7   9    0.02    0.21 
   0   7   9    0.11    0.17 
   0   7   9    0.07    0.14 
   0   7   9   -0.37    0.22 
   1   7   9    1.33    0.24 
   1   7   9    1.61    0.17 
   1   7   9    1.46    0.23 
   1   7   9    1.71    0.21 
   2   7   9    1.25    0.20 
   2   7   9    1.01    0.22 
   2   7   9    1.55    0.25 
   3   7   9    0.51    0.23 
   3   7   9    0.60    0.19 
   3   7   9    0.64    0.09 
   4   7   9    4.15    0.37 
   4   7   9    4.17    0.23 
   4   7   9    4.02    0.39 
   4   7   9    4.09    0.34 
   5   7   9    0.06    0.16 
   5   7   9    0.13    0.15 
   5   7   9    0.02    0.08 
   5   7   9    0.06    0.05 
   6   7   9    1.75    0.13 
  -3   8   9   -0.05    0.12 
  -3   8   9   -0.18    0.14 
  -2   8   9    0.09    0.18 
  -2   8   9    0.10    0.12 
  -1   8   9    0.03    0.14 
  -1   8   9   -0.08    0.16 
  -1   8   9    0.02    0.19 
   0   8   9    1.23    0.22 
   0   8   9    1.08    0.15 
   0   8   9    1.57    0.22 
   1   8   9    0.00    0.19 
   1   8   9   -0.23    0.19 
   1   8   9   -0.20    0.18 
   2   8   9    4.32    0.42 
   2   8   9    3.34    0.38 
   2   8   9    3.51    0.35 
   3   8   9    0.52    0.20 
   3   8   9    0.51    0.17 
   4   8   9   -0.05    0.16 
   4   8   9    0.01    0.12 
   5   8   9    0.25    0.12 
  -1   9   9    0.32    0.13 
   0   9   9    1.01    0.17 
   0   9   9    1.23    0.20 
   1   9   9    0.06    0.15 
   2   9   9   -0.03    0.13 
   2   9   9   -0.12    0.14 
   3   9   9    2.20    0.23 
   3   9   9    2.20    0.24 
   1   7 -10    3.42    0.18 
   1   7 -10    3.82    0.27 
   0   7 -10   -0.06    0.06 
   0   7 -10   -0.08    0.09 
  -1   7 -10    0.11    0.09 
   4   6 -10    4.26    0.29 
   4   6 -10    4.59    0.21 
   3   6 -10    0.00    0.10 
   3   6 -10    0.18    0.12 
   3   6 -10    0.00    0.10 
   3   6 -10   -0.07    0.07 
   2   6 -10    8.31    0.38 
   2   6 -10    8.12    0.36 
   2   6 -10    7.46    0.48 
   2   6 -10    8.46    0.51 
   1   6 -10    0.80    0.13 
   1   6 -10    0.82    0.10 
   1   6 -10    0.93    0.11 
   1   6 -10    0.57    0.16 
   0   6 -10    0.32    0.15 
   0   6 -10    0.23    0.10 
   0   6 -10    0.36    0.08 
  -1   6 -10    3.59    0.19 
  -1   6 -10    3.69    0.23 
  -1   6 -10    3.22    0.32 
  -2   6 -10    2.18    0.15 
  -2   6 -10    2.28    0.18 
  -2   6 -10    2.33    0.25 
  -3   6 -10    1.04    0.10 
  -3   6 -10    0.66    0.12 
  -3   6 -10    1.11    0.13 
  -3   6 -10    1.05    0.09 
   5   5 -10    7.33    0.45 
   5   5 -10    7.34    0.36 
   5   5 -10    7.38    0.35 
   5   5 -10    7.70    0.33 
   4   5 -10    0.18    0.09 
   4   5 -10    0.07    0.09 
   4   5 -10    0.16    0.11 
   4   5 -10    0.12    0.12 
   3   5 -10    7.95    0.49 
   3   5 -10    7.61    0.36 
   3   5 -10    7.73    0.38 
   3   5 -10    7.31    0.40 
   3   5 -10    7.04    0.48 
   2   5 -10    0.60    0.15 
   2   5 -10    0.54    0.12 
   2   5 -10    0.55    0.12 
   2   5 -10    0.67    0.13 
   2   5 -10    0.63    0.15 
   1   5 -10    2.34    0.21 
   1   5 -10    2.24    0.25 
   1   5 -10    2.22    0.23 
   1   5 -10    2.08    0.21 
   1   5 -10    2.75    0.34 
   0   5 -10    0.29    0.11 
   0   5 -10    0.38    0.17 
   0   5 -10    0.29    0.11 
   0   5 -10    0.29    0.12 
  -1   5 -10   -0.04    0.11 
  -1   5 -10   -0.10    0.12 
  -1   5 -10   -0.07    0.16 
  -1   5 -10   -0.08    0.12 
  -1   5 -10   -0.14    0.10 
  -2   5 -10    6.13    0.33 
  -2   5 -10    6.37    0.38 
  -2   5 -10    5.92    0.43 
  -2   5 -10    5.98    0.32 
  -3   5 -10    1.74    0.23 
  -3   5 -10    2.02    0.18 
  -3   5 -10    1.94    0.20 
  -3   5 -10    2.00    0.22 
  -4   5 -10    6.08    0.31 
  -4   5 -10    6.30    0.29 
  -4   5 -10    5.72    0.36 
   6   4 -10    5.93    0.32 
   6   4 -10    5.50    0.36 
   5   4 -10    0.05    0.13 
   5   4 -10    0.12    0.11 
   5   4 -10    0.21    0.13 
   4   4 -10   10.40    0.64 
   4   4 -10   10.89    0.56 
   4   4 -10   10.07    0.48 
   4   4 -10   10.94    0.64 
   3   4 -10   -0.15    0.16 
   3   4 -10   -0.07    0.11 
   3   4 -10   -0.22    0.14 
   3   4 -10    0.01    0.11 
   3   4 -10    0.11    0.12 
   2   4 -10   25.56    1.51 
   2   4 -10   31.41    1.52 
   2   4 -10   26.37    1.31 
   2   4 -10   27.33    1.18 
   2   4 -10   27.56    1.14 
   1   4 -10    6.68    0.36 
   1   4 -10    6.77    0.34 
   1   4 -10    7.20    0.50 
   1   4 -10    5.47    0.54 
   1   4 -10    7.04    0.42 
   0   4 -10    5.98    0.32 
   0   4 -10    6.70    0.44 
   0   4 -10    6.06    0.33 
   0   4 -10    6.22    0.39 
  -1   4 -10    6.56    0.38 
  -1   4 -10    5.81    0.39 
  -1   4 -10    6.48    0.46 
  -1   4 -10    6.30    0.34 
  -1   4 -10    6.21    0.35 
  -2   4 -10   -0.09    0.16 
  -2   4 -10   -0.12    0.12 
  -2   4 -10   -0.15    0.16 
  -2   4 -10   -0.12    0.13 
  -2   4 -10   -0.20    0.14 
  -3   4 -10    8.64    0.57 
  -3   4 -10   10.01    0.52 
  -3   4 -10    9.45    0.45 
  -3   4 -10   10.09    0.53 
  -3   4 -10    9.83    0.46 
  -4   4 -10    3.83    0.27 
  -4   4 -10    3.66    0.29 
  -4   4 -10    4.12    0.28 
  -4   4 -10    3.83    0.25 
  -5   4 -10    0.59    0.09 
  -5   4 -10    0.69    0.11 
  -5   4 -10    0.54    0.11 
  -5   4 -10    0.61    0.14 
   7   3 -10    0.42    0.09 
   7   3 -10    0.42    0.08 
   6   3 -10    0.09    0.07 
   6   3 -10    0.34    0.13 
   6   3 -10    0.07    0.12 
   5   3 -10   15.25    0.76 
   5   3 -10   16.12    0.79 
   5   3 -10   15.01    0.89 
   4   3 -10    0.18    0.12 
   4   3 -10    0.20    0.12 
   4   3 -10    0.19    0.15 
   3   3 -10   10.14    0.55 
   3   3 -10   10.12    0.52 
   3   3 -10    8.58    0.66 
   3   3 -10   10.43    0.61 
   2   3 -10    1.14    0.15 
   2   3 -10    1.57    0.13 
   2   3 -10    0.94    0.25 
   2   3 -10    1.76    0.30 
   2   3 -10    1.16    0.23 
   2   3 -10    1.60    0.14 
   2   3 -10    1.37    0.15 
   1   3 -10   17.89    1.07 
   1   3 -10   17.46    0.75 
   1   3 -10   18.16    0.87 
   1   3 -10   17.17    0.96 
   1   3 -10   16.56    0.93 
   1   3 -10   18.07    0.87 
   0   3 -10   50.69    2.34 
   0   3 -10   48.84    2.07 
   0   3 -10   49.41    2.48 
   0   3 -10   51.86    2.36 
   0   3 -10   47.27    2.34 
   0   3 -10   48.62    2.01 
   0   3 -10   49.52    2.73 
  -1   3 -10   22.72    1.46 
  -1   3 -10   24.94    1.05 
  -1   3 -10   26.71    1.22 
  -1   3 -10   25.54    1.23 
  -1   3 -10   24.84    1.08 
  -1   3 -10   24.73    1.33 
  -1   3 -10   26.73    1.39 
  -2   3 -10    9.49    0.68 
  -2   3 -10    9.72    0.56 
  -2   3 -10   10.32    0.61 
  -2   3 -10    9.77    0.47 
  -2   3 -10   10.10    0.45 
  -2   3 -10    9.40    0.61 
  -2   3 -10   10.18    0.51 
  -3   3 -10    1.90    0.14 
  -3   3 -10    1.50    0.17 
  -3   3 -10    1.92    0.19 
  -3   3 -10    1.80    0.16 
  -4   3 -10    2.10    0.19 
  -4   3 -10    2.33    0.25 
  -4   3 -10    1.93    0.16 
  -4   3 -10    1.90    0.14 
  -5   3 -10    2.16    0.22 
  -5   3 -10    2.30    0.27 
  -5   3 -10    2.26    0.26 
  -6   3 -10    1.64    0.17 
  -6   3 -10    1.82    0.19 
  -6   3 -10    1.46    0.13 
   7   2 -10    1.44    0.19 
   7   2 -10    1.43    0.14 
  -7  -2  10    1.27    0.15 
   6   2 -10    4.35    0.28 
   5   2 -10    2.61    0.25 
   4   2 -10   10.81    0.57 
   3   2 -10    7.15    0.47 
   3   2 -10    7.45    0.41 
   2   2 -10    6.72    0.48 
   2   2 -10    7.33    0.48 
   2   2 -10    7.13    0.41 
   1   2 -10   20.15    1.09 
   1   2 -10   16.68    0.90 
   1   2 -10   18.02    0.99 
   1   2 -10   18.40    0.91 
   1   2 -10   19.12    0.96 
   0   2 -10    1.43    0.24 
   0   2 -10    1.43    0.22 
   0   2 -10    1.42    0.22 
   0   2 -10    1.59    0.12 
   0   2 -10    1.25    0.14 
  -1   2 -10   19.20    1.02 
  -1   2 -10   18.43    0.94 
  -1   2 -10   18.44    0.97 
  -1   2 -10   20.22    1.12 
  -1   2 -10   18.81    0.94 
  -2   2 -10    1.52    0.16 
  -2   2 -10    2.07    0.16 
  -2   2 -10    1.99    0.25 
  -2   2 -10    2.20    0.25 
  -2   2 -10    2.19    0.28 
  -2   2 -10    1.95    0.24 
  -3   2 -10   10.60    0.52 
  -3   2 -10    8.91    0.62 
  -3   2 -10    8.92    0.65 
  -3   2 -10   10.27    0.55 
  -4   2 -10    2.72    0.23 
  -4   2 -10    2.30    0.21 
  -5   2 -10    2.55    0.24 
  -5   2 -10    2.56    0.30 
  -5   2 -10    3.08    0.29 
  -6   2 -10    4.37    0.23 
  -6   2 -10    4.85    0.33 
  -6   2 -10    4.38    0.28 
  -7   2 -10    0.05    0.09 
   7   1 -10    3.27    0.23 
  -7  -1  10    3.02    0.23 
   6   1 -10    8.32    0.47 
  -6  -1  10    8.77    0.48 
   5   1 -10   13.95    0.72 
   4   1 -10    2.11    0.24 
   3   1 -10    3.07    0.25 
   2   1 -10   18.65    0.92 
   0   1 -10    8.13    0.52 
   0   1 -10    8.96    0.52 
  -1   1 -10    5.11    0.39 
  -1   1 -10    5.06    0.38 
  -1   1 -10    4.56    0.37 
  -2   1 -10   11.72    0.66 
  -2   1 -10   10.60    0.59 
  -2   1 -10   12.66    0.72 
  -3   1 -10    2.56    0.25 
  -4   1 -10    4.67    0.31 
  -5   1 -10    0.56    0.14 
  -6   1 -10    0.47    0.15 
  -6   1 -10    0.43    0.11 
  -6   1 -10    0.32    0.12 
  -7   1 -10    2.05    0.22 
  -7   1 -10    2.08    0.14 
  -7   0  10    0.06    0.10 
  -6   0  10    3.65    0.28 
  -5   0  10    1.06    0.13 
  -4   0  10    9.53    0.51 
  -3   0  10    9.24    0.49 
  -1   0 -10   60.43    3.29 
   1   0  10   62.63    2.91 
  -2   0 -10    1.01    0.17 
   2   0  10    1.09    0.20 
  -5   0 -10   -0.14    0.13 
  -6   0 -10    4.50    0.32 
  -7   0 -10    2.35    0.19 
   7   0  10    1.88    0.23 
  -7   1  10    1.47    0.13 
  -7   1  10    1.49    0.18 
  -7   1  10    1.14    0.18 
  -6   1  10    8.16    0.45 
  -6   1  10    8.24    0.50 
  -5   1  10    6.77    0.39 
  -5   1  10    6.40    0.45 
  -4   1  10    2.39    0.32 
  -4   1  10    2.44    0.29 
  -4   1  10    1.75    0.30 
  -4   1  10    2.96    0.24 
  -3   1  10   15.36    0.76 
  -3   1  10   15.93    0.86 
  -3   1  10   14.24    0.76 
  -3   1  10   14.71    0.84 
  -2   1  10   27.66    1.36 
  -2   1  10   24.36    1.26 
  -2   1  10   26.76    1.31 
  -1   1  10    4.05    0.37 
  -1   1  10    4.20    0.35 
   0   1  10   81.45    4.43 
   0   1  10   97.67    4.70 
   0   1  10  109.32    4.51 
   1   1  10   13.34    0.69 
   1   1  10   12.59    0.70 
   1   1  10   12.06    0.70 
   2   1  10   70.02    3.50 
   2   1  10   70.38    3.30 
   2   1  10   72.13    3.34 
   3   1  10    4.17    0.28 
   4   1  10    2.32    0.24 
   5   1  10    1.31    0.17 
   6   1  10    0.20    0.16 
  -7  -1 -10    6.20    0.36 
   7   1  10    6.25    0.36 
  -8  -1 -10    1.87    0.14 
  -7   2  10    0.32    0.13 
  -7   2  10    0.33    0.16 
  -6   2  10    0.39    0.17 
  -6   2  10    0.24    0.08 
  -6   2  10    0.54    0.19 
  -5   2  10    2.89    0.42 
  -5   2  10    2.84    0.22 
  -5   2  10    3.01    0.32 
  -5   2  10    3.06    0.22 
  -4   2  10   32.78    1.87 
  -4   2  10   39.58    1.58 
  -4   2  10   35.41    1.97 
  -4   2  10   43.19    2.23 
  -4   2  10   39.33    1.85 
  -4   2  10   40.62    1.85 
  -3   2  10   -0.32    0.22 
  -3   2  10   -0.01    0.10 
  -3   2  10    0.26    0.17 
  -3   2  10   -0.05    0.16 
  -3   2  10   -0.02    0.17 
  -3   2  10    0.10    0.22 
  -3   2  10   -0.10    0.11 
  -3   2  10   -0.12    0.17 
  -3   2  10   -0.14    0.12 
  -2   2  10    1.38    0.17 
  -2   2  10    1.53    0.24 
  -2   2  10    1.57    0.15 
  -2   2  10    1.43    0.26 
  -2   2  10    1.51    0.18 
  -2   2  10    1.53    0.23 
  -2   2  10    1.20    0.25 
  -1   2  10   28.62    1.40 
  -1   2  10   30.12    1.42 
  -1   2  10   28.44    1.53 
  -1   2  10   27.68    1.46 
   0   2  10    1.65    0.26 
   0   2  10    2.54    0.28 
   0   2  10    1.86    0.22 
   1   2  10   56.10    2.76 
   1   2  10   55.51    2.65 
   1   2  10   55.69    2.61 
   2   2  10    0.79    0.11 
   2   2  10    0.93    0.23 
   2   2  10    0.87    0.20 
   2   2  10    0.82    0.22 
   3   2  10   10.36    0.57 
   3   2  10   10.37    0.62 
   3   2  10   10.00    0.60 
   3   2  10    9.74    0.51 
   3   2  10    9.04    0.55 
   4   2  10   19.65    1.12 
   4   2  10   21.62    0.99 
   4   2  10   20.55    1.01 
   4   2  10   17.88    1.05 
   5   2  10   -0.03    0.16 
   5   2  10    0.06    0.15 
   6   2  10    5.18    0.33 
   7   2  10    0.87    0.13 
   7   2  10    0.63    0.15 
  -7   3  10    2.13    0.17 
  -7   3  10    2.66    0.30 
  -6   3  10   -0.05    0.14 
  -6   3  10    0.07    0.11 
  -6   3  10   -0.11    0.10 
  -6   3  10    0.00    0.19 
  -5   3  10   11.06    0.72 
  -5   3  10    9.94    0.46 
  -5   3  10    9.55    0.48 
  -5   3  10    9.50    0.54 
  -4   3  10    1.06    0.11 
  -4   3  10    1.50    0.17 
  -4   3  10    1.29    0.21 
  -4   3  10    1.01    0.27 
  -4   3  10    1.14    0.14 
  -3   3  10    8.15    0.46 
  -3   3  10    8.45    0.39 
  -3   3  10    7.77    0.51 
  -3   3  10    8.35    0.59 
  -3   3  10    7.91    0.54 
  -3   3  10    8.14    0.41 
  -3   3  10    7.81    0.41 
  -3   3  10    7.97    0.57 
  -3   3  10    7.69    0.53 
  -2   3  10   23.08    1.14 
  -2   3  10   23.42    1.19 
  -2   3  10   21.58    1.34 
  -2   3  10   23.56    1.27 
  -2   3  10   22.32    1.17 
  -2   3  10   23.25    1.09 
  -2   3  10   23.20    0.94 
  -2   3  10   21.69    1.10 
  -1   3  10    0.12    0.09 
  -1   3  10   -0.07    0.19 
  -1   3  10    0.02    0.19 
  -1   3  10    0.06    0.19 
  -1   3  10    0.08    0.15 
  -1   3  10    0.01    0.16 
  -1   3  10   -0.05    0.16 
  -1   3  10   -0.01    0.09 
  -1   3  10    0.03    0.11 
   0   3  10   16.13    0.82 
   0   3  10   14.20    0.91 
   0   3  10   14.57    0.73 
   0   3  10   16.88    0.80 
   0   3  10   16.01    0.81 
   0   3  10   14.31    0.75 
   0   3  10   14.35    0.63 
   1   3  10    5.00    0.27 
   1   3  10    5.01    0.39 
   1   3  10    5.09    0.42 
   1   3  10    5.25    0.38 
   1   3  10    4.71    0.33 
   1   3  10    5.00    0.37 
   1   3  10    4.91    0.28 
   2   3  10   27.83    1.70 
   2   3  10   30.87    1.52 
   2   3  10   29.17    1.21 
   2   3  10   28.65    1.25 
   2   3  10   30.56    1.42 
   2   3  10   31.49    1.45 
   2   3  10   28.56    1.41 
   2   3  10   30.56    1.47 
   3   3  10    3.07    0.22 
   3   3  10    3.47    0.35 
   3   3  10    3.41    0.37 
   3   3  10    3.11    0.25 
   3   3  10    3.39    0.24 
   3   3  10    2.94    0.29 
   3   3  10    3.44    0.33 
   4   3  10    2.60    0.22 
   4   3  10    2.61    0.23 
   4   3  10    1.89    0.30 
   4   3  10    2.07    0.32 
   4   3  10    2.79    0.30 
   4   3  10    2.60    0.37 
   5   3  10    5.80    0.34 
   5   3  10    5.56    0.46 
   5   3  10    5.53    0.42 
   6   3  10    0.01    0.19 
   6   3  10   -0.19    0.17 
   6   3  10   -0.18    0.12 
   7   3  10    4.22    0.32 
   7   3  10    4.14    0.32 
  -7   4  10    0.05    0.07 
  -7   4  10    0.08    0.15 
  -6   4  10    2.64    0.38 
  -6   4  10    2.62    0.19 
  -5   4  10   -0.05    0.22 
  -5   4  10    0.02    0.12 
  -5   4  10    0.16    0.12 
  -5   4  10    0.11    0.12 
  -5   4  10   -0.03    0.13 
  -4   4  10    6.81    0.36 
  -4   4  10    7.47    0.60 
  -4   4  10    6.06    0.40 
  -4   4  10    6.85    0.40 
  -4   4  10    6.84    0.34 
  -3   4  10    0.64    0.11 
  -3   4  10    0.41    0.21 
  -3   4  10    0.56    0.12 
  -3   4  10    0.69    0.16 
  -3   4  10    0.53    0.20 
  -3   4  10    0.67    0.23 
  -3   4  10    0.69    0.22 
  -3   4  10    0.56    0.13 
  -3   4  10    0.68    0.20 
  -2   4  10    2.71    0.22 
  -2   4  10    2.24    0.24 
  -2   4  10    1.90    0.15 
  -2   4  10    1.89    0.21 
  -2   4  10    2.28    0.18 
  -2   4  10    1.97    0.18 
  -2   4  10    1.82    0.24 
  -2   4  10    1.63    0.28 
  -2   4  10    1.89    0.31 
  -2   4  10    2.04    0.26 
  -2   4  10    1.95    0.22 
  -1   4  10    9.43    0.67 
  -1   4  10    9.91    0.64 
  -1   4  10    9.50    0.54 
  -1   4  10   10.20    0.69 
  -1   4  10   10.21    0.46 
  -1   4  10   10.63    0.61 
  -1   4  10    9.39    0.51 
  -1   4  10    9.77    0.44 
  -1   4  10    9.66    0.55 
  -1   4  10   10.60    0.56 
   0   4  10    2.36    0.20 
   0   4  10    2.03    0.24 
   0   4  10    2.68    0.35 
   0   4  10    2.33    0.34 
   0   4  10    2.63    0.29 
   0   4  10    2.41    0.26 
   0   4  10    2.18    0.23 
   0   4  10    2.32    0.23 
   0   4  10    2.08    0.24 
   0   4  10    2.48    0.18 
   1   4  10    3.91    0.43 
   1   4  10    4.42    0.42 
   1   4  10    4.94    0.35 
   1   4  10    4.77    0.26 
   1   4  10    3.77    0.43 
   1   4  10    5.08    0.34 
   1   4  10    4.25    0.36 
   1   4  10    4.80    0.27 
   1   4  10    4.47    0.30 
   1   4  10    4.44    0.38 
   2   4  10    0.50    0.20 
   2   4  10    0.76    0.11 
   2   4  10    0.92    0.14 
   2   4  10    1.19    0.21 
   2   4  10    0.75    0.23 
   2   4  10    1.10    0.27 
   2   4  10    0.71    0.24 
   2   4  10    0.65    0.10 
   2   4  10    0.78    0.20 
   3   4  10    6.93    0.41 
   3   4  10    7.54    0.55 
   3   4  10    7.09    0.47 
   3   4  10    6.62    0.51 
   3   4  10    6.66    0.37 
   3   4  10    6.39    0.49 
   3   4  10    6.64    0.48 
   3   4  10    7.23    0.35 
   4   4  10    3.18    0.24 
   4   4  10    3.18    0.30 
   4   4  10    3.15    0.40 
   4   4  10    3.02    0.25 
   4   4  10    3.11    0.35 
   5   4  10    0.13    0.18 
   5   4  10    0.04    0.17 
   5   4  10   -0.21    0.13 
   5   4  10   -0.15    0.20 
   5   4  10   -0.29    0.12 
   6   4  10    5.47    0.34 
   6   4  10    4.81    0.35 
   6   4  10    4.23    0.38 
   6   4  10    4.62    0.27 
   7   4  10    0.97    0.17 
   7   4  10    0.92    0.14 
   7   4  10    0.73    0.11 
  -6   5  10   -0.01    0.07 
  -6   5  10   -0.06    0.19 
  -6   5  10   -0.06    0.10 
  -5   5  10    5.32    0.49 
  -5   5  10    4.91    0.26 
  -5   5  10    4.87    0.34 
  -4   5  10    2.45    0.25 
  -4   5  10    2.76    0.25 
  -4   5  10    2.44    0.30 
  -4   5  10    2.74    0.19 
  -3   5  10    9.49    0.74 
  -3   5  10   12.95    0.61 
  -3   5  10   12.06    0.66 
  -3   5  10   11.98    0.51 
  -3   5  10   12.10    0.82 
  -2   5  10   13.06    0.88 
  -2   5  10   14.24    0.93 
  -2   5  10   14.53    0.62 
  -2   5  10   13.98    0.94 
  -2   5  10   15.72    0.73 
  -2   5  10   15.38    0.65 
  -2   5  10   14.89    0.79 
  -1   5  10    0.58    0.25 
  -1   5  10    0.66    0.13 
  -1   5  10    0.56    0.11 
  -1   5  10    0.77    0.26 
  -1   5  10    0.61    0.24 
  -1   5  10    0.71    0.17 
  -1   5  10    0.69    0.09 
  -1   5  10    0.51    0.22 
   0   5  10    4.46    0.45 
   0   5  10    4.90    0.48 
   0   5  10    5.49    0.38 
   0   5  10    5.11    0.49 
   0   5  10    5.73    0.43 
   0   5  10    5.39    0.27 
   0   5  10    5.62    0.29 
   1   5  10    0.41    0.17 
   1   5  10    0.34    0.21 
   1   5  10    0.64    0.08 
   1   5  10    0.43    0.22 
   1   5  10    0.70    0.24 
   1   5  10    0.63    0.10 
   1   5  10    0.63    0.20 
   2   5  10   10.34    0.69 
   2   5  10   10.56    0.47 
   2   5  10   10.27    0.70 
   2   5  10   10.08    0.67 
   2   5  10   10.08    0.54 
   2   5  10   10.25    0.45 
   2   5  10    9.93    0.62 
   2   5  10    8.70    0.52 
   3   5  10    2.20    0.24 
   3   5  10    1.60    0.33 
   3   5  10    2.64    0.22 
   3   5  10    1.97    0.25 
   3   5  10    2.78    0.19 
   3   5  10    1.68    0.23 
   3   5  10    2.95    0.28 
   4   5  10    1.40    0.27 
   4   5  10    1.45    0.22 
   4   5  10    1.91    0.15 
   4   5  10    1.20    0.17 
   4   5  10    1.92    0.15 
   5   5  10    3.01    0.23 
   5   5  10    3.36    0.26 
   5   5  10    2.93    0.37 
   5   5  10    3.23    0.26 
   5   5  10    2.90    0.34 
   6   5  10    0.16    0.18 
   6   5  10    0.20    0.10 
   6   5  10    0.37    0.15 
   6   5  10    0.22    0.10 
   6   5  10    0.28    0.12 
   7   5  10    4.22    0.22 
   7   5  10    4.31    0.29 
  -5   6  10   -0.04    0.12 
  -5   6  10    0.06    0.19 
  -5   6  10    0.00    0.09 
  -4   6  10    6.21    0.37 
  -4   6  10    6.47    0.56 
  -4   6  10    6.35    0.41 
  -4   6  10    6.60    0.32 
  -3   6  10    5.36    0.34 
  -3   6  10    4.85    0.26 
  -3   6  10    4.81    0.34 
  -3   6  10    4.47    0.22 
  -3   6  10    4.43    0.51 
  -2   6  10    4.92    0.47 
  -2   6  10    5.40    0.28 
  -2   6  10    5.39    0.53 
  -2   6  10    5.10    0.24 
  -2   6  10    5.29    0.36 
  -2   6  10    6.40    0.37 
  -1   6  10    3.91    0.46 
  -1   6  10    4.08    0.35 
  -1   6  10    4.56    0.33 
  -1   6  10    4.35    0.24 
  -1   6  10    3.40    0.43 
  -1   6  10    3.87    0.47 
   0   6  10    0.21    0.14 
   0   6  10    0.18    0.23 
   0   6  10    0.38    0.21 
   0   6  10    0.37    0.21 
   0   6  10    0.34    0.11 
   0   6  10    0.31    0.06 
   0   6  10    0.39    0.19 
   1   6  10    1.93    0.18 
   1   6  10    1.79    0.25 
   1   6  10    1.72    0.28 
   1   6  10    1.36    0.21 
   1   6  10    1.32    0.16 
   1   6  10    1.67    0.13 
   1   6  10    1.45    0.23 
   2   6  10    0.11    0.08 
   2   6  10    0.14    0.24 
   2   6  10   -0.02    0.12 
   2   6  10    0.11    0.21 
   2   6  10   -0.07    0.22 
   3   6  10    5.27    0.47 
   3   6  10    5.29    0.30 
   3   6  10    5.40    0.27 
   3   6  10    5.30    0.47 
   3   6  10    5.58    0.49 
   4   6  10    8.09    0.40 
   4   6  10    8.56    0.59 
   4   6  10    8.03    0.37 
   4   6  10    7.67    0.55 
   5   6  10    1.00    0.11 
   5   6  10    1.06    0.13 
   5   6  10    1.03    0.20 
   5   6  10    0.89    0.22 
   6   6  10    2.84    0.28 
   6   6  10    2.59    0.16 
   6   6  10    2.72    0.19 
   6   6  10    2.45    0.24 
  -4   7  10    0.01    0.12 
  -4   7  10   -0.29    0.20 
  -3   7  10    2.73    0.28 
  -3   7  10    2.35    0.29 
  -2   7  10    0.99    0.14 
  -2   7  10    1.37    0.24 
  -2   7  10    1.29    0.18 
  -1   7  10   -0.02    0.22 
  -1   7  10   -0.02    0.21 
  -1   7  10    0.06    0.13 
   0   7  10    2.99    0.27 
   0   7  10    2.79    0.37 
   0   7  10    3.30    0.41 
   1   7  10    0.20    0.21 
   1   7  10    0.13    0.21 
   1   7  10   -0.05    0.13 
   1   7  10   -0.04    0.19 
   2   7  10    3.33    0.39 
   2   7  10    2.94    0.36 
   2   7  10    3.36    0.44 
   2   7  10    3.03    0.18 
   3   7  10    3.74    0.41 
   3   7  10    3.59    0.21 
   3   7  10    3.37    0.39 
   4   7  10    0.60    0.21 
   4   7  10    0.58    0.19 
   4   7  10    0.76    0.10 
   5   7  10    2.28    0.16 
   5   7  10    1.88    0.25 
  -3   8  10   -0.18    0.14 
  -3   8  10    0.10    0.12 
  -2   8  10    3.40    0.36 
  -2   8  10    3.58    0.28 
  -1   8  10    1.45    0.23 
  -1   8  10    1.11    0.17 
  -1   8  10    0.95    0.18 
   0   8  10    0.03    0.12 
   0   8  10    0.05    0.18 
   0   8  10    0.07    0.19 
   1   8  10    0.96    0.21 
   1   8  10    0.79    0.21 
   1   8  10    0.70    0.22 
   2   8  10    0.01    0.17 
   2   8  10   -0.32    0.19 
   2   8  10   -0.20    0.19 
   3   8  10    1.43    0.21 
   3   8  10    1.46    0.25 
   4   8  10    1.08    0.20 
   4   8  10    0.53    0.16 
   0   9  10   -0.14    0.16 
   0   9  10   -0.27    0.12 
   1   9  10   -0.13    0.12 
   2   9  10    0.27    0.14 
   3   6 -11    4.31    0.20 
   3   6 -11    4.03    0.27 
   2   6 -11    0.43    0.12 
   2   6 -11    0.49    0.09 
   2   6 -11    0.46    0.10 
   1   6 -11    4.46    0.34 
   1   6 -11    4.21    0.21 
   1   6 -11    4.03    0.24 
   0   6 -11    1.44    0.18 
   0   6 -11    1.43    0.13 
   0   6 -11    1.44    0.13 
  -1   6 -11    0.66    0.14 
  -1   6 -11    0.73    0.08 
  -1   6 -11    0.63    0.10 
  -2   6 -11    0.47    0.07 
  -2   6 -11    0.44    0.11 
  -2   6 -11    0.38    0.08 
   5   5 -11    1.36    0.12 
   4   5 -11    2.90    0.23 
   4   5 -11    3.14    0.18 
   4   5 -11    2.79    0.18 
   4   5 -11    2.91    0.20 
   3   5 -11   -0.03    0.14 
   3   5 -11    0.05    0.09 
   3   5 -11   -0.09    0.10 
   3   5 -11   -0.03    0.11 
   3   5 -11    0.03    0.11 
   2   5 -11   10.12    0.61 
   2   5 -11    9.71    0.50 
   2   5 -11    9.90    0.45 
   1   5 -11    0.65    0.13 
   1   5 -11    0.76    0.12 
   1   5 -11    0.79    0.17 
   1   5 -11    0.61    0.11 
   0   5 -11    1.06    0.12 
   0   5 -11    1.39    0.12 
   0   5 -11    0.93    0.18 
   0   5 -11    1.22    0.14 
  -1   5 -11    3.23    0.21 
  -1   5 -11    3.61    0.30 
  -1   5 -11    3.36    0.22 
  -1   5 -11    3.53    0.24 
  -2   5 -11    0.20    0.11 
  -2   5 -11    0.25    0.09 
  -2   5 -11    0.07    0.12 
  -2   5 -11    0.13    0.13 
  -3   5 -11    3.14    0.23 
  -3   5 -11    3.14    0.23 
  -3   5 -11    3.57    0.20 
  -4   5 -11   -0.07    0.06 
  -4   5 -11    0.11    0.08 
  -4   5 -11   -0.04    0.10 
   6   4 -11    3.29    0.20 
   5   4 -11    6.38    0.40 
   4   4 -11    0.99    0.14 
   4   4 -11    0.95    0.13 
   4   4 -11    0.97    0.15 
   4   4 -11    0.81    0.15 
   3   4 -11    6.15    0.39 
   3   4 -11    6.09    0.32 
   3   4 -11    5.66    0.41 
   3   4 -11    6.75    0.44 
   2   4 -11    0.00    0.13 
   2   4 -11   -0.05    0.15 
   2   4 -11    0.03    0.14 
   2   4 -11   -0.31    0.12 
   1   4 -11   31.94    1.41 
   1   4 -11   34.17    1.60 
   1   4 -11   32.24    1.37 
   1   4 -11   34.95    1.81 
   0   4 -11    5.62    0.32 
   0   4 -11    5.71    0.39 
   0   4 -11    6.40    0.45 
   0   4 -11    5.66    0.32 
  -1   4 -11    2.45    0.20 
  -1   4 -11    2.54    0.31 
  -1   4 -11    2.23    0.24 
  -1   4 -11    2.09    0.26 
  -1   4 -11    2.35    0.25 
  -2   4 -11   13.89    0.60 
  -2   4 -11   14.35    0.70 
  -2   4 -11   13.45    0.70 
  -2   4 -11   13.49    0.79 
  -2   4 -11   13.55    0.62 
  -3   4 -11    0.06    0.15 
  -3   4 -11    0.04    0.11 
  -3   4 -11   -0.09    0.12 
  -3   4 -11   -0.09    0.11 
  -4   4 -11    1.97    0.19 
  -4   4 -11    2.04    0.19 
  -4   4 -11    2.21    0.25 
  -4   4 -11    1.99    0.17 
  -5   4 -11   -0.04    0.08 
  -5   4 -11   -0.04    0.10 
  -5   4 -11    0.06    0.08 
   6   3 -11    0.21    0.11 
   6   3 -11    0.33    0.11 
   5   3 -11    5.77    0.40 
   5   3 -11    5.78    0.32 
   5   3 -11    6.22    0.38 
   4   3 -11   10.43    0.54 
   4   3 -11   10.22    0.63 
   4   3 -11   10.71    0.57 
   3   3 -11    7.50    0.40 
   3   3 -11    7.35    0.44 
   3   3 -11    6.71    0.46 
   2   3 -11   13.15    0.63 
   2   3 -11   12.84    0.66 
   2   3 -11   10.90    0.80 
   1   3 -11    9.10    0.68 
   1   3 -11    9.43    0.45 
   1   3 -11   10.28    0.54 
   1   3 -11   10.25    0.50 
   1   3 -11    8.83    0.61 
   0   3 -11   -0.23    0.17 
   0   3 -11   -0.29    0.12 
   0   3 -11   -0.20    0.11 
   0   3 -11   -0.13    0.15 
   0   3 -11    0.14    0.22 
   0   3 -11   -0.26    0.18 
  -1   3 -11   89.83    4.76 
  -1   3 -11   90.07    4.27 
  -1   3 -11   86.91    3.62 
  -1   3 -11   93.25    4.23 
  -2   3 -11    0.74    0.14 
  -2   3 -11    1.09    0.12 
  -2   3 -11    1.02    0.16 
  -2   3 -11    1.00    0.12 
  -3   3 -11   14.12    0.65 
  -3   3 -11   16.95    0.79 
  -3   3 -11   14.55    0.74 
  -3   3 -11   15.42    0.78 
  -4   3 -11    0.04    0.14 
  -4   3 -11   -0.06    0.14 
  -4   3 -11   -0.09    0.11 
  -5   3 -11    1.25    0.14 
  -5   3 -11    0.88    0.15 
  -5   3 -11    1.31    0.12 
  -6   3 -11    0.61    0.10 
  -6   3 -11    0.49    0.11 
  -6   3 -11    0.53    0.09 
   7   2 -11    1.24    0.11 
   7   2 -11    1.46    0.16 
  -7  -2  11    1.14    0.14 
   6   2 -11    8.93    0.53 
   6   2 -11    9.12    0.47 
   5   2 -11   17.06    0.96 
   5   2 -11   16.98    0.85 
   4   2 -11    6.77    0.40 
   4   2 -11    6.41    0.44 
   3   2 -11    7.53    0.44 
   2   2 -11    0.28    0.13 
   1   2 -11    1.73    0.15 
   1   2 -11    1.57    0.25 
   1   2 -11    1.92    0.28 
   1   2 -11    1.63    0.19 
   1   2 -11    1.63    0.23 
   0   2 -11   26.61    1.35 
   0   2 -11   25.58    1.25 
   0   2 -11   26.13    1.26 
   0   2 -11   26.83    1.48 
   0   2 -11   24.22    1.29 
  -1   2 -11   -0.01    0.17 
  -1   2 -11    0.18    0.19 
  -1   2 -11   -0.08    0.15 
  -1   2 -11    0.10    0.16 
  -1   2 -11   -0.05    0.12 
  -2   2 -11    6.00    0.42 
  -2   2 -11    6.38    0.41 
  -2   2 -11    6.74    0.37 
  -2   2 -11    6.00    0.50 
  -2   2 -11    5.93    0.47 
  -3   2 -11    0.88    0.17 
  -3   2 -11    1.07    0.14 
  -4   2 -11   15.29    0.78 
  -4   2 -11   15.03    0.76 
  -5   2 -11    1.24    0.14 
  -5   2 -11    1.32    0.17 
  -5   2 -11    1.40    0.18 
  -6   2 -11    1.49    0.15 
  -6   2 -11    1.24    0.14 
   7   1 -11    3.69    0.26 
   7   1 -11    3.71    0.24 
  -7  -1  11    4.13    0.30 
  -7  -1  11    3.71    0.23 
   6   1 -11    5.95    0.36 
  -6  -1  11    5.97    0.36 
   5   1 -11    8.34    0.46 
  -5  -1  11    8.29    0.48 
   4   1 -11    4.22    0.32 
   3   1 -11   -0.05    0.13 
   2   1 -11    1.25    0.13 
   1   1 -11    1.08    0.12 
   0   1 -11    8.76    0.50 
   0   1 -11   10.55    0.63 
  -1   1 -11   29.10    1.56 
  -1   1 -11   26.64    1.34 
  -2   1 -11    0.73    0.11 
  -2   1 -11    0.69    0.21 
  -3   1 -11   22.20    1.09 
  -4   1 -11    0.32    0.14 
  -5   1 -11    7.28    0.42 
  -6   1 -11    1.83    0.19 
  -6   1 -11    1.91    0.18 
  -6   1 -11    2.01    0.19 
  -7   1 -11    0.21    0.10 
   7   0 -11    1.80    0.19 
  -7   0  11    2.42    0.27 
  -7   0  11    2.00    0.17 
  -6   0  11    6.03    0.35 
  -5   0  11    9.66    0.52 
  -4   0  11    0.22    0.13 
  -3   0  11    5.36    0.33 
  -1   0 -11    1.56    0.22 
   1   0  11    1.85    0.22 
  -4   0 -11   10.52    0.57 
  -5   0 -11    0.11    0.13 
  -6   0 -11    1.71    0.16 
   6   0  11    1.50    0.18 
  -7   0 -11    8.51    0.42 
   7   0  11    7.77    0.44 
  -7   1  11    3.55    0.28 
  -7   1  11    4.01    0.37 
  -6   1  11    4.19    0.34 
  -6   1  11    4.50    0.44 
  -6   1  11    3.96    0.27 
  -5   1  11   22.39    1.09 
  -5   1  11   21.87    1.10 
  -4   1  11   29.30    1.49 
  -4   1  11   32.23    1.49 
  -3   1  11    4.66    0.39 
  -3   1  11    4.23    0.44 
  -3   1  11    5.49    0.47 
  -3   1  11    5.65    0.33 
  -2   1  11   18.71    1.00 
  -2   1  11   19.04    0.93 
  -2   1  11   18.80    1.04 
  -1   1  11   15.26    0.81 
  -1   1  11   17.35    0.90 
  -1   1  11   16.71    0.88 
   0   1  11    3.56    0.36 
   0   1  11    3.88    0.38 
   0   1  11    4.21    0.34 
   1   1  11   16.60    0.92 
   1   1  11   15.64    0.82 
   1   1  11   17.58    0.88 
   1   1  11   17.11    0.89 
   2   1  11   13.40    0.72 
   2   1  11   12.96    0.67 
   3   1  11   11.80    0.61 
   4   1  11    0.16    0.14 
   5   1  11    7.04    0.43 
   6   1  11    2.16    0.25 
  -7  -1 -11    0.24    0.10 
   7   1  11    0.27    0.11 
  -7   2  11   -0.03    0.14 
  -7   2  11    0.14    0.11 
  -6   2  11    2.77    0.28 
  -6   2  11    2.95    0.41 
  -5   2  11   14.38    0.73 
  -5   2  11   15.09    0.90 
  -5   2  11   14.18    0.70 
  -5   2  11   12.65    0.61 
  -4   2  11   16.76    0.85 
  -4   2  11   15.61    0.71 
  -4   2  11   17.05    0.82 
  -4   2  11   16.54    1.02 
  -3   2  11   85.85    3.51 
  -3   2  11   87.73    4.09 
  -3   2  11   87.99    4.13 
  -3   2  11   86.75    4.92 
  -2   2  11   12.68    0.69 
  -2   2  11   13.43    0.67 
  -2   2  11   12.88    0.60 
  -2   2  11   13.63    0.76 
  -2   2  11   13.19    0.79 
  -2   2  11   15.68    0.76 
  -2   2  11   11.98    0.83 
  -2   2  11   13.76    0.76 
  -2   2  11   13.52    0.58 
  -1   2  11    7.83    0.48 
  -1   2  11    6.99    0.34 
  -1   2  11    6.88    0.39 
  -1   2  11    8.02    0.50 
  -1   2  11    7.79    0.51 
  -1   2  11    6.46    0.43 
  -1   2  11    6.89    0.49 
   0   2  11    7.00    0.47 
   0   2  11    7.43    0.47 
   0   2  11    7.40    0.46 
   0   2  11    6.94    0.38 
   0   2  11    5.95    0.39 
   1   2  11    0.31    0.19 
   1   2  11    0.49    0.20 
   1   2  11    0.54    0.16 
   1   2  11    0.55    0.11 
   1   2  11    0.55    0.20 
   2   2  11    8.07    0.53 
   2   2  11    7.19    0.46 
   2   2  11    7.93    0.43 
   2   2  11    8.09    0.55 
   2   2  11    8.48    0.52 
   3   2  11    1.02    0.12 
   3   2  11    0.84    0.27 
   3   2  11    0.79    0.18 
   3   2  11    0.79    0.25 
   3   2  11    1.14    0.25 
   4   2  11    1.89    0.21 
   4   2  11    2.13    0.24 
   5   2  11    2.39    0.23 
   5   2  11    2.58    0.27 
   6   2  11    0.75    0.18 
   6   2  11    1.13    0.16 
   7   2  11    2.72    0.26 
   7   2  11    2.79    0.20 
  -7   3  11    0.60    0.14 
  -7   3  11    0.59    0.10 
  -6   3  11    1.75    0.21 
  -6   3  11    1.65    0.23 
  -6   3  11    1.69    0.17 
  -5   3  11   -0.15    0.16 
  -5   3  11   -0.05    0.20 
  -5   3  11   -0.08    0.12 
  -4   3  11   19.34    0.77 
  -4   3  11   19.11    0.91 
  -4   3  11   14.98    1.05 
  -4   3  11   17.78    1.11 
  -4   3  11   19.11    1.12 
  -3   3  11    1.08    0.16 
  -3   3  11    1.09    0.26 
  -3   3  11    1.03    0.10 
  -3   3  11    1.04    0.12 
  -3   3  11    0.78    0.22 
  -3   3  11    1.45    0.28 
  -3   3  11    1.28    0.28 
  -3   3  11    0.94    0.25 
  -2   3  11    4.27    0.38 
  -2   3  11    4.41    0.39 
  -2   3  11    4.50    0.41 
  -2   3  11    4.26    0.28 
  -2   3  11    4.13    0.25 
  -2   3  11    4.09    0.24 
  -2   3  11    3.89    0.38 
  -2   3  11    3.76    0.41 
  -2   3  11    3.73    0.32 
  -1   3  11    7.09    0.54 
  -1   3  11    8.19    0.52 
  -1   3  11    9.18    0.53 
  -1   3  11    7.73    0.37 
  -1   3  11    8.05    0.53 
  -1   3  11    7.92    0.41 
  -1   3  11    7.88    0.40 
  -1   3  11    7.34    0.45 
  -1   3  11    7.69    0.51 
   0   3  11   35.62    1.66 
   0   3  11   30.19    1.92 
   0   3  11   33.41    1.60 
   0   3  11   34.07    1.65 
   0   3  11   33.43    1.62 
   0   3  11   34.00    1.37 
   0   3  11   34.84    1.70 
   0   3  11   32.29    1.60 
   0   3  11   33.59    1.92 
   0   3  11   33.78    1.41 
   1   3  11   27.87    1.74 
   1   3  11   29.07    1.28 
   1   3  11   32.91    1.48 
   1   3  11   32.31    1.55 
   1   3  11   31.05    1.24 
   1   3  11   30.46    1.50 
   1   3  11   28.77    1.45 
   1   3  11   29.81    1.45 
   2   3  11    3.81    0.25 
   2   3  11    3.98    0.38 
   2   3  11    3.20    0.34 
   2   3  11    3.54    0.32 
   2   3  11    3.47    0.26 
   2   3  11    3.61    0.23 
   2   3  11    4.12    0.37 
   2   3  11    3.94    0.39 
   3   3  11    9.99    0.63 
   3   3  11   10.02    0.47 
   3   3  11    9.73    0.49 
   3   3  11   10.11    0.55 
   3   3  11   10.35    0.64 
   3   3  11    9.84    0.63 
   3   3  11   10.40    0.53 
   4   3  11    2.45    0.27 
   4   3  11    2.93    0.31 
   4   3  11    2.57    0.23 
   4   3  11    3.12    0.25 
   5   3  11    2.75    0.23 
   5   3  11    2.87    0.39 
   5   3  11    2.15    0.22 
   6   3  11    1.91    0.21 
   6   3  11    1.46    0.22 
   6   3  11    2.13    0.18 
   7   3  11    0.17    0.13 
   7   3  11    0.21    0.12 
  -6   4  11    0.10    0.20 
  -6   4  11   -0.03    0.09 
  -6   4  11   -0.01    0.11 
  -5   4  11    4.33    0.26 
  -5   4  11    4.58    0.28 
  -5   4  11    4.71    0.47 
  -4   4  11    0.14    0.12 
  -4   4  11    0.22    0.13 
  -4   4  11   -0.07    0.25 
  -3   4  11   24.09    0.99 
  -3   4  11   23.37    1.11 
  -3   4  11   21.03    1.30 
  -3   4  11   21.44    1.16 
  -3   4  11   22.75    1.36 
  -3   4  11   23.74    0.96 
  -3   4  11   24.34    1.39 
  -2   4  11    1.12    0.21 
  -2   4  11    0.96    0.13 
  -2   4  11    0.90    0.28 
  -2   4  11    0.55    0.25 
  -2   4  11    0.86    0.14 
  -2   4  11    0.86    0.10 
  -2   4  11    0.75    0.22 
  -2   4  11    0.81    0.27 
  -2   4  11    1.17    0.22 
  -2   4  11    0.93    0.14 
  -1   4  11   16.80    1.01 
  -1   4  11   18.11    0.90 
  -1   4  11   17.56    0.92 
  -1   4  11   17.22    1.06 
  -1   4  11   17.66    0.86 
  -1   4  11   16.30    0.94 
  -1   4  11   17.19    0.89 
  -1   4  11   16.82    1.06 
  -1   4  11   17.93    0.76 
  -1   4  11   17.87    0.73 
   0   4  11    4.92    0.31 
   0   4  11    5.48    0.28 
   0   4  11    4.95    0.48 
   0   4  11    5.21    0.37 
   0   4  11    5.76    0.43 
   0   4  11    5.43    0.34 
   0   4  11    5.08    0.49 
   0   4  11    5.55    0.38 
   0   4  11    4.85    0.33 
   0   4  11    5.09    0.42 
   1   4  11    5.53    0.47 
   1   4  11    6.05    0.38 
   1   4  11    5.57    0.32 
   1   4  11    5.33    0.40 
   1   4  11    5.91    0.30 
   1   4  11    5.43    0.34 
   1   4  11    5.14    0.40 
   1   4  11    5.82    0.48 
   1   4  11    5.89    0.49 
   1   4  11    5.21    0.46 
   2   4  11   12.81    0.63 
   2   4  11   12.20    0.72 
   2   4  11   11.73    0.68 
   2   4  11   12.02    0.78 
   2   4  11   12.49    0.57 
   2   4  11   12.23    0.81 
   2   4  11   12.41    0.70 
   2   4  11   12.16    0.79 
   2   4  11   12.55    0.54 
   3   4  11    0.92    0.20 
   3   4  11    1.36    0.15 
   3   4  11    1.36    0.13 
   3   4  11    1.28    0.30 
   3   4  11    1.28    0.23 
   3   4  11    1.45    0.25 
   3   4  11    1.04    0.14 
   4   4  11    2.37    0.20 
   4   4  11    2.35    0.20 
   4   4  11    2.29    0.21 
   4   4  11    2.36    0.27 
   5   4  11    1.95    0.19 
   5   4  11    1.50    0.16 
   5   4  11    2.10    0.19 
   5   4  11    1.65    0.21 
   5   4  11    1.78    0.24 
   6   4  11    2.40    0.26 
   6   4  11    1.44    0.22 
   6   4  11    2.10    0.25 
   6   4  11    2.21    0.21 
   7   4  11    1.31    0.13 
   7   4  11    1.92    0.19 
   7   4  11    1.67    0.19 
  -6   5  11    0.35    0.17 
  -6   5  11    0.23    0.06 
  -6   5  11    0.42    0.09 
  -5   5  11    0.18    0.08 
  -5   5  11    0.21    0.24 
  -5   5  11    0.28    0.11 
  -5   5  11    0.18    0.12 
  -4   5  11   14.07    0.87 
  -4   5  11   12.57    0.58 
  -4   5  11   12.00    0.68 
  -3   5  11    1.47    0.18 
  -3   5  11    1.91    0.17 
  -3   5  11    1.20    0.22 
  -3   5  11    1.61    0.15 
  -3   5  11    1.39    0.24 
  -2   5  11    5.09    0.29 
  -2   5  11    5.39    0.26 
  -2   5  11    5.00    0.34 
  -2   5  11    4.11    0.42 
  -2   5  11    4.51    0.55 
  -2   5  11    4.61    0.46 
  -1   5  11    0.24    0.11 
  -1   5  11    0.33    0.20 
  -1   5  11    0.15    0.13 
  -1   5  11    0.29    0.14 
  -1   5  11    0.35    0.22 
  -1   5  11    0.55    0.27 
  -1   5  11    0.15    0.22 
   0   5  11    8.77    0.63 
   0   5  11    9.19    0.42 
   0   5  11    8.34    0.57 
   0   5  11    8.87    0.63 
   0   5  11    9.18    0.52 
   0   5  11    9.10    0.40 
   0   5  11    7.45    0.61 
   1   5  11    5.01    0.51 
   1   5  11    5.59    0.28 
   1   5  11    5.44    0.48 
   1   5  11    5.62    0.36 
   1   5  11    5.81    0.31 
   1   5  11    5.51    0.48 
   1   5  11    4.77    0.47 
   2   5  11    0.03    0.22 
   2   5  11    0.02    0.24 
   2   5  11    0.15    0.11 
   2   5  11    0.08    0.11 
   2   5  11    0.16    0.12 
   2   5  11   -0.10    0.19 
   2   5  11    0.31    0.23 
   2   5  11    0.14    0.14 
   3   5  11   21.15    1.26 
   3   5  11   21.53    0.91 
   3   5  11   21.60    0.88 
   3   5  11   17.88    1.10 
   3   5  11   22.66    1.01 
   3   5  11   19.81    1.24 
   3   5  11   21.93    1.26 
   4   5  11    2.19    0.24 
   4   5  11    2.43    0.21 
   4   5  11    2.46    0.28 
   4   5  11    2.23    0.24 
   5   5  11    2.79    0.25 
   5   5  11    3.20    0.36 
   5   5  11    2.90    0.25 
   5   5  11    3.29    0.23 
   5   5  11    3.06    0.30 
   6   5  11    5.37    0.36 
   6   5  11    5.64    0.29 
   6   5  11    5.17    0.39 
   6   5  11    5.47    0.28 
   6   5  11    5.38    0.30 
  -5   6  11    1.48    0.18 
  -5   6  11    1.76    0.24 
  -5   6  11    1.63    0.14 
  -4   6  11   -0.09    0.10 
  -4   6  11    0.04    0.10 
  -4   6  11   -0.05    0.22 
  -3   6  11    0.16    0.07 
  -3   6  11    0.14    0.24 
  -3   6  11    0.12    0.11 
  -3   6  11    0.25    0.15 
  -2   6  11    9.03    0.52 
  -2   6  11    8.71    0.39 
  -2   6  11    9.47    0.43 
  -2   6  11    9.06    0.66 
  -2   6  11   10.05    0.68 
  -1   6  11    0.03    0.21 
  -1   6  11    0.15    0.07 
  -1   6  11    0.19    0.11 
  -1   6  11   -0.07    0.22 
  -1   6  11   -0.02    0.14 
   0   6  11   -0.37    0.21 
   0   6  11   -0.13    0.16 
   0   6  11   -0.08    0.11 
   0   6  11    0.00    0.24 
   0   6  11    0.07    0.07 
   1   6  11    8.20    0.58 
   1   6  11    7.36    0.37 
   1   6  11    7.84    0.48 
   1   6  11    7.83    0.34 
   1   6  11    7.86    0.58 
   1   6  11    6.75    0.61 
   2   6  11    5.71    0.30 
   2   6  11    5.36    0.47 
   2   6  11    5.79    0.28 
   2   6  11    5.95    0.51 
   2   6  11    5.73    0.48 
   3   6  11    0.52    0.23 
   3   6  11    1.17    0.13 
   3   6  11    1.29    0.26 
   3   6  11    1.04    0.20 
   3   6  11    1.16    0.10 
   4   6  11   -0.26    0.22 
   4   6  11   -0.01    0.09 
   4   6  11   -0.12    0.12 
   4   6  11   -0.11    0.16 
   5   6  11    7.36    0.53 
   5   6  11    7.89    0.35 
   5   6  11    8.00    0.38 
   6   6  11    0.29    0.09 
   6   6  11    0.53    0.09 
   6   6  11    0.53    0.15 
  -4   7  11    0.12    0.11 
  -4   7  11    0.08    0.17 
  -3   7  11   -0.09    0.13 
  -3   7  11    0.06    0.19 
  -2   7  11    0.18    0.17 
  -2   7  11    0.47    0.21 
  -2   7  11    0.49    0.15 
  -1   7  11   -0.14    0.15 
  -1   7  11   -0.03    0.18 
  -1   7  11    0.02    0.21 
   0   7  11   -0.27    0.19 
   0   7  11   -0.09    0.16 
   0   7  11   -0.48    0.20 
   1   7  11    1.05    0.22 
   1   7  11    0.90    0.24 
   1   7  11    0.76    0.25 
   2   7  11   -0.09    0.08 
   2   7  11   -0.32    0.21 
   2   7  11   -0.09    0.23 
   2   7  11    0.04    0.22 
   3   7  11    0.21    0.17 
   3   7  11    0.13    0.22 
   3   7  11    0.26    0.08 
   4   7  11    1.34    0.11 
   4   7  11    1.34    0.24 
   4   7  11    1.10    0.17 
   5   7  11    0.11    0.15 
   5   7  11    0.25    0.07 
  -3   8  11    0.90    0.18 
  -3   8  11    1.10    0.13 
  -2   8  11    2.03    0.20 
  -2   8  11    2.45    0.32 
  -1   8  11   -0.08    0.11 
  -1   8  11   -0.10    0.17 
  -1   8  11   -0.09    0.16 
   0   8  11    0.03    0.18 
   0   8  11    0.05    0.18 
   1   8  11    0.06    0.17 
   1   8  11    0.27    0.18 
   1   8  11    0.19    0.19 
   2   8  11    0.07    0.21 
   2   8  11    0.03    0.16 
   2   8  11    0.45    0.17 
   3   8  11    0.20    0.14 
   3   8  11    0.02    0.18 
   4   8  11    0.18    0.15 
   0   9  11   -0.10    0.13 
   1   9  11   -0.16    0.14 
   2   6 -12    2.96    0.16 
   2   6 -12    3.11    0.24 
   2   6 -12    3.13    0.18 
   1   6 -12    0.01    0.06 
   1   6 -12    0.10    0.07 
   1   6 -12   -0.01    0.10 
   0   6 -12    1.97    0.12 
   0   6 -12    1.93    0.22 
   0   6 -12    1.89    0.16 
  -1   6 -12    0.02    0.10 
  -1   6 -12    0.04    0.05 
  -1   6 -12   -0.01    0.07 
   4   5 -12    3.98    0.21 
   3   5 -12    1.64    0.16 
   3   5 -12    1.43    0.14 
   3   5 -12    1.46    0.14 
   3   5 -12    1.61    0.21 
   2   5 -12    2.95    0.19 
   2   5 -12    3.04    0.20 
   2   5 -12    3.04    0.22 
   1   5 -12    3.64    0.22 
   1   5 -12    3.46    0.22 
   1   5 -12    3.32    0.24 
   1   5 -12    3.47    0.33 
   0   5 -12    0.94    0.11 
   0   5 -12    0.51    0.12 
   0   5 -12    0.73    0.09 
   0   5 -12    0.50    0.15 
  -1   5 -12    1.73    0.18 
  -1   5 -12    1.45    0.14 
  -1   5 -12    1.01    0.16 
  -2   5 -12    2.03    0.16 
  -2   5 -12    1.65    0.18 
  -2   5 -12    1.71    0.17 
  -2   5 -12    1.59    0.22 
  -3   5 -12    0.06    0.09 
  -3   5 -12    0.03    0.08 
  -3   5 -12    0.12    0.09 
   5   4 -12    2.88    0.21 
   4   4 -12    4.24    0.30 
   4   4 -12    4.27    0.25 
   4   4 -12    4.26    0.29 
   3   4 -12    6.13    0.43 
   3   4 -12    6.26    0.37 
   3   4 -12    6.13    0.32 
   2   4 -12   11.09    0.57 
   2   4 -12   10.36    0.48 
   2   4 -12   10.91    0.64 
   1   4 -12   -0.26    0.15 
   1   4 -12   -0.10    0.14 
   1   4 -12   -0.17    0.11 
   1   4 -12   -0.15    0.12 
   0   4 -12    1.87    0.17 
   0   4 -12    2.18    0.21 
   0   4 -12    1.46    0.16 
   0   4 -12    1.91    0.20 
  -1   4 -12   -0.02    0.13 
  -1   4 -12    0.11    0.11 
  -1   4 -12   -0.15    0.11 
  -1   4 -12   -0.07    0.12 
  -1   4 -12    0.10    0.15 
  -2   4 -12    0.52    0.10 
  -2   4 -12    0.36    0.13 
  -2   4 -12    0.20    0.12 
  -2   4 -12    0.21    0.13 
  -2   4 -12    0.24    0.11 
  -3   4 -12    5.26    0.34 
  -3   4 -12    5.27    0.32 
  -3   4 -12    5.16    0.28 
  -3   4 -12    5.24    0.30 
  -4   4 -12    0.09    0.09 
  -4   4 -12    0.10    0.07 
  -4   4 -12    0.03    0.11 
  -4   4 -12    0.08    0.10 
  -5   4 -12    2.89    0.20 
   6   3 -12    7.79    0.41 
   5   3 -12    3.57    0.19 
   5   3 -12    3.41    0.27 
   5   3 -12    2.87    0.25 
   5   3 -12    3.19    0.26 
   4   3 -12    7.44    0.40 
   4   3 -12    7.86    0.44 
   3   3 -12   13.69    0.70 
   3   3 -12   12.77    0.66 
   2   3 -12    3.46    0.24 
   2   3 -12    3.37    0.30 
   1   3 -12    9.21    0.52 
   1   3 -12    9.41    0.49 
   0   3 -12    0.41    0.17 
   0   3 -12    0.35    0.12 
   0   3 -12    0.46    0.12 
   0   3 -12    0.50    0.17 
  -1   3 -12    6.97    0.38 
  -1   3 -12    7.44    0.40 
  -1   3 -12    7.52    0.50 
  -1   3 -12    7.42    0.46 
  -2   3 -12    0.87    0.14 
  -2   3 -12    1.06    0.17 
  -2   3 -12    1.03    0.12 
  -2   3 -12    1.09    0.12 
  -3   3 -12    1.23    0.15 
  -3   3 -12    1.25    0.17 
  -3   3 -12    1.42    0.13 
  -3   3 -12    1.01    0.14 
  -4   3 -12    5.97    0.37 
  -4   3 -12    5.63    0.31 
  -4   3 -12    5.85    0.35 
  -5   3 -12    0.31    0.08 
  -5   3 -12    0.41    0.11 
  -5   3 -12    0.31    0.10 
   6   2 -12    0.71    0.10 
   6   2 -12    0.44    0.11 
  -6  -2  12    0.48    0.12 
   5   2 -12    3.42    0.25 
   5   2 -12    3.30    0.27 
   4   2 -12   21.02    1.04 
   3   2 -12    3.94    0.29 
   2   2 -12   14.27    0.68 
   2   2 -12   11.87    0.83 
   1   2 -12    0.33    0.20 
   1   2 -12    0.70    0.12 
   1   2 -12    0.44    0.14 
   0   2 -12    6.57    0.42 
   0   2 -12    6.07    0.51 
   0   2 -12    6.95    0.37 
  -1   2 -12    2.36    0.28 
  -1   2 -12    2.29    0.24 
  -1   2 -12    2.38    0.33 
  -1   2 -12    2.21    0.26 
  -2   2 -12   15.71    1.11 
  -2   2 -12   20.27    0.94 
  -2   2 -12   20.18    0.95 
  -3   2 -12   -0.28    0.13 
  -3   2 -12   -0.27    0.15 
  -4   2 -12   -0.33    0.17 
  -4   2 -12   -0.22    0.10 
  -5   2 -12    3.01    0.26 
  -5   2 -12    2.75    0.27 
  -5   2 -12    2.89    0.19 
  -6   2 -12    0.15    0.09 
  -6   2 -12    0.19    0.10 
   7   1 -12    0.18    0.08 
  -7  -1  12    0.14    0.07 
   6   1 -12    8.04    0.49 
   6   1 -12    8.17    0.44 
  -6  -1  12    8.44    0.44 
   5   1 -12    1.97    0.24 
  -5  -1  12    2.08    0.24 
   4   1 -12    1.63    0.16 
   3   1 -12    1.90    0.16 
   2   1 -12    1.13    0.13 
   1   1 -12   26.62    1.29 
   0   1 -12    5.04    0.32 
   0   1 -12    5.24    0.43 
  -1   1 -12   12.18    0.63 
  -1   1 -12   12.41    0.77 
  -2   1 -12    6.13    0.35 
  -2   1 -12    5.22    0.45 
  -3   1 -12    2.69    0.26 
  -4   1 -12   13.34    0.69 
  -5   1 -12   -0.14    0.11 
  -6   1 -12    1.71    0.17 
  -6   1 -12    1.75    0.16 
  -6   1 -12    1.93    0.19 
   7   0 -12    2.36    0.19 
  -7   0  12    2.37    0.16 
  -7   0  12    2.86    0.24 
  -6   0  12   -0.04    0.11 
  -6   0  12    0.03    0.14 
  -5   0  12   11.59    0.60 
  -4   0  12    2.87    0.25 
  -3   0  12    4.77    0.31 
  -2   0  12   28.49    1.39 
  -1   0 -12   10.39    0.67 
   1   0  12   11.25    0.63 
  -4   0 -12    0.19    0.13 
  -5   0 -12    4.82    0.31 
   5   0  12    4.64    0.32 
  -6   0 -12    0.49    0.12 
   6   0  12    0.43    0.13 
  -7   0 -12    0.11    0.07 
   7   0  12    0.26    0.09 
  -7   1  12    0.07    0.11 
  -7   1  12    0.08    0.11 
  -6   1  12    5.17    0.40 
  -6   1  12    4.89    0.34 
  -6   1  12    4.61    0.28 
  -5   1  12    9.25    0.61 
  -5   1  12    8.57    0.48 
  -5   1  12    8.71    0.51 
  -4   1  12    1.30    0.21 
  -4   1  12    1.25    0.15 
  -4   1  12    1.59    0.19 
  -3   1  12   15.77    0.83 
  -3   1  12   17.37    0.82 
  -3   1  12   16.09    0.99 
  -2   1  12    2.21    0.29 
  -2   1  12    2.49    0.24 
  -2   1  12    2.03    0.31 
  -1   1  12   38.98    2.01 
  -1   1  12   40.89    1.89 
  -1   1  12   38.17    1.92 
   0   1  12    7.57    0.54 
   0   1  12    7.50    0.54 
   0   1  12    8.46    0.50 
   0   1  12    7.60    0.43 
   1   1  12   27.32    1.37 
   1   1  12   29.22    1.41 
   2   1  12    1.29    0.22 
   2   1  12    1.03    0.13 
   3   1  12   15.47    0.78 
   4   1  12   13.33    0.69 
   5   1  12    1.08    0.17 
  -6  -1 -12    4.89    0.31 
   6   1  12    5.11    0.32 
  -7  -1 -12    1.68    0.16 
   7   1  12    1.58    0.17 
  -7   2  12    7.29    0.49 
  -7   2  12    7.25    0.38 
  -6   2  12    0.17    0.18 
  -6   2  12    0.22    0.14 
  -5   2  12    0.15    0.10 
  -5   2  12    0.26    0.18 
  -5   2  12    0.25    0.17 
  -4   2  12    0.54    0.13 
  -4   2  12    0.67    0.18 
  -4   2  12    0.65    0.12 
  -4   2  12    0.63    0.19 
  -3   2  12   26.09    1.21 
  -3   2  12   23.82    1.03 
  -3   2  12   23.43    1.32 
  -3   2  12   25.38    1.20 
  -3   2  12   24.07    1.45 
  -2   2  12    8.45    0.52 
  -2   2  12    7.38    0.46 
  -2   2  12    7.74    0.52 
  -2   2  12    6.96    0.55 
  -2   2  12    7.70    0.41 
  -2   2  12    7.13    0.37 
  -2   2  12    7.33    0.52 
  -1   2  12   -0.24    0.22 
  -1   2  12   -0.34    0.18 
  -1   2  12   -0.06    0.23 
  -1   2  12   -0.07    0.16 
  -1   2  12   -0.18    0.11 
  -1   2  12   -0.06    0.11 
   0   2  12   53.91    2.73 
   0   2  12   53.36    2.59 
   0   2  12   52.79    2.22 
   0   2  12   58.33    2.63 
   0   2  12   54.32    2.59 
   0   2  12   56.04    2.61 
   1   2  12    5.37    0.32 
   1   2  12    5.04    0.42 
   1   2  12    5.54    0.42 
   1   2  12    4.90    0.35 
   1   2  12    5.04    0.42 
   1   2  12    5.86    0.42 
   2   2  12   13.58    0.65 
   2   2  12   12.48    0.66 
   2   2  12   12.30    0.75 
   2   2  12   12.66    0.73 
   2   2  12   12.03    0.73 
   3   2  12   16.69    0.85 
   3   2  12   17.95    0.83 
   3   2  12   15.33    0.91 
   3   2  12   15.48    0.95 
   4   2  12    7.53    0.50 
   4   2  12    7.95    0.44 
   5   2  12    6.72    0.45 
   5   2  12    6.97    0.40 
   6   2  12    1.14    0.14 
   6   2  12    0.99    0.18 
   6   2  12    0.81    0.17 
   7   2  12    0.52    0.12 
   7   2  12    0.59    0.09 
  -6   3  12    2.20    0.31 
  -6   3  12    1.43    0.14 
  -6   3  12    1.71    0.19 
  -6   3  12    1.75    0.19 
  -5   3  12    1.06    0.17 
  -5   3  12    0.84    0.13 
  -5   3  12    1.19    0.21 
  -5   3  12    0.85    0.15 
  -4   3  12    0.27    0.13 
  -4   3  12    0.09    0.17 
  -4   3  12    0.30    0.21 
  -4   3  12    0.38    0.15 
  -4   3  12    0.24    0.20 
  -3   3  12    0.82    0.17 
  -3   3  12    0.59    0.09 
  -3   3  12    0.90    0.18 
  -3   3  12    1.06    0.26 
  -3   3  12    0.76    0.23 
  -3   3  12    0.87    0.21 
  -3   3  12    0.81    0.13 
  -3   3  12    1.07    0.21 
  -2   3  12   12.09    0.49 
  -2   3  12   10.17    0.67 
  -2   3  12    9.99    0.73 
  -2   3  12   11.41    0.52 
  -2   3  12   11.51    0.58 
  -2   3  12   11.02    0.54 
  -2   3  12    9.47    0.65 
  -2   3  12    9.50    0.64 
  -2   3  12    9.87    0.68 
  -1   3  12    4.74    0.39 
  -1   3  12    4.69    0.44 
  -1   3  12    3.74    0.43 
  -1   3  12    4.39    0.36 
  -1   3  12    4.31    0.27 
  -1   3  12    5.10    0.43 
  -1   3  12    4.91    0.27 
  -1   3  12    4.44    0.29 
   0   3  12    1.06    0.13 
   0   3  12    1.32    0.24 
   0   3  12    1.03    0.15 
   0   3  12    0.95    0.11 
   0   3  12    1.14    0.26 
   0   3  12    1.16    0.12 
   0   3  12    0.89    0.24 
   0   3  12    1.17    0.29 
   1   3  12   11.36    0.54 
   1   3  12   11.64    0.51 
   1   3  12   11.83    0.58 
   1   3  12   11.05    0.68 
   1   3  12   11.37    0.75 
   1   3  12   11.68    0.60 
   1   3  12   11.45    0.68 
   1   3  12   11.06    0.67 
   2   3  12    4.70    0.29 
   2   3  12    4.37    0.30 
   2   3  12    4.73    0.42 
   2   3  12    4.95    0.30 
   2   3  12    4.80    0.41 
   2   3  12    4.36    0.39 
   2   3  12    4.78    0.36 
   2   3  12    4.55    0.43 
   3   3  12    3.40    0.25 
   3   3  12    2.52    0.33 
   3   3  12    3.47    0.24 
   3   3  12    2.53    0.34 
   3   3  12    3.28    0.31 
   3   3  12    2.98    0.28 
   4   3  12    4.63    0.46 
   4   3  12    4.76    0.31 
   4   3  12    4.94    0.39 
   4   3  12    4.07    0.30 
   5   3  12    0.65    0.24 
   5   3  12    0.86    0.13 
   5   3  12    0.89    0.18 
   6   3  12    6.47    0.33 
   6   3  12    6.87    0.41 
   6   3  12    5.91    0.40 
   6   3  12    6.47    0.47 
   7   3  12    0.36    0.10 
   7   3  12    0.46    0.11 
  -6   4  12   -0.04    0.15 
  -6   4  12   -0.09    0.10 
  -6   4  12    0.02    0.08 
  -5   4  12    3.15    0.24 
  -5   4  12    3.00    0.21 
  -5   4  12    2.97    0.40 
  -5   4  12    2.99    0.19 
  -4   4  12    6.64    0.34 
  -4   4  12    7.21    0.56 
  -4   4  12    6.74    0.37 
  -4   4  12    6.84    0.39 
  -3   4  12    0.85    0.22 
  -3   4  12    0.93    0.16 
  -3   4  12    0.87    0.14 
  -3   4  12    0.58    0.22 
  -3   4  12    0.53    0.11 
  -2   4  12   10.08    0.58 
  -2   4  12   10.58    0.69 
  -2   4  12   10.30    0.74 
  -2   4  12   11.27    0.51 
  -2   4  12   11.10    0.56 
  -2   4  12   11.13    0.48 
  -2   4  12   10.73    0.73 
  -2   4  12    9.88    0.68 
  -1   4  12    0.12    0.14 
  -1   4  12    0.11    0.23 
  -1   4  12    0.01    0.17 
  -1   4  12    0.12    0.11 
  -1   4  12    0.14    0.16 
  -1   4  12    0.04    0.22 
  -1   4  12    0.11    0.14 
  -1   4  12   -0.02    0.19 
  -1   4  12   -0.02    0.15 
   0   4  12   16.53    0.83 
   0   4  12   14.18    0.96 
   0   4  12   16.77    0.79 
   0   4  12   16.85    1.01 
   0   4  12   14.64    0.84 
   0   4  12   16.65    0.71 
   0   4  12   17.03    0.68 
   0   4  12   15.74    0.89 
   0   4  12   15.43    0.86 
   0   4  12   15.06    0.97 
   1   4  12    7.13    0.53 
   1   4  12    7.04    0.56 
   1   4  12    7.41    0.59 
   1   4  12    8.05    0.44 
   1   4  12    7.90    0.40 
   1   4  12    8.19    0.50 
   1   4  12    7.06    0.51 
   1   4  12    8.21    0.37 
   1   4  12    7.28    0.58 
   2   4  12    0.78    0.24 
   2   4  12    0.71    0.26 
   2   4  12    0.64    0.26 
   2   4  12    0.86    0.20 
   2   4  12    0.85    0.11 
   2   4  12    0.96    0.15 
   2   4  12    0.79    0.14 
   3   4  12    0.97    0.26 
   3   4  12    1.24    0.15 
   3   4  12    1.36    0.13 
   3   4  12    1.51    0.25 
   3   4  12    1.16    0.17 
   3   4  12    1.18    0.20 
   4   4  12    2.07    0.20 
   4   4  12    1.99    0.21 
   4   4  12    2.12    0.27 
   4   4  12    2.30    0.20 
   5   4  12    3.41    0.37 
   5   4  12    3.51    0.26 
   5   4  12    3.41    0.30 
   5   4  12    3.40    0.27 
   6   4  12    0.68    0.13 
   6   4  12    0.53    0.18 
   6   4  12    0.77    0.13 
   7   4  12    0.18    0.07 
  -6   5  12    2.33    0.26 
  -5   5  12    2.21    0.18 
  -5   5  12    2.00    0.25 
  -5   5  12    2.30    0.16 
  -4   5  12    0.66    0.10 
  -4   5  12    0.78    0.14 
  -4   5  12    0.89    0.23 
  -4   5  12    0.55    0.13 
  -3   5  12    3.86    0.43 
  -3   5  12    4.49    0.47 
  -3   5  12    4.09    0.26 
  -3   5  12    3.96    0.24 
  -3   5  12    3.67    0.28 
  -2   5  12   -0.20    0.21 
  -2   5  12    0.04    0.13 
  -2   5  12   -0.14    0.24 
  -2   5  12   -0.02    0.10 
  -2   5  12   -0.25    0.15 
  -1   5  12    1.22    0.14 
  -1   5  12    1.59    0.29 
  -1   5  12    1.36    0.22 
  -1   5  12    1.34    0.17 
  -1   5  12    1.37    0.12 
  -1   5  12    1.12    0.21 
   0   5  12    0.96    0.24 
   0   5  12    0.94    0.14 
   0   5  12    0.69    0.22 
   0   5  12    1.34    0.28 
   0   5  12    1.11    0.11 
   0   5  12    0.80    0.18 
   1   5  12    2.58    0.39 
   1   5  12    2.55    0.37 
   1   5  12    3.07    0.23 
   1   5  12    2.73    0.35 
   1   5  12    3.04    0.22 
   1   5  12    2.91    0.30 
   2   5  12    1.87    0.22 
   2   5  12    2.00    0.28 
   2   5  12    2.27    0.19 
   2   5  12    2.01    0.24 
   2   5  12    1.76    0.21 
   2   5  12    1.95    0.17 
   2   5  12    2.49    0.33 
   3   5  12   -0.12    0.25 
   3   5  12   -0.07    0.20 
   3   5  12   -0.01    0.12 
   3   5  12   -0.10    0.13 
   3   5  12   -0.03    0.11 
   4   5  12    1.64    0.16 
   4   5  12    1.82    0.26 
   4   5  12    1.99    0.20 
   4   5  12    1.72    0.17 
   5   5  12    0.05    0.12 
   5   5  12    0.12    0.10 
   5   5  12    0.02    0.22 
   5   5  12    0.39    0.11 
   6   5  12    0.43    0.11 
   6   5  12    0.70    0.16 
   6   5  12    0.59    0.11 
  -5   6  12    0.63    0.09 
  -5   6  12    0.94    0.20 
  -4   6  12    0.08    0.10 
  -4   6  12    0.15    0.12 
  -4   6  12    0.18    0.20 
  -3   6  12    2.80    0.16 
  -3   6  12    2.78    0.21 
  -3   6  12    3.15    0.43 
  -3   6  12    2.96    0.27 
  -2   6  12    0.22    0.13 
  -2   6  12    0.06    0.21 
  -2   6  12    0.20    0.08 
  -2   6  12    0.06    0.11 
  -2   6  12    0.08    0.20 
  -1   6  12    0.51    0.22 
  -1   6  12    0.33    0.16 
  -1   6  12    0.36    0.12 
  -1   6  12    0.04    0.25 
  -1   6  12    0.43    0.08 
   0   6  12    7.15    0.57 
   0   6  12    7.87    0.46 
   0   6  12    7.32    0.57 
   0   6  12    6.94    0.33 
   0   6  12    7.40    0.36 
   1   6  12    9.72    0.42 
   1   6  12    9.86    0.66 
   1   6  12    9.82    0.67 
   1   6  12   10.06    0.45 
   1   6  12    8.38    0.66 
   2   6  12   -0.12    0.22 
   2   6  12   -0.10    0.24 
   2   6  12    0.10    0.13 
   2   6  12    0.01    0.09 
   2   6  12   -0.10    0.22 
   3   6  12    0.82    0.11 
   3   6  12    1.16    0.22 
   3   6  12    0.94    0.26 
   3   6  12    1.07    0.14 
   4   6  12    0.11    0.12 
   4   6  12    0.48    0.10 
   4   6  12    0.13    0.22 
   5   6  12    0.25    0.08 
   5   6  12    0.24    0.17 
   5   6  12    0.21    0.10 
   6   6  12    0.14    0.05 
   6   6  12    0.04    0.08 
  -4   7  12    0.71    0.10 
  -4   7  12    1.18    0.19 
  -3   7  12    0.13    0.19 
  -3   7  12    0.03    0.12 
  -2   7  12    0.82    0.22 
  -2   7  12    0.56    0.19 
  -2   7  12    0.78    0.15 
  -1   7  12    5.02    0.47 
  -1   7  12    5.33    0.36 
  -1   7  12    4.98    0.48 
   0   7  12    0.06    0.23 
   0   7  12    0.16    0.13 
   0   7  12    0.21    0.20 
   1   7  12    1.39    0.22 
   1   7  12    1.51    0.14 
   1   7  12    1.04    0.25 
   1   7  12    1.83    0.23 
   2   7  12    1.78    0.24 
   2   7  12    2.24    0.32 
   2   7  12    1.42    0.28 
   2   7  12    2.13    0.16 
   3   7  12   -0.35    0.20 
   3   7  12    0.00    0.09 
   3   7  12   -0.12    0.15 
   4   7  12    0.07    0.08 
   4   7  12    0.00    0.13 
   4   7  12   -0.08    0.18 
   5   7  12    0.17    0.14 
   5   7  12    0.09    0.07 
  -2   8  12    0.06    0.09 
  -2   8  12    0.09    0.16 
  -1   8  12   -0.10    0.13 
  -1   8  12    0.11    0.17 
  -1   8  12   -0.08    0.16 
   0   8  12    0.60    0.20 
   0   8  12    0.89    0.19 
   1   8  12    0.65    0.20 
   1   8  12    1.06    0.20 
   2   8  12    0.39    0.18 
   2   8  12    0.31    0.20 
   3   8  12    0.47    0.17 
   3   8  12    0.63    0.15 
   3   5 -13    9.66    0.42 
   2   5 -13    3.14    0.19 
   2   5 -13    2.77    0.20 
   2   5 -13    2.86    0.26 
   1   5 -13    1.87    0.18 
   1   5 -13    1.90    0.17 
   1   5 -13    2.03    0.24 
   0   5 -13    6.67    0.42 
   0   5 -13    6.51    0.31 
   0   5 -13    6.47    0.33 
  -1   5 -13    0.40    0.10 
  -1   5 -13    0.37    0.12 
  -1   5 -13    0.35    0.10 
  -2   5 -13    2.79    0.22 
  -2   5 -13    3.00    0.19 
  -2   5 -13    3.06    0.17 
   4   4 -13    5.04    0.29 
   4   4 -13    4.82    0.32 
   4   4 -13    4.86    0.26 
   3   4 -13    1.33    0.14 
   3   4 -13    0.90    0.16 
   3   4 -13    1.33    0.13 
   2   4 -13    4.25    0.30 
   2   4 -13    4.52    0.35 
   2   4 -13    4.27    0.26 
   1   4 -13   10.19    0.62 
   1   4 -13   10.58    0.54 
   1   4 -13    9.86    0.47 
   0   4 -13    0.72    0.14 
   0   4 -13    0.79    0.16 
   0   4 -13    1.09    0.14 
   0   4 -13    0.88    0.12 
  -1   4 -13    4.60    0.31 
  -1   4 -13    4.44    0.27 
  -1   4 -13    4.65    0.27 
  -1   4 -13    4.67    0.35 
  -2   4 -13    0.17    0.10 
  -2   4 -13    0.26    0.11 
  -2   4 -13    0.07    0.10 
  -2   4 -13   -0.06    0.13 
  -2   4 -13    0.28    0.11 
  -3   4 -13    2.14    0.19 
  -3   4 -13    2.24    0.19 
  -3   4 -13    2.19    0.17 
  -4   4 -13    0.84    0.12 
  -4   4 -13    1.03    0.10 
   5   3 -13    9.51    0.50 
   4   3 -13    0.65    0.10 
   4   3 -13    0.94    0.16 
   3   3 -13    7.14    0.38 
   3   3 -13    7.61    0.43 
   2   3 -13    3.35    0.23 
   2   3 -13    3.29    0.32 
   1   3 -13    2.06    0.19 
   1   3 -13    1.45    0.18 
   1   3 -13    2.86    0.30 
   0   3 -13   16.18    0.81 
   0   3 -13   16.63    0.84 
   0   3 -13   16.85    0.94 
  -1   3 -13    9.19    0.45 
  -1   3 -13   10.33    0.53 
  -1   3 -13    9.75    0.50 
  -1   3 -13    9.72    0.60 
  -2   3 -13   14.26    0.70 
  -2   3 -13   13.03    0.76 
  -2   3 -13   12.90    0.59 
  -2   3 -13   13.55    0.66 
  -3   3 -13    2.85    0.28 
  -3   3 -13    2.62    0.21 
  -3   3 -13    2.84    0.24 
  -4   3 -13    3.20    0.23 
  -4   3 -13    3.32    0.26 
  -4   3 -13    3.66    0.24 
  -5   3 -13    1.69    0.15 
  -5   3 -13    2.06    0.17 
  -5   3 -13    2.10    0.18 
   6   2 -13    5.84    0.28 
  -6  -2  13    5.02    0.31 
   5   2 -13    0.13    0.09 
   4   2 -13    3.08    0.24 
   3   2 -13    1.32    0.15 
   2   2 -13    5.29    0.34 
   1   2 -13    2.86    0.25 
   1   2 -13    2.85    0.27 
   1   2 -13    2.91    0.35 
   0   2 -13    0.39    0.13 
   0   2 -13    0.06    0.20 
   0   2 -13    0.30    0.16 
  -1   2 -13   21.98    1.06 
  -1   2 -13   21.71    1.19 
  -1   2 -13   20.38    1.06 
  -2   2 -13   12.97    0.68 
  -2   2 -13   13.95    0.71 
  -3   2 -13   57.27    2.76 
  -3   2 -13   58.63    2.74 
  -4   2 -13    6.35    0.42 
  -4   2 -13    6.13    0.35 
  -4   2 -13    6.76    0.38 
  -5   2 -13    1.17    0.16 
  -5   2 -13    1.11    0.14 
   6   1 -13    0.21    0.09 
  -6  -1  13    0.12    0.10 
   5   1 -13   11.87    0.61 
  -5  -1  13   11.49    0.61 
   4   1 -13   -0.01    0.12 
  -4  -1  13    0.02    0.13 
   3   1 -13   19.54    0.98 
   2   1 -13    2.30    0.23 
   1   1 -13    0.42    0.13 
   0   1 -13   12.33    0.63 
   0   1 -13   11.68    0.76 
  -1   1 -13    2.42    0.31 
  -1   1 -13    3.14    0.27 
  -2   1 -13   18.57    0.93 
  -3   1 -13    6.07    0.38 
  -4   1 -13    0.29    0.13 
  -5   1 -13    7.06    0.40 
  -5   1 -13    7.93    0.42 
  -6   1 -13    0.32    0.06 
  -6   1 -13    0.49    0.10 
  -6   1 -13    0.40    0.12 
   6   0 -13    5.63    0.35 
  -6   0  13    6.44    0.42 
  -6   0  13    6.59    0.35 
  -5   0  13    0.04    0.13 
  -5   0  13    0.19    0.15 
  -4   0  13   26.37    1.29 
  -3   0  13    1.23    0.15 
  -2   0  13    5.05    0.33 
  -1   0  13   15.01    0.76 
   0   0  13    1.32    0.25 
  -1   0 -13    7.30    0.53 
   1   0  13    8.30    0.49 
  -3   0 -13   17.11    0.86 
  -4   0 -13    3.94    0.30 
   4   0  13    3.91    0.30 
  -5   0 -13    1.19    0.14 
   5   0  13    0.68    0.16 
  -6   0 -13    2.93    0.21 
   6   0  13    2.63    0.23 
  -6   1  13   -0.01    0.14 
  -6   1  13   -0.01    0.08 
  -6   1  13   -0.04    0.15 
  -5   1  13   11.14    0.70 
  -5   1  13   10.51    0.56 
  -5   1  13   11.03    0.59 
  -4   1  13    2.35    0.24 
  -4   1  13    2.33    0.23 
  -3   1  13   11.81    0.61 
  -3   1  13   11.28    0.64 
  -2   1  13    8.80    0.48 
  -1   1  13    1.15    0.13 
  -1   1  13    1.12    0.26 
   0   1  13   22.78    1.19 
   0   1  13   23.44    1.14 
   1   1  13    0.89    0.24 
   1   1  13    1.40    0.15 
   2   1  13   26.82    1.27 
   2   1  13   24.87    1.31 
   3   1  13    6.03    0.37 
   4   1  13    3.73    0.31 
   5   1  13    5.02    0.34 
  -6  -1 -13   -0.01    0.11 
   6   1  13    0.05    0.12 
  -7  -1 -13    1.17    0.12 
   7   1  13    1.20    0.12 
  -6   2  13    3.90    0.28 
  -6   2  13    3.65    0.34 
  -5   2  13   -0.17    0.07 
  -5   2  13    0.14    0.16 
  -5   2  13   -0.10    0.16 
  -4   2  13   18.55    0.92 
  -4   2  13   18.05    1.10 
  -4   2  13   17.92    0.89 
  -3   2  13    2.70    0.26 
  -3   2  13    3.12    0.25 
  -3   2  13    2.83    0.36 
  -3   2  13    3.13    0.33 
  -2   2  13    7.40    0.45 
  -2   2  13    5.99    0.54 
  -2   2  13    6.09    0.52 
  -2   2  13    6.95    0.36 
  -2   2  13    7.29    0.40 
  -2   2  13    7.12    0.53 
  -1   2  13   15.83    0.81 
  -1   2  13   15.46    0.68 
  -1   2  13   16.97    0.79 
  -1   2  13   14.84    0.89 
  -1   2  13   16.90    0.87 
  -1   2  13   14.05    0.88 
   0   2  13    3.12    0.33 
   0   2  13    2.63    0.31 
   0   2  13    2.12    0.31 
   0   2  13    2.61    0.23 
   0   2  13    2.10    0.29 
   1   2  13   13.63    0.89 
   1   2  13   15.73    0.91 
   1   2  13   16.10    0.82 
   1   2  13   17.01    0.99 
   1   2  13   17.35    0.81 
   1   2  13   16.63    0.90 
   2   2  13    2.95    0.38 
   2   2  13    4.70    0.29 
   2   2  13    4.56    0.40 
   2   2  13    4.02    0.36 
   2   2  13    3.68    0.43 
   3   2  13    2.43    0.21 
   3   2  13    2.57    0.25 
   4   2  13   27.07    1.31 
   4   2  13   26.40    1.31 
   5   2  13   -0.14    0.13 
   5   2  13   -0.08    0.19 
   5   2  13    0.08    0.19 
   6   2  13    2.49    0.21 
   6   2  13    2.66    0.29 
   6   2  13    2.24    0.21 
  -6   3  13    0.20    0.09 
  -6   3  13    0.15    0.09 
  -6   3  13    0.27    0.14 
  -5   3  13    1.89    0.22 
  -5   3  13    1.53    0.21 
  -5   3  13    1.13    0.15 
  -5   3  13    1.12    0.13 
  -4   3  13    0.03    0.15 
  -4   3  13    0.36    0.19 
  -4   3  13    0.01    0.21 
  -4   3  13    0.10    0.16 
  -4   3  13    0.09    0.12 
  -3   3  13   22.33    1.28 
  -3   3  13   20.70    1.25 
  -3   3  13   20.76    0.88 
  -3   3  13   19.30    0.91 
  -3   3  13   21.24    1.03 
  -2   3  13   47.30    2.07 
  -2   3  13   42.20    2.59 
  -2   3  13   49.44    2.33 
  -2   3  13   48.90    2.00 
  -2   3  13   56.79    2.83 
  -2   3  13   48.20    2.82 
  -2   3  13   51.68    2.34 
  -1   3  13   36.95    1.56 
  -1   3  13   38.52    1.77 
  -1   3  13   37.38    1.51 
  -1   3  13   36.14    1.84 
  -1   3  13   38.33    1.77 
  -1   3  13   34.35    1.88 
  -1   3  13   32.04    1.79 
  -1   3  13   41.13    2.15 
   0   3  13   15.63    0.92 
   0   3  13   15.21    0.73 
   0   3  13   16.52    0.70 
   0   3  13   15.69    0.90 
   0   3  13   16.49    0.83 
   0   3  13   16.91    0.81 
   0   3  13   16.93    0.91 
   0   3  13   17.64    1.01 
   1   3  13    0.48    0.12 
   1   3  13    0.28    0.18 
   1   3  13    0.45    0.12 
   1   3  13    0.57    0.15 
   1   3  13    0.42    0.23 
   1   3  13    0.58    0.26 
   1   3  13    0.55    0.22 
   1   3  13    0.71    0.16 
   2   3  13    1.47    0.27 
   2   3  13    1.97    0.19 
   2   3  13    2.04    0.20 
   2   3  13    1.54    0.20 
   2   3  13    1.47    0.17 
   2   3  13    1.65    0.31 
   2   3  13    1.74    0.17 
   3   3  13    4.09    0.36 
   3   3  13    4.05    0.27 
   3   3  13    3.90    0.26 
   4   3  13    1.12    0.23 
   4   3  13    1.00    0.14 
   4   3  13    0.91    0.20 
   5   3  13    1.89    0.18 
   5   3  13    2.03    0.24 
   5   3  13    2.32    0.28 
   6   3  13    0.93    0.17 
   6   3  13    0.69    0.13 
  -6   4  13    0.39    0.08 
  -6   4  13    0.16    0.13 
  -6   4  13    0.35    0.10 
  -5   4  13    0.00    0.13 
  -5   4  13    0.06    0.17 
  -5   4  13    0.07    0.09 
  -4   4  13    3.91    0.27 
  -4   4  13    4.08    0.25 
  -4   4  13    3.92    0.27 
  -4   4  13    3.88    0.43 
  -3   4  13    7.20    0.40 
  -3   4  13    6.81    0.55 
  -3   4  13    6.66    0.58 
  -3   4  13    6.50    0.37 
  -3   4  13    7.03    0.35 
  -2   4  13    4.87    0.48 
  -2   4  13    4.75    0.46 
  -2   4  13    5.76    0.33 
  -2   4  13    5.15    0.48 
  -2   4  13    6.20    0.56 
  -2   4  13    5.42    0.35 
  -2   4  13    5.57    0.30 
  -1   4  13    8.72    0.69 
  -1   4  13    8.28    0.62 
  -1   4  13    8.96    0.49 
  -1   4  13    9.51    0.43 
  -1   4  13    8.95    0.44 
  -1   4  13    8.38    0.62 
   0   4  13    0.20    0.24 
   0   4  13    0.13    0.17 
   0   4  13    0.30    0.15 
   0   4  13    0.28    0.12 
   0   4  13    0.38    0.15 
   0   4  13    0.08    0.20 
   0   4  13    0.45    0.22 
   0   4  13    0.22    0.15 
   1   4  13    4.81    0.50 
   1   4  13    5.36    0.48 
   1   4  13    5.22    0.51 
   1   4  13    5.87    0.36 
   1   4  13    5.96    0.31 
   1   4  13    5.46    0.33 
   2   4  13   -0.04    0.15 
   2   4  13   -0.08    0.29 
   2   4  13    0.00    0.13 
   2   4  13    0.24    0.22 
   2   4  13   -0.06    0.20 
   2   4  13   -0.13    0.16 
   3   4  13    6.64    0.39 
   3   4  13    7.24    0.45 
   3   4  13    7.17    0.37 
   3   4  13    7.56    0.58 
   4   4  13    7.38    0.44 
   4   4  13    6.51    0.39 
   4   4  13    6.68    0.35 
   4   4  13    7.73    0.55 
   5   4  13    0.32    0.19 
   5   4  13    0.46    0.14 
   5   4  13    0.17    0.12 
   6   4  13    2.31    0.21 
   6   4  13    2.54    0.29 
   6   4  13    2.26    0.20 
  -5   5  13    0.14    0.07 
  -5   5  13    0.17    0.10 
  -5   5  13    0.15    0.16 
  -4   5  13    1.87    0.19 
  -4   5  13    1.12    0.25 
  -4   5  13    1.98    0.16 
  -3   5  13    0.85    0.14 
  -3   5  13    0.88    0.11 
  -3   5  13    1.51    0.23 
  -3   5  13    0.78    0.22 
  -3   5  13    0.97    0.12 
  -2   5  13    3.06    0.21 
  -2   5  13    2.40    0.27 
  -2   5  13    3.06    0.24 
  -2   5  13    2.80    0.27 
  -2   5  13    3.01    0.41 
  -1   5  13    4.10    0.27 
  -1   5  13    3.99    0.23 
  -1   5  13    4.27    0.32 
  -1   5  13    3.60    0.46 
  -1   5  13    3.70    0.42 
   0   5  13    2.88    0.42 
   0   5  13    2.85    0.29 
   0   5  13    3.22    0.24 
   0   5  13    3.21    0.22 
   0   5  13    3.32    0.27 
   1   5  13   -0.17    0.23 
   1   5  13    0.15    0.20 
   1   5  13    0.07    0.21 
   1   5  13    0.11    0.12 
   1   5  13   -0.05    0.13 
   2   5  13    2.63    0.23 
   2   5  13    3.10    0.25 
   2   5  13    3.08    0.44 
   2   5  13    3.03    0.40 
   2   5  13    3.04    0.23 
   3   5  13    0.01    0.12 
   3   5  13    0.09    0.11 
   3   5  13   -0.14    0.14 
   3   5  13    0.04    0.25 
   3   5  13    0.13    0.16 
   4   5  13    0.54    0.14 
   4   5  13    0.89    0.23 
   4   5  13    0.51    0.12 
   4   5  13    0.43    0.11 
   5   5  13    2.67    0.32 
   5   5  13    2.61    0.20 
   5   5  13    2.55    0.18 
   5   5  13    2.62    0.22 
   6   5  13   -0.01    0.12 
   6   5  13   -0.07    0.07 
   6   5  13   -0.13    0.09 
  -4   6  13    0.12    0.18 
  -4   6  13    0.05    0.09 
  -3   6  13    0.98    0.21 
  -3   6  13    1.06    0.13 
  -3   6  13    0.78    0.13 
  -2   6  13    4.57    0.22 
  -2   6  13    3.63    0.42 
  -2   6  13    4.63    0.32 
  -2   6  13    4.45    0.44 
  -2   6  13    4.22    0.25 
  -1   6  13    4.85    0.35 
  -1   6  13    5.00    0.46 
  -1   6  13    5.16    0.28 
  -1   6  13    3.38    0.50 
  -1   6  13    5.01    0.24 
   0   6  13    0.02    0.16 
   0   6  13   -0.01    0.21 
   0   6  13   -0.19    0.12 
   0   6  13   -0.06    0.09 
   0   6  13   -0.16    0.22 
   1   6  13    1.10    0.20 
   1   6  13    1.52    0.14 
   1   6  13    1.16    0.11 
   1   6  13    1.15    0.21 
   1   6  13    1.13    0.25 
   2   6  13   -0.21    0.23 
   2   6  13    0.11    0.22 
   2   6  13    0.03    0.13 
   2   6  13   -0.03    0.17 
   2   6  13    0.14    0.09 
   3   6  13   -0.02    0.18 
   3   6  13    0.20    0.09 
   3   6  13    0.18    0.12 
   3   6  13    0.17    0.23 
   4   6  13    2.53    0.18 
   4   6  13    2.61    0.36 
   4   6  13    2.50    0.21 
   5   6  13    2.76    0.29 
   5   6  13    2.72    0.19 
   5   6  13    2.74    0.17 
  -3   7  13    0.85    0.11 
  -3   7  13    0.93    0.18 
  -2   7  13    3.50    0.37 
  -2   7  13    4.29    0.40 
  -2   7  13    3.87    0.28 
  -1   7  13    0.91    0.16 
  -1   7  13    0.92    0.22 
   0   7  13    7.13    0.49 
   0   7  13    5.45    0.53 
   1   7  13    0.44    0.18 
   1   7  13    0.52    0.22 
   1   7  13    0.60    0.19 
   1   7  13    0.31    0.09 
   2   7  13   -0.08    0.20 
   2   7  13   -0.09    0.16 
   2   7  13    0.13    0.19 
   2   7  13   -0.06    0.09 
   3   7  13   -0.06    0.08 
   3   7  13    0.05    0.15 
   3   7  13   -0.12    0.19 
   4   7  13    0.31    0.08 
   4   7  13    0.45    0.17 
  -2   8  13   -0.31    0.13 
  -1   8  13    1.18    0.19 
  -1   8  13    1.40    0.20 
   0   8  13   -0.25    0.18 
   0   8  13   -0.03    0.16 
   1   8  13   -0.15    0.17 
   1   8  13   -0.18    0.17 
   2   8  13    0.57    0.16 
   2   8  13    0.63    0.17 
   3   8  13    0.05    0.12 
   3   8  13    0.12    0.16 
   2   5 -14    5.40    0.25 
   2   5 -14    5.14    0.33 
   1   5 -14    0.53    0.08 
   1   5 -14    0.26    0.11 
   0   5 -14    1.81    0.14 
   0   5 -14    1.67    0.20 
   0   5 -14    1.82    0.16 
  -1   5 -14    1.89    0.14 
  -1   5 -14    1.94    0.19 
   4   4 -14    0.05    0.07 
   3   4 -14    8.50    0.42 
   3   4 -14    7.99    0.48 
   3   4 -14    7.63    0.37 
   2   4 -14   -0.24    0.12 
   2   4 -14   -0.02    0.09 
   2   4 -14   -0.06    0.10 
   1   4 -14    3.49    0.27 
   1   4 -14    3.30    0.21 
   1   4 -14    3.15    0.25 
   0   4 -14    1.14    0.13 
   0   4 -14    0.92    0.15 
   0   4 -14    0.88    0.12 
  -1   4 -14    1.29    0.11 
  -1   4 -14    1.09    0.13 
  -1   4 -14    0.88    0.14 
  -2   4 -14    0.99    0.12 
  -2   4 -14    1.15    0.12 
  -2   4 -14    1.08    0.12 
  -3   4 -14    0.14    0.08 
  -3   4 -14    0.10    0.09 
   5   3 -14    0.23    0.09 
   4   3 -14    9.64    0.50 
   4   3 -14    9.34    0.55 
   3   3 -14    0.20    0.14 
   3   3 -14    0.31    0.08 
   2   3 -14   12.19    0.61 
   2   3 -14   11.75    0.68 
   2   3 -14   10.91    0.57 
   1   3 -14    1.33    0.16 
   1   3 -14    1.22    0.18 
   1   3 -14    1.62    0.17 
   0   3 -14    5.70    0.40 
   0   3 -14    5.40    0.30 
   0   3 -14    5.64    0.36 
  -1   3 -14    6.93    0.47 
  -1   3 -14    7.00    0.39 
  -1   3 -14    6.54    0.35 
  -1   3 -14    7.29    0.42 
  -2   3 -14    0.03    0.11 
  -2   3 -14   -0.15    0.12 
  -3   3 -14    5.58    0.34 
  -3   3 -14    5.10    0.33 
  -4   3 -14    2.49    0.21 
  -4   3 -14    2.38    0.21 
   5   2 -14    7.53    0.37 
  -5  -2  14    6.57    0.39 
   4   2 -14    1.04    0.12 
   3   2 -14   15.96    0.79 
   2   2 -14    0.24    0.14 
   1   2 -14   24.46    1.21 
   1   2 -14   25.08    1.21 
   0   2 -14    8.30    0.45 
   0   2 -14    7.74    0.48 
  -1   2 -14    0.31    0.14 
  -1   2 -14    0.17    0.12 
  -1   2 -14    0.13    0.15 
  -2   2 -14    0.20    0.12 
  -2   2 -14    0.09    0.15 
  -3   2 -14   21.43    1.07 
  -3   2 -14   22.13    1.06 
  -4   2 -14    2.24    0.26 
  -4   2 -14    2.22    0.23 
  -4   2 -14    2.16    0.17 
  -5   2 -14    1.46    0.18 
  -5   2 -14    1.55    0.18 
   6   1 -14    0.79    0.09 
  -6  -1  14    0.80    0.11 
   5   1 -14    1.85    0.19 
  -5  -1  14    1.77    0.20 
   4   1 -14   12.05    0.63 
  -4  -1  14   12.47    0.63 
   3   1 -14    2.12    0.25 
   2   1 -14   32.42    1.57 
   1   1 -14    3.51    0.27 
   0   1 -14    8.05    0.41 
   0   1 -14    6.29    0.52 
   0  -1  14    6.91    0.48 
  -1   1 -14    6.82    0.40 
  -2   1 -14    0.02    0.14 
  -3   1 -14    4.88    0.33 
  -4   1 -14    0.41    0.12 
  -5   1 -14    0.17    0.09 
  -5   1 -14    0.23    0.11 
  -5   1 -14    0.07    0.12 
   6   0 -14    3.17    0.21 
  -6   0  14    3.27    0.20 
  -5   0  14   10.69    0.55 
  -4   0  14   -0.11    0.14 
  -3   0  14   13.88    0.72 
  -2   0  14    0.76    0.17 
  -1   0  14    8.92    0.51 
   0   0 -14    4.14    0.38 
   0   0  14    4.86    0.31 
   1   0  14    6.29    0.38 
   2   0  14   11.12    0.59 
  -3   0 -14   -0.12    0.14 
   3   0  14   -0.15    0.14 
  -4   0 -14    3.82    0.29 
   4   0  14    3.66    0.30 
  -5   0 -14    1.39    0.14 
   5   0  14    1.15    0.16 
  -6   0 -14    2.30    0.16 
   6   0  14    2.24    0.19 
  -6   1  14    0.54    0.14 
  -6   1  14    0.44    0.13 
  -5   1  14    0.37    0.16 
  -5   1  14    0.29    0.10 
  -5   1  14    0.26    0.16 
  -4   1  14   12.64    0.68 
  -4   1  14   12.64    0.65 
  -3   1  14    0.26    0.14 
  -3   1  14    0.13    0.19 
  -2   1  14    3.87    0.37 
  -2   1  14    4.13    0.30 
  -1   1  14    1.15    0.15 
  -1   1  14    0.85    0.25 
   0   1  14   15.89    0.90 
   0   1  14   17.29    0.84 
   1   1  14   14.19    0.82 
   1   1  14   15.82    0.77 
   2   1  14    1.69    0.18 
   3   1  14   11.86    0.62 
   4   1  14    2.77    0.26 
  -5  -1 -14    0.50    0.13 
   5   1  14    0.44    0.14 
  -6  -1 -14    2.15    0.19 
   6   1  14    1.99    0.19 
  -6   2  14    0.61    0.14 
  -6   2  14    0.92    0.14 
  -5   2  14    2.63    0.28 
  -5   2  14    2.92    0.35 
  -4   2  14    0.33    0.19 
  -4   2  14    0.69    0.19 
  -4   2  14    0.40    0.11 
  -3   2  14   22.84    1.12 
  -3   2  14   23.46    1.14 
  -2   2  14    8.33    0.50 
  -2   2  14    8.40    0.46 
  -1   2  14    5.19    0.39 
  -1   2  14    5.52    0.44 
  -1   2  14    5.73    0.34 
  -1   2  14    4.90    0.45 
   0   2  14   16.98    0.79 
   0   2  14   16.02    0.81 
   0   2  14   15.00    0.86 
   0   2  14   13.81    0.90 
   1   2  14    0.21    0.20 
   1   2  14    0.43    0.24 
   1   2  14    0.68    0.21 
   1   2  14    0.36    0.18 
   1   2  14    0.59    0.14 
   2   2  14    4.37    0.40 
   2   2  14    5.30    0.32 
   2   2  14    4.79    0.38 
   3   2  14    0.23    0.18 
   3   2  14    0.42    0.14 
   4   2  14   -0.10    0.18 
   4   2  14   -0.06    0.14 
   5   2  14    0.65    0.17 
   5   2  14    1.04    0.20 
   5   2  14    0.65    0.13 
   6   2  14    0.65    0.10 
   6   2  14    0.51    0.13 
   6   2  14    0.56    0.15 
  -6   3  14    1.16    0.16 
  -6   3  14    0.71    0.09 
  -5   3  14    5.13    0.42 
  -5   3  14    4.30    0.27 
  -5   3  14    4.53    0.26 
  -5   3  14    4.66    0.29 
  -4   3  14    4.95    0.29 
  -4   3  14    5.19    0.34 
  -4   3  14    5.04    0.43 
  -4   3  14    5.10    0.45 
  -3   3  14    2.68    0.28 
  -3   3  14    2.08    0.24 
  -3   3  14    2.36    0.23 
  -3   3  14    2.44    0.25 
  -3   3  14    1.72    0.28 
  -2   3  14    2.18    0.16 
  -2   3  14    1.53    0.23 
  -2   3  14    2.04    0.25 
  -2   3  14    1.69    0.21 
  -2   3  14    2.05    0.21 
  -2   3  14    1.89    0.19 
  -1   3  14   42.01    1.92 
  -1   3  14   42.31    2.32 
  -1   3  14   39.30    1.64 
  -1   3  14   39.24    1.70 
  -1   3  14   36.41    1.98 
  -1   3  14   41.44    1.92 
   0   3  14    0.12    0.11 
   0   3  14    0.04    0.15 
   0   3  14    0.40    0.13 
   0   3  14    0.74    0.27 
   0   3  14    0.54    0.21 
   0   3  14   -0.01    0.18 
   1   3  14    5.02    0.30 
   1   3  14    5.06    0.30 
   1   3  14    4.32    0.31 
   1   3  14    4.79    0.42 
   1   3  14    4.93    0.46 
   1   3  14    4.97    0.38 
   2   3  14    0.65    0.13 
   2   3  14    0.87    0.18 
   2   3  14    0.74    0.12 
   2   3  14    0.46    0.15 
   2   3  14    0.73    0.17 
   2   3  14    0.70    0.26 
   3   3  14    2.58    0.23 
   3   3  14    2.47    0.25 
   3   3  14    2.66    0.23 
   4   3  14    0.26    0.16 
   4   3  14    0.16    0.10 
   4   3  14    0.23    0.22 
   5   3  14    5.42    0.44 
   5   3  14    4.70    0.27 
   5   3  14    5.36    0.37 
   6   3  14   -0.15    0.12 
   6   3  14   -0.09    0.14 
  -5   4  14    1.74    0.16 
  -5   4  14    1.85    0.22 
  -5   4  14    1.77    0.19 
  -4   4  14   -0.01    0.10 
  -4   4  14    0.12    0.17 
  -4   4  14    0.01    0.12 
  -4   4  14    0.06    0.10 
  -3   4  14    3.27    0.26 
  -3   4  14    3.42    0.38 
  -3   4  14    3.29    0.23 
  -3   4  14    2.87    0.26 
  -3   4  14    3.18    0.44 
  -2   4  14    6.39    0.38 
  -2   4  14    5.94    0.50 
  -2   4  14    6.13    0.33 
  -2   4  14    6.68    0.55 
  -2   4  14    6.53    0.36 
  -1   4  14    0.06    0.22 
  -1   4  14   -0.09    0.12 
  -1   4  14   -0.25    0.14 
  -1   4  14   -0.31    0.20 
  -1   4  14   -0.14    0.15 
   0   4  14    0.18    0.25 
   0   4  14    0.23    0.16 
   0   4  14    0.11    0.15 
   0   4  14    0.06    0.12 
   0   4  14    0.41    0.27 
   1   4  14    1.32    0.17 
   1   4  14    0.88    0.29 
   1   4  14    1.11    0.13 
   1   4  14    1.27    0.20 
   1   4  14    1.13    0.16 
   2   4  14    8.70    0.48 
   2   4  14    9.09    0.65 
   2   4  14    8.05    0.44 
   2   4  14    8.58    0.42 
   2   4  14    8.24    0.61 
   3   4  14    0.34    0.14 
   3   4  14    0.56    0.24 
   3   4  14    0.54    0.13 
   3   4  14    0.45    0.16 
   4   4  14    0.80    0.15 
   4   4  14    1.26    0.15 
   4   4  14    1.11    0.26 
   4   4  14    1.52    0.17 
   5   4  14    1.05    0.15 
   5   4  14    0.83    0.22 
   5   4  14    1.23    0.13 
   6   4  14   -0.06    0.08 
   6   4  14    0.15    0.13 
   6   4  14   -0.01    0.09 
  -5   5  14    0.01    0.13 
  -5   5  14   -0.04    0.09 
  -5   5  14    0.01    0.06 
  -4   5  14    0.13    0.11 
  -4   5  14    0.16    0.08 
  -4   5  14    0.42    0.17 
  -3   5  14    0.27    0.18 
  -3   5  14    0.18    0.13 
  -3   5  14    0.31    0.10 
  -3   5  14    0.30    0.21 
  -2   5  14    1.62    0.24 
  -2   5  14    2.35    0.21 
  -2   5  14    1.99    0.17 
  -2   5  14    1.94    0.28 
  -1   5  14    1.91    0.24 
  -1   5  14    2.41    0.23 
  -1   5  14    2.04    0.24 
  -1   5  14    2.25    0.27 
  -1   5  14    2.56    0.20 
   0   5  14    0.61    0.19 
   0   5  14    0.80    0.21 
   0   5  14    0.56    0.12 
   0   5  14    0.43    0.15 
   1   5  14    6.38    0.50 
   1   5  14    7.35    0.37 
   1   5  14    7.41    0.35 
   1   5  14    6.46    0.58 
   1   5  14    7.22    0.58 
   2   5  14    0.18    0.21 
   2   5  14   -0.07    0.10 
   2   5  14   -0.10    0.10 
   2   5  14   -0.09    0.15 
   2   5  14    0.13    0.28 
   3   5  14    3.97    0.39 
   3   5  14    4.91    0.46 
   3   5  14    4.21    0.28 
   3   5  14    4.32    0.26 
   3   5  14    4.55    0.29 
   4   5  14    1.34    0.13 
   4   5  14    1.85    0.17 
   4   5  14    1.61    0.15 
   4   5  14    1.54    0.25 
   5   5  14    0.43    0.11 
   5   5  14    0.50    0.11 
   5   5  14    0.41    0.17 
  -4   6  14    0.63    0.15 
  -4   6  14    0.68    0.09 
  -3   6  14    3.70    0.37 
  -3   6  14    3.72    0.22 
  -2   6  14    2.19    0.26 
  -2   6  14    2.08    0.26 
  -2   6  14    2.09    0.23 
  -2   6  14    2.57    0.20 
  -2   6  14    2.48    0.15 
  -1   6  14   -0.14    0.12 
  -1   6  14   -0.10    0.08 
  -1   6  14   -0.04    0.24 
  -1   6  14    0.04    0.11 
  -1   6  14   -0.08    0.21 
   0   6  14    2.71    0.34 
   0   6  14    1.89    0.26 
   0   6  14    2.59    0.17 
   0   6  14    2.51    0.21 
   1   6  14   -0.16    0.17 
   1   6  14   -0.12    0.12 
   1   6  14   -0.15    0.19 
   1   6  14   -0.07    0.23 
   1   6  14   -0.14    0.08 
   2   6  14    3.39    0.23 
   2   6  14    2.94    0.35 
   2   6  14    2.81    0.40 
   2   6  14    3.35    0.20 
   2   6  14    2.59    0.34 
   3   6  14    0.20    0.11 
   3   6  14   -0.05    0.22 
   3   6  14    0.13    0.08 
   3   6  14    0.16    0.16 
   4   6  14    0.16    0.22 
   4   6  14    0.22    0.08 
   4   6  14    0.24    0.11 
   5   6  14    2.59    0.15 
   5   6  14    2.85    0.27 
   5   6  14    2.64    0.17 
  -3   7  14   -0.14    0.13 
  -2   7  14    0.11    0.17 
  -2   7  14    0.16    0.10 
  -2   7  14    0.37    0.19 
  -1   7  14   -0.41    0.19 
  -1   7  14   -0.16    0.17 
   0   7  14    1.06    0.20 
   0   7  14    0.79    0.23 
   1   7  14    0.09    0.18 
   1   7  14    0.14    0.09 
   1   7  14    0.05    0.16 
   2   7  14    0.12    0.08 
   2   7  14   -0.12    0.16 
   2   7  14    0.15    0.18 
   2   7  14    0.29    0.21 
   3   7  14    2.79    0.29 
   3   7  14    3.04    0.33 
   3   7  14    3.00    0.18 
   4   7  14    0.29    0.07 
   4   7  14    0.29    0.15 
  -1   8  14   -0.07    0.13 
   0   8  14    0.02    0.14 
   0   8  14   -0.06    0.15 
   1   8  14    1.51    0.19 
   1   8  14    1.50    0.22 
   2   8  14   -0.11    0.13 
   3   4 -15    0.36    0.09 
   3   4 -15    0.65    0.09 
   2   4 -15   11.41    0.55 
   2   4 -15   11.34    0.63 
   2   4 -15   10.50    0.47 
   1   4 -15    0.04    0.08 
   1   4 -15    0.07    0.09 
   1   4 -15    0.12    0.11 
   0   4 -15    5.84    0.38 
   0   4 -15    5.88    0.32 
   0   4 -15    5.97    0.28 
  -1   4 -15    0.15    0.08 
  -1   4 -15    0.19    0.09 
  -1   4 -15    0.24    0.11 
  -2   4 -15    5.46    0.26 
   4   3 -15    0.76    0.11 
   3   3 -15    1.96    0.23 
   3   3 -15    1.70    0.17 
   2   3 -15    0.11    0.05 
   2   3 -15    0.24    0.13 
   2   3 -15    0.24    0.13 
   1   3 -15   13.20    0.74 
   1   3 -15   13.66    0.67 
   1   3 -15   12.09    0.62 
   0   3 -15    2.19    0.26 
   0   3 -15    1.79    0.13 
   0   3 -15    2.23    0.25 
  -1   3 -15    6.66    0.43 
  -1   3 -15    6.74    0.37 
  -1   3 -15    7.40    0.41 
  -2   3 -15    0.96    0.12 
  -2   3 -15    1.06    0.14 
  -3   3 -15    0.79    0.10 
  -3   3 -15    0.81    0.12 
  -4   3 -15    1.12    0.14 
   5   2 -15    1.98    0.12 
  -5  -2  15    1.93    0.17 
   4   2 -15    5.29    0.29 
   3   2 -15    1.45    0.18 
   2   2 -15   10.63    0.53 
   2   2 -15    9.84    0.56 
   1   2 -15   -0.12    0.12 
   1   2 -15   -0.24    0.15 
   0   2 -15   11.36    0.58 
   0   2 -15   10.95    0.60 
   0   2 -15   11.34    0.66 
  -1   2 -15    2.03    0.21 
  -1   2 -15    1.68    0.18 
  -1   2 -15    1.93    0.24 
  -2   2 -15    7.68    0.42 
  -2   2 -15    7.99    0.45 
  -3   2 -15    0.33    0.08 
  -3   2 -15    0.17    0.13 
  -4   2 -15    0.22    0.11 
  -4   2 -15    0.19    0.11 
   5   1 -15    2.35    0.18 
  -5  -1  15    2.34    0.20 
   4   1 -15    3.02    0.24 
  -4  -1  15    3.22    0.26 
   3   1 -15    4.45    0.28 
  -3  -1  15    4.25    0.30 
   2   1 -15    0.78    0.14 
   1   1 -15   11.07    0.59 
   0   1 -15    1.11    0.15 
  -1   1 -15    0.69    0.14 
  -1   1 -15    1.10    0.14 
  -2   1 -15    1.71    0.16 
  -3   1 -15    2.64    0.23 
  -4   1 -15   17.45    0.86 
  -5   1 -15    6.35    0.32 
  -5   1 -15    6.31    0.31 
  -5   1 -15    6.28    0.36 
   5  -1  15    4.92    0.34 
   5   0 -15    4.43    0.28 
  -5   0  15    4.74    0.28 
  -4   0  15   10.63    0.56 
  -3   0  15    2.06    0.25 
  -2   0  15    4.61    0.32 
  -1   0  15    3.85    0.29 
   0   0  15    4.98    0.35 
   1   0  15    4.00    0.31 
  -2   0 -15    1.97    0.21 
   2   0  15    1.62    0.19 
  -3   0 -15   10.04    0.53 
   3   0  15    9.65    0.54 
  -4   0 -15    0.13    0.12 
   4   0  15    0.20    0.15 
  -5   0 -15    4.39    0.27 
   5   0  15    4.23    0.28 
  -6   1  15    4.94    0.29 
  -5   1  15    0.68    0.15 
  -5   1  15    0.59    0.08 
  -4   1  15    6.00    0.40 
  -4   1  15    6.04    0.35 
  -3   1  15    8.00    0.44 
  -3   1  15    7.64    0.49 
  -2   1  15    6.56    0.39 
  -2   1  15    6.35    0.44 
  -1   1  15   14.65    0.75 
   0   1  15    4.18    0.31 
   1   1  15    0.79    0.15 
   2   1  15   11.55    0.61 
   3   1  15    0.04    0.14 
   4   1  15    4.38    0.30 
  -5  -1 -15    0.04    0.11 
   5   1  15   -0.13    0.11 
  -6  -1 -15    1.88    0.15 
   6   1  15    1.68    0.14 
  -5   2  15    5.02    0.32 
  -5   2  15    4.69    0.38 
  -4   2  15    6.89    0.41 
  -4   2  15    6.56    0.48 
  -4   2  15    6.39    0.33 
  -3   2  15    0.14    0.11 
  -3   2  15    0.40    0.18 
  -2   2  15    4.08    0.27 
  -2   2  15    3.61    0.36 
  -1   2  15    0.25    0.18 
  -1   2  15    0.23    0.12 
   0   2  15    5.02    0.32 
   0   2  15    4.50    0.40 
   1   2  15    9.91    0.52 
   1   2  15    9.91    0.56 
   1   2  15    9.50    0.64 
   2   2  15    0.02    0.17 
   2   2  15    0.05    0.13 
   3   2  15    7.93    0.43 
   3   2  15    7.72    0.48 
   4   2  15    0.82    0.14 
   4   2  15    0.40    0.18 
   5   2  15    6.13    0.38 
   5   2  15    6.51    0.44 
   5   2  15    5.68    0.34 
   6   2  15    0.19    0.10 
  -5   3  15    2.51    0.20 
  -5   3  15    3.40    0.22 
  -5   3  15    3.21    0.30 
  -4   3  15    2.53    0.22 
  -4   3  15    2.52    0.23 
  -4   3  15    2.86    0.24 
  -4   3  15    2.84    0.34 
  -3   3  15    2.49    0.27 
  -3   3  15    2.68    0.23 
  -3   3  15    2.94    0.42 
  -3   3  15    2.79    0.36 
  -2   3  15    3.19    0.30 
  -2   3  15    3.06    0.41 
  -2   3  15    2.99    0.27 
  -2   3  15    3.09    0.25 
  -1   3  15    4.79    0.33 
  -1   3  15    4.67    0.29 
  -1   3  15    5.11    0.27 
  -1   3  15    5.01    0.37 
  -1   3  15    4.94    0.48 
   0   3  15    0.07    0.12 
   0   3  15   -0.28    0.10 
   0   3  15   -0.10    0.17 
   0   3  15   -0.03    0.19 
   0   3  15    0.07    0.15 
   1   3  15    1.52    0.23 
   1   3  15    1.72    0.20 
   1   3  15    1.76    0.15 
   1   3  15    1.80    0.18 
   1   3  15    1.53    0.18 
   2   3  15    5.03    0.44 
   2   3  15    5.31    0.30 
   2   3  15    5.48    0.39 
   2   3  15    4.96    0.30 
   3   3  15    0.58    0.23 
   3   3  15    0.37    0.10 
   3   3  15    0.37    0.14 
   3   3  15    0.51    0.18 
   4   3  15    8.00    0.47 
   4   3  15    7.10    0.39 
   4   3  15    8.15    0.55 
   5   3  15    1.37    0.20 
   5   3  15    1.98    0.19 
  -5   4  15    0.64    0.11 
  -5   4  15    0.83    0.10 
  -5   4  15    1.09    0.17 
  -4   4  15    0.76    0.13 
  -4   4  15    0.82    0.18 
  -4   4  15    0.97    0.11 
  -3   4  15   -0.01    0.16 
  -3   4  15   -0.17    0.12 
  -3   4  15   -0.03    0.21 
  -3   4  15   -0.20    0.10 
  -3   4  15    0.09    0.13 
  -2   4  15    0.39    0.12 
  -2   4  15    0.38    0.25 
  -2   4  15    0.79    0.16 
  -2   4  15    0.26    0.14 
  -2   4  15    0.38    0.19 
  -1   4  15    1.72    0.24 
  -1   4  15    1.69    0.19 
  -1   4  15    1.67    0.15 
  -1   4  15    1.61    0.18 
   0   4  15   28.71    1.18 
   0   4  15   28.77    1.67 
   0   4  15   29.32    1.37 
   0   4  15   27.27    1.22 
   1   4  15   -0.12    0.22 
   1   4  15    0.01    0.11 
   1   4  15   -0.17    0.15 
   1   4  15   -0.01    0.22 
   1   4  15   -0.33    0.14 
   2   4  15    1.17    0.18 
   2   4  15    1.02    0.18 
   2   4  15    1.03    0.21 
   2   4  15    1.28    0.26 
   2   4  15    1.54    0.15 
   3   4  15    4.15    0.29 
   3   4  15    4.51    0.28 
   3   4  15    4.48    0.34 
   3   4  15    5.12    0.45 
   4   4  15    0.08    0.20 
   4   4  15    0.24    0.10 
   4   4  15    0.43    0.14 
   4   4  15    0.15    0.14 
   5   4  15    3.91    0.26 
   5   4  15    3.91    0.34 
   5   4  15    3.74    0.23 
  -4   5  15    0.11    0.10 
  -4   5  15    0.19    0.14 
  -4   5  15    0.03    0.07 
  -3   5  15    4.47    0.42 
  -3   5  15    3.95    0.23 
  -3   5  15    4.46    0.26 
  -3   5  15    3.91    0.40 
  -2   5  15    0.36    0.18 
  -2   5  15    0.28    0.14 
  -2   5  15    0.29    0.10 
  -2   5  15    0.54    0.24 
  -1   5  15    3.86    0.49 
  -1   5  15    4.15    0.25 
  -1   5  15    4.15    0.27 
  -1   5  15    4.11    0.38 
   0   5  15    1.26    0.16 
   0   5  15    0.95    0.24 
   0   5  15    1.17    0.13 
   0   5  15    1.20    0.19 
   1   5  15    1.78    0.17 
   1   5  15    1.93    0.27 
   1   5  15    1.97    0.24 
   1   5  15    1.73    0.15 
   2   5  15    8.51    0.43 
   2   5  15    8.39    0.41 
   2   5  15    9.15    0.62 
   2   5  15    8.21    0.60 
   3   5  15   -0.31    0.22 
   3   5  15    0.09    0.13 
   3   5  15   -0.09    0.10 
   4   5  15    1.10    0.12 
   4   5  15    1.42    0.23 
   4   5  15    1.39    0.15 
   5   5  15   -0.03    0.09 
   5   5  15   -0.08    0.08 
   5   5  15    0.10    0.14 
  -3   6  15    0.03    0.17 
  -3   6  15    0.07    0.09 
  -2   6  15    3.05    0.38 
  -2   6  15    2.69    0.32 
  -2   6  15    2.74    0.15 
  -2   6  15    3.21    0.20 
  -1   6  15    0.19    0.08 
  -1   6  15    0.30    0.20 
  -1   6  15    0.39    0.12 
  -1   6  15    0.47    0.17 
   0   6  15    1.90    0.18 
   0   6  15    1.00    0.21 
   0   6  15    1.76    0.15 
   0   6  15    1.26    0.25 
   1   6  15    0.27    0.15 
   1   6  15    0.29    0.08 
   1   6  15    0.14    0.21 
   1   6  15    0.37    0.11 
   2   6  15    0.02    0.11 
   2   6  15   -0.09    0.08 
   2   6  15    0.07    0.20 
   2   6  15   -0.03    0.18 
   3   6  15    0.99    0.14 
   3   6  15    1.06    0.10 
   3   6  15    1.14    0.24 
   3   6  15    1.18    0.19 
   4   6  15   -0.02    0.07 
   4   6  15   -0.12    0.16 
   4   6  15    0.03    0.09 
  -2   7  15    0.12    0.14 
  -2   7  15    0.10    0.13 
  -1   7  15    1.31    0.19 
  -1   7  15    1.26    0.20 
   0   7  15    0.54    0.15 
   0   7  15    0.53    0.18 
   1   7  15    2.52    0.16 
   1   7  15    2.40    0.29 
   1   7  15    2.56    0.34 
   2   7  15    1.47    0.13 
   2   7  15    1.46    0.23 
   2   7  15    1.26    0.20 
   3   7  15    0.06    0.06 
   3   7  15    0.38    0.15 
   3   7  15    0.05    0.12 
   1   4 -16    9.12    0.52 
   0   4 -16    0.39    0.09 
   3   3 -16    4.32    0.29 
   2   3 -16    4.77    0.30 
   2   3 -16    4.66    0.33 
   1   3 -16    1.39    0.15 
   1   3 -16    1.67    0.22 
   0   3 -16    4.82    0.31 
   0   3 -16    4.54    0.34 
  -1   3 -16    0.01    0.10 
  -1   3 -16    0.06    0.10 
  -2   3 -16    4.19    0.25 
  -2   3 -16    4.69    0.27 
  -3   3 -16    1.00    0.11 
   4   2 -16    2.84    0.16 
  -4  -2  16    2.49    0.20 
   3   2 -16    3.96    0.24 
   3   2 -16    3.76    0.29 
   2   2 -16    4.34    0.32 
   2   2 -16    4.17    0.26 
   1   2 -16   13.82    0.70 
   1   2 -16   13.80    0.69 
   1   2 -16   13.67    0.78 
   0   2 -16    0.22    0.12 
   0   2 -16    0.48    0.13 
   0   2 -16    0.28    0.10 
  -1   2 -16    3.42    0.27 
  -1   2 -16    3.63    0.24 
  -1   2 -16    3.71    0.28 
  -2   2 -16   -0.03    0.13 
  -2   2 -16   -0.01    0.07 
  -3   2 -16    6.78    0.37 
  -3   2 -16    6.60    0.38 
  -4   2 -16    3.28    0.22 
  -4   2 -16    3.20    0.21 
   5   1 -16    3.07    0.18 
  -5  -1  16    3.13    0.20 
  -4  -1  16    1.04    0.13 
   3   1 -16    5.88    0.34 
  -3  -1  16    5.87    0.36 
   2   1 -16    2.96    0.24 
  -2  -1  16    2.90    0.27 
   1   1 -16    5.08    0.33 
   0   1 -16    8.16    0.45 
  -1   1 -16    1.65    0.16 
  -2   1 -16    4.62    0.31 
  -3   1 -16    2.56    0.21 
  -4   1 -16    1.39    0.13 
   4  -1  16    1.02    0.14 
   5   0 -16    0.67    0.10 
  -5   0  16    0.53    0.08 
   4   0 -16    1.97    0.19 
  -4   0  16    2.12    0.20 
  -3   0  16    3.48    0.27 
  -2   0  16    7.18    0.42 
  -1   0  16   20.98    1.04 
   0   0  16    4.65    0.33 
  -1   0 -16    3.34    0.26 
   1   0  16    3.24    0.28 
  -2   0 -16    0.08    0.13 
   2   0  16   -0.07    0.12 
  -3   0 -16    1.29    0.13 
   3   0  16    1.12    0.15 
  -4   0 -16    5.86    0.32 
   4   0  16    5.12    0.33 
  -5   0 -16    0.04    0.07 
  -5   0 -16    0.01    0.07 
   5   0  16    0.05    0.10 
  -5   1  16    7.25    0.49 
  -5   1  16    8.20    0.43 
  -4   1  16    2.04    0.16 
  -4   1  16    1.25    0.18 
  -3   1  16    5.30    0.31 
  -3   1  16    5.50    0.39 
  -2   1  16    7.84    0.42 
  -2   1  16    6.93    0.47 
  -1   1  16    5.09    0.35 
   0   1  16   11.04    0.58 
   1   1  16    1.85    0.23 
   1   1  16    1.41    0.21 
   2   1  16    1.24    0.16 
   3   1  16    2.29    0.23 
  -4  -1 -16    0.52    0.11 
   4   1  16    0.52    0.12 
  -5  -1 -16    3.65    0.24 
   5   1  16    3.78    0.30 
   5   1  16    3.40    0.23 
  -5   2  16    0.22    0.11 
  -4   2  16    3.50    0.35 
  -4   2  16    3.53    0.29 
  -3   2  16    9.46    0.50 
  -3   2  16    8.41    0.45 
  -2   2  16    0.41    0.11 
  -2   2  16    0.46    0.17 
  -1   2  16    5.85    0.40 
  -1   2  16    5.88    0.34 
   0   2  16    0.80    0.14 
   0   2  16    0.86    0.18 
   0   2  16    0.66    0.21 
   1   2  16    1.43    0.16 
   1   2  16    1.34    0.21 
   1   2  16    1.23    0.21 
   2   2  16    0.40    0.17 
   2   2  16    0.55    0.12 
   3   2  16    2.97    0.31 
   3   2  16    2.86    0.23 
   4   2  16    5.77    0.32 
   4   2  16    5.56    0.38 
   5   2  16    0.04    0.07 
   5   2  16    0.02    0.14 
   5   2  16   -0.16    0.12 
  -5   3  16    2.91    0.18 
  -4   3  16    0.19    0.11 
  -4   3  16    0.13    0.10 
  -4   3  16    0.24    0.16 
  -3   3  16    1.45    0.13 
  -3   3  16    1.50    0.21 
  -3   3  16    0.86    0.16 
  -2   3  16    3.77    0.25 
  -2   3  16    3.69    0.27 
  -2   3  16    3.76    0.41 
  -2   3  16    4.01    0.31 
  -1   3  16    7.87    0.59 
  -1   3  16    8.02    0.45 
  -1   3  16    7.14    0.40 
  -1   3  16    7.23    0.37 
   0   3  16   10.98    0.70 
   0   3  16   10.09    0.48 
   0   3  16   10.61    0.58 
   1   3  16    3.98    0.40 
   1   3  16    3.36    0.26 
   1   3  16    3.96    0.33 
   1   3  16    3.34    0.22 
   1   3  16    3.40    0.38 
   2   3  16    6.29    0.41 
   2   3  16    6.49    0.49 
   2   3  16    5.73    0.34 
   2   3  16    5.74    0.32 
   3   3  16    4.10    0.40 
   3   3  16    3.66    0.34 
   4   3  16    0.40    0.15 
   4   3  16    0.45    0.19 
   5   3  16    0.96    0.16 
   5   3  16    1.59    0.16 
  -4   4  16    2.38    0.20 
  -4   4  16    2.52    0.29 
  -4   4  16    2.45    0.17 
  -3   4  16    0.07    0.19 
  -3   4  16    0.02    0.12 
  -3   4  16   -0.03    0.09 
  -3   4  16   -0.08    0.13 
  -3   4  16   -0.13    0.10 
  -2   4  16    1.30    0.24 
  -2   4  16    1.02    0.14 
  -2   4  16    1.97    0.19 
  -2   4  16    1.40    0.14 
  -1   4  16    9.20    0.66 
  -1   4  16    8.90    0.48 
  -1   4  16    8.35    0.42 
   0   4  16   15.00    0.67 
   0   4  16   16.57    0.78 
   0   4  16   15.56    0.97 
   1   4  16   36.19    1.72 
   1   4  16   36.91    2.06 
   1   4  16   35.30    1.53 
   2   4  16    6.59    0.49 
   2   4  16    5.72    0.46 
   2   4  16    5.42    0.34 
   2   4  16    5.70    0.38 
   2   4  16    5.75    0.32 
   3   4  16    0.92    0.14 
   3   4  16    1.32    0.16 
   3   4  16    1.26    0.14 
   3   4  16    0.85    0.22 
   4   4  16    0.88    0.12 
   4   4  16    1.06    0.21 
   4   4  16    1.00    0.14 
   5   4  16    0.01    0.15 
   5   4  16    0.05    0.07 
   5   4  16    0.14    0.08 
  -4   5  16    0.22    0.08 
  -4   5  16    0.16    0.13 
  -4   5  16    0.19    0.06 
  -3   5  16    0.60    0.11 
  -3   5  16    0.38    0.17 
  -3   5  16    0.66    0.16 
  -3   5  16    0.65    0.09 
  -2   5  16    1.01    0.19 
  -2   5  16    1.76    0.19 
  -2   5  16    1.42    0.23 
  -2   5  16    2.01    0.17 
  -1   5  16    0.13    0.13 
  -1   5  16    0.25    0.23 
  -1   5  16    0.05    0.10 
   0   5  16    9.43    0.45 
   0   5  16    9.16    0.43 
   0   5  16    9.93    0.67 
   1   5  16    4.20    0.25 
   1   5  16    4.35    0.44 
   1   5  16    4.46    0.39 
   1   5  16    4.55    0.28 
   2   5  16   -0.07    0.20 
   2   5  16   -0.04    0.11 
   2   5  16   -0.07    0.17 
   2   5  16   -0.08    0.13 
   3   5  16    4.72    0.41 
   3   5  16    4.34    0.25 
   3   5  16    4.70    0.27 
   4   5  16    0.41    0.09 
   4   5  16    0.71    0.13 
   4   5  16    0.75    0.19 
   5   5  16    1.86    0.14 
  -3   6  16    0.63    0.12 
  -3   6  16    0.76    0.09 
  -2   6  16    0.25    0.13 
  -2   6  16    0.35    0.17 
  -2   6  16    0.17    0.09 
  -1   6  16    0.61    0.11 
  -1   6  16    0.63    0.08 
  -1   6  16    0.49    0.21 
  -1   6  16    0.43    0.14 
   0   6  16   -0.13    0.11 
   0   6  16   -0.08    0.07 
   0   6  16   -0.02    0.20 
   1   6  16    3.28    0.22 
   1   6  16    3.31    0.19 
   1   6  16    3.51    0.34 
   2   6  16    0.24    0.10 
   2   6  16    0.27    0.07 
   2   6  16    0.43    0.16 
   2   6  16    0.46    0.17 
   3   6  16    0.60    0.08 
   3   6  16    0.58    0.16 
   3   6  16    0.44    0.10 
   4   6  16    0.14    0.08 
   4   6  16    0.19    0.05 
   4   6  16    0.38    0.14 
  -1   7  16    0.21    0.11 
  -1   7  16    0.10    0.16 
   0   7  16    2.54    0.27 
   0   7  16    1.85    0.22 
   1   7  16   -0.01    0.15 
   2   7  16    0.45    0.13 
   2   7  16    0.44    0.07 
   2   3 -17    2.94    0.23 
   2   3 -17    2.84    0.19 
   1   3 -17    3.92    0.28 
   1   3 -17    4.37    0.25 
   0   3 -17    3.33    0.23 
  -1   3 -17    0.78    0.11 
   3   2 -17    3.08    0.23 
   3   2 -17    2.77    0.16 
  -3  -2  17    2.67    0.19 
   2   2 -17    1.30    0.16 
   2   2 -17    1.54    0.21 
   2   2 -17    1.44    0.13 
   1   2 -17    1.89    0.22 
   1   2 -17    1.44    0.16 
   1   2 -17    1.58    0.15 
   0   2 -17    5.54    0.34 
   0   2 -17    5.49    0.36 
   0   2 -17    5.44    0.30 
  -1   2 -17    1.08    0.12 
  -1   2 -17    1.16    0.14 
  -2   2 -17    5.96    0.32 
  -2   2 -17    5.76    0.34 
  -3   2 -17    0.02    0.08 
   4   1 -17    3.73    0.22 
  -4  -1  17    3.52    0.22 
   3   1 -17    0.59    0.10 
  -3  -1  17    0.50    0.11 
   2   1 -17    8.19    0.42 
  -2  -1  17    7.40    0.43 
   1   1 -17    3.50    0.25 
  -1  -1  17    3.07    0.27 
   0   1 -17    3.18    0.25 
   0   1 -17    2.99    0.26 
   0  -1  17    2.58    0.26 
  -1   1 -17    6.36    0.35 
   1  -1  17    5.89    0.37 
  -2   1 -17    0.12    0.09 
   2  -1  17    0.12    0.13 
  -3   1 -17    2.83    0.19 
   3  -1  17    2.38    0.22 
  -4   1 -17    0.01    0.06 
   4   0 -17    0.18    0.09 
  -4   0  17    0.09    0.09 
   3   0 -17    7.01    0.39 
  -3   0  17    7.01    0.38 
   2   0 -17    0.74    0.13 
  -2   0  17    0.77    0.14 
   1   0 -17    2.16    0.23 
  -1   0  17    2.70    0.24 
   0   0 -17   14.06    0.74 
   0   0  17   15.11    0.74 
  -1   0 -17    0.13    0.11 
   1   0  17   -0.03    0.14 
  -2   0 -17    4.92    0.31 
   2   0  17    4.98    0.31 
  -3   0 -17    1.30    0.12 
   3   0  17    1.20    0.13 
  -4   0 -17    0.64    0.09 
   4   0  17    0.46    0.10 
  -4   1  17    9.46    0.50 
  -4   1  17   10.50    0.54 
  -4   1  17   11.05    0.64 
  -3   1  17    1.20    0.19 
  -3   1  17    1.01    0.12 
  -2   1  17    8.12    0.48 
  -2   1  17    7.79    0.43 
  -1   1  17    2.89    0.23 
  -1   1  17    2.98    0.32 
   0   1  17    0.20    0.18 
   0   1  17    0.25    0.13 
   1   1  17    0.52    0.13 
   2   1  17    0.16    0.13 
   3   1  17    6.08    0.35 
  -4  -1 -17    2.71    0.22 
   4   1  17    2.81    0.20 
  -4   2  17    0.40    0.15 
  -4   2  17    0.94    0.15 
  -3   2  17    4.11    0.31 
  -2   2  17    0.58    0.18 
  -2   2  17    0.63    0.18 
  -2   2  17    0.46    0.10 
  -1   2  17    4.36    0.34 
  -1   2  17    4.09    0.26 
  -1   2  17    4.80    0.43 
   0   2  17    1.14    0.21 
   0   2  17    1.40    0.17 
   0   2  17    1.16    0.20 
   1   2  17   -0.05    0.16 
   1   2  17   -0.20    0.16 
   1   2  17   -0.09    0.12 
   2   2  17    6.18    0.41 
   2   2  17    5.50    0.32 
   3   2  17    2.14    0.17 
   3   2  17    1.91    0.22 
   4   2  17    5.63    0.35 
   4   2  17    6.32    0.42 
   4   2  17    5.18    0.30 
   5   2  17    2.64    0.24 
  -4   3  17    3.65    0.22 
  -4   3  17    4.09    0.23 
  -4   3  17    3.84    0.31 
  -3   3  17    0.04    0.09 
  -3   3  17    0.01    0.12 
  -3   3  17    0.05    0.17 
  -2   3  17    4.70    0.31 
  -2   3  17    4.62    0.44 
  -2   3  17    4.40    0.28 
  -1   3  17    1.60    0.18 
  -1   3  17    1.30    0.15 
  -1   3  17    1.51    0.21 
   0   3  17   -0.35    0.20 
   0   3  17   -0.05    0.17 
   0   3  17    0.15    0.11 
   1   3  17    3.86    0.41 
   1   3  17    4.37    0.40 
   1   3  17    4.28    0.26 
   1   3  17    4.45    0.33 
   2   3  17    1.06    0.22 
   2   3  17    0.83    0.16 
   2   3  17    0.70    0.12 
   3   3  17    5.63    0.43 
   3   3  17    5.34    0.36 
   4   3  17    1.52    0.16 
   4   3  17    1.03    0.20 
   5   3  17    1.76    0.17 
   5   3  17    2.13    0.22 
  -4   4  17    0.17    0.08 
  -3   4  17    7.97    0.37 
  -3   4  17    8.12    0.53 
  -2   4  17    0.38    0.11 
  -2   4  17    0.32    0.10 
  -2   4  17    0.39    0.17 
  -2   4  17    0.38    0.13 
  -1   4  17    0.23    0.11 
  -1   4  17    0.50    0.18 
  -1   4  17    0.71    0.16 
  -1   4  17    0.35    0.11 
   0   4  17   -0.16    0.11 
   0   4  17   -0.29    0.12 
   0   4  17   -0.28    0.17 
   1   4  17   11.05    0.52 
   1   4  17    9.90    0.67 
   1   4  17   10.23    0.49 
   1   4  17    9.55    0.66 
   1   4  17    9.52    0.45 
   2   4  17    1.92    0.24 
   2   4  17    1.46    0.21 
   2   4  17    1.27    0.14 
   2   4  17    1.91    0.23 
   2   4  17    1.46    0.18 
   3   4  17    0.19    0.17 
   3   4  17    0.25    0.11 
   3   4  17    0.29    0.11 
   3   4  17    0.21    0.13 
   4   4  17    2.66    0.30 
   4   4  17    2.49    0.19 
   4   4  17    2.42    0.18 
  -3   5  17    0.51    0.14 
  -3   5  17    0.40    0.07 
  -3   5  17    0.19    0.10 
  -2   5  17    0.51    0.09 
  -2   5  17    0.64    0.13 
  -2   5  17    0.78    0.21 
  -1   5  17    1.16    0.14 
  -1   5  17    1.04    0.21 
  -1   5  17    1.78    0.14 
   0   5  17    0.01    0.19 
   0   5  17    0.12    0.10 
   0   5  17    0.18    0.12 
   1   5  17    0.33    0.10 
   1   5  17    0.38    0.13 
   1   5  17    0.60    0.21 
   2   5  17    5.09    0.40 
   2   5  17    5.46    0.41 
   2   5  17    5.41    0.29 
   2   5  17    5.14    0.27 
   3   5  17   -0.20    0.08 
   3   5  17   -0.25    0.10 
   3   5  17    0.17    0.18 
   4   5  17   -0.03    0.06 
   4   5  17    0.08    0.13 
  -2   6  17    0.53    0.15 
  -2   6  17    0.17    0.07 
  -1   6  17    0.31    0.09 
  -1   6  17    0.77    0.20 
   0   6  17    1.44    0.22 
   0   6  17    1.82    0.15 
   0   6  17    1.61    0.11 
   1   6  17    0.29    0.16 
   1   6  17    0.24    0.09 
   1   6  17    0.23    0.06 
   2   6  17    0.71    0.08 
   2   6  17    0.49    0.14 
   2   6  17    0.93    0.11 
   2   6  17    0.78    0.15 
   3   6  17    0.05    0.08 
   3   6  17    0.24    0.13 
   3   6  17    0.01    0.05 
   2   2 -18    3.41    0.24 
   1   2 -18   -0.01    0.09 
   1   2 -18   -0.02    0.09 
   0   2 -18    4.01    0.25 
  -1   2 -18    0.81    0.11 
   3   1 -18    3.77    0.21 
  -3  -1  18    3.68    0.23 
   2   1 -18   -0.13    0.08 
  -2  -1  18   -0.05    0.10 
   1   1 -18    9.78    0.55 
   1   1 -18    9.69    0.48 
  -1  -1  18    8.58    0.49 
   0   1 -18    1.11    0.12 
   0  -1  18    0.83    0.14 
  -1   1 -18    3.50    0.22 
   1  -1  18    3.32    0.23 
  -2   1 -18    1.87    0.14 
   2  -1  18    1.50    0.18 
  -3   1 -18    0.13    0.08 
   3   0 -18   -0.17    0.07 
  -3   0  18   -0.14    0.08 
   2   0 -18    7.99    0.43 
  -2   0  18    8.19    0.43 
   1   0 -18   -0.13    0.09 
  -1   0  18   -0.06    0.12 
   0   0 -18    1.77    0.20 
   0   0  18    1.67    0.20 
   0   0  18    1.97    0.25 
  -1   0 -18    0.75    0.12 
   1   0  18    0.81    0.13 
  -2   0 -18    1.47    0.15 
   2   0  18    1.12    0.14 
  -3   0 -18    0.53    0.10 
   3   0  18    0.60    0.11 
  -4   1  18    0.27    0.10 
  -3   1  18    6.69    0.36 
  -3   1  18    7.90    0.42 
  -2   1  18    0.38    0.15 
  -2   1  18    0.26    0.15 
  -2   1  18    0.19    0.10 
  -1   1  18   10.20    0.62 
  -1   1  18    8.92    0.52 
  -1   1  18    9.10    0.49 
   0   1  18    0.70    0.12 
   0   1  18    0.83    0.17 
   1   1  18    7.90    0.43 
   2   1  18    0.12    0.10 
  -3  -1 -18   -0.04    0.09 
   3   1  18   -0.09    0.09 
  -4  -1 -18    2.37    0.16 
   4   1  18    2.22    0.15 
  -4   2  18    9.06    0.45 
  -3   2  18    0.00    0.11 
  -3   2  18    0.16    0.15 
  -2   2  18    4.96    0.34 
  -2   2  18    5.12    0.40 
  -1   2  18   -0.14    0.16 
  -1   2  18   -0.13    0.07 
  -1   2  18    0.05    0.17 
   0   2  18    9.87    0.53 
   0   2  18    9.06    0.47 
   0   2  18    9.42    0.61 
   1   2  18    2.37    0.19 
   1   2  18    2.62    0.29 
   1   2  18    2.52    0.27 
   2   2  18    0.65    0.16 
   2   2  18    0.48    0.10 
   3   2  18    4.68    0.32 
   3   2  18    3.91    0.22 
   4   2  18    0.38    0.12 
   4   2  18    0.27    0.13 
  -3   3  18    6.06    0.31 
  -3   3  18    5.19    0.42 
  -3   3  18    5.49    0.27 
  -2   3  18    0.25    0.15 
  -2   3  18    0.07    0.12 
  -2   3  18    0.16    0.11 
  -1   3  18    5.75    0.46 
  -1   3  18    5.96    0.35 
  -1   3  18    5.66    0.30 
   0   3  18    1.27    0.13 
   0   3  18    1.39    0.20 
   0   3  18    1.38    0.16 
   1   3  18    1.11    0.19 
   1   3  18    1.30    0.20 
   1   3  18    1.40    0.13 
   1   3  18    1.26    0.17 
   2   3  18    4.35    0.34 
   2   3  18    3.64    0.29 
   3   3  18   -0.13    0.15 
   3   3  18    0.00    0.13 
   4   3  18    1.70    0.23 
   4   3  18    1.80    0.18 
  -3   4  18    0.21    0.12 
  -3   4  18    0.07    0.07 
  -2   4  18    2.32    0.30 
  -2   4  18    1.98    0.20 
  -2   4  18    2.12    0.17 
  -1   4  18   -0.10    0.12 
  -1   4  18    0.05    0.10 
  -1   4  18   -0.17    0.08 
  -1   4  18   -0.02    0.17 
   0   4  18    4.14    0.27 
   0   4  18    4.13    0.39 
   0   4  18    4.33    0.25 
   0   4  18    4.39    0.26 
   1   4  18   -0.11    0.15 
   1   4  18    0.12    0.10 
   1   4  18   -0.07    0.13 
   1   4  18    0.16    0.09 
   2   4  18    2.01    0.19 
   2   4  18    2.31    0.30 
   2   4  18    2.30    0.19 
   3   4  18    2.00    0.17 
   3   4  18    2.12    0.16 
   3   4  18    2.51    0.26 
   4   4  18    0.24    0.12 
  -2   5  18    0.03    0.09 
  -2   5  18    0.09    0.14 
  -2   5  18   -0.05    0.07 
  -1   5  18    0.04    0.14 
  -1   5  18   -0.01    0.10 
  -1   5  18    0.04    0.08 
   0   5  18   -0.05    0.08 
   0   5  18   -0.01    0.11 
   0   5  18    0.12    0.14 
   1   5  18    2.93    0.31 
   1   5  18    3.06    0.19 
   2   5  18   12.39    0.73 
   2   5  18   12.59    0.52 
   2   5  18   12.04    0.74 
   2   5  18   12.66    0.55 
   3   5  18    5.25    0.25 
   3   5  18    5.58    0.37 
  -1   6  18    0.03    0.07 
  -1   6  18    0.12    0.13 
   0   6  18    0.48    0.14 
   0   6  18    0.43    0.10 
   1   6  18    1.00    0.17 
   1   6  18    0.95    0.10 
   1   1 -19    0.15    0.06 
  -1  -1  19    0.10    0.08 
   0   1 -19    5.36    0.27 
   0  -1  19    4.70    0.28 
  -1   1 -19    1.39    0.11 
   2   0 -19    1.40    0.13 
  -2   0  19    1.62    0.20 
  -2   0  19    1.19    0.14 
   1   0 -19    7.49    0.39 
  -1   0  19    7.27    0.38 
  -1   0  19    7.55    0.47 
   0   0 -19   -0.03    0.09 
   0   0  19   -0.09    0.10 
  -1   0 -19    4.81    0.27 
   1   0  19    4.38    0.27 
  -2   0 -19    0.55    0.10 
   2   0  19    0.37    0.09 
  -2   1  19    0.47    0.12 
  -2   1  19    0.50    0.06 
  -2   1  19    0.53    0.14 
  -1   1  19    0.63    0.14 
  -1   1  19    0.69    0.15 
  -1   1  19    0.65    0.09 
   0   1  19    6.31    0.38 
   0   1  19    6.03    0.34 
   0   1  19    6.49    0.43 
   1   1  19    1.88    0.16 
   1   1  19    1.93    0.20 
  -2  -1 -19    8.71    0.46 
   2   1  19    8.80    0.44 
   2   1  19    8.93    0.47 
   3   1  19    1.97    0.22 
  -3   2  19    5.48    0.37 
  -2   2  19    1.55    0.16 
  -2   2  19    1.72    0.23 
  -1   2  19    5.86    0.43 
  -1   2  19    5.78    0.36 
   0   2  19   -0.10    0.14 
   0   2  19    0.09    0.12 
   1   2  19    3.51    0.29 
   2   2  19    0.75    0.16 
   2   2  19    0.95    0.16 
   3   2  19    0.06    0.11 
   3   2  19    0.06    0.11 
  -2   3  19    0.21    0.14 
  -2   3  19    0.23    0.09 
  -2   3  19    0.18    0.09 
  -1   3  19   -0.12    0.15 
  -1   3  19    0.00    0.10 
  -1   3  19   -0.11    0.10 
   0   3  19    2.78    0.30 
   0   3  19    2.40    0.21 
   0   3  19    2.91    0.23 
   1   3  19    0.23    0.11 
   1   3  19    0.12    0.13 
   1   3  19    0.05    0.10 
   2   3  19   -0.08    0.14 
   2   3  19   -0.04    0.11 
   3   3  19    0.28    0.12 
   3   3  19    0.12    0.09 
  -2   4  19    0.24    0.13 
  -2   4  19    0.40    0.08 
  -1   4  19    0.45    0.10 
  -1   4  19    0.59    0.15 
  -1   4  19    0.74    0.10 
   0   4  19    0.11    0.14 
   0   4  19   -0.05    0.10 
   0   4  19    0.00    0.09 
   1   4  19    3.93    0.21 
   1   4  19    3.41    0.22 
   1   4  19    3.60    0.30 
   2   4  19    0.74    0.10 
   2   4  19    0.91    0.14 
  -1   5  19    1.05    0.09 
  -1   5  19    0.62    0.09 
  -1   5  19    1.09    0.14 
   0   5  19    1.76    0.15 
   0   5  19    1.92    0.13 
   0   5  19    2.11    0.21 
   1   5  19    0.03    0.06 
   1   5  19    0.07    0.09 
  -1   2  20    1.63    0.18 
   0   2  20    6.52    0.36 
   1   2  20   -0.04    0.10 
  -1   3  20    0.35    0.12 
   0   3  20    0.66    0.11 
   1   3  20    1.66    0.15 
   0   0   0    0.00    0.00 
; 
_shelx_hkl_checksum   90220 
 
