data_x15218 
 
_audit_creation_method            'SHELXL-2014/7 and CIFFIX' 
# CIF edited on-the-fly by script CIFFIX (S. Parkin, 2000-2014). 
# CIFFIX: http://xray.uky.edu/people/parkin/programs/ciffix 
_audit_update_record              ? 
 
_shelx_SHELXL_version_number      '2014/7' 
 
_publ_section_exptl_refinement 
; 
H atoms were found in difference Fourier maps, but subsequently included 
in the refinement using riding models, with constrained distances set to 
0.95 %A (C~sp2~H), 0.98 %A (RCH~3~) and 0.99 %A (R~2~CH~2~).  U~iso~(H) 
parameters were set to values of either 1.2U~eq~ or 1.5U~eq~ (RCH~3~ only) 
of the attached atom. 
 
To ensure satisfactory refinement for disordered groups in the structure, 
a combination of constraints and restraints were employed. The constraints 
(SHELXL commands EXYZ and EADP) were used to fix overlapping fragments. 
Restraints were used to ensure the integrity of ill-defined or disordered 
groups (SHELXL commands SAME and RIGU). 
; 
 
_publ_section_references 
; 
Bruker-AXS (2006). 
  <i>APEX2</i> Bruker-AXS Inc., Madison, WI, USA. 
 
Hope, H. (1994). 
  <i>Prog. Inorg. Chem.</i> <b>41</b>, 1--19. 
 
Krause, L., Herbst-Irmer, R., Sheldrick, G.M. & Stalke, D. (2015). 
  <i>J. Appl. Cryst.</i> <b>48</b>, 3--10. 
 
Parkin, S. & Hope, H. (1998). 
  <i>J. Appl. Cryst.</i> <b>31</b>, 945--953. 
 
Parkin, S. (2000). 
  <i>Acta Cryst.</i> A<b>56</b>, 157--162. 
 
Parkin, S. (2013). 
  <i>CIFFIX</i>, http://xray.uky.edu/people/parkin/programs/ciffix 
 
Sheldrick, G.M. (2008). 
  <i>Acta Cryst.</i> A<b>64</b>, 112--122. 
 
Sheldrick, G.M. (2015a). 
  <i>Acta Cryst.</i> A<b>71</b>, 3--8. 
 
Sheldrick, G.M. (2015b). 
  <i>Acta Cryst.</i> C<b>71</b>, 3--8. 
 
Spek, A.L. (2009). 
  <i>Acta Cryst.</i> D<b>65</b>, 148--155. 
; 
 
_publ_section_acknowledgements 
; 
The X8 Proteum diffractometer was funded by the NSF (MRI CHE0319176, 70%), 
and by the University of Kentucky (cost share, 30%). 
; 
 
_chemical_name_systematic         ? 
_chemical_name_common             ? 
_chemical_melting_point           ? 
_chemical_formula_moiety          'C62 H90 Si2' 
_chemical_formula_sum             'C62 H90 Si2' 
_chemical_formula_weight          891.51 
 
loop_ 
 _atom_type_symbol 
 _atom_type_description 
 _atom_type_scat_dispersion_real 
 _atom_type_scat_dispersion_imag 
 _atom_type_scat_source 
 'C'  'C'   0.0181   0.0091 
 'International Tables Vol C Tables 4.2.6.8 and 6.1.1.4' 
 'H'  'H'   0.0000   0.0000 
 'International Tables Vol C Tables 4.2.6.8 and 6.1.1.4' 
 'Si'  'Si'   0.2541   0.3302 
 'International Tables Vol C Tables 4.2.6.8 and 6.1.1.4' 
 
_space_group_crystal_system       monoclinic 
_space_group_IT_number            14 
_space_group_name_H-M_alt         'P 21/n' 
_space_group_name_Hall            '-P 2yn' 
 
_shelx_space_group_comment 
; 
The symmetry employed for this shelxl refinement is uniquely defined 
by the following loop, which should always be used as a source of 
symmetry information in preference to the above space-group names. 
They are only intended as comments. 
; 
 
loop_ 
 _space_group_symop_operation_xyz 
 'x, y, z' 
 '-x+1/2, y+1/2, -z+1/2' 
 '-x, -y, -z' 
 'x-1/2, -y-1/2, z-1/2' 
 
_cell_length_a                    5.2828(6) 
_cell_length_b                    22.806(3) 
_cell_length_c                    23.491(3) 
_cell_angle_alpha                 90 
_cell_angle_beta                  92.925(9) 
_cell_angle_gamma                 90 
_cell_volume                      2826.5(6) 
_cell_formula_units_Z             2 
_cell_measurement_temperature     180(2) 
_cell_measurement_reflns_used     7817 
_cell_measurement_theta_min       2.70 
_cell_measurement_theta_max       68.09 
 
_exptl_crystal_description        needle 
_exptl_crystal_colour             blue 
_exptl_crystal_density_meas       ? 
_exptl_crystal_density_method     ? 
_exptl_crystal_density_diffrn     1.048 
_exptl_crystal_F_000              980 
_exptl_transmission_factor_min    ? 
_exptl_transmission_factor_max    ? 
_exptl_crystal_size_max           0.500 
_exptl_crystal_size_mid           0.080 
_exptl_crystal_size_min           0.070 
_exptl_absorpt_coefficient_mu     0.819 
_shelx_estimated_absorpt_T_min    0.685 
_shelx_estimated_absorpt_T_max    0.945 
_exptl_absorpt_correction_type    multi-scan 
_exptl_absorpt_correction_T_min   0.576 
_exptl_absorpt_correction_T_max   0.889 
_exptl_absorpt_process_details    '<i>SADABS</i> (Krause et al., 2015)' 
_exptl_absorpt_special_details 
; 
In addition to absorption, multi-scan techniques also correct other slowly 
varying changes in scale factor over reciprocal space, such as those caused 
by x-ray beam inhomogeneity, goniometer imperfection, crystal decomposition, 
crystal longer than the x-ray beam cross section, absorption by the crystal 
mount etc.  These account, by and large, for much of the difference between 
estimated values of Tmin and Tmax and the _exptl_absorpt_correction_ values. 
; 
 
_exptl_special_details 
; 
The crystal was mounted using polyisobutene oil on the tip of a fine glass 
fibre, which was fastened in a copper mounting pin with electrical solder. 
It was placed directly into the cold gas stream of a liquid-nitrogen based 
cryostat (Hope, 1994; Parkin & Hope, 1998). 
 
The crystals underwent a destructive phase transition when cooled to 90K. 
Visual inspection of crystal integrity and diffraction quality vs temperature 
established a safe temperature for data collection of -93\% C. 
; 
 
_diffrn_ambient_temperature       180(2) 
_diffrn_radiation_wavelength      1.54178 
_diffrn_radiation_type            CuK\a 
_diffrn_source                    'fine-focus rotating anode' 
_diffrn_measurement_device_type   'Bruker X8 Proteum diffractometer' 
_diffrn_measurement_method        '\f and \w scans' 
_diffrn_detector_area_resol_mean  5.6 
_diffrn_reflns_number             28800 
_diffrn_reflns_av_unetI/netI      0.0708 
_diffrn_reflns_av_R_equivalents   0.0740 
_diffrn_reflns_limit_h_min        -2 
_diffrn_reflns_limit_h_max        6 
_diffrn_reflns_limit_k_min        -27 
_diffrn_reflns_limit_k_max        27 
_diffrn_reflns_limit_l_min        -28 
_diffrn_reflns_limit_l_max        28 
_diffrn_reflns_theta_min          2.702 
_diffrn_reflns_theta_max          68.464 
_diffrn_reflns_theta_full         67.679 
_diffrn_measured_fraction_theta_max                0.957 
_diffrn_measured_fraction_theta_full               0.962 
_diffrn_reflns_Laue_measured_fraction_max          0.957 
_diffrn_reflns_Laue_measured_fraction_full         0.962 
_diffrn_reflns_point_group_measured_fraction_max   0.957 
_diffrn_reflns_point_group_measured_fraction_full  0.962 
 
_reflns_number_total              4994 
_reflns_number_gt                 3337 
_reflns_threshold_expression      'I > 2\s(I)' 
_reflns_Friedel_coverage          0.000 
_reflns_Friedel_fraction_max      . 
_reflns_Friedel_fraction_full     . 
_reflns_special_details 
; 
Reflections were merged by SHELXL according to the crystal 
class for the calculation of statistics and refinement. 
 
_reflns_Friedel_fraction is defined as the number of unique 
Friedel pairs measured divided by the number that would be 
possible theoretically, ignoring centric projections and 
systematic absences. 
; 
 
_computing_data_collection        '<i>APEX2</i> (Bruker-AXS, 2006)' 
_computing_cell_refinement        '<i>APEX2</i> (Bruker-AXS, 2006)' 
_computing_data_reduction         '<i>APEX2</i> (Bruker-AXS, 2006)' 
_computing_structure_solution     '<i>SHELXT</i> (Sheldrick, 2015a)' 
_computing_structure_refinement   '<i>SHELXL-2014/7</i> (Sheldrick, 2015b)' 
_computing_molecular_graphics     '<i>XP in SHELXTL</i> (Sheldrick, 2008)' 
_computing_publication_material 
'<i>SHELX</i> (Sheldrick, 2008) and <i>CIFFIX</i> (Parkin, 2013)' 
 
_refine_special_details 
; 
Refinement progress was checked using <i>Platon</i> (Spek, 2009) and by 
an <i>R</i>-tensor (Parkin, 2000). The final model was further checked 
with the IUCr utility <i>checkCIF</i>. 
; 
_refine_ls_structure_factor_coef  Fsqd 
_refine_ls_matrix_type            full 
_refine_ls_weighting_scheme       calc 
_refine_ls_weighting_details 
'w=1/[\s^2^(Fo^2^)+(0.1117P)^2^+4.0001P] where P=(Fo^2^+2Fc^2^)/3' 
_atom_sites_solution_primary      direct 
_atom_sites_solution_secondary    difmap 
_atom_sites_solution_hydrogens    difmap 
_refine_ls_hydrogen_treatment     constr 
_refine_ls_extinction_method      none 
_refine_ls_extinction_coef        . 
_refine_ls_number_reflns          4994 
_refine_ls_number_parameters      318 
_refine_ls_number_restraints      98 
_refine_ls_R_factor_all           0.1129 
_refine_ls_R_factor_gt            0.0847 
_refine_ls_wR_factor_ref          0.2664 
_refine_ls_wR_factor_gt           0.2479 
_refine_ls_goodness_of_fit_ref    1.088 
_refine_ls_restrained_S_all       1.080 
_refine_ls_shift/su_max           0.000 
_refine_ls_shift/su_mean          0.000 
 
loop_ 
 _atom_site_label 
 _atom_site_type_symbol 
 _atom_site_fract_x 
 _atom_site_fract_y 
 _atom_site_fract_z 
 _atom_site_U_iso_or_equiv 
 _atom_site_adp_type 
 _atom_site_occupancy 
 _atom_site_site_symmetry_order 
 _atom_site_calc_flag 
 _atom_site_refinement_flags_posn 
 _atom_site_refinement_flags_adp 
 _atom_site_refinement_flags_occupancy 
 _atom_site_disorder_assembly 
 _atom_site_disorder_group 
Si1 Si -0.25796(18) 0.68818(4) 0.48830(5) 0.0305(3) Uani 1 1 d . . . . . 
C1 C 0.2928(6) 0.53943(15) 0.49632(16) 0.0280(8) Uani 1 1 d . . . . . 
C2 C 0.3958(6) 0.52205(15) 0.55069(16) 0.0280(8) Uani 1 1 d . . . . . 
C3 C 0.2956(7) 0.54105(16) 0.60202(17) 0.0322(9) Uani 1 1 d . . . . . 
H3 H 0.1529 0.5664 0.6002 0.039 Uiso 1 1 calc R U . . . 
C4 C 0.3969(7) 0.52421(17) 0.65470(17) 0.0328(9) Uani 1 1 d . . . . . 
C5 C 0.2930(8) 0.54310(18) 0.70666(18) 0.0392(10) Uani 1 1 d . . . . . 
H5 H 0.1471 0.5675 0.7052 0.047 Uiso 1 1 calc R U . . . 
C6 C 0.3981(9) 0.5269(2) 0.7575(2) 0.0500(11) Uani 1 1 d . . . . . 
H6 H 0.3259 0.5402 0.7914 0.060 Uiso 1 1 calc R U . . . 
C7 C 0.6173(9) 0.4900(2) 0.7614(2) 0.0493(11) Uani 1 1 d . . . . . 
H7 H 0.6903 0.4790 0.7976 0.059 Uiso 1 1 calc R U . . . 
C8 C 0.7197(8) 0.47076(19) 0.71335(18) 0.042(1) Uani 1 1 d . . . . . 
H8 H 0.8652 0.4463 0.7163 0.050 Uiso 1 1 calc R U . . . 
C9 C 0.6143(7) 0.48644(17) 0.65791(17) 0.0338(9) Uani 1 1 d . . . . . 
C10 C 0.7143(7) 0.46602(16) 0.60824(17) 0.0329(9) Uani 1 1 d . . . . . 
H10 H 0.8576 0.4408 0.6108 0.039 Uiso 1 1 calc R U . . . 
C11 C 0.6083(6) 0.48173(15) 0.55399(16) 0.0278(8) Uani 1 1 d . . . . . 
C12 C 0.0933(6) 0.58264(16) 0.49355(16) 0.0291(8) Uani 1 1 d . . . . . 
C13 C -0.0587(7) 0.62149(17) 0.49188(17) 0.0338(9) Uani 1 1 d . . . . . 
C14 C -0.4521(7) 0.68620(17) 0.41960(18) 0.0366(9) Uani 1 1 d . . . . . 
H14A H -0.5924 0.6579 0.4232 0.044 Uiso 1 1 calc R U . . . 
H14B H -0.5282 0.7254 0.4126 0.044 Uiso 1 1 calc R U . . . 
C15 C -0.3009(8) 0.66906(19) 0.36842(18) 0.0401(10) Uani 1 1 d . . . . . 
H15A H -0.1428 0.6924 0.3692 0.048 Uiso 1 1 calc R U . A 1 
H15B H -0.2527 0.6272 0.3720 0.048 Uiso 1 1 calc R U . A 1 
C16 C -0.4427(9) 0.6782(2) 0.3113(2) 0.0471(11) Uani 0.71(2) 1 d D U P B 1 
H16A H -0.4802 0.7204 0.3060 0.057 Uiso 0.71(2) 1 calc R U P B 1 
H16B H -0.6060 0.6569 0.3109 0.057 Uiso 0.71(2) 1 calc R U P B 1 
C17 C -0.288(2) 0.6564(8) 0.2621(3) 0.0455(16) Uani 0.71(2) 1 d D U P B 1 
H17A H -0.1186 0.6749 0.2648 0.055 Uiso 0.71(2) 1 calc R U P B 1 
H17B H -0.2653 0.6135 0.2654 0.055 Uiso 0.71(2) 1 calc R U P B 1 
C18 C -0.417(3) 0.6706(5) 0.2044(3) 0.062(3) Uani 0.71(2) 1 d D U P B 1 
H18A H -0.4329 0.7137 0.2004 0.075 Uiso 0.71(2) 1 calc R U P B 1 
H18B H -0.5895 0.6537 0.2024 0.075 Uiso 0.71(2) 1 calc R U P B 1 
C19 C -0.270(3) 0.6466(5) 0.1545(4) 0.081(3) Uani 0.71(2) 1 d D U P B 1 
H19A H -0.0918 0.6587 0.1592 0.122 Uiso 0.71(2) 1 calc R U P B 1 
H19B H -0.3439 0.6622 0.1185 0.122 Uiso 0.71(2) 1 calc R U P B 1 
H19C H -0.2797 0.6037 0.1541 0.122 Uiso 0.71(2) 1 calc R U P B 1 
C16' C -0.4427(9) 0.6782(2) 0.3113(2) 0.0471(11) Uani 0.29(2) 1 d D U P B 2 
H16C H -0.4819 0.7206 0.3085 0.057 Uiso 0.29(2) 1 calc R U P B 2 
H16D H -0.6071 0.6577 0.3135 0.057 Uiso 0.29(2) 1 calc R U P B 2 
C17' C -0.336(5) 0.661(2) 0.2546(6) 0.0455(16) Uani 0.29(2) 1 d D U P B 2 
H17C H -0.1847 0.6848 0.2481 0.055 Uiso 0.29(2) 1 calc R U P B 2 
H17D H -0.2810 0.6191 0.2569 0.055 Uiso 0.29(2) 1 calc R U P B 2 
C18' C -0.525(5) 0.6678(15) 0.2039(6) 0.062(3) Uani 0.29(2) 1 d D U P B 2 
H18C H -0.5837 0.7090 0.2018 0.075 Uiso 0.29(2) 1 calc R U P B 2 
H18D H -0.6748 0.6426 0.2094 0.075 Uiso 0.29(2) 1 calc R U P B 2 
C19' C -0.406(7) 0.6510(15) 0.1478(7) 0.081(3) Uani 0.29(2) 1 d D U P B 2 
H19D H -0.5312 0.6560 0.1160 0.122 Uiso 0.29(2) 1 calc R U P B 2 
H19E H -0.2594 0.6763 0.1420 0.122 Uiso 0.29(2) 1 calc R U P B 2 
H19F H -0.3504 0.6100 0.1497 0.122 Uiso 0.29(2) 1 calc R U P B 2 
C20 C -0.4421(7) 0.69180(17) 0.55392(18) 0.0371(9) Uani 1 1 d . . . . . 
H20A H -0.5053 0.7323 0.5585 0.045 Uiso 1 1 calc R U . . . 
H20B H -0.5912 0.6656 0.5491 0.045 Uiso 1 1 calc R U . . . 
C21 C -0.2857(7) 0.67392(19) 0.60883(17) 0.0384(10) Uani 1 1 d . . . . . 
H21A H -0.2496 0.6314 0.6073 0.046 Uiso 1 1 calc R U . . . 
H21B H -0.1214 0.6949 0.6098 0.046 Uiso 1 1 calc R U . . . 
C22 C -0.4166(8) 0.68704(19) 0.66322(19) 0.0409(10) Uani 1 1 d . . . . . 
H22A H -0.4437 0.7299 0.6660 0.049 Uiso 1 1 calc R U . . . 
H22B H -0.5851 0.6679 0.6614 0.049 Uiso 1 1 calc R U . . . 
C23 C -0.2687(8) 0.66636(19) 0.71621(18) 0.0414(10) Uani 1 1 d . . . . . 
H23A H -0.0959 0.6831 0.7162 0.050 Uiso 1 1 calc R U . . . 
H23B H -0.2521 0.6232 0.7144 0.050 Uiso 1 1 calc R U . . . 
C24 C -0.3843(10) 0.6824(2) 0.7718(2) 0.0550(12) Uani 1 1 d . . . . . 
H24A H -0.5581 0.6662 0.7719 0.066 Uiso 1 1 calc R U . . . 
H24B H -0.3970 0.7256 0.7744 0.066 Uiso 1 1 calc R U . . . 
C25 C -0.2306(12) 0.6595(3) 0.8238(2) 0.0743(17) Uani 1 1 d . . . . . 
H25A H -0.2174 0.6167 0.8215 0.111 Uiso 1 1 calc R U . . . 
H25B H -0.3151 0.6703 0.8585 0.111 Uiso 1 1 calc R U . . . 
H25C H -0.0605 0.6767 0.8249 0.111 Uiso 1 1 calc R U . . . 
C26 C -0.0402(7) 0.75299(17) 0.48856(18) 0.0361(9) Uani 0.618(6) 1 d D U P C 1 
H26A H 0.0617 0.7537 0.5251 0.043 Uiso 0.618(6) 1 calc R U P C 1 
H26B H 0.0782 0.7483 0.4575 0.043 Uiso 0.618(6) 1 calc R U P C 1 
C27 C -0.1789(17) 0.8116(3) 0.4808(4) 0.040(2) Uani 0.618(6) 1 d D U P C 1 
H27A H -0.2774 0.8117 0.4438 0.048 Uiso 0.618(6) 1 calc R U P C 1 
H27B H -0.2993 0.8164 0.5114 0.048 Uiso 0.618(6) 1 calc R U P C 1 
C28 C 0.007(3) 0.8629(4) 0.4826(13) 0.057(2) Uani 0.618(6) 1 d D U P C 1 
H28A H 0.1218 0.8591 0.4508 0.068 Uiso 0.618(6) 1 calc R U P C 1 
H28B H 0.1107 0.8617 0.5188 0.068 Uiso 0.618(6) 1 calc R U P C 1 
C29 C -0.1330(18) 0.9222(3) 0.4776(4) 0.0642(19) Uani 0.618(6) 1 d D U P C 1 
H29A H -0.2717 0.9224 0.5044 0.077 Uiso 0.618(6) 1 calc R U P C 1 
H29B H -0.0133 0.9539 0.4891 0.077 Uiso 0.618(6) 1 calc R U P C 1 
C30 C -0.242(2) 0.9346(4) 0.4186(4) 0.067(2) Uani 0.618(6) 1 d D U P C 1 
H30A H -0.3680 0.9039 0.4078 0.081 Uiso 0.618(6) 1 calc R U P C 1 
H30B H -0.1049 0.9325 0.3915 0.081 Uiso 0.618(6) 1 calc R U P C 1 
C31 C -0.371(5) 0.9952(11) 0.413(2) 0.089(5) Uani 0.618(6) 1 d D U P C 1 
H31A H -0.5252 0.9954 0.4345 0.133 Uiso 0.618(6) 1 calc R U P C 1 
H31B H -0.4163 1.0031 0.3726 0.133 Uiso 0.618(6) 1 calc R U P C 1 
H31C H -0.2547 1.0255 0.4278 0.133 Uiso 0.618(6) 1 calc R U P C 1 
C26' C -0.0402(7) 0.75299(17) 0.48856(18) 0.0361(9) Uani 0.382(6) 1 d D U P C 2 
H26C H 0.0182 0.7616 0.5284 0.043 Uiso 0.382(6) 1 calc R U P C 2 
H26D H 0.1108 0.7426 0.4674 0.043 Uiso 0.382(6) 1 calc R U P C 2 
C27' C -0.161(3) 0.8087(4) 0.4621(8) 0.040(2) Uani 0.382(6) 1 d D U P C 2 
H27C H -0.1820 0.8034 0.4203 0.048 Uiso 0.382(6) 1 calc R U P C 2 
H27D H -0.3311 0.8140 0.4769 0.048 Uiso 0.382(6) 1 calc R U P C 2 
C28' C -0.006(5) 0.8640(6) 0.474(2) 0.057(2) Uani 0.382(6) 1 d D U P C 2 
H28C H 0.1749 0.8554 0.4688 0.068 Uiso 0.382(6) 1 calc R U P C 2 
H28D H -0.0216 0.8752 0.5147 0.068 Uiso 0.382(6) 1 calc R U P C 2 
C29' C -0.090(3) 0.9164(5) 0.4359(6) 0.0642(19) Uani 0.382(6) 1 d D U P C 2 
H29C H 0.0360 0.9484 0.4409 0.077 Uiso 0.382(6) 1 calc R U P C 2 
H29D H -0.0932 0.9039 0.3955 0.077 Uiso 0.382(6) 1 calc R U P C 2 
C30' C -0.347(3) 0.9394(6) 0.4491(7) 0.067(2) Uani 0.382(6) 1 d D U P C 2 
H30C H -0.3439 0.9513 0.4896 0.081 Uiso 0.382(6) 1 calc R U P C 2 
H30D H -0.4728 0.9075 0.4436 0.081 Uiso 0.382(6) 1 calc R U P C 2 
C31' C -0.431(9) 0.992(2) 0.411(4) 0.089(5) Uani 0.382(6) 1 d D U P C 2 
H31D H -0.5987 1.0053 0.4218 0.133 Uiso 0.382(6) 1 calc R U P C 2 
H31E H -0.3087 1.0242 0.4173 0.133 Uiso 0.382(6) 1 calc R U P C 2 
H31F H -0.4376 0.9803 0.3712 0.133 Uiso 0.382(6) 1 calc R U P C 2 
 
loop_ 
 _atom_site_aniso_label 
 _atom_site_aniso_U_11 
 _atom_site_aniso_U_22 
 _atom_site_aniso_U_33 
 _atom_site_aniso_U_23 
 _atom_site_aniso_U_13 
 _atom_site_aniso_U_12 
Si1 0.0211(6) 0.0297(6) 0.0411(7) 0.0004(4) 0.0044(4) 0.0044(4) 
C1 0.0193(18) 0.0245(18) 0.041(2) 0.0022(15) 0.0057(15) -0.0008(13) 
C2 0.0208(19) 0.0264(19) 0.037(2) -0.0005(15) 0.0048(15) 0.0003(13) 
C3 0.027(2) 0.030(2) 0.040(2) -0.0027(16) 0.0094(16) 0.0025(14) 
C4 0.026(2) 0.034(2) 0.038(2) 0.0009(16) 0.0076(16) -0.0047(15) 
C5 0.038(2) 0.039(2) 0.041(3) -0.0014(18) 0.0140(18) -0.0033(17) 
C6 0.059(3) 0.052(3) 0.040(3) -0.005(2) 0.010(2) -0.009(2) 
C7 0.056(3) 0.053(3) 0.039(3) 0.004(2) -0.003(2) -0.014(2) 
C8 0.043(2) 0.042(2) 0.040(3) 0.0041(19) -0.0021(19) -0.0031(18) 
C9 0.032(2) 0.032(2) 0.037(2) -0.0031(16) 0.0014(16) -0.0036(15) 
C10 0.029(2) 0.027(2) 0.042(2) 0.0005(16) -0.0005(16) -0.0005(14) 
C11 0.0225(19) 0.0265(19) 0.035(2) -0.0004(15) 0.0041(15) -0.0037(13) 
C12 0.0219(19) 0.031(2) 0.035(2) 0.0019(15) 0.0028(15) -0.0002(15) 
C13 0.026(2) 0.035(2) 0.041(2) 0.0027(17) 0.0036(16) 0.0005(16) 
C14 0.026(2) 0.036(2) 0.048(3) 0.0036(18) 0.0045(17) 0.0067(15) 
C15 0.032(2) 0.043(2) 0.045(3) -0.0061(19) 0.0046(18) 0.0043(17) 
C16 0.052(3) 0.044(3) 0.045(3) 0.0022(19) 0.0035(19) 0.0097(19) 
C17 0.053(5) 0.045(4) 0.039(3) 0.000(3) 0.004(3) 0.001(4) 
C18 0.077(7) 0.066(4) 0.042(3) 0.000(3) -0.003(3) 0.003(6) 
C19 0.098(9) 0.098(6) 0.049(4) -0.010(4) 0.004(5) 0.000(7) 
C16' 0.052(3) 0.044(3) 0.045(3) 0.0022(19) 0.0035(19) 0.0097(19) 
C17' 0.053(5) 0.045(4) 0.039(3) 0.000(3) 0.004(3) 0.001(4) 
C18' 0.077(7) 0.066(4) 0.042(3) 0.000(3) -0.003(3) 0.003(6) 
C19' 0.098(9) 0.098(6) 0.049(4) -0.010(4) 0.004(5) 0.000(7) 
C20 0.033(2) 0.033(2) 0.045(3) -0.0040(17) -0.0004(17) 0.0031(16) 
C21 0.031(2) 0.048(3) 0.037(2) 0.0029(18) 0.0065(17) 0.0028(17) 
C22 0.034(2) 0.042(2) 0.047(3) -0.0028(19) 0.0076(18) 0.0005(17) 
C23 0.042(2) 0.041(2) 0.041(3) -0.0019(18) 0.0075(19) -0.0028(18) 
C24 0.065(3) 0.055(3) 0.046(3) -0.001(2) 0.012(2) -0.009(2) 
C25 0.109(5) 0.063(4) 0.051(4) 0.009(3) 0.007(3) -0.017(3) 
C26 0.024(2) 0.039(2) 0.046(3) -0.0005(17) 0.0086(16) 0.0028(15) 
C27 0.037(3) 0.039(2) 0.045(7) -0.003(3) 0.014(4) 0.0051(18) 
C28 0.068(4) 0.042(3) 0.060(8) 0.000(2) 0.001(3) -0.007(2) 
C29 0.092(5) 0.046(3) 0.055(4) -0.001(3) 0.011(4) 0.001(3) 
C30 0.086(6) 0.050(4) 0.066(5) 0.000(3) 0.008(4) 0.009(3) 
C31 0.117(12) 0.063(5) 0.087(5) 0.008(4) 0.015(10) 0.026(7) 
C26' 0.024(2) 0.039(2) 0.046(3) -0.0005(17) 0.0086(16) 0.0028(15) 
C27' 0.037(3) 0.039(2) 0.045(7) -0.003(3) 0.014(4) 0.0051(18) 
C28' 0.068(4) 0.042(3) 0.060(8) 0.000(2) 0.001(3) -0.007(2) 
C29' 0.092(5) 0.046(3) 0.055(4) -0.001(3) 0.011(4) 0.001(3) 
C30' 0.086(6) 0.050(4) 0.066(5) 0.000(3) 0.008(4) 0.009(3) 
C31' 0.117(12) 0.063(5) 0.087(5) 0.008(4) 0.015(10) 0.026(7) 
 
_geom_special_details 
; 
 All esds (except the esd in the dihedral angle between two l.s. planes) 
 are estimated using the full covariance matrix.  The cell esds are taken 
 into account individually in the estimation of esds in distances, angles 
 and torsion angles; correlations between esds in cell parameters are only 
 used when they are defined by crystal symmetry.  An approximate (isotropic) 
 treatment of cell esds is used for estimating esds involving l.s. planes. 
; 
 
loop_ 
 _geom_bond_atom_site_label_1 
 _geom_bond_atom_site_label_2 
 _geom_bond_distance 
 _geom_bond_site_symmetry_2 
 _geom_bond_publ_flag 
Si1 C13 1.849(4) . ? 
Si1 C20 1.866(4) . ? 
Si1 C14 1.868(4) . ? 
Si1 C26' 1.873(4) . ? 
Si1 C26 1.873(4) . ? 
C1 C11 1.402(5) 3_666 ? 
C1 C2 1.419(5) . ? 
C1 C12 1.442(5) . ? 
C2 C3 1.409(5) . ? 
C2 C11 1.450(5) . ? 
C3 C4 1.377(5) . ? 
C3 H3 0.9500 . ? 
C4 C5 1.430(5) . ? 
C4 C9 1.434(5) . ? 
C5 C6 1.342(6) . ? 
C5 H5 0.9500 . ? 
C6 C7 1.431(7) . ? 
C6 H6 0.9500 . ? 
C7 C8 1.349(6) . ? 
C7 H7 0.9500 . ? 
C8 C9 1.435(6) . ? 
C8 H8 0.9500 . ? 
C9 C10 1.386(5) . ? 
C10 C11 1.412(5) . ? 
C10 H10 0.9500 . ? 
C11 C1 1.402(5) 3_666 ? 
C12 C13 1.195(5) . ? 
C14 C15 1.528(6) . ? 
C14 H14A 0.9900 . ? 
C14 H14B 0.9900 . ? 
C15 C16' 1.517(6) . ? 
C15 C16 1.517(6) . ? 
C15 H15A 0.9900 . ? 
C15 H15B 0.9900 . ? 
C16 C17 1.531(7) . ? 
C16 H16A 0.9900 . ? 
C16 H16B 0.9900 . ? 
C17 C18 1.519(8) . ? 
C17 H17A 0.9900 . ? 
C17 H17B 0.9900 . ? 
C18 C19 1.538(9) . ? 
C18 H18A 0.9900 . ? 
C18 H18B 0.9900 . ? 
C19 H19A 0.9800 . ? 
C19 H19B 0.9800 . ? 
C19 H19C 0.9800 . ? 
C16' C17' 1.527(9) . ? 
C16' H16C 0.9900 . ? 
C16' H16D 0.9900 . ? 
C17' C18' 1.523(11) . ? 
C17' H17C 0.9900 . ? 
C17' H17D 0.9900 . ? 
C18' C19' 1.539(12) . ? 
C18' H18C 0.9900 . ? 
C18' H18D 0.9900 . ? 
C19' H19D 0.9800 . ? 
C19' H19E 0.9800 . ? 
C19' H19F 0.9800 . ? 
C20 C21 1.551(6) . ? 
C20 H20A 0.9900 . ? 
C20 H20B 0.9900 . ? 
C21 C22 1.513(6) . ? 
C21 H21A 0.9900 . ? 
C21 H21B 0.9900 . ? 
C22 C23 1.511(6) . ? 
C22 H22A 0.9900 . ? 
C22 H22B 0.9900 . ? 
C23 C24 1.514(6) . ? 
C23 H23A 0.9900 . ? 
C23 H23B 0.9900 . ? 
C24 C25 1.525(7) . ? 
C24 H24A 0.9900 . ? 
C24 H24B 0.9900 . ? 
C25 H25A 0.9800 . ? 
C25 H25B 0.9800 . ? 
C25 H25C 0.9800 . ? 
C26 C27 1.531(7) . ? 
C26 H26A 0.9900 . ? 
C26 H26B 0.9900 . ? 
C27 C28 1.524(9) . ? 
C27 H27A 0.9900 . ? 
C27 H27B 0.9900 . ? 
C28 C29 1.541(14) . ? 
C28 H28A 0.9900 . ? 
C28 H28B 0.9900 . ? 
C29 C30 1.502(9) . ? 
C29 H29A 0.9900 . ? 
C29 H29B 0.9900 . ? 
C30 C31 1.543(19) . ? 
C30 H30A 0.9900 . ? 
C30 H30B 0.9900 . ? 
C31 H31A 0.9800 . ? 
C31 H31B 0.9800 . ? 
C31 H31C 0.9800 . ? 
C26' C27' 1.538(9) . ? 
C26' H26C 0.9900 . ? 
C26' H26D 0.9900 . ? 
C27' C28' 1.521(10) . ? 
C27' H27C 0.9900 . ? 
C27' H27D 0.9900 . ? 
C28' C29' 1.550(16) . ? 
C28' H28C 0.9900 . ? 
C28' H28D 0.9900 . ? 
C29' C30' 1.501(11) . ? 
C29' H29C 0.9900 . ? 
C29' H29D 0.9900 . ? 
C30' C31' 1.54(2) . ? 
C30' H30C 0.9900 . ? 
C30' H30D 0.9900 . ? 
C31' H31D 0.9800 . ? 
C31' H31E 0.9800 . ? 
C31' H31F 0.9800 . ? 
 
loop_ 
 _geom_angle_atom_site_label_1 
 _geom_angle_atom_site_label_2 
 _geom_angle_atom_site_label_3 
 _geom_angle 
 _geom_angle_site_symmetry_1 
 _geom_angle_site_symmetry_3 
 _geom_angle_publ_flag 
C13 Si1 C20 108.57(18) . . ? 
C13 Si1 C14 107.80(18) . . ? 
C20 Si1 C14 115.35(18) . . ? 
C13 Si1 C26' 107.51(17) . . ? 
C20 Si1 C26' 107.97(18) . . ? 
C14 Si1 C26' 109.39(19) . . ? 
C13 Si1 C26 107.51(17) . . ? 
C20 Si1 C26 107.97(18) . . ? 
C14 Si1 C26 109.39(19) . . ? 
C11 C1 C2 121.4(3) 3_666 . ? 
C11 C1 C12 120.0(3) 3_666 . ? 
C2 C1 C12 118.5(3) . . ? 
C3 C2 C1 122.7(3) . . ? 
C3 C2 C11 118.2(3) . . ? 
C1 C2 C11 119.0(3) . . ? 
C4 C3 C2 122.5(3) . . ? 
C4 C3 H3 118.7 . . ? 
C2 C3 H3 118.7 . . ? 
C3 C4 C5 122.3(4) . . ? 
C3 C4 C9 119.2(4) . . ? 
C5 C4 C9 118.5(4) . . ? 
C6 C5 C4 121.1(4) . . ? 
C6 C5 H5 119.4 . . ? 
C4 C5 H5 119.4 . . ? 
C5 C6 C7 121.0(4) . . ? 
C5 C6 H6 119.5 . . ? 
C7 C6 H6 119.5 . . ? 
C8 C7 C6 119.7(4) . . ? 
C8 C7 H7 120.2 . . ? 
C6 C7 H7 120.2 . . ? 
C7 C8 C9 121.6(4) . . ? 
C7 C8 H8 119.2 . . ? 
C9 C8 H8 119.2 . . ? 
C10 C9 C4 119.7(4) . . ? 
C10 C9 C8 122.2(4) . . ? 
C4 C9 C8 118.0(4) . . ? 
C9 C10 C11 121.6(4) . . ? 
C9 C10 H10 119.2 . . ? 
C11 C10 H10 119.2 . . ? 
C1 C11 C10 121.7(3) 3_666 . ? 
C1 C11 C2 119.6(3) 3_666 . ? 
C10 C11 C2 118.7(3) . . ? 
C13 C12 C1 175.2(4) . . ? 
C12 C13 Si1 172.4(3) . . ? 
C15 C14 Si1 113.6(3) . . ? 
C15 C14 H14A 108.9 . . ? 
Si1 C14 H14A 108.9 . . ? 
C15 C14 H14B 108.9 . . ? 
Si1 C14 H14B 108.9 . . ? 
H14A C14 H14B 107.7 . . ? 
C16' C15 C14 114.0(3) . . ? 
C16 C15 C14 114.0(3) . . ? 
C16 C15 H15A 108.8 . . ? 
C14 C15 H15A 108.8 . . ? 
C16 C15 H15B 108.8 . . ? 
C14 C15 H15B 108.8 . . ? 
H15A C15 H15B 107.7 . . ? 
C15 C16 C17 111.4(5) . . ? 
C15 C16 H16A 109.3 . . ? 
C17 C16 H16A 109.3 . . ? 
C15 C16 H16B 109.3 . . ? 
C17 C16 H16B 109.3 . . ? 
H16A C16 H16B 108.0 . . ? 
C18 C17 C16 112.0(6) . . ? 
C18 C17 H17A 109.2 . . ? 
C16 C17 H17A 109.2 . . ? 
C18 C17 H17B 109.2 . . ? 
C16 C17 H17B 109.2 . . ? 
H17A C17 H17B 107.9 . . ? 
C17 C18 C19 112.6(7) . . ? 
C17 C18 H18A 109.1 . . ? 
C19 C18 H18A 109.1 . . ? 
C17 C18 H18B 109.1 . . ? 
C19 C18 H18B 109.1 . . ? 
H18A C18 H18B 107.8 . . ? 
C18 C19 H19A 109.5 . . ? 
C18 C19 H19B 109.5 . . ? 
H19A C19 H19B 109.5 . . ? 
C18 C19 H19C 109.5 . . ? 
H19A C19 H19C 109.5 . . ? 
H19B C19 H19C 109.5 . . ? 
C15 C16' C17' 123.2(9) . . ? 
C15 C16' H16C 106.5 . . ? 
C17' C16' H16C 106.5 . . ? 
C15 C16' H16D 106.5 . . ? 
C17' C16' H16D 106.5 . . ? 
H16C C16' H16D 106.5 . . ? 
C18' C17' C16' 113.3(11) . . ? 
C18' C17' H17C 108.9 . . ? 
C16' C17' H17C 108.9 . . ? 
C18' C17' H17D 108.9 . . ? 
C16' C17' H17D 108.9 . . ? 
H17C C17' H17D 107.7 . . ? 
C17' C18' C19' 111.1(12) . . ? 
C17' C18' H18C 109.4 . . ? 
C19' C18' H18C 109.4 . . ? 
C17' C18' H18D 109.4 . . ? 
C19' C18' H18D 109.4 . . ? 
H18C C18' H18D 108.0 . . ? 
C18' C19' H19D 109.5 . . ? 
C18' C19' H19E 109.5 . . ? 
H19D C19' H19E 109.5 . . ? 
C18' C19' H19F 109.5 . . ? 
H19D C19' H19F 109.5 . . ? 
H19E C19' H19F 109.5 . . ? 
C21 C20 Si1 113.4(3) . . ? 
C21 C20 H20A 108.9 . . ? 
Si1 C20 H20A 108.9 . . ? 
C21 C20 H20B 108.9 . . ? 
Si1 C20 H20B 108.9 . . ? 
H20A C20 H20B 107.7 . . ? 
C22 C21 C20 113.8(3) . . ? 
C22 C21 H21A 108.8 . . ? 
C20 C21 H21A 108.8 . . ? 
C22 C21 H21B 108.8 . . ? 
C20 C21 H21B 108.8 . . ? 
H21A C21 H21B 107.7 . . ? 
C23 C22 C21 113.2(3) . . ? 
C23 C22 H22A 108.9 . . ? 
C21 C22 H22A 108.9 . . ? 
C23 C22 H22B 108.9 . . ? 
C21 C22 H22B 108.9 . . ? 
H22A C22 H22B 107.7 . . ? 
C22 C23 C24 114.9(4) . . ? 
C22 C23 H23A 108.6 . . ? 
C24 C23 H23A 108.6 . . ? 
C22 C23 H23B 108.6 . . ? 
C24 C23 H23B 108.6 . . ? 
H23A C23 H23B 107.5 . . ? 
C23 C24 C25 112.7(5) . . ? 
C23 C24 H24A 109.0 . . ? 
C25 C24 H24A 109.0 . . ? 
C23 C24 H24B 109.0 . . ? 
C25 C24 H24B 109.0 . . ? 
H24A C24 H24B 107.8 . . ? 
C24 C25 H25A 109.5 . . ? 
C24 C25 H25B 109.5 . . ? 
H25A C25 H25B 109.5 . . ? 
C24 C25 H25C 109.5 . . ? 
H25A C25 H25C 109.5 . . ? 
H25B C25 H25C 109.5 . . ? 
C27 C26 Si1 113.5(4) . . ? 
C27 C26 H26A 108.9 . . ? 
Si1 C26 H26A 108.9 . . ? 
C27 C26 H26B 108.9 . . ? 
Si1 C26 H26B 108.9 . . ? 
H26A C26 H26B 107.7 . . ? 
C28 C27 C26 111.3(7) . . ? 
C28 C27 H27A 109.4 . . ? 
C26 C27 H27A 109.4 . . ? 
C28 C27 H27B 109.4 . . ? 
C26 C27 H27B 109.4 . . ? 
H27A C27 H27B 108.0 . . ? 
C27 C28 C29 111.5(11) . . ? 
C27 C28 H28A 109.3 . . ? 
C29 C28 H28A 109.3 . . ? 
C27 C28 H28B 109.3 . . ? 
C29 C28 H28B 109.3 . . ? 
H28A C28 H28B 108.0 . . ? 
C30 C29 C28 113.3(13) . . ? 
C30 C29 H29A 108.9 . . ? 
C28 C29 H29A 108.9 . . ? 
C30 C29 H29B 108.9 . . ? 
C28 C29 H29B 108.9 . . ? 
H29A C29 H29B 107.7 . . ? 
C29 C30 C31 113(2) . . ? 
C29 C30 H30A 108.9 . . ? 
C31 C30 H30A 108.9 . . ? 
C29 C30 H30B 108.9 . . ? 
C31 C30 H30B 108.9 . . ? 
H30A C30 H30B 107.7 . . ? 
C30 C31 H31A 109.5 . . ? 
C30 C31 H31B 109.5 . . ? 
H31A C31 H31B 109.5 . . ? 
C30 C31 H31C 109.5 . . ? 
H31A C31 H31C 109.5 . . ? 
H31B C31 H31C 109.5 . . ? 
C27' C26' Si1 114.2(6) . . ? 
C27' C26' H26C 108.7 . . ? 
Si1 C26' H26C 108.7 . . ? 
C27' C26' H26D 108.7 . . ? 
Si1 C26' H26D 108.7 . . ? 
H26C C26' H26D 107.6 . . ? 
C28' C27' C26' 113.7(9) . . ? 
C28' C27' H27C 108.8 . . ? 
C26' C27' H27C 108.8 . . ? 
C28' C27' H27D 108.8 . . ? 
C26' C27' H27D 108.8 . . ? 
H27C C27' H27D 107.7 . . ? 
C27' C28' C29' 113.2(14) . . ? 
C27' C28' H28C 108.9 . . ? 
C29' C28' H28C 108.9 . . ? 
C27' C28' H28D 108.9 . . ? 
C29' C28' H28D 108.9 . . ? 
H28C C28' H28D 107.8 . . ? 
C30' C29' C28' 112.5(18) . . ? 
C30' C29' H29C 109.1 . . ? 
C28' C29' H29C 109.1 . . ? 
C30' C29' H29D 109.1 . . ? 
C28' C29' H29D 109.1 . . ? 
H29C C29' H29D 107.8 . . ? 
C29' C30' C31' 113(2) . . ? 
C29' C30' H30C 109.0 . . ? 
C31' C30' H30C 109.0 . . ? 
C29' C30' H30D 109.0 . . ? 
C31' C30' H30D 109.0 . . ? 
H30C C30' H30D 107.8 . . ? 
C30' C31' H31D 109.5 . . ? 
C30' C31' H31E 109.5 . . ? 
H31D C31' H31E 109.5 . . ? 
C30' C31' H31F 109.5 . . ? 
H31D C31' H31F 109.5 . . ? 
H31E C31' H31F 109.5 . . ? 
 
loop_ 
 _geom_torsion_atom_site_label_1 
 _geom_torsion_atom_site_label_2 
 _geom_torsion_atom_site_label_3 
 _geom_torsion_atom_site_label_4 
 _geom_torsion 
 _geom_torsion_site_symmetry_1 
 _geom_torsion_site_symmetry_2 
 _geom_torsion_site_symmetry_3 
 _geom_torsion_site_symmetry_4 
 _geom_torsion_publ_flag 
C11 C1 C2 C3 -177.9(3) 3_666 . . . ? 
C12 C1 C2 C3 6.1(5) . . . . ? 
C11 C1 C2 C11 0.2(6) 3_666 . . . ? 
C12 C1 C2 C11 -175.8(3) . . . . ? 
C1 C2 C3 C4 -179.8(3) . . . . ? 
C11 C2 C3 C4 2.1(5) . . . . ? 
C2 C3 C4 C5 -179.3(3) . . . . ? 
C2 C3 C4 C9 0.7(6) . . . . ? 
C3 C4 C5 C6 -178.8(4) . . . . ? 
C9 C4 C5 C6 1.2(6) . . . . ? 
C4 C5 C6 C7 -0.3(7) . . . . ? 
C5 C6 C7 C8 -0.3(7) . . . . ? 
C6 C7 C8 C9 0.0(7) . . . . ? 
C3 C4 C9 C10 -2.0(6) . . . . ? 
C5 C4 C9 C10 178.1(3) . . . . ? 
C3 C4 C9 C8 178.5(3) . . . . ? 
C5 C4 C9 C8 -1.5(5) . . . . ? 
C7 C8 C9 C10 -178.6(4) . . . . ? 
C7 C8 C9 C4 0.9(6) . . . . ? 
C4 C9 C10 C11 0.4(6) . . . . ? 
C8 C9 C10 C11 179.9(3) . . . . ? 
C9 C10 C11 C1 -179.2(3) . . . 3_666 ? 
C9 C10 C11 C2 2.4(5) . . . . ? 
C3 C2 C11 C1 178.0(3) . . . 3_666 ? 
C1 C2 C11 C1 -0.2(6) . . . 3_666 ? 
C3 C2 C11 C10 -3.6(5) . . . . ? 
C1 C2 C11 C10 178.2(3) . . . . ? 
C13 Si1 C14 C15 -45.1(3) . . . . ? 
C20 Si1 C14 C15 -166.6(3) . . . . ? 
C26' Si1 C14 C15 71.5(3) . . . . ? 
C26 Si1 C14 C15 71.5(3) . . . . ? 
Si1 C14 C15 C16' -169.2(3) . . . . ? 
Si1 C14 C15 C16 -169.2(3) . . . . ? 
C14 C15 C16 C17 -176.2(9) . . . . ? 
C15 C16 C17 C18 -174.5(9) . . . . ? 
C16 C17 C18 C19 -177.5(11) . . . . ? 
C14 C15 C16' C17' -176(2) . . . . ? 
C15 C16' C17' C18' 173(2) . . . . ? 
C16' C17' C18' C19' 179(3) . . . . ? 
C13 Si1 C20 C21 40.8(3) . . . . ? 
C14 Si1 C20 C21 161.9(3) . . . . ? 
C26' Si1 C20 C21 -75.5(3) . . . . ? 
C26 Si1 C20 C21 -75.5(3) . . . . ? 
Si1 C20 C21 C22 169.6(3) . . . . ? 
C20 C21 C22 C23 176.8(3) . . . . ? 
C21 C22 C23 C24 175.9(4) . . . . ? 
C22 C23 C24 C25 178.8(4) . . . . ? 
C13 Si1 C26 C27 175.3(4) . . . . ? 
C20 Si1 C26 C27 -67.8(5) . . . . ? 
C14 Si1 C26 C27 58.5(5) . . . . ? 
Si1 C26 C27 C28 178.8(14) . . . . ? 
C26 C27 C28 C29 -177.3(14) . . . . ? 
C27 C28 C29 C30 -74(2) . . . . ? 
C28 C29 C30 C31 -177.3(16) . . . . ? 
C13 Si1 C26' C27' 156.4(8) . . . . ? 
C20 Si1 C26' C27' -86.6(8) . . . . ? 
C14 Si1 C26' C27' 39.7(8) . . . . ? 
Si1 C26' C27' C28' 167(3) . . . . ? 
C26' C27' C28' C29' 166(2) . . . . ? 
C27' C28' C29' C30' 69(4) . . . . ? 
C28' C29' C30' C31' 179(4) . . . . ? 
 
_refine_diff_density_max    0.292 
_refine_diff_density_min   -0.403 
_refine_diff_density_rms    0.066 
 
_shelx_res_file 
; 
 
    x15218.res created by SHELXL-2014/7 
 
 
TITL x15218 : space group P2(1)/n 
CELL  1.54178   5.2828  22.8062  23.4907   90.000   92.925   90.000 
ZERR    2.000   0.0006   0.0031   0.0034    0.000    0.009    0.000 
LATT  1 
SYMM 1/2-X, 1/2+Y, 1/2-Z 
SFAC C H SI 
UNIT 124 180 4 
TEMP -93 
SIZE 0.50 0.08 0.07 
REM FORM needle 
REM COLR blue 
REM The crystal was much longer than the x-ray beam cross section. 
REM This was necessary because the crystals were extremely soft and 
REM were consistently damaged by all attempts to cut them to a more 
REM appropriate length.  The crystal was mounted in such a way that 
REM only the central, undamaged part of the crystal was in the X-ray 
REM beam. 
L.S. 10 
BOND $H 
LIST 4 
CONF 
ACTA 
FMAP 2 
PLAN 5 
WGHT    0.111700    4.000100 
FVAR       0.10461   0.61833   0.70516 
SI1   3   -0.257960    0.688175    0.488303    11.00000    0.02110    0.02967 = 
         0.04112    0.00035    0.00444    0.00435 
C1    1    0.292835    0.539433    0.496319    11.00000    0.01925    0.02455 = 
         0.04075    0.00221    0.00573   -0.00082 
C2    1    0.395784    0.522053    0.550686    11.00000    0.02079    0.02639 = 
         0.03704   -0.00049    0.00478    0.00034 
C3    1    0.295643    0.541045    0.602019    11.00000    0.02707    0.03024 = 
         0.04011   -0.00272    0.00937    0.00250 
AFIX  43 
H3    2    0.152862    0.566425    0.600217    11.00000   -1.20000 
AFIX   0 
C4    1    0.396903    0.524211    0.654698    11.00000    0.02644    0.03420 = 
         0.03825    0.00091    0.00764   -0.00470 
C5    1    0.293018    0.543104    0.706663    11.00000    0.03829    0.03920 = 
         0.04137   -0.00141    0.01402   -0.00329 
AFIX  43 
H5    2    0.147130    0.567520    0.705194    11.00000   -1.20000 
AFIX   0 
C6    1    0.398125    0.526928    0.757463    11.00000    0.05872    0.05210 = 
         0.03989   -0.00509    0.01011   -0.00931 
AFIX  43 
H6    2    0.325929    0.540218    0.791363    11.00000   -1.20000 
AFIX   0 
C7    1    0.617282    0.489969    0.761374    11.00000    0.05567    0.05251 = 
         0.03903    0.00380   -0.00318   -0.01357 
AFIX  43 
H7    2    0.690255    0.479015    0.797621    11.00000   -1.20000 
AFIX   0 
C8    1    0.719745    0.470758    0.713349    11.00000    0.04311    0.04184 = 
         0.04048    0.00410   -0.00206   -0.00313 
AFIX  43 
H8    2    0.865241    0.446253    0.716294    11.00000   -1.20000 
AFIX   0 
C9    1    0.614288    0.486443    0.657911    11.00000    0.03196    0.03218 = 
         0.03710   -0.00309    0.00144   -0.00359 
C10   1    0.714277    0.466020    0.608241    11.00000    0.02920    0.02725 = 
         0.04203    0.00047   -0.00054   -0.00053 
AFIX  43 
H10   2    0.857640    0.440832    0.610756    11.00000   -1.20000 
AFIX   0 
C11   1    0.608283    0.481734    0.553988    11.00000    0.02249    0.02654 = 
         0.03474   -0.00042    0.00415   -0.00370 
C12   1    0.093282    0.582638    0.493549    11.00000    0.02189    0.03085 = 
         0.03465    0.00194    0.00283   -0.00022 
C13   1   -0.058746    0.621493    0.491880    11.00000    0.02637    0.03462 = 
         0.04064    0.00269    0.00362    0.00047 
C14   1   -0.452147    0.686201    0.419604    11.00000    0.02623    0.03618 = 
         0.04767    0.00358    0.00448    0.00668 
AFIX  23 
H14A  2   -0.592407    0.657860    0.423165    11.00000   -1.20000 
H14B  2   -0.528209    0.725370    0.412551    11.00000   -1.20000 
AFIX   0 
C15   1   -0.300906    0.669063    0.368416    11.00000    0.03242    0.04303 = 
         0.04503   -0.00610    0.00456    0.00428 
AFIX  23 
H15A  2   -0.142768    0.692408    0.369242    11.00000   -1.20000 
H15B  2   -0.252657    0.627233    0.372033    11.00000   -1.20000 
AFIX   0 
EXYZ C16 C16' 
EADP C16 C16' 
EADP C17 C17' 
EADP C18 C18' 
EADP C19 C19' 
SAME 0.010 C16' C17' C18' C19' 
RIGU C16 > C19 
RIGU C16' > C19' 
PART 1 
C16   1   -0.442741    0.678202    0.311302    31.00000    0.05201    0.04427 = 
         0.04514    0.00218    0.00347    0.00969 
AFIX  23 
H16A  2   -0.480176    0.720442    0.306008    31.00000   -1.20000 
H16B  2   -0.606031    0.656870    0.310923    31.00000   -1.20000 
AFIX   0 
C17   1   -0.288459    0.656445    0.262085    31.00000    0.05256    0.04477 = 
         0.03927    0.00023    0.00444    0.00095 
AFIX  23 
H17A  2   -0.118618    0.674883    0.264823    31.00000   -1.20000 
H17B  2   -0.265324    0.613484    0.265442    31.00000   -1.20000 
AFIX   0 
C18   1   -0.416635    0.670597    0.204354    31.00000    0.07710    0.06649 = 
         0.04220    0.00018   -0.00251    0.00320 
AFIX  23 
H18A  2   -0.432944    0.713670    0.200426    31.00000   -1.20000 
H18B  2   -0.589492    0.653706    0.202403    31.00000   -1.20000 
AFIX   0 
C19   1   -0.269685    0.646625    0.154512    31.00000    0.09765    0.09794 = 
         0.04866   -0.01010    0.00416   -0.00047 
AFIX 137 
H19A  2   -0.091835    0.658729    0.159161    31.00000   -1.50000 
H19B  2   -0.343877    0.662153    0.118510    31.00000   -1.50000 
H19C  2   -0.279700    0.603718    0.154102    31.00000   -1.50000 
AFIX   0 
PART 2 
C16'  1   -0.442741    0.678202    0.311302   -31.00000    0.05201    0.04427 = 
         0.04514    0.00218    0.00347    0.00969 
AFIX  23 
H16C  2   -0.481897    0.720588    0.308528   -31.00000   -1.20000 
H16D  2   -0.607088    0.657672    0.313467   -31.00000   -1.20000 
AFIX   0 
C17'  1   -0.336012    0.660605    0.254567   -31.00000    0.05256    0.04477 = 
         0.03927    0.00023    0.00444    0.00095 
AFIX  23 
H17C  2   -0.184661    0.684839    0.248113   -31.00000   -1.20000 
H17D  2   -0.281019    0.619137    0.256859   -31.00000   -1.20000 
AFIX   0 
C18'  1   -0.525357    0.667759    0.203944   -31.00000    0.07710    0.06649 = 
         0.04220    0.00018   -0.00251    0.00320 
AFIX  23 
H18C  2   -0.583709    0.708987    0.201769   -31.00000   -1.20000 
H18D  2   -0.674798    0.642578    0.209438   -31.00000   -1.20000 
AFIX   0 
C19'  1   -0.405726    0.650972    0.147819   -31.00000    0.09765    0.09794 = 
         0.04866   -0.01010    0.00416   -0.00047 
AFIX  33 
H19D  2   -0.531178    0.655951    0.115995   -31.00000   -1.50000 
H19E  2   -0.259422    0.676307    0.142033   -31.00000   -1.50000 
H19F  2   -0.350412    0.609971    0.149694   -31.00000   -1.50000 
AFIX   0 
PART 0 
C20   1   -0.442131    0.691802    0.553917    11.00000    0.03273    0.03321 = 
         0.04523   -0.00400   -0.00039    0.00307 
AFIX  23 
H20A  2   -0.505338    0.732310    0.558480    11.00000   -1.20000 
H20B  2   -0.591177    0.665626    0.549086    11.00000   -1.20000 
AFIX   0 
C21   1   -0.285706    0.673919    0.608831    11.00000    0.03089    0.04778 = 
         0.03695    0.00292    0.00650    0.00282 
AFIX  23 
H21A  2   -0.249626    0.631369    0.607263    11.00000   -1.20000 
H21B  2   -0.121399    0.694866    0.609836    11.00000   -1.20000 
AFIX   0 
C22   1   -0.416615    0.687038    0.663222    11.00000    0.03421    0.04164 = 
         0.04745   -0.00279    0.00763    0.00051 
AFIX  23 
H22A  2   -0.443745    0.729874    0.665990    11.00000   -1.20000 
H22B  2   -0.585065    0.667912    0.661380    11.00000   -1.20000 
AFIX   0 
C23   1   -0.268683    0.666358    0.716208    11.00000    0.04234    0.04093 = 
         0.04138   -0.00192    0.00746   -0.00278 
AFIX  23 
H23A  2   -0.095851    0.683143    0.716244    11.00000   -1.20000 
H23B  2   -0.252147    0.623166    0.714396    11.00000   -1.20000 
AFIX   0 
C24   1   -0.384295    0.682426    0.771788    11.00000    0.06507    0.05481 = 
         0.04618   -0.00065    0.01176   -0.00916 
AFIX  23 
H24A  2   -0.558121    0.666217    0.771871    11.00000   -1.20000 
H24B  2   -0.396980    0.725642    0.774419    11.00000   -1.20000 
AFIX   0 
C25   1   -0.230581    0.659493    0.823842    11.00000    0.10870    0.06319 = 
         0.05122    0.00868    0.00657   -0.01670 
AFIX 137 
H25A  2   -0.217408    0.616705    0.821526    11.00000   -1.50000 
H25B  2   -0.315100    0.670306    0.858507    11.00000   -1.50000 
H25C  2   -0.060480    0.676733    0.824934    11.00000   -1.50000 
AFIX   0 
EXYZ C26 C26' 
EADP C26 C26' 
EADP C27 C27' 
EADP C28 C28' 
EADP C29 C29' 
EADP C30 C30' 
EADP C31 C31' 
RIGU C26 > C31 
RIGU C26' > C31' 
SAME 0.010 C26' > C31' 
PART 1 
C26   1   -0.040178    0.752990    0.488555    21.00000    0.02393    0.03888 = 
         0.04627   -0.00046    0.00860    0.00280 
AFIX  23 
H26A  2    0.061747    0.753749    0.525102    21.00000   -1.20000 
H26B  2    0.078194    0.748300    0.457532    21.00000   -1.20000 
AFIX   0 
C27   1   -0.178861    0.811631    0.480821    21.00000    0.03701    0.03936 = 
         0.04500   -0.00320    0.01404    0.00511 
AFIX  23 
H27A  2   -0.277398    0.811651    0.443824    21.00000   -1.20000 
H27B  2   -0.299274    0.816424    0.511425    21.00000   -1.20000 
AFIX   0 
C28   1    0.006538    0.862901    0.482564    21.00000    0.06791    0.04239 = 
         0.05966   -0.00040    0.00058   -0.00704 
AFIX  23 
H28A  2    0.121776    0.859067    0.450835    21.00000   -1.20000 
H28B  2    0.110733    0.861745    0.518792    21.00000   -1.20000 
AFIX   0 
C29   1   -0.133027    0.922174    0.477623    21.00000    0.09169    0.04633 = 
         0.05541   -0.00084    0.01087    0.00101 
AFIX  23 
H29A  2   -0.271700    0.922447    0.504422    21.00000   -1.20000 
H29B  2   -0.013289    0.953919    0.489146    21.00000   -1.20000 
AFIX   0 
C30   1   -0.242266    0.934622    0.418553    21.00000    0.08618    0.04996 = 
         0.06619    0.00007    0.00826    0.00887 
AFIX  23 
H30A  2   -0.367974    0.903869    0.407753    21.00000   -1.20000 
H30B  2   -0.104880    0.932467    0.391500    21.00000   -1.20000 
AFIX   0 
C31   1   -0.371401    0.995167    0.412830    21.00000    0.11745    0.06295 = 
         0.08680    0.00842    0.01475    0.02578 
AFIX 137 
H31A  2   -0.525201    0.995356    0.434458    21.00000   -1.50000 
H31B  2   -0.416277    1.003096    0.372571    21.00000   -1.50000 
H31C  2   -0.254745    1.025503    0.427826    21.00000   -1.50000 
AFIX   0 
PART 2 
C26'  1   -0.040178    0.752990    0.488555   -21.00000    0.02393    0.03888 = 
         0.04627   -0.00046    0.00860    0.00280 
AFIX  23 
H26C  2    0.018186    0.761577    0.528402   -21.00000   -1.20000 
H26D  2    0.110770    0.742644    0.467355   -21.00000   -1.20000 
AFIX   0 
C27'  1   -0.160536    0.808737    0.462106   -21.00000    0.03701    0.03936 = 
         0.04500   -0.00320    0.01404    0.00511 
AFIX  23 
H27C  2   -0.181995    0.803392    0.420315   -21.00000   -1.20000 
H27D  2   -0.331121    0.813996    0.476948   -21.00000   -1.20000 
AFIX   0 
C28'  1   -0.005904    0.863981    0.474353   -21.00000    0.06791    0.04239 = 
         0.05966   -0.00040    0.00058   -0.00704 
AFIX  23 
H28C  2    0.174924    0.855439    0.468817   -21.00000   -1.20000 
H28D  2   -0.021551    0.875181    0.514739   -21.00000   -1.20000 
AFIX   0 
C29'  1   -0.089962    0.916391    0.435854   -21.00000    0.09169    0.04633 = 
         0.05541   -0.00084    0.01087    0.00101 
AFIX  23 
H29C  2    0.035972    0.948355    0.440914   -21.00000   -1.20000 
H29D  2   -0.093224    0.903865    0.395471   -21.00000   -1.20000 
AFIX   0 
C30'  1   -0.346749    0.939360    0.449063   -21.00000    0.08618    0.04996 = 
         0.06619    0.00007    0.00826    0.00887 
AFIX  23 
H30C  2   -0.343922    0.951348    0.489596   -21.00000   -1.20000 
H30D  2   -0.472823    0.907482    0.443555   -21.00000   -1.20000 
AFIX   0 
C31'  1   -0.430593    0.992108    0.411393   -21.00000    0.11745    0.06295 = 
         0.08680    0.00842    0.01475    0.02578 
AFIX  33 
H31D  2   -0.598695    1.005285    0.421766   -21.00000   -1.50000 
H31E  2   -0.308662    1.024193    0.417287   -21.00000   -1.50000 
H31F  2   -0.437612    0.980310    0.371228   -21.00000   -1.50000 
PART 0 
AFIX   0 
HKLF 4 
 
REM  x15218 : space group P2(1)/n 
REM R1 =  0.0847 for    3337 Fo > 4sig(Fo)  and  0.1129 for all    4994 data 
REM    318 parameters refined using     98 restraints 
 
END 
 
WGHT      0.1152      3.9739 
 
REM Highest difference peak  0.292,  deepest hole -0.403,  1-sigma level  0.066 
Q1    1  -0.0910  0.7258  0.4630  11.00000  0.05    0.29 
Q2    1  -0.6451  0.7203  0.3863  11.00000  0.05    0.28 
Q3    1  -0.3886  0.7134  0.5214  11.00000  0.05    0.28 
Q4    1  -0.3587  0.6868  0.5242  11.00000  0.05    0.27 
Q5    1  -0.0374  0.6812  0.0921  11.00000  0.05    0.24 
; 
_shelx_res_checksum   40254 
 
_shelx_hkl_file
;
   2   0   0 48.1680 3.86568   1
   2   0   0 46.0409 4.66346   1
   2   0   0 48.6590 4.19302   1
   2   0   0 48.6078 4.37705   1
   4   0   0 1.47418 0.57383   3
   4   0   0 1.98877 0.46506   3
   4   0   0 2.02827 0.40561   3
   4   0   0 2.37463 0.53423   3
   4   0   0 3.48490 0.87836   1
   4   0   0 1.76120 0.35619   3
   4   0   0 2.55322 0.41431   3
   1  -1   0 266.073 23.3382   1
   1  -1   0 266.598 25.8476   1
   1  -1   0 266.059 24.0263   1
   1  -1   0 266.001 25.5908   3
   1  -1   0 276.772 23.3310   1
   1  -1   0 279.095 23.9293   1
   1  -1   0 277.221 23.9293   1
   1  -1   0 266.105 23.5599   1
   1  -1   0 271.767 23.9592   1
   1   1   0 332.319 25.2122   1
   1   1   0 326.091 22.9175   1
   1   1   0 327.121 22.9175   1
  -1   1   0 287.550 23.9592   1
   1   1   0 279.168 23.8491   1
   1   1   0 282.267 23.5353   1
  -1   1   0 276.642 24.0390   1
   1   1   0 318.933 23.5843   1
   1   1   0 283.051 22.1036   1
   1   1   0 333.868 23.5549   1
   2  -1   0 13.8641 1.49050   1
   2  -1   0 11.8120 1.58247   1
   2  -1   0 15.0880 1.42037   4
   2  -1   0 15.0384 1.31118   4
   2   1   0 14.5501 1.47550   1
   2   1   0 14.5549 1.59287   4
   2   1   0 14.1095 1.34230   1
   2   1   0 14.5639 1.37989   3
   3  -1   0 36.5507 3.29098   2
   3  -1   0 37.6574 3.00947   2
   3  -1   0 32.2482 3.62746   1
   3   1   0 32.5246 3.20009   3
   3   1   0 37.5094 2.98456   2
   3   1   0 34.8426 3.53339   2
   3   1   0 36.3541 3.36004   2
   4  -1   0 0.07936 0.20823   3
   4  -1   0 0.15185 0.19935   1
   4  -1   0 0.22782 0.31321   1
   4  -1   0 0.00995 0.12887   3
   4  -1   0 -0.0949 0.33216   1
   4  -1   0 0.24676 0.45554   1
   4  -1   0 0.32274 0.39861   1
   4  -1   0 0.21830 0.19935   1
   4   1   0 -0.0376 0.19731   1
   4   1   0 -0.0939 0.13154   1
   4   1   0 0.23480 0.25365   1
   4   1   0 -0.0469 0.12211   1
   4   1   0 0.07905 0.31601   3
   4   1   0 0.37576 0.39451   1
   5  -1   0 0.54228 0.25104   2
   5  -1   0 0.69661 0.45476   1
   5   1   0 0.84683 0.22134   1
   5   1   0 0.76990 0.37530   1
   0  -2   0 17.0806 1.46134   4
   0  -2   0 17.0830 1.54240   3
   0  -2   0 17.4543 1.44873   1
   0  -2   0 17.7939 1.44873   1
   0   2   0 17.0708 1.49532   4
   0   2   0 17.2144 1.44873   1
   0   2   0 17.1752 1.47392   1
   0   2   0 18.5932 1.46867   1
   1  -2   0 54.7913 4.76542   2
   1  -2   0 55.9303 4.57725   2
   1  -2   0 56.6409 4.85944   2
   1  -2   0 51.7084 4.74445   2
   1  -2   0 53.8507 5.37151   2
  -1  -2   0 61.2813 4.59558   2
   1  -2   0 58.0309 4.58774   2
  -1  -2   0 60.8387 4.99831   2
   1  -2   0 59.3894 4.75493   2
   1  -2   0 51.8861 4.47274   2
   1  -2   0 60.3195 4.74445   2
   1   2   0 54.5962 4.82217   2
  -1   2   0 59.0341 4.75493   2
   1   2   0 56.6550 4.96529   2
   1   2   0 54.6073 5.37268   2
   1   2   0 61.2596 4.68280   3
  -1   2   0 61.3651 4.66676   1
   1   2   0 61.3342 5.51395   1
   1   2   0 60.7946 4.82217   2
   1   2   0 55.1248 5.05342   2
   1   2   0 58.5377 4.97634   2
   1   2   0 59.3304 4.97634   2
   1   2   0 61.2443 4.75465   4
   2  -2   0 10.8311 1.02012   4
   2  -2   0 10.2880 1.02981   1
   2  -2   0 12.1693 0.95762   4
   2  -2   0 12.2889 0.95762   4
   2  -2   0 14.0047 1.21696   4
   2  -2   0 12.1194 1.31671   4
   2  -2   0 10.7979 1.32549   1
   2  -2   0 12.2092 1.01745   4
   2  -2   0 12.2092 1.00744   4
   2  -2   0 10.7570 1.16236   1
  -2   2   0 11.0920 0.99744   4
   2   2   0 13.0576 1.15937   3
  -2   2   0 11.5109 0.99744   4
   2   2   0 14.8260 1.13976   3
   3  -2   0 3.88320 0.81857   1
   3  -2   0 4.11280 0.67879   1
   3  -2   0 5.13103 0.87845   1
   3   2   0 7.12549 0.89074   2
   3   2   0 4.24501 0.75381   1
   3   2   0 6.98187 1.04396   2
   3   2   0 5.60381 0.80336   1
   4  -2   0 14.9604 1.74835   3
   4  -2   0 15.8346 1.78811   3
   4  -2   0 16.6194 1.79808   3
   4  -2   0 19.1129 1.79808   3
   4  -2   0 18.0400 1.59939   3
   4  -2   0 15.6757 2.43380   3
   4  -2   0 14.3347 2.00663   3
   4  -2   0 18.1692 1.68877   3
   4   2   0 17.5891 1.68599   3
   4   2   0 15.9919 1.72534   3
   4   2   0 17.9440 1.59717   3
   4   2   0 18.6638 2.02114   3
   4   2   0 14.9172 1.74512   3
   4   2   0 16.1201 1.80426   3
   4   2   0 18.2497 2.38597   3
   5  -2   0 10.7609 1.27971   1
   5   2   0 10.1960 1.07536   2
   5   2   0 9.55869 1.21479   2
   6  -2   0 -0.1245 0.15325   4
   1  -3   0 39.8632 3.81634   2
   1  -3   0 45.5355 3.65998   2
   1  -3   0 43.1268 3.65998   2
   1  -3   0 44.8265 3.91016   2
   1  -3   0 46.6721 3.59733   2
   1  -3   0 42.5951 3.84762   2
   1  -3   0 46.1924 3.83716   2
  -1  -3   0 48.4725 3.78593   1
   1  -3   0 41.0518 4.31681   2
   1  -3   0 47.5063 3.81634   2
   1   3   0 47.9167 3.88893   1
  -1   3   0 47.0683 3.83716   2
  -1   3   0 45.7753 3.82680   2
   1   3   0 47.9198 3.67645   1
   1   3   0 45.4231 4.01475   2
   2  -3   0 28.4825 2.34345   4
   2  -3   0 24.0771 2.81227   1
   2  -3   0 31.2666 2.38353   4
   2  -3   0 30.4754 2.26339   4
   2  -3   0 24.1790 2.43524   1
   2  -3   0 28.6628 2.61388   4
   2  -3   0 25.2286 2.41490   1
   2  -3   0 28.4825 2.39358   4
   2  -3   0 28.3422 2.26339   4
   2   3   0 31.0683 2.31372   3
  -2   3   0 27.6513 2.37359   4
   2   3   0 30.0389 2.62742   3
   2   3   0 24.8638 2.50793   1
   3  -3   0 5.29932 0.82993   1
   3  -3   0 5.91909 1.03539   2
   3   3   0 6.49210 0.87579   2
   3   3   0 5.22890 0.71303   1
   3   3   0 5.36747 0.82200   1
   4  -3   0 0.22023 0.16280   1
   4  -3   0 0.35431 0.27767   1
   4  -3   0 0.19910 0.41808   3
   4  -3   0 0.31599 0.58405   1
   4  -3   0 0.53622 0.24895   1
   4  -3   0 0.10954 0.25881   3
   4  -3   0 0.49790 0.44046   1
   4   3   0 0.68655 0.34332   1
   4   3   0 0.79795 0.27836   1
   4   3   0 0.69586 0.19488   1
   4   3   0 0.71438 0.37115   1
   4   3   0 0.95561 0.49176   1
   5  -3   0 2.98226 0.62891   2
   5  -3   0 3.37786 0.77095   2
   5  -3   0 3.43833 0.58280   1
   5  -3   0 3.63259 0.71870   1
   5   3   0 3.65631 0.51681   1
   5   3   0 4.42208 0.78487   1
   5   3   0 3.41356 0.52748   2
   6  -3   0 0.85289 0.37372   4
   0  -4   0 34.7929 2.95238   1
   0  -4   0 33.4886 3.04037   2
   0  -4   0 37.1063 2.90595   1
   0  -4   0 34.5441 3.04557   3
   0   4   0 33.6674 3.04037   2
   0   4   0 34.5366 3.13214   3
   0   4   0 34.7115 2.88595   1
   0   4   0 34.5526 2.89533   3
   0   4   0 35.7937 2.91600   1
   1  -4   0 965.784 80.9740   1
  -1  -4   0 977.387 76.6711   1
   1  -4   0 1011.02 78.1242   4
   1  -4   0 928.979 80.0978   1
   1  -4   0 914.124 79.9830   1
   1  -4   0 1022.91 73.0031   4
   1  -4   0 1006.54 78.0330   4
   1  -4   0 948.477 78.0113   1
   1  -4   0 902.889 77.9278   1
  -1  -4   0 988.932 79.5364   1
   1   4   0 976.415 79.7230   1
  -1   4   0 972.546 79.0334   4
   1   4   0 941.449 84.5110   2
   1   4   0 972.613 80.9725   3
   1   4   0 972.223 80.2485   3
  -1   4   0 1002.54 78.1546   4
   1   4   0 971.870 81.1567   4
   1   4   0 985.118 79.7747   1
   1   4   0 972.088 78.3837   4
   1   4   0 922.071 90.3751   2
   2  -4   0 0.89650 0.15277   1
   2  -4   0 1.24293 0.58074   1
   2  -4   0 0.84562 0.30565   1
   2  -4   0 1.12060 0.30565   1
   2  -4   0 1.46703 0.41765   1
   2  -4   0 1.14104 0.33620   1
   2  -4   0 1.20215 0.16299   1
   2  -4   0 1.11049 0.30565   1
   2  -4   0 0.71318 0.40753   1
   2   4   0 1.85049 0.23502   3
   2   4   0 1.71338 0.22520   3
  -2   4   0 1.12060 0.26487   1
   3  -4   0 1.21407 0.60704   2
   3  -4   0 0.35044 0.39052   1
   3   4   0 0.62395 0.41600   2
   3   4   0 -0.2174 0.39703   2
   4  -4   0 5.60436 0.90359   1
   4  -4   0 5.08736 0.70821   3
   4  -4   0 5.25695 0.96756   3
   4  -4   0 5.45786 1.30832   4
   4   4   0 6.55953 0.67257   1
   4   4   0 5.17168 0.90457   3
   4   4   0 6.50427 1.05025   1
   4   4   0 7.75718 1.17926   1
   4   4   0 4.88657 0.86522   3
   5  -4   0 14.5095 1.67340   2
   5   4   0 15.1725 1.46090   1
   5   4   0 14.7906 1.48953   1
   6  -4   0 0.28204 0.28204   4
   1  -5   0 320.418 24.1169   4
   1  -5   0 309.243 24.0661   4
   1  -5   0 304.306 24.3810   4
  -1  -5   0 293.772 23.2870   1
   1  -5   0 251.208 24.7576   1
  -1  -5   0 288.679 23.2674   1
   1  -5   0 298.332 23.4362   4
  -1   5   0 293.923 24.0966   4
   1   5   0 281.785 23.8492   4
   1   5   0 282.369 25.4692   1
  -1   5   0 260.758 23.9852   1
   1   5   0 281.791 26.2517   4
  -1   5   0 321.941 24.1271   4
   1   5   0 290.847 22.6983   1
   1   5   0 279.758 25.1030   2
   1   5   0 281.768 23.7673   3
   1   5   0 295.460 23.2576   1
   2  -5   0 82.1872 7.12614   2
   2  -5   0 87.0757 6.54156   2
   2  -5   0 72.7396 6.98347   1
   2  -5   0 89.3638 6.91443   2
   2  -5   0 78.4176 6.64226   2
   2  -5   0 88.7791 6.65237   2
  -2  -5   0 77.9605 6.85201   3
  -2  -5   0 82.8469 6.70334   3
   2  -5   0 77.8329 6.93465   2
   2   5   0 77.7120 6.74996   1
  -2   5   0 80.7357 6.92454   2
   2   5   0 84.0309 6.67389   3
  -2   5   0 75.5636 7.00381   1
   2   5   0 83.2089 6.64454   3
   2   5   0 88.8749 6.43910   3
   2   5   0 81.4866 6.33142   3
   2   5   0 83.3264 7.25126   3
   2   5   0 76.2017 6.97595   1
   2   5   0 77.9080 6.77761   3
   3  -5   0 12.4398 1.62854   2
   3  -5   0 14.6178 1.43231   2
   3   5   0 14.6528 1.61346   2
   3   5   0 12.2982 1.32271   2
   4  -5   0 5.20026 0.94550   1
   4  -5   0 5.27749 1.33145   1
   4  -5   0 5.20994 0.78147   1
   4  -5   0 5.12313 0.68498   1
   4   5   0 4.75410 1.00564   1
   4   5   0 6.34491 0.67651   1
   4   5   0 5.65923 0.83195   1
   4   5   0 7.11285 1.30735   1
   4   5   0 5.75973 0.75886   1
   5  -5   0 0.80095 0.61617   2
   5   5   0 1.48649 0.40020   1
   5   5   0 1.72478 0.51452   1
   6  -5   0 3.35613 0.61343   3
   0  -6   0 871.410 68.7358   1
   0  -6   0 852.643 72.3724   4
   0  -6   0 852.534 71.5496   4
   0  -6   0 845.628 71.9934   2
   0  -6   0 888.800 67.9517   1
   0   6   0 864.866 68.0522   1
   0   6   0 837.318 79.0901   2
   0   6   0 852.632 70.7681   4
   0   6   0 833.403 72.0044   2
   0   6   0 854.900 70.2141   1
   1  -6   0 129.697 11.6189   1
   1  -6   0 149.328 11.3256   4
  -1  -6   0 142.506 11.3796   3
  -1  -6   0 141.142 11.5905   3
   1  -6   0 153.445 11.7628   4
   1  -6   0 150.710 11.7323   4
   1  -6   0 148.087 11.8950   4
   1   6   0 141.957 11.9401   3
   1   6   0 143.312 12.7471   3
   1   6   0 132.854 12.3764   2
  -1   6   0 141.090 11.8026   4
  -1   6   0 149.897 11.7628   4
   1   6   0 141.617 11.1182   3
   1   6   0 141.669 11.6871   3
  -1   6   0 127.400 11.6189   1
   1   6   0 142.034 11.3402   3
  -1   6   0 128.914 12.0156   1
   1   6   0 135.105 11.9778   2
   2  -6   0 21.1994 2.26588   1
   2  -6   0 20.8319 2.23527   1
   2  -6   0 24.1287 2.05160   1
   2  -6   0 28.7825 2.03929   2
   2  -6   0 27.5912 2.41286   2
   2  -6   0 25.0780 2.27612   1
   2  -6   0 19.7500 2.50064   1
   2  -6   0 28.6714 2.23108   2
  -2  -6   0 22.7909 2.21351   1
   2   6   0 26.6490 2.07475   3
   2   6   0 25.7012 2.19305   1
   2   6   0 24.5842 2.17249   1
   2   6   0 26.2567 1.98616   3
   2   6   0 26.2574 2.41690   2
   2   6   0 22.8216 2.17249   1
  -2   6   0 23.0775 2.26588   1
   2   6   0 26.2740 2.08763   3
   2   6   0 22.4014 2.03927   1
   3  -6   0 0.06030 0.06030   1
   3  -6   0 -0.0295 0.19653   2
   3  -6   0 -0.1671 0.26533   2
   3  -6   0 0.10053 0.17092   1
   3  -6   0 0.02006 0.16083   1
   3  -6   0 0.08047 0.06030   1
   3  -6   0 0.21615 0.17682   2
   3  -6   0 -0.0688 0.47162   2
   3  -6   0 0.08047 0.34184   1
   3   6   0 0.16125 0.18970   3
   3   6   0 0.15758 0.07884   1
   3   6   0 0.30700 0.36280   2
   3   6   0 -0.0651 0.26044   2
   3   6   0 0.19540 0.13950   2
   3   6   0 0.07884 0.14770   1
   4  -6   0 0.63097 0.48068   4
   4  -6   0 0.37059 0.74107   4
   4  -6   0 0.28037 0.15018   4
   4  -6   0 0.66795 0.48404   1
   4  -6   0 1.26812 0.77447   1
   4  -6   0 0.62092 0.27043   4
   4   6   0 0.64138 0.25470   3
   4   6   0 1.69572 0.59850   1
   4   6   0 0.60844 0.20613   3
   4   6   0 0.49071 0.65756   3
   4   6   0 0.47102 0.33370   3
   4   6   0 0.37288 0.36313   3
   5  -6   0 2.94183 0.62338   1
   5  -6   0 1.99545 0.69277   2
   5   6   0 2.40052 0.52228   2
   5   6   0 2.55954 0.37107   1
   1  -7   0 11.8565 1.00672   4
   1  -7   0 11.8972 1.21010   4
   1  -7   0 13.0666 1.30159   4
   1  -7   0 11.7955 1.23040   4
   1  -7   0 10.8763 1.25492   1
  -1  -7   0 12.1627 1.28129   3
  -1  -7   0 10.9321 1.28551   1
  -1   7   0 12.4667 1.19990   4
   1   7   0 10.1035 1.17927   1
   1   7   0 11.8219 1.30895   3
   1   7   0 12.3006 1.15316   3
  -1   7   0 12.4464 1.23040   4
   1   7   0 11.8670 1.12360   3
   1   7   0 11.9147 1.23679   3
  -1   7   0 10.6566 1.01438   1
   1   7   0 12.1331 0.95602   3
  -1   7   0 10.0606 1.17132   1
   2  -7   0 4.06479 0.75646   2
   2   7   0 3.39444 0.32282   2
   2   7   0 2.68273 0.31626   1
   2   7   0 2.60108 0.44886   1
   2   7   0 3.84443 0.72385   2
   2   7   0 3.01924 0.49981   1
   2   7   0 3.84443 0.47933   2
   2   7   0 3.90311 0.55763   2
   3  -7   0 4.60385 0.52140   2
   3  -7   0 4.99736 0.79679   2
   3  -7   0 6.05979 0.70828   2
   3  -7   0 5.35151 0.44265   2
   3  -7   0 4.94812 0.61977   2
   3  -7   0 6.34506 0.78703   2
   3  -7   0 4.01358 0.53116   2
   3  -7   0 3.77898 0.95704   3
   3  -7   0 6.29582 1.27882   2
   3   7   0 4.49112 0.85769   2
   3   7   0 4.09456 0.70090   2
   3   7   0 3.77322 0.53055   1
   3   7   0 3.77201 0.53208   1
   3   7   0 4.04849 0.41497   2
   3   7   0 3.96542 0.65474   2
   4  -7   0 6.32095 0.83505   1
   4  -7   0 9.46686 1.66037   1
   4  -7   0 7.04916 0.93216   1
   4  -7   0 5.50843 0.91304   4
   4  -7   0 5.95992 0.65217   4
   4   7   0 6.15876 1.19575   1
   4   7   0 6.54529 0.71029   1
   4   7   0 6.97691 0.67431   1
   4   7   0 6.16473 0.91399   4
   5  -7   0 1.08308 0.44784   2
   5  -7   0 1.86026 0.59407   3
   5   7   0 1.45485 0.50399   1
   5   7   0 1.04252 0.32388   2
   6  -7   0 2.33589 0.48821   3
   0  -8   0 131.717 11.3156   1
   0  -8   0 133.378 11.2063   3
   0  -8   0 133.187 10.8361   1
   0  -8   0 131.898 11.2729   1
   0  -8   0 135.841 10.6814   3
   0   8   0 133.317 11.0617   3
   0   8   0 131.994 11.2623   1
   0   8   0 133.755 11.0482   3
   0   8   0 133.315 10.7209   3
   0   8   0 124.365 11.9442   1
   1  -8   0 6.99494 0.65064   2
   1  -8   0 7.23888 0.90489   2
   1  -8   0 7.57440 0.90489   2
   1  -8   0 6.64922 0.90489   2
  -1  -8   0 6.62631 0.87809   3
   1  -8   0 6.11161 0.96281   1
  -1  -8   0 6.95216 1.02700   3
  -1   8   0 5.14891 0.83726   1
   1   8   0 7.40643 0.79987   3
   1   8   0 6.67731 0.82698   3
   1   8   0 6.88302 0.60235   3
   1   8   0 6.62111 0.99262   4
  -1   8   0 6.75090 0.91498   2
  -1   8   0 7.61509 0.91498   2
   2  -8   0 51.9439 4.16513   2
   2  -8   0 52.7689 4.59776   2
   2  -8   0 54.0768 4.43680   2
   2  -8   0 50.2839 5.00022   2
   2   8   0 49.9724 4.08019   4
   2   8   0 50.0409 4.34528   1
   2   8   0 45.2946 4.77052   1
   2   8   0 49.9781 4.04777   4
   3  -8   0 1.95770 0.37340   3
   3  -8   0 1.94758 0.41369   3
   3  -8   0 2.93345 0.55126   2
   3  -8   0 3.27795 0.91551   2
   3  -8   0 2.65777 0.56114   2
   3  -8   0 2.50177 0.58808   3
   3  -8   0 2.42190 0.48434   3
   3  -8   0 1.96772 0.79721   3
   3  -8   0 2.50177 0.30904   3
   3   8   0 2.77901 0.73136   2
   3   8   0 2.86126 0.48452   2
   3   8   0 2.43145 0.36279   1
   3   8   0 2.76984 0.47535   2
   3   8   0 2.43145 0.29415   1
   3   8   0 2.09816 0.38236   1
   4  -8   0 9.21027 1.04172   1
   4  -8   0 7.46793 1.03520   4
   4  -8   0 5.22653 1.32677   4
   4  -8   0 7.42770 1.17595   4
   4   8   0 7.74479 0.99999   3
   4   8   0 7.06833 0.85287   3
   4   8   0 8.12968 1.32817   1
   4   8   0 7.88207 0.83586   3
   5  -8   0 -0.2433 0.31144   3
   5   8   0 0.03069 0.12274   2
   6  -8   0 1.66422 0.35875   4
   6   8   0 1.68047 0.26031   4
   6   8   0 1.63608 0.42162   1
  -1  -9   0 14.4384 1.71658   1
   1  -9   0 15.8702 1.70410   1
   1  -9   0 16.9606 1.69708   2
  -1  -9   0 16.4603 1.73105   3
   1  -9   0 12.9533 1.70410   1
   1  -9   0 17.1333 1.65641   2
   1  -9   0 18.0886 1.39220   2
   1   9   0 15.4283 1.61126   1
   1   9   0 15.9365 1.72094   3
  -1   9   0 15.6925 1.69361   1
   1   9   0 15.9100 1.65728   3
  -1   9   0 15.6193 1.69361   1
   1   9   0 16.2031 1.32553   3
   1   9   0 17.6473 1.57279   3
   2  -9   0 100.397 7.91105   2
   2  -9   0 90.3200 9.33478   2
   2  -9   0 105.470 8.32210   2
   2  -9   0 103.716 8.50263   2
   2   9   0 85.6890 8.48625   4
   2   9   0 86.9973 7.80876   2
   2   9   0 95.5621 7.53125   2
   2   9   0 93.3707 7.38775   2
   3  -9   0 4.99174 0.46278   2
   3  -9   0 4.16474 0.76794   2
   3  -9   0 3.74136 0.57102   2
   3  -9   0 4.69636 0.81723   2
   3  -9   0 4.79482 0.77782   2
   3  -9   0 5.04092 0.71877   2
   3  -9   0 4.42072 0.60055   2
   3  -9   0 5.13939 1.06333   2
   3  -9   0 5.51359 1.44730   2
   3   9   0 3.22672 0.39419   4
   3   9   0 3.22625 0.47277   4
   3   9   0 3.29962 0.47136   2
   3   9   0 3.97039 0.58920   2
   3   9   0 4.02476 1.00619   2
   3   9   0 3.43556 0.59830   2
   4  -9   0 1.97327 0.59400   2
   4  -9   0 2.01357 0.65439   2
   4  -9   0 3.08407 0.60511   1
   4  -9   0 2.19474 1.05713   2
   4   9   0 2.97981 0.48630   1
   4   9   0 2.58758 0.45088   3
   4   9   0 2.61698 0.58813   3
   4   9   0 3.07710 0.94608   1
   5  -9   0 7.35112 1.05991   3
   5   9   0 6.17659 0.66623   1
   5   9   0 4.85738 0.86150   2
   6   9   0 1.37764 0.25166   4
   0 -10   0 0.32185 0.32185   3
   0 -10   0 0.24337 0.40204   1
   0 -10   0 0.22225 0.43377   1
   0 -10   0 0.43254 0.14085   3
   0 -10   0 0.01061 0.47612   1
   0  10   0 0.10582 0.29622   1
   0  10   0 0.27510 0.41265   1
   0  10   0 0.33195 0.23135   3
   0  10   0 0.70415 0.42245   3
   0  10   0 0.31187 0.11068   3
   1 -10   0 122.300 11.0670   1
   1 -10   0 140.446 10.8706   2
   1 -10   0 128.825 10.2927   2
  -1  10   0 121.154 11.6193   1
   1  10   0 131.625 10.4464   2
   1  10   0 118.917 11.0565   1
  -1  10   0 116.110 11.0149   1
   1  10   0 128.419 11.2831   2
   1  10   0 135.932 10.0305   2
   2 -10   0 8.71582 0.79875   2
   2 -10   0 8.01692 1.34784   2
   2 -10   0 9.00534 1.12812   2
   2  10   0 7.28966 1.13837   1
   2  10   0 7.87432 0.72609   2
   2  10   0 7.78837 0.93495   4
   2  10   0 7.79150 0.94997   4
   3 -10   0 1.50457 0.86538   1
   3 -10   0 0.84575 0.64906   1
   3 -10   0 1.77998 0.46223   1
   3 -10   0 0.64906 0.49173   1
   3 -10   0 0.71791 0.34416   1
   3 -10   0 0.69818 0.39338   1
   3 -10   0 0.42504 0.42504   3
   3 -10   0 0.64906 0.30490   1
   3  10   0 1.00758 0.34181   2
   3  10   0 0.65674 0.26087   2
   3  10   0 0.96255 0.59376   2
   3  10   0 0.56827 0.23519   3
   4 -10   0 2.07742 0.66560   2
   4 -10   0 1.39169 1.03866   2
   4  10   0 1.75440 0.35285   3
   4  10   0 2.42086 0.99975   3
   4  10   0 2.25432 0.24499   3
   4  10   0 2.40130 0.50966   3
   5 -10   0 3.33027 0.77922   1
   5  10   0 3.71259 0.50455   1
   5  10   0 3.23484 0.47569   2
   1 -11   0 7.90743 1.08790   2
   1 -11   0 7.71606 1.09801   2
   1 -11   0 6.17421 1.10842   1
   1 -11   0 7.85700 0.73537   2
   1  11   0 6.93288 0.68930   4
   1  11   0 7.97776 0.96283   2
   1  11   0 6.93372 1.03595   3
   2 -11   0 43.5968 4.13223   2
   2 -11   0 46.8846 4.06269   2
   2 -11   0 43.8253 3.67530   2
   2  11   0 40.0100 3.62546   2
   2  11   0 41.1348 3.99723   2
   2  11   0 38.5954 3.43315   3
   2  11   0 44.4999 3.42088   2
   3 -11   0 0.09799 0.06860   1
   3 -11   0 0.17632 0.08816   1
   3 -11   0 0.08816 0.04894   1
   3 -11   0 0.02939 0.04894   1
   3 -11   0 0.00983 0.03922   1
   3 -11   0 0.06860 0.08816   1
   3  11   0 0.09837 0.03578   2
   3  11   0 -0.0268 0.02681   2
   3  11   0 -0.0626 0.07156   2
   3  11   0 -0.0090 0.01784   2
   3  11   0 0.01784 0.02681   2
   3  11   0 -0.0090 0.00897   2
   4 -11   0 2.98814 1.25404   1
   4 -11   0 2.77253 0.60742   1
   4  11   0 1.92810 0.41512   2
   4  11   0 2.54292 0.41075   1
   5 -11   0 1.07167 0.47633   1
   5  11   0 1.10352 0.35702   2
   5  11   0 1.00618 0.29213   2
   0 -12   0 15.5572 1.60049   2
   0 -12   0 13.6119 1.83638   1
   0  12   0 17.1577 1.70977   2
   0  12   0 17.0483 1.70977   2
   0  12   0 16.7104 1.40166   2
   1 -12   0 0.25904 0.10963   2
   1 -12   0 0.09964 0.28892   2
   1 -12   0 0.02050 0.30808   1
   1  12   0 0.29901 0.25074   2
   1  12   0 0.04068 0.08136   1
   2 -12   0 3.12129 0.48799   1
   2 -12   0 3.71370 0.94822   2
   2 -12   0 3.01961 0.97608   1
   2 -12   0 3.57539 0.53330   2
   2 -12   0 4.05936 0.76047   2
   2 -12   0 2.53163 0.47789   1
   2  12   0 2.63892 0.41510   1
   2  12   0 3.12608 0.46843   4
   2  12   0 3.04421 0.39537   1
   2  12   0 3.52209 0.62368   2
   2  12   0 3.79717 0.88965   2
   2  12   0 3.12883 0.42664   3
   2  12   0 3.12804 0.37939   3
   3 -12   0 3.24738 0.65343   1
   3 -12   0 3.23349 1.25196   4
   3 -12   0 2.50471 0.54755   4
   3 -12   0 3.13344 0.59831   4
   3 -12   0 3.40340 1.17020   1
   3  12   0 2.60960 0.34333   3
   3  12   0 4.53219 1.05547   1
   3  12   0 3.20381 0.37148   3
   3  12   0 3.28162 0.52329   1
   3  12   0 3.23264 0.43877   2
   4 -12   0 1.00194 0.62746   2
   4 -12   0 1.74425 1.26411   1
   4  12   0 0.89224 0.33341   3
   4  12   0 1.78884 0.42758   1
   5 -12   0 7.73833 0.91494   2
   5  12   0 6.30069 0.80150   2
   1 -13   0 6.76727 1.08351   2
   1 -13   0 6.68842 0.70923   2
   1 -13   0 5.99895 1.13282   2
   1  13   0 6.47283 0.94767   2
   1  13   0 6.62445 0.64442   2
   2 -13   0 2.85684 0.62827   2
   2 -13   0 2.25737 0.93551   3
   2 -13   0 2.11499 0.52875   3
   2 -13   0 2.25737 0.41686   3
   2 -13   0 2.37936 0.52875   3
   2 -13   0 1.97271 0.92531   3
   2 -13   0 2.71937 0.44176   2
   2  13   0 2.48488 0.63103   1
   2  13   0 1.63683 0.70007   1
   2  13   0 2.20872 0.36487   1
   2  13   0 2.24819 0.35498   1
   2  13   0 2.61378 0.44626   4
   2  13   0 2.63741 0.42601   2
   2  13   0 2.61393 0.42639   4
   2  13   0 2.55392 0.37466   1
   3 -13   0 4.76118 0.89213   1
   3 -13   0 4.47025 0.83396   1
   3 -13   0 8.40720 1.81333   1
   3 -13   0 3.02418 1.13663   4
   3 -13   0 4.49933 0.73699   1
   3  13   0 4.04497 1.10938   3
   3  13   0 4.48386 0.47102   1
   3  13   0 5.69637 0.51469   1
   3  13   0 5.54806 0.59317   1
   3  13   0 4.63218 0.58451   1
   4 -13   0 1.26331 0.47002   1
   4 -13   0 0.64947 0.36535   2
   4 -13   0 1.95857 0.94986   1
   4  13   0 1.12370 0.32109   4
   4  13   0 1.40130 0.42915   1
   5 -13   0 0.28152 0.38298   1
   5 -13   0 0.40546 0.73206   1
   5  13   0 0.83274 0.22140   4
   5  13   0 0.86910 0.39674   4
   0  14   0 77.9846 7.05732   1
   0  14   0 75.9090 6.30798   1
   1 -14   0 5.67042 1.05494   4
   1 -14   0 4.39627 1.00517   1
   1 -14   0 5.20845 0.62948   1
   1  14   0 5.46308 0.60919   1
   1  14   0 5.15342 0.61921   1
   1  14   0 5.41309 0.90883   1
   2 -14   0 10.5975 1.12172   4
   2 -14   0 10.5977 1.06689   4
   2 -14   0 9.07060 1.18973   3
   2 -14   0 11.1141 1.52218   2
   2 -14   0 8.76552 1.22023   3
   2 -14   0 9.07060 1.35242   3
   2  14   0 11.1823 0.94234   2
   2  14   0 10.7066 0.91542   2
   2  14   0 11.5592 0.98717   2
   2  14   0 10.1240 1.47020   3
   2  14   0 9.76874 1.08538   3
   2  14   0 11.0028 1.02308   2
   3 -14   0 18.7852 2.45731   4
   3 -14   0 19.4041 2.09184   4
   3 -14   0 17.9525 1.96994   4
   3 -14   0 17.3331 2.10194   4
   3 -14   0 19.9574 3.12226   1
   3  14   0 19.4184 1.86700   2
   3  14   0 19.4248 1.57542   3
   3  14   0 19.2884 2.32881   3
   3  14   0 19.4172 1.61519   3
   4 -14   0 5.32026 1.35935   1
   4 -14   0 3.69932 0.86623   2
   4  14   0 5.64884 0.69948   1
   4  14   0 4.02352 0.58884   3
   5 -14   0 1.80455 0.61312   1
   5 -14   0 1.80455 0.78659   1
   5  14   0 1.50217 0.37558   1
   5  14   0 2.36347 0.44260   4
   1 -15   0 6.74390 0.79967   2
   1 -15   0 4.87759 1.06476   3
   1 -15   0 5.72936 0.74029   3
   1  15   0 6.50430 0.69921   2
   1  15   0 5.87927 0.98910   1
   1  15   0 5.58861 1.02603   1
   1  15   0 7.22188 0.68075   2
   2 -15   0 9.49739 1.58626   3
   2 -15   0 11.8610 1.12914   1
   2 -15   0 9.71851 1.32217   1
   2 -15   0 8.55178 1.21010   3
   2  15   0 10.5055 0.93562   2
   2  15   0 8.99888 1.09646   3
   2  15   0 10.1936 1.03367   2
   2  15   0 11.2807 0.95340   2
   2  15   0 9.54302 1.37107   3
   2  15   0 10.8619 0.99800   2
   3 -15   0 5.82100 1.08696   4
   3 -15   0 8.58088 2.01116   1
   3 -15   0 6.50158 0.94481   4
   3 -15   0 6.57653 1.61988   3
   3  15   0 7.01694 0.62784   1
   3  15   0 6.10717 0.75720   3
   3  15   0 6.68604 0.70427   1
   3  15   0 5.99896 1.31781   3
   4 -15   0 3.81525 1.09290   1
   4 -15   0 1.75913 0.67199   1
   4  15   0 1.97981 0.33452   1
   4  15   0 3.51664 0.56049   1
   5 -15   0 1.53095 0.75354   1
   5 -15   0 1.39934 0.44257   1
   5  15   0 1.55368 0.27341   4
   5  15   0 0.55552 0.34713   1
   0  16   0 5.22231 0.63395   3
   1 -16   0 9.55892 0.99212   2
   1  16   0 8.76966 1.16445   2
   1  16   0 8.49672 0.88239   2
   1  16   0 8.20228 0.93681   3
   1  16   0 7.73393 0.87703   3
   2 -16   0 3.25226 0.70368   1
   2 -16   0 1.08791 0.85405   3
   2 -16   0 3.06215 0.49449   1
   2 -16   0 1.60653 0.45752   3
   2  16   0 2.20509 0.37571   3
   2  16   0 2.77488 0.37523   1
   2  16   0 2.25464 0.39165   3
   2  16   0 1.76996 0.81084   3
   3 -16   0 8.44991 1.04786   1
   3 -16   0 8.06883 1.19916   4
   3 -16   0 9.13581 2.11484   1
   3  16   0 8.52294 0.76638   1
   3  16   0 8.34575 0.86117   3
   3  16   0 8.12060 0.95475   3
   4 -16   0 3.14093 1.05023   3
   4 -16   0 2.81037 0.65158   3
   4  16   0 2.13924 0.48364   1
   4  16   0 1.46957 0.28837   1
   5 -16   0 0.05826 0.15161   3
   5 -16   0 0.03741 0.46159   1
   5  16   0 0.05821 0.14545   4
   5  16   0 -0.0935 0.11217   4
   1 -17   0 0.37582 0.24426   1
   1  17   0 0.63811 0.22466   1
   1  17   0 0.02991 0.38894   3
   2 -17   0 1.80836 0.93693   1
   2 -17   0 0.89013 0.44041   1
   2  17   0 0.76209 0.35632   3
   2  17   0 1.01656 0.25628   1
   2  17   0 -0.3075 0.59799   1
   3 -17   0 1.54796 0.86419   1
   3 -17   0 0.84524 0.35141   1
   3  17   0 0.76654 0.23582   1
   3  17   0 0.42365 0.41376   3
   4 -17   0 -0.5714 0.79420   3
   4 -17   0 -0.0097 0.34867   3
   4  17   0 0.07296 0.12501   2
   4  17   0 -0.0095 0.18869   1
   2  18   0 -0.0756 0.09245   1
   2  18   0 -0.0924 0.30246   1
   3 -18   0 5.68334 1.54912   1
   3  18   0 4.64623 0.69261   3
   3  18   0 4.24001 0.55221   3
   4 -18   0 0.15427 0.13502   3
   4 -18   0 -0.0097 0.05784   3
   4  18   0 -0.0188 0.04701   4
   4  18   0 -0.0094 0.02823   4
   2  19   0 0.02497 0.04995   1
   2  19   0 0.00000 0.02497   1
   3 -19   0 1.96156 0.79425   1
   3  19   0 0.36034 0.36034   4
   4 -19   0 8.15693 1.40104   3
   4  19   0 6.52704 0.71354   4
   4  19   0 6.28329 0.72041   1
   2  20   0 0.29217 0.22543   1
   3 -20   0 3.37876 1.35148   1
   3  20   0 2.38982 0.45997   2
   4 -20   0 1.14561 0.60149   3
   4  20   0 0.61522 0.31447   1
   1  21   0 0.28468 0.16745   1
   2 -21   0 3.10148 0.96983   1
   3 -21   0 2.77097 1.23155   4
   4 -21   0 1.16892 0.89826   1
   4  21   0 1.47036 0.35096   1
   2 -22   0 -0.5864 1.05164   1
   2  22   0 0.46862 0.24921   2
   3 -22   0 2.73493 1.09971   4
   3  22   0 1.42350 0.30905   4
   1 -23   0 1.24682 0.33193   1
   1  23   0 1.10457 0.26430   2
   2 -23   0 2.79170 1.19509   1
   2  23   0 1.59333 0.35612   1
   3 -23   0 0.46555 0.32307   4
   3  23   0 -0.1025 0.10248   4
   1  24   0 0.42465 0.26770   1
   2 -24   0 -0.1427 0.31406   4
   2  24   0 0.00000 0.09541   1
   3 -24   0 0.06163 0.51816   1
   3  24   0 0.69443 0.19448   4
   1  25   0 2.62393 0.37621   4
   2 -25   0 0.02834 0.08501   4
   2  25   0 0.01859 0.02793   4
   0  26   0 1.39965 0.24424   4
   1 -26   0 -0.1787 0.32928   4
   1  26   0 0.23343 0.12140   4
   2 -26   0 2.58524 1.03664   1
   2  26   0 2.64054 0.33265   4
   1 -27   0 -0.0466 0.04663   4
   1  27   0 -0.0185 0.01850   4
   5   0  -1 0.33971 0.22978   2
   5   0  -1 0.73924 0.44953   2
   3   0  -1 20.4670 2.45295   2
   3   0  -1 21.5096 2.18579   2
   3   0  -1 24.1693 1.99234   2
   3   0  -1 23.2698 2.22450   2
   1   0  -1 4.68961 0.64864   2
   1   0  -1 4.44502 0.54229   2
   1   0  -1 4.41313 0.58485   2
   1   0  -1 4.37057 0.47851   2
   1   0   1 13.5655 1.17770   2
   1   0   1 14.9787 1.24204   2
   1   0   1 13.5012 1.24204   2
   1   0   1 14.5504 1.33837   2
   1   0   1 15.1500 1.17770   2
   1   0   1 14.6148 1.26341   2
  -1   0  -1 14.9038 1.27415   2
   1   0   1 14.7539 1.38122   2
   1   0   1 14.1436 1.44544   2
   1   0   1 14.2507 1.24204   2
   1   0   1 13.9295 1.24204   2
  -1   0  -1 15.0858 1.24204   2
   3   0   1 8.70633 1.15294   1
   3   0   1 9.98244 1.11133   2
   3   0   1 11.7412 1.18858   2
   3   0   1 7.96093 1.20259   1
   5   0   1 1.53652 0.39617   1
   5   0   1 1.59458 0.27054   1
   5  -1  -1 15.5324 1.67107   1
   5  -1  -1 13.5715 1.50684   1
   5   1  -1 13.9240 1.53750   1
   5   1  -1 15.4327 1.54714   1
   5   1  -1 17.4795 1.50868   1
   4  -1  -1 -0.0095 0.22784   1
   4  -1  -1 0.04741 0.22784   1
   4  -1  -1 0.02847 0.09492   1
   4  -1  -1 0.05693 0.06646   1
   4  -1  -1 0.13291 0.11387   1
   4  -1  -1 0.01895 0.09492   1
   4  -1  -1 0.00994 0.17838   3
   4  -1  -1 0.00000 0.14234   1
   4   1  -1 0.00991 0.11849   3
   4   1  -1 -0.0940 0.09395   1
   4   1  -1 0.03760 0.07520   1
   4   1  -1 -0.0845 0.15973   1
   4   1  -1 -0.0658 0.13156   1
   4   1  -1 -0.0940 0.21608   1
   4   1  -1 0.01875 0.07520   1
   2  -1  -1 10.1175 1.23037   3
   2  -1  -1 9.77356 1.06099   1
   2  -1  -1 11.4894 1.14201   3
   2  -1  -1 9.73273 0.99980   1
   2   1  -1 9.50583 1.24837   1
   2   1  -1 9.99694 1.07440   1
   2   1  -1 10.0583 1.14605   1
   2   1  -1 9.49556 0.97208   1
   1  -1  -1 107.814 7.98517   1
   1  -1  -1 94.6621 8.42720   2
   1  -1  -1 101.922 7.98517   1
  -1  -1   1 99.5521 7.84724   1
   1  -1  -1 96.0999 8.20687   2
   1  -1  -1 106.733 7.97522   1
   1  -1  -1 109.421 7.74706   1
   1  -1  -1 86.8961 7.94443   2
   1  -1  -1 98.6866 8.46333   2
  -1  -1   1 98.7690 8.42570   3
   1   1  -1 94.3828 8.16871   2
   1   1  -1 98.6077 8.82778   2
   1   1  -1 97.9378 8.66575   2
  -1   1   1 101.099 7.98517   1
   1   1  -1 98.7116 7.77702   2
   1   1  -1 99.4250 7.84724   1
   1   1  -1 99.2882 7.83754   1
   1   1  -1 98.7119 8.40475   3
   1   1  -1 92.6216 9.31399   2
   0  -1  -1 149.863 11.2236   4
   0  -1  -1 148.596 12.0248   4
   0  -1   1 149.103 12.0542   1
   0  -1   1 148.852 11.7630   1
   0  -1   1 141.693 12.2935   2
   0  -1  -1 137.119 12.0803   2
   0  -1   1 136.170 11.9545   2
   0  -1  -1 145.636 12.4002   2
   0   1   1 139.017 12.0803   2
   0   1  -1 146.528 12.2935   2
   0   1  -1 148.842 11.7839   1
   0   1   1 148.587 11.2236   4
   0   1  -1 137.975 11.9654   2
   0   1  -1 148.574 11.8961   4
   0   1   1 144.235 12.4002   2
   0   1   1 148.624 12.0039   4
   1  -1   1 63.4941 5.41339   4
   1  -1   1 63.5024 5.09029   2
   1  -1   1 59.2658 5.03441   1
  -1  -1  -1 63.6375 5.21895   3
  -1  -1  -1 65.8441 4.95603   3
   1  -1   1 63.8481 5.12167   4
   1  -1   1 61.4432 5.16182   1
   1  -1   1 63.4506 5.35306   1
   1  -1   1 59.6058 5.33175   1
   1  -1   1 63.6326 5.12346   4
   1   1   1 63.4812 5.26748   1
  -1   1  -1 65.1882 5.02367   4
   1   1   1 61.5997 5.28460   2
   1   1   1 63.5219 5.85046   3
   1   1   1 60.8495 5.15415   2
  -1   1  -1 63.5550 5.23653   4
   1   1   1 63.5236 5.92966   3
   1   1   1 64.7330 4.92653   3
   1   1   1 61.0669 5.44777   2
   1   1   1 63.5498 5.09581   3
   1   1   1 59.6098 5.54560   2
   1   1   1 63.6513 4.93630   3
   2  -1   1 7.22476 0.78510   4
   2  -1   1 5.93277 0.76516   4
   2  -1   1 6.48930 0.71552   4
   2  -1   1 5.50897 0.84679   1
   2   1   1 5.39869 0.81958   1
   2   1   1 5.12207 0.76831   1
   2   1   1 5.88953 0.75867   3
   2   1   1 5.09135 0.73758   1
   3  -1   1 3.20575 0.72679   1
   3  -1   1 2.69796 0.60726   1
   3   1   1 3.00644 0.61518   1
   3   1   1 3.34384 0.66485   1
   3   1   1 2.98663 0.61518   1
   3   1   1 1.71656 0.58542   1
   4  -1   1 0.21829 0.19935   1
   4  -1   1 0.03798 0.06645   1
   4  -1   1 -0.0189 0.09491   1
   4  -1   1 0.00000 0.09491   1
   4  -1   1 -0.0664 0.13290   1
   4  -1   1 -0.0285 0.16136   1
   4  -1   1 0.07597 0.16136   1
   4   1   1 0.03759 0.10335   1
   4   1   1 0.01875 0.12210   1
   4   1   1 0.04691 0.06576   1
   4   1   1 -0.0187 0.09393   1
   4   1   1 0.24419 0.10335   1
   5  -1   1 7.89421 0.99762   1
   5  -1   1 5.85165 0.78558   2
   5  -1   1 8.26225 0.92990   1
   5   1   1 6.12620 0.88488   4
   5   1   1 7.91519 0.79056   1
   6  -2  -1 0.61331 0.31758   4
   5  -2  -1 0.10656 0.13560   1
   5   2  -1 0.39287 0.11497   1
   5   2  -1 0.93916 0.25877   1
   5   2  -1 0.19168 0.13419   1
   4  -2  -1 -0.1239 0.30506   1
   4  -2  -1 0.66742 0.37182   1
   4  -2  -1 0.88670 0.15253   1
   4  -2  -1 0.70547 0.25744   1
   4  -2  -1 0.71504 0.17156   1
   4  -2  -1 0.49575 0.24788   1
   4  -2  -1 0.65785 0.28604   1
   4   2  -1 0.60702 0.24281   1
   3  -2  -1 12.7440 1.21791   2
   3  -2  -1 13.9326 1.46145   2
   3  -2  -1 13.3675 1.44200   2
   3   2  -1 10.7076 1.21185   1
   3   2  -1 10.4494 1.29125   1
   3   2  -1 10.8865 1.35083   1
   3   2  -1 11.2324 1.44597   2
   2  -2  -1 10.2699 1.07685   4
   2  -2  -1 9.78134 1.09675   4
   2  -2  -1 9.21296 0.88742   4
   2   2  -1 7.41194 0.85093   1
   2   2  -1 7.43763 0.96705   3
   2   2  -1 6.91990 0.94317   1
   2   2  -1 7.44882 1.07828   3
  -1  -2   1 7.97642 0.78457   4
   1  -2  -1 8.31247 0.93032   1
   1  -2  -1 7.20373 0.63589   2
   1  -2  -1 7.76663 0.71934   2
  -1  -2   1 8.00193 0.69491   1
   1  -2  -1 7.04729 0.89659   2
   1  -2  -1 6.89096 0.76106   2
   1  -2  -1 8.18244 0.72021   1
   1  -2  -1 8.15244 0.71018   1
   1  -2  -1 6.83878 0.74015   2
   1  -2  -1 7.98017 0.72451   4
   1  -2  -1 7.38087 0.63589   2
   1   2  -1 7.18749 0.72205   2
   1   2  -1 7.32971 0.90805   2
   1   2  -1 7.98143 0.69491   1
   1   2  -1 7.92052 0.66729   2
   1   2  -1 7.97749 0.97412   4
   1   2  -1 7.97730 0.72038   4
   1   2  -1 7.97361 0.70114   4
   1   2  -1 7.97466 0.65733   4
  -1   2   1 7.94387 0.72980   2
   1   2  -1 7.97882 0.73017   3
   1   2  -1 7.88760 0.78767   2
   0  -2   1 2.99476 0.37856   2
   0  -2  -1 2.83764 0.37013   2
   0  -2  -1 3.13171 0.35355   4
   0  -2  -1 3.13189 0.26962   4
   0  -2   1 3.12832 0.48990   2
   0  -2   1 3.09493 0.28945   2
   0  -2   1 3.08376 0.38961   2
   0   2  -1 3.07271 0.43417   2
   0   2   1 3.13322 0.34352   3
   0   2   1 3.42834 0.25911   1
   0   2   1 2.46751 0.37013   2
   0   2   1 3.38845 0.35878   1
   0   2  -1 3.13137 0.37702   4
   0   2  -1 3.13163 0.27275   3
   0   2  -1 3.13320 0.38366   1
   0   2   1 4.09601 0.37867   1
   1  -2   1 36.6869 2.97549   1
   1  -2   1 38.1810 3.01107   4
   1  -2   1 35.9377 2.94385   1
  -1  -2  -1 38.1662 3.06537   1
   1  -2   1 38.0289 3.00090   4
   1  -2   1 35.9483 3.15489   1
   1  -2   1 34.3340 3.12313   1
   1  -2   1 35.2625 3.21818   1
  -1  -2  -1 37.9962 2.92732   4
   1  -2   1 36.0960 2.97549   1
   1   2   1 35.0218 3.10280   2
   1   2   1 37.3874 3.10280   2
  -1   2  -1 37.4677 3.12313   1
   1   2   1 36.2761 3.22376   2
   1   2   1 34.8897 3.26780   2
   1   2   1 38.1244 3.13332   1
   1   2   1 38.0047 2.94606   1
   1   2   1 38.0939 3.13781   1
   1   2   1 36.9032 3.52086   2
   1   2   1 37.9859 3.21179   4
  -1   2  -1 38.6602 3.00953   4
   2  -2   1 0.00000 0.02032   1
   2  -2   1 -0.0399 0.03995   4
   2  -2   1 0.00000 0.02032   1
   2  -2   1 0.00000 0.02032   1
   2  -2   1 0.02993 0.05987   4
   2  -2   1 -0.0199 0.03995   4
   2  -2   1 0.01001 0.01001   4
   2  -2   1 -0.0100 0.01001   4
   2  -2   1 -0.0199 0.01992   4
   2   2   1 0.14737 0.05895   3
   2   2   1 -0.0295 0.02947   3
   2   2   1 -0.0393 0.04909   3
  -2   2  -1 -0.0100 0.01001   4
  -2   2  -1 0.01992 0.01992   4
   2   2   1 -0.0196 0.03933   3
   3  -2   1 5.34221 0.94386   2
   3  -2   1 5.94552 0.78817   2
   3   2   1 4.36472 0.73697   2
   3   2   1 3.58615 0.66379   1
   3   2   1 4.82413 0.73697   2
   4  -2   1 0.36233 0.29566   1
   4  -2   1 -0.0190 0.17160   1
   4  -2   1 -0.0954 0.24793   1
   4  -2   1 0.23837 0.37190   1
   4  -2   1 0.04963 0.31792   3
   4  -2   1 -0.0096 0.12397   1
   4  -2   1 0.09694 0.42658   3
   4   2   1 0.37353 0.18676   1
   4   2   1 0.43890 0.27078   1
   4   2   1 0.08871 0.13806   3
   4   2   1 0.29878 0.18676   1
   4   2   1 0.23341 0.19613   1
   5  -2   1 -0.0097 0.06797   1
   5   2   1 0.00964 0.02883   1
   6  -3  -1 2.80810 0.47923   4
   5  -3  -1 1.27552 0.39481   2
   5  -3  -1 1.32620 0.47585   2
   5  -3  -1 1.36672 0.61750   2
   5   3  -1 1.56713 0.29627   1
   5   3  -1 1.92072 0.36308   1
   5   3  -1 3.84135 0.66893   1
   4  -3  -1 11.8342 1.46310   3
   4  -3  -1 12.7797 1.32373   3
   4  -3  -1 13.7751 1.39341   3
   4  -3  -1 11.9337 1.94081   3
   4  -3  -1 13.5560 1.51292   3
   4  -3  -1 12.5111 1.79156   3
   4  -3  -1 13.1281 1.27401   3
   4   3  -1 13.3520 1.61486   3
   4   3  -1 12.3772 1.37851   3
   4   3  -1 13.4800 1.33910   3
   4   3  -1 12.3870 1.60498   3
   4   3  -1 11.5796 1.44745   3
   4   3  -1 15.2059 1.71630   1
   4   3  -1 13.8525 1.42424   3
   4   3  -1 13.7001 1.25675   3
   3  -3  -1 0.07822 0.12703   2
   3  -3  -1 -0.0195 0.16614   2
   3  -3  -1 0.09772 0.11723   2
   3   3  -1 0.08563 0.17126   2
   3   3  -1 0.00995 0.14872   1
   3   3  -1 0.00995 0.09918   1
   3   3  -1 -0.0285 0.10472   2
   2  -3  -1 1.75294 0.18128   4
   2  -3  -1 2.29209 0.31033   4
   2  -3  -1 1.76158 0.52046   4
   2  -3  -1 1.54002 0.40797   1
   2  -3  -1 1.78167 0.19015   4
   2  -3  -1 1.85164 0.30029   4
   2  -3  -1 1.55025 0.30598   1
   2  -3  -1 2.24199 0.52046   4
   2  -3  -1 2.14199 0.34035   4
   2   3  -1 1.15004 0.34915   1
  -2   3   1 1.68283 0.29575   1
  -2   3   1 1.61143 0.28552   1
   2   3  -1 1.17053 0.36965   1
   2   3  -1 1.54018 0.57502   1
   2   3  -1 1.89301 0.53944   3
   1  -3  -1 61.1671 5.26223   3
   1  -3  -1 67.8153 4.86262   1
   1  -3  -1 61.1662 5.08354   3
   1  -3  -1 69.7685 5.88953   1
   1  -3  -1 63.1037 5.16467   1
  -1  -3   1 61.1512 5.08436   4
   1  -3  -1 61.7747 5.18476   1
   1  -3  -1 67.3421 5.29554   1
  -1  -3   1 61.1502 5.42218   4
   1  -3  -1 58.5912 5.14471   3
   1  -3  -1 67.7750 5.19486   1
   1   3  -1 61.1683 5.11809   4
   1   3  -1 61.4303 5.00933   1
  -1   3   1 64.3118 5.18476   1
   1   3  -1 61.1530 5.43751   3
   1   3  -1 61.1617 5.84347   1
  -1   3   1 65.5299 5.17477   1
   1   3  -1 61.6798 5.24872   1
   1   3  -1 61.8031 4.93026   1
   1   3  -1 61.1593 5.31594   3
   1   3  -1 61.0698 6.05745   2
   1   3  -1 59.9045 5.43088   2
   0  -3  -1 1.35861 0.21952   1
   0  -3  -1 1.32396 0.29171   2
   0  -3   1 1.54019 0.27183   1
   0  -3   1 1.47981 0.28182   1
   0  -3  -1 1.35825 0.17384   3
   0  -3  -1 1.63614 0.30932   1
   0  -3  -1 1.35981 0.28463   1
   0  -3   1 1.18191 0.17838   2
   0  -3   1 1.56039 0.36240   1
   0   3  -1 1.71135 0.30202   1
   0   3   1 1.09955 0.24681   2
   0   3  -1 1.58049 0.29192   1
   0   3  -1 1.31567 0.16720   2
   0   3   1 1.30157 0.26932   2
   0   3  -1 1.61068 0.31212   1
   0   3   1 1.36412 0.27904   1
   0   3   1 1.35825 0.16294   3
   0   3   1 1.47653 0.28930   1
   1  -3   1 48.3121 4.26132   4
   1  -3   1 51.7839 4.23096   4
   1  -3   1 43.8051 4.91157   1
   1  -3   1 52.0067 3.97795   4
   1  -3   1 50.1746 4.04882   4
   1  -3   1 48.2572 4.19267   3
   1  -3   1 51.6523 4.25127   4
  -1  -3  -1 51.5439 4.08828   1
   1  -3   1 48.2838 4.45676   4
   1   3   1 53.1186 4.05895   1
   1   3   1 48.6214 4.13905   1
  -1   3  -1 53.4642 4.24112   4
  -1   3  -1 51.0855 4.26132   4
   1   3   1 48.4083 4.19252   1
   1   3   1 48.2600 4.18556   4
   1   3   1 48.3379 4.22231   1
   1   3   1 55.1432 3.84381   1
   1   3   1 48.5140 4.79134   1
   1   3   1 48.4918 3.97948   1
   1   3   1 52.3850 4.07847   1
   2  -3   1 2.29766 0.38629   1
   2  -3   1 2.32815 0.23384   1
   2  -3   1 2.30786 0.47787   1
   2  -3   1 1.62665 0.35580   1
   2  -3   1 3.33714 0.65139   4
   2  -3   1 2.60554 0.25050   4
   2  -3   1 1.84019 0.42698   1
   2  -3   1 2.70576 0.38078   4
   2  -3   1 2.17570 0.36600   1
   2   3   1 3.43171 0.62747   3
   2   3   1 2.31086 0.40054   1
   2   3   1 2.35828 0.21259   3
   2   3   1 2.11574 0.25673   1
   2   3   1 2.35636 0.20796   3
  -2   3  -1 2.28746 0.36600   1
   2   3   1 2.64727 0.47060   3
   2   3   1 2.35803 0.26088   3
  -2   3  -1 2.61559 0.36078   4
   2   3   1 3.76512 0.61773   3
   3  -3   1 0.19987 0.43973   1
   3  -3   1 0.41968 0.41968   1
   3   3   1 0.06925 0.38574   1
   3   3   1 -0.1618 0.36151   2
   4  -3   1 7.50063 1.47522   1
   4  -3   1 9.17695 0.87170   1
   4  -3   1 8.65972 1.11124   1
   4  -3   1 8.18073 0.96750   1
   4  -3   1 8.36271 0.88131   1
   4  -3   1 7.52936 1.40815   1
   4  -3   1 7.45407 1.17345   4
   4   3   1 7.45268 1.03147   4
   4   3   1 7.45192 0.85640   3
   4   3   1 9.29741 1.05777   1
   4   3   1 7.45520 1.15844   4
   4   3   1 7.37303 0.87640   3
   4   3   1 8.54575 1.18770   1
   5  -3   1 2.50861 0.65151   1
   5  -3   1 1.62380 0.40836   1
   5   3   1 1.59008 0.36774   4
   5   3   1 1.82146 0.35473   1
   6  -3   1 1.90671 0.36406   4
   6  -4  -1 5.68312 0.70915   4
   5  -4  -1 2.05955 0.52456   1
   5   4  -1 3.31759 0.49572   1
   5   4  -1 1.62064 0.31460   1
   4  -4  -1 2.49771 0.47073   1
   4  -4  -1 2.36371 0.98738   3
   4  -4  -1 2.68032 0.63407   1
   4  -4  -1 2.96844 0.58598   1
   4  -4  -1 2.47854 0.68205   1
   4   4  -1 3.25127 0.50656   1
   4   4  -1 3.62895 0.79213   1
   4   4  -1 2.54212 0.55266   1
   4   4  -1 2.14390 0.79658   3
   4   4  -1 3.82232 0.93024   1
   4   4  -1 2.11440 0.43277   3
   4   4  -1 2.45001 0.53418   1
   3  -4  -1 2.11603 0.48002   2
   3  -4  -1 1.99851 0.70534   2
   3   4  -1 1.20796 0.46539   1
   3   4  -1 2.84465 0.80330   2
   3   4  -1 0.77227 0.51484   1
  -2  -4   1 36.9534 3.47342   1
   2  -4  -1 43.2434 3.46464   2
   2  -4  -1 41.9278 3.48479   2
   2  -4  -1 36.6111 4.06220   1
   2  -4  -1 38.7340 3.51109   1
   2  -4  -1 43.4442 3.30397   2
  -2  -4   1 38.9611 3.44578   4
   2  -4  -1 40.8131 3.65553   2
   2  -4  -1 37.2133 3.54170   1
   2  -4  -1 41.6867 3.29400   2
   2  -4  -1 44.6895 3.33409   2
   2   4  -1 38.9698 3.74503   3
   2   4  -1 40.1381 3.20361   3
   2   4  -1 45.5754 3.19378   3
   2   4  -1 37.5701 3.35003   1
   2   4  -1 40.5986 3.30158   3
   2   4  -1 43.3907 3.30158   3
   2   4  -1 41.4020 3.31141   3
  -2   4   1 39.7687 3.45467   2
   2   4  -1 38.7415 3.46311   1
  -2   4   1 37.9073 3.50085   1
   2   4  -1 41.3725 3.93837   3
   1  -4  -1 103.424 9.57278   3
  -1  -4   1 107.625 10.0861   2
   1  -4  -1 124.930 8.98926   1
  -1  -4   1 108.919 9.00148   1
   1  -4  -1 125.678 9.45441   1
   1  -4  -1 125.476 8.99941   1
   1  -4  -1 109.661 9.29263   1
   1  -4  -1 111.744 9.31281   1
  -1   4   1 124.434 9.32296   1
   1   4  -1 104.884 10.7658   2
  -1   4   1 122.887 9.31281   1
   1   4  -1 108.859 9.25325   2
   1   4  -1 107.954 9.73521   2
   1   4  -1 115.119 10.2062   1
   1   4  -1 109.085 9.60848   1
   1   4  -1 108.816 9.48636   4
   1   4  -1 110.770 8.41376   1
   1   4  -1 108.206 10.0532   2
   1   4  -1 108.801 9.18831   4
   0  -4   1 7.03904 0.61260   1
   0  -4   1 7.05023 0.80383   1
   0  -4   1 7.03933 0.79305   1
   0  -4  -1 6.34888 0.71406   2
   0  -4   1 7.05618 0.80531   1
   0  -4  -1 7.03932 0.80534   1
   0  -4  -1 7.04787 0.59711   1
   0  -4  -1 7.80534 0.80949   1
   0  -4  -1 6.80630 0.82565   2
   0   4  -1 7.03681 0.75093   3
   0   4   1 7.03302 0.78145   4
   0   4  -1 6.86766 0.86537   2
   0   4  -1 7.05023 0.60835   1
   0   4   1 7.11988 0.75330   1
   0   4   1 7.04864 0.60173   1
   0   4  -1 7.04030 0.82761   3
   0   4   1 6.25956 0.73645   2
   0   4   1 7.03765 0.78195   4
   1  -4   1 52.4904 3.89008   4
  -1  -4  -1 52.7956 3.99416   1
   1  -4   1 43.6146 4.24643   1
   1  -4   1 49.5754 4.15415   4
   1  -4   1 48.3851 4.25906   4
   1  -4   1 47.9970 4.05811   1
   1  -4   1 50.5911 4.14396   4
   1  -4   1 53.2014 4.20488   4
  -1  -4  -1 50.8279 3.99416   1
   1  -4   1 49.7074 3.95100   4
   1   4   1 44.1109 4.26244   2
   1   4   1 49.3594 3.79835   1
   1   4   1 48.6824 4.04770   1
   1   4   1 48.4301 4.38100   1
   1   4   1 49.2747 4.18942   1
  -1   4  -1 53.6889 4.15415   4
   1   4   1 48.3308 4.75438   4
   1   4   1 48.3369 4.41921   4
  -1   4  -1 48.1225 4.28829   1
   2  -4   1 10.9736 1.16682   4
   2  -4   1 9.51781 1.13770   1
   2  -4   1 11.8688 1.14664   4
   2  -4   1 13.1261 1.00579   4
   2  -4   1 13.0356 1.13654   4
  -2  -4  -1 10.7794 1.06721   3
   2  -4   1 12.5025 1.20697   4
   2  -4   1 13.4581 1.38807   4
   2  -4   1 11.9795 0.99580   4
  -2  -4  -1 10.7011 1.07693   3
   2  -4   1 10.9032 1.27739   4
  -2   4  -1 12.3315 1.15673   4
  -2   4  -1 12.3214 1.12656   4
   2   4   1 10.9851 1.06721   3
   2   4   1 11.7976 1.03785   3
   2   4   1 12.4536 1.02802   3
   2   4   1 11.0927 0.94965   3
   2   4   1 12.6495 0.95948   3
   2   4   1 12.5124 1.31194   3
   2   4   1 10.8578 1.02802   3
   2   4   1 11.9347 1.15530   3
   2   4   1 11.5529 1.03785   3
   3  -4   1 2.78744 0.71400   2
   3  -4   1 2.87544 0.52809   2
   3   4   1 2.12309 0.60234   1
   3   4   1 3.37350 0.73705   2
   4  -4   1 1.74603 0.84810   4
   4  -4   1 2.00555 0.41904   4
   4  -4   1 2.84770 0.38485   1
   4  -4   1 3.13634 0.57728   1
   4  -4   1 2.92471 0.62534   1
   4   4   1 2.03505 0.76680   3
   4   4   1 2.09402 0.49158   3
   4   4   1 2.66834 0.46912   3
   4   4   1 3.55716 0.55296   1
   4   4   1 2.50691 0.44237   3
   5  -4   1 0.63479 0.45055   2
   5   4   1 0.95617 0.23902   1
   5   4   1 1.05180 0.39200   1
   6  -4   1 3.20891 0.55286   3
   6   4   1 2.08944 0.68255   1
   5  -5  -1 0.61460 0.49162   2
   5  -5  -1 1.62422 0.59324   1
   5   5  -1 1.29795 0.52919   2
   5   5  -1 0.61903 0.29955   2
   4  -5  -1 3.92261 0.52039   1
   4  -5  -1 3.82623 0.60721   1
   4  -5  -1 3.57565 0.64578   1
   4  -5  -1 2.07850 0.89932   3
   4  -5  -1 3.71051 0.65535   1
   4   5  -1 2.69194 0.51087   3
   4   5  -1 4.98933 0.87728   1
   4   5  -1 3.06534 0.57966   3
   4   5  -1 5.21774 1.10569   1
   4   5  -1 2.93763 0.50102   3
   4   5  -1 3.54550 0.99607   1
   3  -5  -1 4.90843 0.98164   2
   3   5  -1 3.44845 0.78062   1
   3   5  -1 3.10265 0.58299   1
   2  -5  -1 0.45976 0.27590   1
  -2  -5   1 0.08222 0.24655   1
   2  -5  -1 0.67475 0.27192   2
  -2  -5   1 0.35947 0.19514   1
   2  -5  -1 0.66465 0.29202   2
   2  -5  -1 0.74516 0.39273   2
   2  -5  -1 1.02718 0.31223   2
   2  -5  -1 0.07154 0.40872   1
   2  -5  -1 0.47334 0.12081   2
   2   5  -1 0.71491 0.18604   3
  -2   5   1 0.30654 0.22476   1
  -2   5   1 0.37808 0.24526   1
   2   5  -1 0.24655 0.16433   1
   2   5  -1 0.58761 0.09793   3
   2   5  -1 0.46219 0.17464   1
   2   5  -1 0.31847 0.16433   1
   2   5  -1 0.95970 0.26443   3
   2   5  -1 0.35947 0.08222   1
   2   5  -1 0.75400 0.47002   3
   2   5  -1 0.38008 0.40058   1
   1  -5  -1 148.137 11.6766   1
   1  -5  -1 126.175 12.4118   3
   1  -5  -1 153.488 12.2442   1
   1  -5  -1 151.633 12.1023   1
  -1  -5   1 145.881 12.3323   1
  -1  -5   1 155.743 11.7254   1
   1  -5  -1 145.122 12.4536   3
   1   5  -1 146.190 11.7156   1
   1   5  -1 141.061 12.5076   2
   1   5  -1 145.555 11.6117   1
  -1   5   1 125.288 12.0152   3
   1   5  -1 146.750 11.6861   1
  -1   5   1 151.806 12.0921   1
   1   5  -1 146.191 13.1483   1
  -1   5   1 149.849 12.1023   1
   1   5  -1 145.139 12.4910   1
   1   5  -1 148.028 11.7058   1
   0  -5   1 184.756 15.2691   1
   0  -5  -1 184.448 15.1550   3
   0  -5  -1 183.860 16.8110   2
   0  -5  -1 188.310 14.6256   1
   0  -5  -1 184.862 15.2220   1
   0  -5   1 183.731 16.6218   2
   0  -5   1 184.443 15.4257   3
   0  -5   1 188.746 15.2092   1
   0   5  -1 184.394 15.7749   1
   0   5   1 194.467 15.1261   1
   0   5  -1 185.459 15.4107   1
   0   5   1 184.842 15.6603   1
   0   5   1 199.983 14.6256   1
   0   5   1 186.328 15.0760   1
   0   5  -1 184.425 16.0429   3
   0   5  -1 184.453 15.5256   1
   1  -5   1 23.3722 2.11638   4
  -1  -5  -1 25.5160 2.02994   3
   1  -5   1 25.6413 1.96380   4
   1  -5   1 24.0337 2.08587   4
  -1  -5  -1 21.7663 2.08746   3
   1  -5   1 22.8431 1.91298   4
   1  -5   1 23.0263 2.16732   4
  -1   5  -1 23.1383 2.14690   4
   1   5   1 21.9380 2.02256   3
   1   5   1 21.1396 2.18273   2
   1   5   1 22.8095 1.83380   3
  -1   5  -1 25.7736 2.08587   4
   1   5   1 22.8487 2.13774   3
   1   5   1 21.1504 2.04086   2
   1   5   1 23.7901 1.96128   3
   2  -5   1 18.5417 2.07493   1
   2  -5   1 22.1919 2.07797   2
  -2  -5  -1 21.5690 2.07174   1
   2  -5   1 23.6647 2.06785   2
   2  -5   1 22.0371 1.87849   2
   2  -5   1 24.3103 2.23936   2
   2  -5   1 24.3002 2.01747   2
   2  -5   1 24.0581 1.88634   2
   2   5   1 22.7183 1.92746   3
   2   5   1 22.2780 1.94698   3
   2   5   1 25.1055 1.94698   3
  -2   5  -1 23.5335 2.08809   2
   2   5   1 22.0624 1.86538   3
   3  -5   1 0.23077 0.42138   3
   3  -5   1 0.91141 0.61740   2
   3   5   1 1.61292 0.47822   2
   3   5   1 0.60013 0.42197   2
   4  -5   1 5.75769 0.85981   1
   4  -5   1 5.54712 0.96856   4
   4  -5   1 5.74800 0.68587   1
   4  -5   1 5.54646 0.78403   4
   4  -5   1 5.47897 1.33976   4
   4  -5   1 6.37592 1.36214   1
   4   5   1 3.72182 1.00167   3
   4   5   1 5.54545 0.64593   2
   4   5   1 6.29354 0.85984   1
   5  -5   1 0.94522 0.55550   1
   5  -5   1 -0.0390 0.55550   1
   5   5   1 1.81287 0.54390   1
   5   5   1 0.59101 0.29048   2
   6  -6  -1 0.52661 0.39496   3
   5  -6  -1 -0.0486 0.37951   1
   5  -6  -1 1.14831 0.48660   1
   5   6  -1 0.65618 0.41847   1
   5   6  -1 0.79879 0.32337   1
   4  -6  -1 8.63085 1.64305   1
   4  -6  -1 6.95831 1.36159   4
   4  -6  -1 8.84345 1.07281   1
   4  -6  -1 6.44774 0.66081   4
   4   6  -1 6.32214 1.21730   3
   4   6  -1 7.62040 0.78828   1
   4   6  -1 7.15658 0.95221   3
   4   6  -1 7.16854 0.80174   3
   3  -6  -1 5.43759 0.69810   2
   3  -6  -1 4.59403 0.55288   1
   3  -6  -1 5.37861 0.41296   2
   3  -6  -1 4.72471 0.78409   1
   3  -6  -1 5.51620 1.02260   2
   3  -6  -1 5.62440 0.72759   2
   3   6  -1 4.98456 0.90203   2
   3   6  -1 4.82163 0.66069   1
   3   6  -1 4.17094 0.70994   1
   3   6  -1 3.78639 0.53240   1
   2  -6  -1 0.66594 0.34309   2
   2  -6  -1 0.22500 0.30688   1
   2  -6  -1 0.11255 0.46027   1
   2  -6  -1 0.06135 0.26594   1
   2  -6  -1 0.53478 0.10090   2
   2  -6  -1 0.54479 0.13116   2
   2  -6  -1 -0.0504 0.29259   2
   2  -6  -1 0.56504 0.50452   2
  -2  -6   1 0.49948 0.20573   3
   2   6  -1 0.61708 0.44073   3
   2   6  -1 0.34278 0.16653   3
   2   6  -1 0.58771 0.09795   3
   2   6  -1 0.52885 0.17625   3
   2   6  -1 0.41135 0.07840   3
   2   6  -1 0.69538 0.20573   3
   2   6  -1 0.93048 0.49948   3
   2   6  -1 0.30368 0.26448   3
   2   6  -1 0.49948 0.17625   3
  -1  -6   1 178.903 13.5472   3
   1  -6  -1 178.434 14.1136   4
  -1  -6   1 168.325 14.4841   3
   1  -6  -1 176.364 13.4642   4
   1  -6  -1 155.199 13.8358   1
   1  -6  -1 175.694 13.9715   4
  -1   6   1 147.217 13.8254   1
   1   6  -1 175.188 13.5472   3
   1   6  -1 168.229 13.8874   4
   1   6  -1 163.607 14.2220   2
  -1   6   1 144.055 14.2845   1
   1   6  -1 163.060 14.6832   2
   1   6  -1 169.081 13.2201   3
  -1   6   1 173.208 13.9512   4
   1   6  -1 168.872 14.6259   3
  -1   6   1 172.031 13.9613   4
   1   6  -1 173.326 13.4980   3
   0  -6   1 20.4621 1.81438   1
   0  -6   1 20.4901 1.86755   1
   0  -6   1 20.4690 1.66641   1
   0  -6  -1 20.1345 1.73889   2
   0  -6  -1 20.5519 1.94527   1
   0  -6   1 19.8665 1.98008   2
   0  -6  -1 20.4516 1.84608   3
   0  -6  -1 19.8173 1.87021   2
   0   6   1 20.4588 1.84341   1
   0   6  -1 20.4486 1.87941   4
   0   6  -1 20.4793 1.82705   1
   0   6  -1 19.9970 1.95836   2
   0   6  -1 20.3668 1.71904   2
   0   6   1 19.5438 1.92484   2
   0   6   1 20.2767 1.95764   2
   0   6   1 21.5890 1.79487   1
   0   6   1 20.4505 1.70244   4
   1  -6   1 55.1401 4.97936   4
   1  -6   1 60.5065 4.71462   4
   1  -6   1 52.5781 4.82160   1
  -1  -6  -1 64.1444 4.80488   3
   1  -6   1 58.2357 5.03033   4
   1  -6   1 57.6960 4.96926   4
   1  -6   1 61.2702 4.95904   4
   1   6   1 62.0514 5.08993   3
  -1   6  -1 56.8509 4.94882   4
  -1   6  -1 62.0135 4.99979   4
  -1   6  -1 52.4424 4.82160   1
   1   6   1 54.3681 4.99250   3
   1   6   1 58.4452 4.76566   3
  -1   6  -1 54.1838 4.97250   4
   2  -6   1 0.15274 0.40744   1
   2  -6   1 0.80703 0.37326   2
   2  -6   1 0.15274 0.27503   1
   2  -6   1 0.34634 0.28514   1
  -2  -6  -1 0.23520 0.26587   1
   2  -6   1 0.52453 0.15127   2
   2  -6   1 0.33613 0.35646   1
   2  -6   1 0.46853 0.38700   1
   2  -6   1 0.62541 0.31276   2
   2   6   1 0.31706 0.19427   1
   2   6   1 0.21479 0.32721   1
   2   6   1 0.32721 0.09201   1
   2   6   1 0.24546 0.18401   1
   2   6   1 0.49081 0.22494   1
   2   6   1 0.50642 0.09931   3
   2   6   1 0.74356 0.44023   3
   2   6   1 0.74356 0.24455   3
   3  -6   1 0.21590 0.29447   2
   3  -6   1 0.08050 0.18097   3
   3  -6   1 0.12065 0.21124   3
   3  -6   1 0.21590 0.20616   2
   3  -6   1 -0.0196 0.32391   2
   3  -6   1 0.17662 0.21590   2
   3  -6   1 -0.0294 0.11775   2
   3  -6   1 -0.0294 0.38278   2
   3  -6   1 0.06032 0.06032   3
   3  -6   1 0.11066 0.06032   3
   3   6   1 0.33482 0.42783   2
   3   6   1 -0.0372 0.19535   2
   3   6   1 0.04914 0.13774   1
   3   6   1 0.15738 0.14751   1
   3   6   1 0.04914 0.07874   1
   3   6   1 0.24181 0.28836   2
   4  -6   1 1.90087 0.81463   1
   4  -6   1 0.83409 0.75646   1
   4  -6   1 0.72131 0.40075   4
   4  -6   1 1.49356 0.52366   1
   4  -6   1 0.78554 0.23280   1
   4   6   1 1.12540 0.29951   1
   4   6   1 1.49756 0.68068   1
   4   6   1 1.93317 0.49005   1
   4   6   1 0.80777 0.46283   1
   4   6   1 0.90754 0.27229   1
   5  -6   1 0.26991 0.38415   2
   5  -6   1 0.86758 0.39962   3
   5   6   1 0.72401 0.35250   1
   6  -6   1 0.41214 0.20131   3
   6  -7  -1 0.22964 0.18175   3
   6   7  -1 -0.1232 0.13276   4
   5  -7  -1 4.27662 0.80964   2
   5   7  -1 2.72146 0.49572   2
   4  -7  -1 3.58080 1.11335   4
   4  -7  -1 3.22977 0.59179   4
   4  -7  -1 3.69106 0.74220   4
   4  -7  -1 2.57772 0.36109   4
   4   7  -1 2.87471 0.49060   3
   4   7  -1 3.59098 0.60831   3
   4   7  -1 2.08001 0.92225   3
   3  -7  -1 2.29589 0.45312   1
   3  -7  -1 2.64807 0.85639   2
   3  -7  -1 2.30600 0.52362   1
   3  -7  -1 2.35630 0.47332   1
   3  -7  -1 3.07138 0.79734   2
   3  -7  -1 1.37956 0.31222   1
   3  -7  -1 2.59880 0.51188   2
   3  -7  -1 2.42680 0.38261   1
   3   7  -1 2.42011 0.49192   1
   3   7  -1 2.90401 0.83891   2
   3   7  -1 2.06595 0.25578   1
   3   7  -1 1.66255 0.36403   1
   3   7  -1 3.79821 0.70982   2
   3   7  -1 2.72877 0.43333   2
   2  -7  -1 0.03027 0.11106   2
   2  -7  -1 0.06054 0.16147   2
   2  -7  -1 -0.1615 0.16147   2
   2  -7  -1 -0.0303 0.04039   2
   2   7  -1 0.09789 0.06854   2
   2   7  -1 0.23496 0.13707   2
   2   7  -1 0.16643 0.03918   2
   2   7  -1 0.10771 0.06854   2
   2   7  -1 0.07836 0.02936   2
   2   7  -1 0.13707 0.08807   2
   2   7  -1 -0.0098 0.06854   2
   1  -7  -1 0.69098 0.42918   1
   1  -7  -1 0.91077 0.17800   1
   1  -7  -1 0.42918 0.39779   1
  -1  -7   1 0.87817 0.42322   1
   1  -7  -1 0.47108 0.38739   1
   1  -7  -1 0.72238 0.41879   1
   1   7  -1 0.53953 0.30680   1
   1   7  -1 0.84644 0.15865   1
   1   7  -1 0.44434 0.29619   1
  -1   7   1 0.53388 0.30359   1
  -1   7   1 0.69098 0.14660   1
  -1   7   1 1.14117 0.38739   1
   1   7  -1 1.19868 0.15982   3
   1   7  -1 0.67706 0.46556   1
   1   7  -1 1.19233 0.40094   3
   1   7  -1 0.76175 0.38088   1
  -1   7   1 1.31941 0.38564   4
   0  -7  -1 2.73105 0.36706   2
   0  -7  -1 3.35018 0.58525   3
   0  -7  -1 3.34465 0.55388   3
   0  -7   1 4.05243 0.65523   3
   0  -7   1 3.25402 0.35441   2
   0  -7   1 3.34840 0.59718   3
   0  -7  -1 3.38149 0.62211   3
   0  -7  -1 3.84307 0.63217   3
   0  -7   1 3.28623 0.67662   2
   0   7   1 2.95767 0.53976   2
   0   7   1 3.45174 0.58195   3
   0   7  -1 3.45766 0.53430   3
   0   7  -1 3.77021 0.57464   3
   0   7  -1 2.95337 0.32220   2
   0   7   1 3.66240 0.55186   3
   0   7   1 2.78497 0.52893   2
   0   7   1 2.84972 0.32385   2
   0   7  -1 3.27557 0.59065   2
   0   7  -1 3.85080 0.66534   3
   1  -7   1 0.31304 0.32351   1
   1  -7   1 0.01047 0.35480   1
  -1  -7  -1 -0.0295 0.36432   3
  -1  -7  -1 0.03193 0.36205   1
   1  -7   1 0.85545 0.42772   4
   1  -7   1 0.37563 0.42774   1
   1  -7   1 0.42774 0.13564   1
  -1   7  -1 0.41739 0.28175   1
  -1   7  -1 0.26081 0.10435   1
   1   7   1 0.46852 0.37262   1
  -1   7  -1 0.15647 0.28175   1
   1   7   1 0.33011 0.20227   1
  -1   7  -1 0.07305 0.39645   1
   1   7   1 0.07455 0.21296   1
   1   7   1 0.35137 0.10648   1
   2  -7   1 1.13159 0.44861   1
   2  -7   1 2.42623 0.60408   2
   2  -7   1 1.84234 0.43292   2
   2  -7   1 1.46981 0.25165   2
   2   7   1 1.59339 0.34211   2
   2   7   1 2.39498 0.44968   2
   2   7   1 3.14775 0.70384   2
   2   7   1 2.07238 0.21503   2
   2   7   1 1.46495 0.32447   2
   2   7   1 2.57099 0.41055   2
   2   7   1 1.60319 0.19552   2
   3  -7   1 14.3076 1.19888   2
   3  -7   1 11.0857 2.05593   3
   3  -7   1 11.9322 1.11864   3
   3  -7   1 11.4283 1.24965   3
   3  -7   1 13.2758 1.30691   2
   3  -7   1 12.5469 1.32021   3
   3  -7   1 11.1462 1.45122   3
   3  -7   1 11.0555 1.76358   3
   3  -7   1 11.7004 1.46133   3
   3   7   1 13.3698 1.07878   2
   3   7   1 12.9917 1.30011   2
   3   7   1 13.9137 1.16174   2
   3   7   1 15.8686 1.53984   2
   4  -7   1 2.60958 0.67253   4
   4  -7   1 2.90075 0.73274   4
   4  -7   1 3.17332 1.19727   1
   4   7   1 4.71706 0.99921   1
   4   7   1 4.46495 0.49509   1
   4   7   1 2.83367 0.67655   3
   5  -7   1 0.99417 0.56527   3
   5  -7   1 0.37661 0.58586   2
   5   7   1 0.73057 0.29424   2
   5   7   1 0.74075 0.53780   2
   6  -7   1 0.55559 0.22994   3
   6  -8  -1 0.18451 0.32645   1
   6   8  -1 0.16964 0.28840   1
   5  -8  -1 3.72211 0.78415   2
   5  -8  -1 3.98346 0.75279   2
   5   8  -1 3.63094 0.49092   2
   4  -8  -1 0.23303 0.71837   1
   4  -8  -1 -0.1068 0.24267   1
   4  -8  -1 -0.0097 0.16506   1
   4  -8  -1 0.49508 0.32038   1
   4   8  -1 0.05883 0.13734   3
   4   8  -1 0.33827 0.61430   1
   4   8  -1 0.33827 0.24040   1
   3  -8  -1 3.72149 0.54456   1
   3  -8  -1 4.51826 0.61517   1
   3  -8  -1 3.92321 0.53455   1
   3  -8  -1 4.90983 0.79036   1
   3  -8  -1 5.52582 1.12289   2
   3  -8  -1 7.19054 1.23128   2
   3  -8  -1 4.52838 0.77653   1
   2  -8  -1 28.7668 2.36700   2
   2  -8  -1 27.9609 2.74981   2
   2  -8  -1 27.9710 3.03179   2
   2  -8  -1 29.9351 2.62887   2
   2   8  -1 27.0042 2.34475   4
   2   8  -1 28.7487 2.25844   2
   2   8  -1 27.0076 2.44528   4
   2   8  -1 27.0030 2.77458   2
   1  -8  -1 4.43514 0.43643   2
   1  -8  -1 5.13544 0.74092   2
   1  -8  -1 3.61308 0.68005   2
  -1  -8   1 5.30128 0.75170   3
   1  -8  -1 4.36408 0.81198   2
   1  -8  -1 4.42507 0.74092   2
  -1   8   1 4.02926 0.69012   2
  -1   8   1 3.48115 0.48713   2
  -1   8   1 4.12057 0.70030   2
   0  -8  -1 1.29202 0.49119   1
   0  -8   1 1.51070 0.24299   3
   0  -8  -1 1.76652 0.49182   3
   0  -8  -1 1.52714 0.49195   3
   0  -8   1 0.61565 0.61565   1
   0  -8   1 1.92503 0.50395   3
   0  -8   1 1.72345 0.47373   3
   0  -8  -1 1.58590 0.39144   3
   0  -8  -1 1.42012 0.23488   1
   0   8  -1 1.56220 0.46362   3
   0   8  -1 1.85446 0.49384   3
   0   8  -1 1.51712 0.37410   3
   0   8   1 1.18524 0.35238   1
   0   8   1 1.58590 0.43161   3
   0   8   1 1.80669 0.40151   3
   0   8  -1 1.39060 0.22297   1
   0   8   1 1.22798 0.21357   1
   0   8   1 2.14799 0.44168   3
   0   8  -1 1.70323 0.41317   3
   1  -8   1 23.6835 2.20954   2
  -1  -8  -1 22.8748 2.17992   3
  -1  -8  -1 22.7466 2.14054   3
   1  -8   1 26.3104 2.25019   2
   1  -8   1 25.0377 1.95492   2
   1  -8   1 23.2965 2.24008   2
   1  -8   1 19.8533 2.23145   1
   1   8   1 21.3162 2.22929   3
   1   8   1 22.5295 1.87418   3
  -1   8  -1 23.0827 2.16879   2
  -1   8  -1 22.1561 2.25019   2
   2  -8   1 32.4221 3.13281   2
   2  -8   1 28.1749 2.98214   2
   2  -8   1 33.3861 2.75119   2
   2   8   1 36.3564 3.15513   2
   2   8   1 33.5314 2.64059   2
   2   8   1 32.9197 2.80564   2
   2   8   1 31.0655 2.70856   2
   3  -8   1 3.58446 0.66716   3
   3  -8   1 3.63862 1.05222   2
   3  -8   1 3.55393 1.02986   3
   3  -8   1 3.63862 0.38352   2
   3  -8   1 3.29142 0.55529   3
   3  -8   1 2.22126 0.47457   3
   3  -8   1 2.53419 0.48460   3
   3  -8   1 3.51362 0.69667   3
   3  -8   1 3.58031 0.66271   3
   3   8   1 3.53623 0.47015   1
   3   8   1 4.49725 0.56672   2
   3   8   1 3.12474 0.52891   1
   3   8   1 3.37941 0.52891   1
   3   8   1 3.41862 0.36247   1
   3   8   1 3.25208 0.64653   1
   3   8   1 5.44786 0.90495   2
   4  -8   1 0.39074 0.56651   1
   4  -8   1 0.44933 0.34185   1
   4  -8   1 0.14648 0.22467   1
   4   8   1 0.50897 0.16963   1
   4   8   1 0.00000 0.28570   1
   4   8   1 0.19641 0.16963   1
   4   8   1 0.06862 0.49006   3
   5  -8   1 3.05907 0.71122   3
   5   8   1 1.97949 0.63589   2
   5   8   1 3.01537 0.47180   2
   6  -8   1 0.01911 0.02871   3
   6  -9  -1 0.14308 0.13360   3
   5  -9  -1 2.49599 0.62154   3
   5   9  -1 2.13407 0.36200   1
   5   9  -1 2.25802 0.48585   1
   4  -9  -1 3.67342 0.66426   2
   4  -9  -1 3.61305 0.49315   2
   4  -9  -1 4.64854 0.71961   1
   4  -9  -1 3.58287 1.17750   2
   4   9  -1 4.01080 0.55901   3
   4   9  -1 3.47147 1.09833   3
   4   9  -1 3.81466 0.55901   3
   3  -9  -1 1.30034 0.40383   2
   3  -9  -1 0.08085 0.80811   3
   3  -9  -1 0.67680 0.42421   3
   3  -9  -1 0.89899 0.32320   3
   3  -9  -1 0.54539 0.34347   3
   3  -9  -1 0.75755 0.50507   3
   3  -9  -1 0.68683 0.82827   3
   3  -9  -1 0.71712 0.47477   3
   3   9  -1 0.94253 0.17218   2
   3   9  -1 1.11471 0.32627   2
   3   9  -1 0.90199 0.25490   1
   3   9  -1 1.22353 0.62536   2
   3   9  -1 0.86275 0.29414   1
   2  -9  -1 32.1342 3.00165   2
   2  -9  -1 30.1834 2.70828   1
   2  -9  -1 28.0340 3.43270   1
   2  -9  -1 29.9955 3.19772   1
   2   9  -1 37.4869 2.74246   2
   2   9  -1 37.4105 3.10564   2
   2   9  -1 30.1659 2.67900   4
   1  -9  -1 126.018 11.2818   1
   1  -9  -1 139.728 11.0082   2
  -1  -9   1 127.595 10.6593   3
   1  -9  -1 141.189 10.4502   2
   1  -9  -1 116.665 11.2712   1
   1  -9  -1 132.038 10.8865   2
  -1  -9   1 120.748 11.3027   1
  -1   9   1 127.164 11.1622   2
  -1   9   1 123.575 11.2712   1
   1   9  -1 129.140 10.1839   3
   1   9  -1 124.425 11.2397   1
   1   9  -1 133.033 11.3329   3
   1   9  -1 127.113 10.9525   3
   1   9  -1 143.316 10.6097   3
   0  -9  -1 7.08514 1.04412   1
   0  -9  -1 7.80465 0.70198   3
   0  -9   1 7.95063 1.09841   3
   0  -9   1 7.80602 0.72009   3
   0  -9   1 7.33955 1.06968   1
   0  -9   1 7.46661 0.95314   1
   0  -9  -1 7.29824 0.90561   1
   0  -9   1 7.58315 1.09082   1
   0  -9  -1 6.90399 1.02285   1
   0  -9  -1 6.66963 1.02285   1
   0   9  -1 7.81007 0.90927   3
   0   9  -1 7.26540 0.69903   1
   0   9  -1 7.18073 1.16497   1
   0   9   1 7.59651 0.90561   1
   0   9   1 7.31950 0.90561   1
   0   9   1 7.54318 0.96952   1
   0   9  -1 7.53025 0.92137   1
   0   9   1 7.79665 0.69259   3
   0   9  -1 8.26296 1.05808   3
   0   9   1 7.46869 0.98021   1
   1  -9   1 148.229 12.0065   2
  -1  -9  -1 140.749 12.1048   3
   1  -9   1 144.464 11.8945   2
   1  -9   1 126.002 12.1568   1
  -1  -9  -1 141.143 11.7368   3
   1  -9   1 148.677 11.3959   2
   1  -9   1 151.587 11.8640   2
  -1   9  -1 130.092 12.1152   1
   1   9   1 142.746 11.0466   3
  -1   9  -1 142.358 11.9047   2
   1   9   1 140.412 12.2293   2
   1   9   1 139.577 13.0528   1
   2  -9   1 0.22012 0.07006   2
   2  -9   1 0.01022 0.20385   1
   2  -9   1 -0.0600 0.16009   2
   2   9   1 0.03830 0.10531   2
   2   9   1 0.02870 0.04780   2
   2   9   1 0.01006 0.11034   1
   2   9   1 0.08611 0.17221   2
   3  -9   1 11.3765 1.32474   3
   3  -9   1 8.87871 1.17310   3
   3  -9   1 10.1428 1.12248   3
   3  -9   1 9.83940 1.71912   3
   3  -9   1 11.1136 1.17310   3
   3  -9   1 11.4800 1.31393   3
   3  -9   1 11.4779 2.01733   3
   3  -9   1 11.2349 1.00116   3
   3  -9   1 11.5155 1.29812   1
   3   9   1 11.4848 1.04244   2
   3   9   1 11.1713 1.08677   1
   3   9   1 11.6207 0.92460   2
   3   9   1 11.4650 1.46861   1
   3   9   1 9.96707 1.18469   1
   4  -9   1 3.37116 1.11716   1
   4  -9   1 3.58672 0.77420   1
   4  -9   1 4.05708 0.79376   1
   4   9   1 3.73897 0.64682   1
   4   9   1 3.93387 0.50507   1
   4   9   1 3.62379 0.33665   1
   4   9   1 3.95164 0.60247   1
   4   9   1 5.29833 1.20494   1
   5  -9   1 2.70260 0.76610   2
   5   9   1 3.31898 0.40895   1
   5   9   1 2.67372 0.50978   2
   5 -10  -1 1.91038 0.60123   3
   5  10  -1 2.04116 0.40058   1
   5  10  -1 1.99342 0.32433   1
   4 -10  -1 0.24345 0.48701   1
   4 -10  -1 0.31165 0.20458   1
   4 -10  -1 0.10717 0.14605   1
   4  10  -1 0.20162 0.39445   1
   4  10  -1 -0.0438 0.04379   1
   4  10  -1 0.29808 0.18412   1
   4  10  -1 0.06137 0.13145   1
   3 -10  -1 11.6540 1.32454   3
   3 -10  -1 11.6552 1.78697   4
   3 -10  -1 11.6760 1.31921   1
   3 -10  -1 13.1232 1.91971   1
   3 -10  -1 9.51717 1.22378   3
   3 -10  -1 10.2757 1.16312   3
   3  10  -1 11.6546 1.11734   1
   3  10  -1 10.2656 1.54918   3
   3  10  -1 11.5279 1.31638   3
   3  10  -1 11.4225 1.16680   3
   3  10  -1 12.0447 0.96247   2
   2 -10  -1 107.124 8.74617   2
   2 -10  -1 102.276 8.90619   2
   2 -10  -1 97.6277 9.86571   2
   2 -10  -1 104.445 8.29639   2
   2  10  -1 94.3612 8.09023   2
   2  10  -1 104.071 7.78886   2
   2  10  -1 93.2219 9.26436   4
   2  10  -1 93.2122 7.69783   4
   1 -10  -1 36.3386 3.01895   2
   1 -10  -1 33.4210 2.99862   2
   1 -10  -1 31.2474 3.05931   2
   1 -10  -1 33.1576 2.68463   2
  -1  10   1 29.4388 3.03166   1
   1  10  -1 28.7342 3.01098   1
   1  10  -1 31.2366 3.06159   4
   1  10  -1 32.4503 2.60677   2
   1  10  -1 32.5495 2.87431   2
   0 -10   1 1.98150 0.61127   1
   0 -10  -1 1.45238 0.66792   1
   0 -10  -1 1.51597 0.63612   1
   0 -10   1 1.50713 0.52701   1
   0 -10   1 2.32741 0.30228   3
   0 -10  -1 1.98771 0.60542   3
   0 -10   1 1.34908 0.44265   1
   0 -10  -1 1.75981 0.42408   1
   0 -10   1 1.76012 0.55862   1
   0 -10  -1 2.06862 0.29120   3
   0  10   1 1.72801 0.26500   1
   0  10   1 2.82175 0.51209   3
   0  10  -1 2.56925 0.51381   3
   0  10   1 1.67506 0.47704   1
   0  10  -1 2.59947 0.56424   3
   0  10   1 2.22928 0.56236   3
   0  10  -1 2.13599 0.53402   3
   0  10   1 2.15897 0.57243   3
   0  10  -1 1.86552 0.45322   1
   0  10  -1 2.30730 0.27207   3
   1 -10   1 0.93331 0.51857   1
   1 -10   1 2.16003 0.63891   2
   1 -10   1 0.87111 0.49776   1
   1 -10   1 1.68336 0.28390   2
  -1  10  -1 1.29636 0.51857   1
   1  10   1 1.59227 0.23739   2
   1  10   1 2.19551 0.55384   2
   2 -10   1 23.2372 2.31176   2
   2 -10   1 22.0514 1.95304   2
   2 -10   1 20.7561 2.41141   2
   2  10   1 20.7584 1.98997   2
   2  10   1 24.1442 1.82971   2
   2  10   1 21.3526 1.96168   2
   2  10   1 20.8338 2.24464   2
   3 -10   1 2.27766 0.99156   1
   3 -10   1 1.66070 0.41512   3
   3 -10   1 1.95434 1.02272   3
   3 -10   1 1.79233 0.44560   3
   3 -10   1 1.92397 0.56707   3
   3 -10   1 2.84705 0.48106   1
   3 -10   1 2.19908 0.55964   1
   3 -10   1 1.11383 0.67850   3
   3 -10   1 1.91381 0.33417   3
   3  10   1 2.95075 0.53980   2
   3  10   1 2.07719 0.66510   3
   3  10   1 2.73481 0.33288   2
   4 -10   1 0.20649 0.33428   1
   4 -10   1 0.01012 0.42370   2
   4 -10   1 0.17153 0.26230   2
   4 -10   1 0.15128 0.39344   2
   4 -10   1 0.27521 0.75691   1
   4  10   1 -0.1497 0.55456   1
   4  10   1 0.11753 0.25473   3
   4  10   1 0.12736 0.09798   3
   4  10   1 0.42248 0.22002   1
   4  10   1 0.29931 0.19362   1
   5 -10   1 0.38898 0.48623   3
   5  10   1 0.11660 0.18016   2
   5  10   1 0.35152 0.27548   1
   5 -11  -1 1.26785 0.46203   1
   5  11  -1 1.46107 0.53030   2
   5  11  -1 1.75051 0.31260   4
   4 -11  -1 1.31992 0.37709   2
   4 -11  -1 1.36562 0.58531   1
   4  11  -1 1.77950 0.41867   1
   4  11  -1 1.31631 0.28740   3
   3 -11  -1 0.36269 0.46071   1
   3 -11  -1 0.62725 0.30389   1
   3 -11  -1 -0.0686 0.25483   1
   3 -11  -1 0.52923 0.23527   1
   3 -11  -1 0.09802 0.20587   1
   3 -11  -1 0.70571 0.64691   1
   3  11  -1 0.33969 0.17882   2
   3  11  -1 0.75992 0.09838   2
   3  11  -1 0.42910 0.40229   2
   3  11  -1 0.40229 0.14303   2
   2 -11  -1 10.8290 1.45179   2
   2 -11  -1 11.2069 1.40212   2
   2 -11  -1 8.37546 1.68726   1
   2 -11  -1 11.3163 1.03416   2
   2  11  -1 9.49032 1.12361   2
   2  11  -1 11.6355 0.94720   2
   2  11  -1 10.3911 1.33720   2
   1 -11  -1 6.97966 1.09944   2
   1 -11  -1 7.05028 1.22044   2
   1 -11  -1 8.22034 0.78671   2
   1 -11  -1 7.86724 1.03883   2
   1  11  -1 7.97821 0.73509   2
   1  11  -1 8.08606 1.04871   2
   1  11  -1 9.14460 1.07810   2
   0 -11  -1 8.79003 1.31433   1
   0 -11   1 10.6759 0.97248   1
   0 -11  -1 10.7037 1.33532   1
   0 -11   1 8.52188 1.30706   1
   0 -11   1 11.3555 1.30706   1
   0 -11  -1 10.0098 1.14611   1
   0 -11  -1 10.4723 0.97789   1
   0 -11   1 11.2928 1.33842   1
   0 -11  -1 10.6932 1.29323   1
   0 -11   1 10.2681 1.16064   1
   0  11   1 10.7247 1.25126   1
   0  11   1 10.3988 1.27225   1
   0  11  -1 10.9477 1.20249   1
   0  11  -1 11.1359 1.28608   1
   0  11  -1 11.0941 0.95150   1
   0  11   1 10.5144 1.18808   1
   0  11   1 11.1348 0.95679   1
   0  11  -1 10.0066 1.18151   1
   0  11   1 11.0507 1.21973   1
   0  11  -1 11.9132 1.26910   3
   1 -11   1 0.00000 0.07218   1
   1 -11   1 -0.0101 0.16073   2
   1 -11   1 -0.0603 0.19086   2
   1 -11   1 0.23107 0.18078   2
  -1  11  -1 0.05018 0.09039   2
   1  11   1 -0.0295 0.03935   2
   1  11   1 -0.0590 0.16715   2
   2 -11   1 0.69176 0.64094   3
   2 -11   1 1.97321 0.33718   2
   2 -11   1 1.75996 0.73247   3
   2  11   1 1.42785 0.46607   1
   2  11   1 1.84428 0.27759   1
   2  11   1 1.46753 0.63455   1
   2  11   1 2.32437 0.49278   2
   3 -11   1 -0.3036 0.68546   1
   3 -11   1 0.18602 0.25458   1
   3 -11   1 -0.4406 0.53852   1
   3 -11   1 0.10138 0.35478   4
   3 -11   1 0.45042 0.30359   1
   3 -11   1 0.47979 0.53852   1
   3  11   1 -0.0804 0.14302   2
   3  11   1 0.13721 0.10782   3
   3  11   1 -0.2324 0.42020   2
   3  11   1 0.27717 0.21458   2
   3  11   1 0.38442 0.28605   2
   3  11   1 0.11755 0.10782   3
   3  11   1 0.77771 0.25924   2
   4 -11   1 4.14378 0.86921   2
   4 -11   1 6.37511 1.63310   1
   4  11   1 3.44891 0.62704   3
   4  11   1 4.03684 0.57809   3
   4  11   1 4.39899 0.64843   1
   5 -11   1 -0.6409 0.77683   3
   5 -11   1 0.55350 0.36893   3
   5  11   1 0.58752 0.25588   4
   5  11   1 -0.0189 0.21796   4
   5 -12  -1 -0.0966 0.09657   3
   5  12  -1 0.10457 0.07607   4
   5  12  -1 0.04747 0.12354   4
   4 -12  -1 0.63413 0.49752   1
   4 -12  -1 1.61949 1.05366   1
   4 -12  -1 0.38048 0.32196   1
   4  12  -1 0.56617 0.33096   1
   4  12  -1 0.42681 0.23520   1
   4  12  -1 0.44419 0.26133   1
   3 -12  -1 0.59443 0.69189   1
   3 -12  -1 0.14614 0.30215   1
   3 -12  -1 0.06079 0.24325   4
   3 -12  -1 0.24360 0.26315   1
   3 -12  -1 -0.3314 0.48730   1
   3  12  -1 0.26616 0.46131   1
   3  12  -1 0.21295 0.15083   1
   3  12  -1 0.27506 0.10643   1
   3  12  -1 0.37259 0.21295   1
   3  12  -1 0.20405 0.11533   1
   2 -12  -1 4.73534 1.02810   2
   2 -12  -1 3.36116 0.45475   2
   2 -12  -1 2.86519 0.54860   1
   2 -12  -1 3.43038 0.90951   2
   2 -12  -1 3.28203 0.63265   2
   2 -12  -1 2.79405 0.44710   1
   2  12  -1 3.30844 0.76069   2
   2  12  -1 2.54328 0.40570   1
   2  12  -1 2.97876 0.56413   1
   2  12  -1 2.95901 0.39587   1
   2  12  -1 2.71154 0.42555   1
   2  12  -1 2.87980 0.40570   1
   2  12  -1 2.74122 0.47498   1
   1 -12  -1 1.60627 0.59864   2
   1 -12  -1 0.89575 0.57662   1
   1 -12  -1 1.55633 0.27930   2
   1  12  -1 1.49181 0.25023   2
   1  12  -1 1.78046 0.58705   2
   1  12  -1 1.24158 0.55818   2
   0 -12  -1 0.00000 0.34289   1
   0 -12   1 0.03101 0.46519   1
   0 -12   1 0.10909 0.23797   2
   0  12   1 0.16921 0.28861   2
   0  12  -1 0.24781 0.26770   2
   0  12  -1 0.29744 0.39658   2
   0  12   1 0.03116 0.09349   1
   0  12   1 -0.1692 0.23890   2
   0  12  -1 0.07238 0.10339   1
   1 -12   1 2.02840 0.36881   1
   1 -12   1 3.13093 0.72561   2
   1 -12   1 1.97723 0.67617   1
   1  12   1 2.26466 0.33514   1
   1  12   1 3.05909 0.65619   2
   1  12   1 2.75999 0.70449   2
   2 -12   1 0.14789 0.22683   2
   2 -12   1 0.01021 0.24425   3
   2 -12   1 0.04073 0.42736   3
   2 -12   1 0.21694 0.28599   2
   2 -12   1 0.17747 0.14789   2
   2 -12   1 0.14789 0.45367   2
   2 -12   1 0.11831 0.11831   2
   2  12   1 0.15596 0.22019   2
   2  12   1 0.23850 0.12845   2
   2  12   1 0.13756 0.37606   2
   2  12   1 0.12845 0.14676   2
   2  12   1 0.17427 0.11005   2
   2  12   1 0.22019 0.23850   2
   2  12   1 0.08878 0.11837   1
   3 -12   1 1.47322 0.42932   1
   3 -12   1 0.70014 0.85230   4
   3 -12   1 0.47694 1.04507   4
   3 -12   1 1.08568 0.40590   4
   3 -12   1 1.48301 0.41954   1
   3  12   1 1.08647 0.26929   3
   3  12   1 1.32034 0.22151   1
   3  12   1 1.56852 0.39875   1
   3  12   1 1.21403 0.20382   1
   3  12   1 1.33812 0.28355   1
   3  12   1 0.66671 0.69611   3
   4 -12   1 1.66241 0.65913   1
   4 -12   1 3.03957 0.98365   1
   4  12   1 1.57787 0.40177   3
   4  12   1 1.53865 0.36264   3
   5 -12   1 0.11627 0.07758   3
   5 -12   1 0.09693 0.12599   3
   5  12   1 0.16062 0.05667   4
   5  12   1 0.08500 0.04719   4
   5 -13  -1 2.68712 1.12682   3
   5  13  -1 2.81466 0.37910   4
   5  13  -1 2.81466 0.44546   4
   4 -13  -1 9.26844 1.91223   1
   4 -13  -1 6.48798 0.87802   1
   4 -13  -1 6.03105 0.69941   2
   4  13  -1 5.02514 0.70667   3
   3 -13  -1 4.73608 0.80120   4
   3 -13  -1 6.38868 0.87114   1
   3 -13  -1 7.20176 1.44225   1
   3 -13  -1 5.88534 0.91959   1
   3 -13  -1 6.07895 1.44225   1
   3  13  -1 6.27221 1.22128   1
   3  13  -1 4.75542 0.76635   3
   3  13  -1 5.36280 0.56594   3
   2 -13  -1 10.4637 1.48316   3
   2 -13  -1 8.96013 1.17848   3
   2 -13  -1 10.4332 1.08697   3
   2 -13  -1 9.80336 1.27997   3
   2 -13  -1 10.9237 1.01218   3
   2 -13  -1 8.42169 1.12763   3
   2 -13  -1 12.1025 1.61107   2
   2  13  -1 10.1088 1.42155   1
   2  13  -1 11.2870 0.95116   2
   2  13  -1 10.6912 1.25370   1
   2  13  -1 10.9323 0.93871   4
   2  13  -1 10.8946 1.21812   1
   2  13  -1 9.79288 1.04646   1
   2  13  -1 10.9033 0.95304   1
   2  13  -1 9.28936 1.06616   1
   1 -13  -1 1.26401 0.60143   1
   1 -13  -1 1.24367 0.61166   1
   1 -13  -1 1.37618 0.29560   1
   1  13  -1 1.98690 0.64335   2
   1  13  -1 1.87329 0.64335   2
   1  13  -1 1.31901 0.30208   1
   0 -13   1 60.2818 5.78200   1
   0  13  -1 70.9929 5.74117   4
   0  13   1 62.2957 6.09662   1
   0  13  -1 68.9343 6.13951   1
   0  13  -1 68.7709 5.46527   1
   0  13   1 66.9091 5.47257   1
   1 -13   1 0.32440 0.35388   2
   1 -13   1 0.22610 0.43257   2
   1 -13   1 0.14267 0.16300   1
   1  13   1 0.20103 0.14074   1
   1  13   1 0.39824 0.35088   2
   1  13   1 0.20103 0.34177   1
   2 -13   1 4.62863 0.52949   2
   2 -13   1 3.47037 1.07880   3
   2 -13   1 3.66371 0.95661   3
   2 -13   1 3.80810 0.65655   1
   2 -13   1 3.91274 0.75504   2
   2 -13   1 2.85972 0.60044   3
   2 -13   1 4.43250 0.50008   2
   2  13   1 2.84705 0.44328   1
   2  13   1 2.76819 0.45316   1
   2  13   1 2.90614 0.44328   1
   2  13   1 3.26078 0.64032   1
   2  13   1 3.63509 0.43350   1
   2  13   1 3.31987 0.47283   1
   2  13   1 3.79270 0.58123   1
   2  13   1 4.11499 0.83389   2
   3 -13   1 3.56419 1.20840   4
   3 -13   1 4.98269 0.84498   1
   3 -13   1 4.71077 0.77708   1
   3 -13   1 6.34247 1.30152   1
   3 -13   1 3.54382 0.68039   4
   3  13   1 3.41459 0.44151   3
   3  13   1 3.43417 0.46120   3
   3  13   1 4.03082 0.55004   3
   3  13   1 3.95423 0.52979   3
   3  13   1 4.03900 0.99834   3
   4 -13   1 11.5667 1.70011   1
   4 -13   1 9.20811 1.27752   1
   4  13   1 8.43411 0.92630   4
   4  13   1 7.46053 0.89211   3
   5 -13   1 0.10222 0.38634   1
   5 -13   1 0.30945 0.53188   3
   5  13   1 0.31076 0.15065   4
   5  13   1 0.30131 0.32955   4
   5 -14  -1 1.21918 0.75911   1
   5 -14  -1 1.24214 0.56356   1
   5  14  -1 0.82792 0.33872   1
   5  14  -1 1.53070 0.34017   4
   4 -14  -1 3.77196 1.03318   1
   4 -14  -1 1.88109 0.64329   1
   4  14  -1 1.89220 0.37134   1
   4  14  -1 1.18818 0.30446   3
   3 -14  -1 9.67621 1.73926   1
   3 -14  -1 8.31170 1.06659   1
   3 -14  -1 5.45930 1.39019   4
   3 -14  -1 8.90745 1.15304   1
   3 -14  -1 8.19642 1.02813   1
   3  14  -1 8.60696 0.76451   1
   3  14  -1 8.67562 0.90193   1
   3  14  -1 7.18827 1.47502   3
   3  14  -1 8.06847 0.90678   4
   2 -14  -1 3.86511 0.53680   2
   2 -14  -1 3.72843 0.96630   2
   2 -14  -1 4.43118 0.81984   2
   2 -14  -1 3.67968 0.64420   2
   2 -14  -1 3.95293 0.69296   2
   2 -14  -1 4.32388 0.57586   2
   2  14  -1 4.11867 0.47559   2
   2  14  -1 3.52605 0.52349   3
   2  14  -1 3.66099 0.45759   2
   2  14  -1 3.50623 0.88887   3
   2  14  -1 4.55835 0.51150   2
   2  14  -1 4.52243 0.54732   2
   1 -14  -1 3.75271 0.84186   1
   1 -14  -1 5.18582 0.60436   2
   1 -14  -1 5.79996 1.07223   2
   1  14  -1 4.99295 0.61440   3
   1  14  -1 6.44677 0.98756   2
   1  14  -1 5.36614 0.57760   2
   1  14  -1 5.12393 0.99681   2
   0  14  -1 4.76975 0.97320   2
   0  14   1 4.88286 0.52968   2
   0  14  -1 4.22236 0.53668   1
   0  14  -1 4.02999 0.76958   1
   1 -14   1 3.26699 0.47644   2
   1 -14   1 2.39814 0.82306   1
   1 -14   1 3.59763 0.81672   2
   1  14   1 3.28470 0.45725   2
   1  14   1 3.23809 0.41064   2
   1  14   1 4.11524 0.73722   2
   1  14   1 3.60202 0.71849   2
   2 -14   1 1.12144 0.54610   2
   2 -14   1 1.44325 0.31203   2
   2 -14   1 1.08241 0.90694   2
   2 -14   1 0.68193 0.41722   3
   2 -14   1 1.02789 0.35617   3
   2 -14   1 1.33595 0.85812   2
   2 -14   1 1.42369 0.34127   2
   2  14   1 1.30129 0.24233   2
   2  14   1 1.69610 0.52948   2
   2  14   1 1.04406 0.24455   3
   2  14   1 0.84794 0.23666   3
   2  14   1 1.04375 0.30754   3
   2  14   1 1.60635 0.33207   2
   2  14   1 1.31920 0.26924   2
   2  14   1 1.75893 0.75380   2
   3 -14   1 0.31894 0.14493   1
   3 -14   1 0.54123 0.18361   1
   3 -14   1 -0.0193 0.36722   1
   3 -14   1 0.70555 0.16432   1
   3  14   1 0.13746 0.11169   1
   3  14   1 0.01960 0.05890   3
   3  14   1 -0.0688 0.20623   1
   3  14   1 0.03439 0.06877   1
   4 -14   1 -0.2158 0.32371   1
   4 -14   1 -0.5787 0.73569   1
   4  14   1 -0.1422 0.14215   1
   4  14   1 -0.2399 0.23992   1
   4  14   1 0.56861 0.19545   1
   5 -14   1 0.46648 0.67633   1
   5 -14   1 0.53643 0.51316   1
   5  14   1 0.55302 0.32674   1
   5  14   1 0.70378 0.22615   1
   5 -15  -1 1.98828 0.58338   1
   5 -15  -1 2.60737 0.88099   1
   5  15  -1 2.73347 0.40442   1
   4 -15  -1 2.98658 0.95337   1
   4 -15  -1 0.68102 0.56422   1
   4  15  -1 1.07491 0.34320   1
   4  15  -1 0.65978 0.29542   4
   3 -15  -1 8.01007 1.14714   4
   3 -15  -1 9.87266 1.68839   1
   3 -15  -1 7.76638 1.63452   4
   3 -15  -1 6.78166 0.95427   4
   3  15  -1 8.11865 1.38279   1
   3  15  -1 8.12903 0.91199   4
   3  15  -1 7.78514 1.00392   3
   3  15  -1 8.11574 0.73076   3
   2 -15  -1 10.4034 1.21912   3
   2 -15  -1 9.96656 1.38166   3
   2 -15  -1 9.12328 1.68647   3
   2 -15  -1 11.1333 1.09981   1
   2 -15  -1 9.59063 1.54431   3
   2  15  -1 9.37329 1.08758   3
   2  15  -1 11.3637 0.94479   2
   2  15  -1 10.5981 1.07384   3
   2  15  -1 10.6389 1.01836   3
   2  15  -1 10.8499 1.50124   4
   2  15  -1 10.8476 1.04564   4
   1 -15  -1 13.9480 1.36882   2
   1 -15  -1 11.9932 1.63085   3
   1 -15  -1 13.9439 1.78840   3
   1 -15  -1 12.6921 1.29657   3
   1  15  -1 13.2145 1.25657   1
   1  15  -1 11.3595 1.59571   1
   1  15  -1 14.1202 1.25018   2
   0  15  -1 7.98233 1.12636   4
   1 -15   1 35.8952 3.11799   2
   1 -15   1 32.3714 3.31936   3
   1 -15   1 34.3001 2.95393   3
   1  15   1 35.1431 2.94949   4
   1  15   1 33.9423 3.22408   1
   1  15   1 32.3402 3.28377   1
   1  15   1 31.2854 2.84599   1
   1  15   1 30.4097 3.31361   1
   2 -15   1 0.27480 0.49866   3
   2 -15   1 -0.2316 0.23158   1
   2 -15   1 -0.1736 0.74282   1
   2 -15   1 -0.0289 0.30870   1
   2 -15   1 0.39551 0.26051   1
   2  15   1 0.63249 0.38309   2
   2  15   1 0.30212 0.26312   1
   2  15   1 -0.0713 0.13359   2
   2  15   1 -0.2049 0.45430   2
   2  15   1 0.34743 0.16031   2
   2  15   1 0.23691 0.18751   3
   2  15   1 0.26651 0.20731   3
   3 -15   1 0.09146 0.30496   4
   3 -15   1 0.01020 0.35574   4
   3 -15   1 0.18271 0.54822   1
   3 -15   1 0.02029 0.66070   4
   3  15   1 0.05895 0.16709   3
   3  15   1 0.20377 0.11887   1
   3  15   1 0.65362 0.48392   1
   3  15   1 -0.0085 0.21220   1
   4 -15   1 0.52825 0.32286   3
   4 -15   1 1.61428 0.89026   3
   4  15   1 -0.2268 0.28129   1
   4  15   1 -0.0635 0.16326   1
   5 -15   1 4.89918 1.14997   4
   5  15   1 4.40004 0.59877   1
   5 -16  -1 0.74632 0.31090   1
   5 -16  -1 0.54733 0.85823   1
   5  16  -1 1.02624 0.27265   1
   5  16  -1 1.11218 0.26226   4
   4 -16  -1 0.14542 0.11634   3
   4 -16  -1 0.29094 0.27149   3
   4  16  -1 -0.0279 0.05586   1
   4  16  -1 0.13964 0.06520   1
   3 -16  -1 7.82915 1.55448   1
   3 -16  -1 6.25057 0.89298   4
   3 -16  -1 6.24847 0.97934   4
   3  16  -1 5.70372 0.76836   3
   3  16  -1 6.21596 0.89642   3
   3  16  -1 7.11635 0.78325   1
   2 -16  -1 6.19104 0.70262   1
   2 -16  -1 4.60199 1.12765   3
   2 -16  -1 4.75444 1.01586   3
   2 -16  -1 5.00410 0.80711   1
   2  16  -1 4.90676 1.06630   3
   2  16  -1 5.83119 0.58491   1
   2  16  -1 5.27246 0.67211   1
   2  16  -1 4.87946 0.64333   3
   1 -16  -1 0.58195 0.27667   2
   1  16  -1 0.19955 0.45894   3
   1  16  -1 0.62757 0.25462   2
   1  16  -1 0.41838 0.21832   2
   0  16   1 1.01516 0.44230   3
   0  16  -1 1.88073 0.40235   2
   1 -16   1 1.45884 0.39089   2
   1 -16   1 0.76104 0.72043   3
   1  16   1 2.21048 0.40029   2
   1  16   1 2.10126 0.36388   2
   1  16   1 1.29175 0.28204   2
   1  16   1 0.77659 0.54759   3
   2 -16   1 2.20845 1.05663   1
   2 -16   1 2.17990 0.68538   1
   2 -16   1 1.95141 0.53309   1
   2  16   1 1.99606 0.37482   1
   2  16   1 1.33382 0.77062   3
   2  16   1 2.16166 0.34868   1
   2  16   1 2.42317 0.40096   1
   3 -16   1 0.76829 1.21152   4
   3 -16   1 0.96743 0.51720   1
   3  16   1 1.56775 0.36245   1
   3  16   1 0.88503 0.21914   1
   3  16   1 0.76829 0.23900   2
   4 -16   1 -0.1170 0.62398   3
   4 -16   1 0.25351 0.29253   3
   4  16   1 -0.0093 0.16747   1
   4  16   1 -0.2141 0.21405   1
   5 -16   1 0.00000 0.03762   1
   5  16   1 -0.0279 0.02793   4
   5  16   1 -0.0093 0.00934   4
   4 -17  -1 1.93213 1.29803   3
   4 -17  -1 1.18816 0.43391   2
   4  17  -1 1.23332 0.32406   2
   4  17  -1 2.24285 0.48259   1
   3 -17  -1 6.44038 1.82851   4
   3 -17  -1 6.59226 0.93760   4
   3  17  -1 6.61432 0.71085   4
   3  17  -1 5.85671 0.74937   3
   2 -17  -1 1.44249 0.86343   3
   2 -17  -1 1.55408 0.42380   3
   2 -17  -1 1.92502 0.62615   1
   2  17  -1 1.68384 0.71795   1
   2  17  -1 1.55425 0.28582   3
   2  17  -1 1.88892 0.38461   1
   1 -17  -1 13.4042 1.37984   1
   1  17  -1 10.8917 1.77707   3
   1  17  -1 13.1783 1.33044   1
   0  17   1 0.34280 0.05557   2
   1 -17   1 15.5305 1.67381   3
   1  17   1 16.8303 1.61235   3
   2 -17   1 1.47460 0.85469   1
   2  17   1 0.80102 0.75162   3
   2  17   1 1.04123 0.25605   1
   2  17   1 1.14361 0.27308   1
   3 -17   1 3.00310 0.66516   4
   3 -17   1 5.54514 1.42447   1
   3  17   1 2.80577 0.44299   3
   3  17   1 2.69744 0.44299   3
   3  17   1 3.01881 0.43001   1
   4 -17   1 1.65135 0.85481   3
   4 -17   1 1.35017 0.58286   3
   4  17   1 0.88535 0.27081   2
   4  17   1 1.42971 0.34804   1
   4 -18  -1 2.28959 1.03882   3
   4 -18  -1 1.99820 0.56487   1
   4  18  -1 1.99993 0.30595   2
   4  18  -1 2.53258 0.41584   4
   3 -18  -1 0.51913 0.55691   1
   3  18  -1 -0.0341 0.23868   1
   3  18  -1 0.76728 0.16197   1
   2 -18  -1 0.45125 0.37753   1
   2  18  -1 0.51296 0.26074   1
   2  18  -1 0.49618 0.57184   1
   1 -18  -1 0.25679 0.23848   1
   2  18   1 -0.0084 0.45328   1
   2  18   1 0.34415 0.16791   1
   2  18   1 0.18466 0.20151   1
   3 -18   1 -0.1724 0.52680   1
   3 -18   1 0.09155 0.21372   2
   3  18   1 0.07887 0.23651   3
   3  18   1 0.27288 0.11942   1
   3  18   1 -0.0170 0.11942   1
   4 -18   1 0.33011 0.85181   1
   4 -18   1 0.81976 0.40454   1
   4  18   1 1.45773 0.29375   2
   4  18   1 1.95891 0.43116   4
   4 -19  -1 0.27729 0.56418   3
   4  19  -1 0.15425 0.17794   1
   4  19  -1 0.37652 0.30117   4
   3 -19  -1 3.23859 1.31064   1
   3  19  -1 1.84859 0.43500   2
   3  19  -1 1.81894 0.29658   2
   2  19  -1 0.99185 0.29488   3
   1  19  -1 4.51574 0.58266   1
   2  19   1 1.39792 0.28294   1
   2  19   1 1.56434 0.31616   1
   3 -19   1 -0.4537 1.21629   1
   3  19   1 0.77026 0.29628   2
   4 -19   1 1.19123 0.45217   1
   4 -19   1 1.97898 0.82035   3
   4  19   1 2.42579 0.36387   4
   4  20  -1 7.78712 0.79895   4
   3 -20  -1 2.98826 1.28502   2
   3  20  -1 3.51453 0.66086   2
   2 -20  -1 1.35844 0.89661   1
   2  20  -1 1.45592 0.30122   1
   0  20  -1 2.87368 0.49490   1
   1 -20   1 0.11566 0.12459   1
   2 -20   1 5.85041 1.00865   1
   2  20   1 5.07985 0.59221   1
   3 -20   1 3.30700 1.23161   1
   3  20   1 0.66982 0.41984   2
   4 -20   1 0.56540 0.47918   3
   4  20   1 0.38891 0.21386   4
   4 -21  -1 6.04002 1.17620   1
   4  21  -1 6.40251 0.70030   3
   3 -21  -1 0.48275 0.99619   2
   3  21  -1 1.98573 0.43497   1
   2 -21  -1 1.01793 0.85429   1
   2  21  -1 1.33977 0.34983   1
   2  21   1 4.67007 0.56738   3
   3 -21   1 1.01427 0.74374   4
   3  21   1 0.44976 0.25303   4
   4  21   1 0.67436 0.18476   4
   3 -22  -1 0.36706 0.90203   1
   3  22  -1 1.25923 0.31743   4
   2 -22  -1 0.48972 0.48972   1
   2  22  -1 -0.1869 0.18693   1
   2 -22   1 0.32869 0.69497   1
   2  22   1 0.26905 0.21918   2
   3 -22   1 1.02754 0.69145   4
   3  22   1 0.61508 0.24229   4
   3 -23  -1 1.61717 0.67142   4
   3  23  -1 0.99203 0.31331   1
   2 -23  -1 -0.6755 0.79916   1
   2  23  -1 0.44687 0.24376   2
   1  23   1 2.96869 0.48612   1
   2 -23   1 0.80723 0.76887   1
   2  23   1 0.68184 0.23346   1
   2  23   1 0.73786 0.21482   1
   3 -23   1 2.00127 1.05156   1
   3  23   1 2.08680 0.44378   4
   3 -24  -1 0.86169 0.48289   2
   3  24  -1 0.87781 0.20902   4
   2 -24  -1 -0.2367 0.99437   4
   2  24  -1 0.67843 0.22618   4
   1  24  -1 3.83827 0.50506   2
   0 -24  -1 -0.0269 0.18851   1
   1  24   1 2.77878 0.38902   4
   2 -24   1 1.45362 1.00412   4
   2  24   1 0.68730 0.24321   1
   3 -24   1 0.16203 0.56085   1
   3  24   1 0.53406 0.15656   4
   2 -25  -1 0.28262 0.54578   4
   2  25  -1 0.06300 0.20180   1
   1 -25  -1 0.38661 0.44328   4
   1  25  -1 0.14179 0.14179   4
   1  25   1 4.91996 0.57992   4
   2 -25   1 0.03801 0.13299   4
   2  25   1 0.04627 0.03707   4
   2 -26  -1 -0.0186 0.38231   4
   2  26  -1 0.06405 0.20805   1
   1 -26  -1 -0.0281 0.55206   4
   1  26  -1 0.35687 0.15027   4
   0  26   1 0.15882 0.08405   4
   1 -26   1 -0.1230 0.31220   4
   1  26   1 0.10217 0.12070   4
   2 -26   1 0.59610 0.60910   1
   2  26   1 0.69906 0.16551   4
   1  27  -1 0.36817 0.21235   4
   0  27   1 0.97807 0.21598   1
   0  27  -1 0.68776 0.29845   1
   1 -27   1 0.04690 0.14081   4
   4   0  -2 6.15499 1.28638   3
   4   0  -2 5.94714 0.88072   3
   4   0  -2 5.15556 1.01918   3
   4   0  -2 6.61019 0.87079   3
   4   0  -2 5.84818 0.92032   3
   4   0  -2 5.58108 0.65312   3
   4   0  -2 5.66019 0.63326   3
   4   0  -2 5.89771 0.82136   3
   4   0  -2 4.34413 0.97968   3
   2   0  -2 6.53517 1.09086   1
   2   0  -2 7.50960 0.88059   3
   2   0  -2 7.46324 0.92058   2
   2   0  -2 8.04383 0.78165   3
   0   0   2 50.4455 3.92830   4
   0   0  -2 48.1548 3.94846   4
   0   0   2 47.9809 4.26645   2
   0   0  -2 50.3149 3.92830   4
   0   0   2 48.0876 3.97780   4
   0   0  -2 48.0000 4.01856   2
   0   0   2 47.9891 4.01586   4
   0   0  -2 46.0555 4.28546   1
   2   0   2 2.94686 0.33650   1
   2   0   2 3.36703 0.34658   4
   2   0   2 3.06992 0.27724   4
  -2   0  -2 3.27793 0.33674   4
   2   0   2 3.26799 0.33674   4
   2   0   2 3.43637 0.54465   4
   2   0   2 3.62450 0.57435   4
   2   0   2 2.96032 0.35480   3
   2   0   2 3.53540 0.54465   4
   2   0   2 3.12932 0.27724   4
   2   0   2 3.43637 0.61398   4
   4   0   2 5.88868 0.85117   3
   4   0   2 6.91490 0.73298   3
   4   0   2 6.73985 0.72251   3
   4   0   2 7.67838 0.85944   1
   4   0   2 6.58151 1.02926   3
   4   0   2 6.17568 0.91053   3
   6  -1  -2 0.22044 0.15333   4
   5  -1  -2 1.15745 0.50157   1
   5   1  -2 0.65757 0.52805   2
   5   1  -2 0.77709 0.25903   2
   5   1  -2 0.94648 0.46829   2
   4  -1  -2 0.17079 0.23724   1
   4  -1  -2 -0.0760 0.32273   1
   4  -1  -2 -0.0569 0.08539   1
   4  -1  -2 -0.1044 0.31321   1
   4  -1  -2 -0.0569 0.14232   1
   4  -1  -2 0.03968 0.08920   3
   4  -1  -2 0.22781 0.20877   1
   4  -1  -2 0.11386 0.19935   1
   4   1  -2 0.18789 0.20664   1
   4   1  -2 0.18789 0.14087   1
   4   1  -2 0.00000 0.10337   1
   4   1  -2 0.30059 0.21607   1
   4   1  -2 0.11270 0.10337   1
   4   1  -2 -0.1034 0.16904   1
   4   1  -2 -0.0094 0.21607   1
   3  -1  -2 1.45830 0.45948   1
   3  -1  -2 1.79548 0.61148   2
   3  -1  -2 1.35841 0.40949   1
   3   1  -2 1.31464 0.50787   1
   3   1  -2 1.70274 0.51943   2
   3   1  -2 2.23181 0.41367   2
   2  -1  -2 11.2172 1.43655   1
   2  -1  -2 12.8207 1.27117   3
   2  -1  -2 11.6451 1.11055   1
   2  -1  -2 11.6553 1.19200   1
   2   1  -2 11.7208 1.23538   1
   2   1  -2 11.7550 1.08333   3
   2   1  -2 11.3635 1.44983   1
   2   1  -2 12.4060 1.25242   3
   1  -1  -2 0.10446 0.13579   2
  -1  -1   2 0.17574 0.08787   1
   1  -1  -2 0.04181 0.13579   2
  -1  -1   2 0.01073 0.13905   2
   1  -1  -2 -0.0197 0.17773   1
   1  -1  -2 0.22717 0.12840   1
   1  -1  -2 0.14811 0.12840   1
   1  -1  -2 0.14811 0.04934   1
   1  -1  -2 -0.0099 0.12840   1
   1  -1  -2 0.10446 0.25072   2
   1   1  -2 0.16604 0.11716   1
   1   1  -2 0.22462 0.17574   1
   1   1  -2 0.14645 0.11716   1
   1   1  -2 0.16604 0.02929   1
   1   1  -2 0.21483 0.08787   1
   1   1  -2 0.21483 0.12696   1
  -1   1   2 0.03133 0.10446   2
   1   1  -2 0.13675 0.08787   1
   1   1  -2 0.16604 0.24412   1
  -1   1   2 0.16793 0.12840   1
   1   1  -2 0.03208 0.20321   2
   1   1  -2 0.17574 0.03909   1
   0  -1   2 6.19241 0.53842   3
   0  -1   2 5.80876 0.50939   1
   0  -1   2 6.20732 0.58442   3
   0  -1  -2 6.39849 0.57893   4
   0  -1  -2 6.20275 0.56478   4
   0  -1   2 5.74375 0.57440   1
   0  -1  -2 5.83844 0.59796   1
   0  -1  -2 5.34922 0.51104   1
   0   1  -2 6.21305 0.54976   3
   0   1   2 5.30570 0.51104   1
   0   1  -2 6.37154 0.55578   3
   0   1   2 5.89275 0.57625   1
   0   1   2 6.22956 0.55214   4
   0   1  -2 6.19428 0.58756   3
   0   1   2 6.19357 0.58392   4
   0   1  -2 5.75462 0.62853   1
   0   1  -2 5.55950 0.50939   1
  -1  -1  -2 73.6533 5.71647   4
   1  -1   2 70.1600 5.88165   4
   1  -1   2 71.6604 5.78162   4
   1  -1   2 65.9210 6.14231   4
   1  -1   2 65.8032 5.92225   4
   1  -1   2 65.9207 6.68378   4
  -1  -1  -2 76.0285 5.68691   4
   1  -1   2 68.3294 5.77169   4
  -1   1  -2 73.3908 5.77169   4
   1   1   2 68.6760 5.69669   4
   1   1   2 75.5357 5.49956   4
   1   1   2 72.5000 5.66713   4
   1   1   2 66.1927 5.54585   4
   1   1   2 66.1927 6.06373   4
   1   1   2 73.0421 6.10084   4
   1   1   2 65.8134 5.70827   4
   1   1   2 69.2969 5.67702   4
   1   1   2 65.7882 6.04192   3
   2  -1   2 8.18445 0.86515   4
   2  -1   2 6.80520 0.70190   1
   2  -1   2 7.52808 0.71602   4
   2  -1   2 7.62753 0.61657   4
   2  -1   2 6.38819 0.86464   1
   2  -1   2 7.01886 0.95617   1
   2  -1   2 7.50748 0.62144   4
  -2  -1  -2 7.55005 0.65346   3
  -2  -1  -2 7.17269 0.67438   1
   2  -1   2 7.73696 0.90495   4
   2  -1   2 7.51472 0.71042   4
   2  -1   2 7.50823 0.71602   4
  -2   1  -2 7.10029 0.73241   1
   2   1   2 7.64574 0.60176   3
   2   1   2 7.40769 0.95028   1
  -2   1  -2 7.30364 0.69169   1
   2   1   2 8.07986 0.93722   3
   2   1   2 7.53190 0.64672   3
   2   1   2 7.66543 0.90764   3
   2   1   2 7.10115 0.65388   1
   2   1   2 6.43702 0.85824   1
   2   1   2 8.14883 0.65114   3
   2   1   2 7.50816 0.60739   3
   3  -1   2 -0.0581 0.30991   2
   3  -1   2 0.24872 0.40791   1
   3   1   2 0.06941 0.38660   1
   3   1   2 0.49960 0.32671   2
   3   1   2 0.19827 0.31719   1
   4  -1   2 1.09178 0.52213   1
   4  -1   2 0.93989 0.31330   1
   4  -1   2 0.67402 0.39871   1
   4  -1   2 0.61385 0.23765   4
   4  -1   2 0.94932 0.31330   1
   4  -1   2 0.43640 0.58511   3
   4  -1   2 0.43640 0.50573   3
   4   1   2 1.08967 0.30999   1
   4   1   2 0.74209 0.47902   1
   4   1   2 1.04266 0.24422   1
   4   1   2 0.62940 0.30999   1
   4   1   2 0.60252 0.37532   3
   5  -1   2 0.90016 0.49558   2
   5   1   2 1.58278 0.32817   1
   6  -2  -2 0.34509 0.23009   4
   5  -2  -2 4.91153 0.86050   1
   5   2  -2 3.51225 0.54722   2
   5   2  -2 4.36196 0.77479   1
   5   2  -2 4.48631 0.70782   1
   4  -2  -2 6.43398 0.76259   1
   4  -2  -2 5.68146 0.66554   3
   4  -2  -2 7.40613 1.36301   1
   4  -2  -2 4.54915 1.02301   3
   4  -2  -2 5.73117 0.64561   3
   4  -2  -2 6.45300 0.96270   1
   4  -2  -2 7.73025 0.92455   1
   4   2  -2 6.20558 0.83557   4
   4   2  -2 6.18284 0.86960   3
   4   2  -2 6.20629 0.72551   4
   4   2  -2 6.34940 1.05508   1
   4   2  -2 5.22754 0.79890   3
   4   2  -2 5.82916 0.83838   3
   4   2  -2 5.58262 0.68058   3
   3  -2  -2 0.80028 0.57021   1
   3  -2  -2 0.97399 0.64288   2
   3  -2  -2 1.07140 0.36043   2
   3   2  -2 1.33943 0.61228   2
   3   2  -2 1.02369 0.34443   2
   3   2  -2 0.61655 0.48728   1
   3   2  -2 1.15766 0.41142   2
   2  -2  -2 0.07979 0.01990   3
   2  -2  -2 -0.1994 0.23928   3
   2  -2  -2 0.15948 0.06979   3
   2  -2  -2 0.09969 0.11959   3
   2  -2  -2 0.05090 0.08157   1
   2  -2  -2 0.05090 0.06112   1
   2  -2  -2 -0.1097 0.14948   3
   2  -2  -2 0.07979 0.01990   3
   2  -2  -2 0.02034 0.25472   1
   2   2  -2 0.59020 0.28523   3
   2   2  -2 0.17700 0.18687   3
   2   2  -2 0.10823 0.12787   3
   2   2  -2 0.20660 0.22623   3
  -2   2   2 0.10969 0.03990   3
   1  -2  -2 48.1271 4.24087   2
   1  -2  -2 48.1275 4.07959   2
   1  -2  -2 49.2733 4.18166   1
   1  -2  -2 47.3435 4.34552   3
   1  -2  -2 49.0244 4.19154   1
   1  -2  -2 47.3123 4.96932   3
   1  -2  -2 46.5014 4.61581   3
   1  -2  -2 45.4514 4.17920   3
   1  -2  -2 47.0524 4.45992   3
  -1  -2   2 49.4225 4.08029   1
  -1   2   2 50.9758 4.18166   1
   1   2  -2 53.6199 3.93391   1
   1   2  -2 51.1112 3.80701   1
   1   2  -2 53.3075 4.15842   1
   1   2  -2 54.3520 4.08029   1
   1   2  -2 53.4637 4.40243   1
   1   2  -2 58.2761 4.07049   1
  -1   2   2 46.4286 4.34552   3
   0  -2  -2 3.17269 0.28542   2
   0  -2  -2 3.24944 0.38420   2
   0  -2  -2 3.50066 0.47879   4
   0  -2   2 3.22761 0.40213   2
   0  -2   2 3.32539 0.40213   2
   0  -2   2 2.60823 0.49991   2
   0  -2   2 3.49410 0.30285   4
   0  -2  -2 3.26045 0.40622   2
   0  -2   2 2.92337 0.28255   2
   0  -2  -2 3.06290 0.34037   2
   0   2  -2 3.55023 0.39893   1
   0   2  -2 2.90157 0.27165   2
   0   2   2 2.98604 0.27441   2
   0   2   2 3.49505 0.41304   3
   0   2   2 3.12875 0.36228   2
   0   2   2 2.76647 0.40622   2
   0   2  -2 3.07543 0.43472   2
   0   2  -2 3.04284 0.39123   2
   0   2   2 3.20561 0.38420   2
   0   2  -2 3.49431 0.49307   4
   1  -2   2 34.7123 2.66007   4
   1  -2   2 38.7226 2.85150   4
   1  -2   2 34.6015 2.66007   4
  -1  -2  -2 33.7527 2.80354   3
   1  -2   2 34.1682 2.80117   4
  -1  -2  -2 33.7364 2.98251   3
   1  -2   2 33.7484 2.85343   4
   1  -2   2 34.8432 2.79106   4
   1  -2   2 33.7262 2.78046   4
   1  -2   2 35.1153 2.88183   4
   1   2   2 33.1989 2.87408   2
   1   2   2 34.0934 2.85324   3
   1   2   2 30.9805 3.02699   2
   1   2   2 33.3955 3.00517   2
   1   2   2 29.9205 2.87408   2
   1   2   2 33.7928 2.64278   3
   1   2   2 33.6141 3.24556   2
   1   2   2 31.2756 3.00517   2
   1   2   2 34.2703 2.89491   3
  -1   2  -2 37.9669 2.80117   4
   2  -2   2 8.53419 0.81186   1
   2  -2   2 7.08311 0.82194   1
   2  -2   2 6.97145 0.79150   1
   2  -2   2 7.66146 0.96403   1
   2  -2   2 6.88014 0.91324   1
   2  -2   2 8.54427 0.71038   1
  -2  -2  -2 8.31879 0.76741   1
  -2  -2  -2 8.46207 0.78784   1
   2  -2   2 7.35702 0.81186   1
   2  -2   2 9.28508 1.06551   1
   2  -2   2 8.15870 0.70020   1
   2   2   2 8.82017 0.76741   1
   2   2   2 9.10673 0.70604   1
  -2   2  -2 7.36720 0.83212   1
   2   2   2 8.95319 0.76741   1
   2   2   2 8.74864 0.75715   1
   2   2   2 9.32155 0.69577   1
   2   2   2 10.0895 0.96371   3
   2   2   2 9.32155 1.01302   1
  -2   2  -2 8.06740 0.78132   1
   2   2   2 9.40180 0.74775   3
   2   2   2 8.06302 0.90043   1
   3  -2   2 3.39090 0.75784   2
   3  -2   2 3.19948 0.57807   4
   3   2   2 2.22644 0.52448   1
   3   2   2 4.36849 0.68826   2
   3   2   2 2.45404 0.61351   1
   4  -2   2 4.51291 0.55336   1
   4  -2   2 4.41245 0.79509   3
   4  -2   2 4.96138 0.62016   1
   4  -2   2 3.69691 0.88450   3
   4  -2   2 3.83607 0.79509   3
   4  -2   2 4.37267 0.78512   3
   4   2   2 5.87447 0.70981   1
   4   2   2 3.43149 0.67049   3
   4   2   2 4.49629 0.84247   2
   4   2   2 4.62300 0.62578   1
   4   2   2 5.31408 0.56967   1
   5  -2   2 2.65240 0.54408   1
   5   2   2 2.53172 0.42360   1
   6  -3  -2 0.23623 0.32814   1
   5  -3  -2 0.63951 0.48449   1
   5   3  -2 0.24861 0.17897   2
   5   3  -2 1.12574 0.78229   1
   5   3  -2 0.30837 0.26856   2
   5   3  -2 -0.0096 0.28622   1
   4  -3  -2 0.87068 0.30616   1
   4  -3  -2 0.53583 0.24877   1
   4  -3  -2 0.82289 0.25836   1
   4  -3  -2 0.65061 0.13398   1
   4  -3  -2 0.22007 0.33485   1
   4   3  -2 0.12057 0.25044   1
   4   3  -2 0.32459 0.29677   1
   4   3  -2 0.20402 0.21332   1
   4   3  -2 0.09275 0.15769   1
   4   3  -2 0.29677 0.23184   1
   4   3  -2 0.07424 0.30608   1
   4   3  -2 1.30776 0.25044   1
   3  -3  -2 -0.1270 0.21493   2
   3  -3  -2 0.03004 0.24042   1
   3   3  -2 0.31377 0.26618   2
   3   3  -2 0.07611 0.13314   2
   3   3  -2 0.27572 0.15212   2
   3   3  -2 0.13314 0.16165   2
   2  -3  -2 2.85611 0.45900   1
   2  -3  -2 2.92753 0.28557   1
   2  -3  -2 3.02954 0.48959   1
   2  -3  -2 5.44196 0.79030   2
   2  -3  -2 2.95812 0.28557   1
   2  -3  -2 2.86634 0.45900   1
   2  -3  -2 4.18146 0.71022   2
   2  -3  -2 3.21115 0.47020   2
   2   3  -2 4.85021 0.64802   3
   2   3  -2 3.73094 0.45164   3
  -2   3   2 2.81539 0.39781   1
  -2   3   2 2.96835 0.40805   1
  -1  -3   2 0.83126 0.23474   1
  -1  -3   2 0.55420 0.33695   2
   1  -3  -2 0.84224 0.38099   1
   1  -3  -2 0.75202 0.30083   1
   1  -3  -2 1.00266 0.28071   1
   1  -3  -2 0.83229 0.25064   1
   1  -3  -2 0.57173 0.27028   3
   1  -3  -2 0.57372 0.36232   2
   1   3  -2 0.86059 0.27378   1
   1   3  -2 0.85078 0.38140   1
   1   3  -2 0.59652 0.11732   1
   1   3  -2 0.84107 0.22493   1
   1   3  -2 0.67480 0.10761   1
   1   3  -2 0.88011 0.28359   1
   1   3  -2 0.87040 0.22493   1
  -1   3   2 0.70194 0.23063   1
   1   3  -2 0.70413 0.15646   1
  -1   3   2 0.57173 0.23910   3
   1   3  -2 0.90954 0.32274   1
   0  -3  -2 4.04894 0.35349   1
   0  -3  -2 3.92706 0.55315   2
   0  -3  -2 4.18840 0.53845   1
   0  -3   2 5.11144 0.49207   1
   0  -3  -2 4.05887 0.53841   1
   0  -3  -2 3.66164 0.44252   2
   0   3   2 3.63945 0.34299   2
   0   3   2 4.05487 0.52600   1
   0   3   2 3.40720 0.50887   2
   0   3   2 3.32975 0.44252   2
   0   3   2 3.88290 0.51997   2
   1  -3   2 3.93083 0.33434   4
   1  -3   2 3.22341 0.42276   1
  -1  -3  -2 3.67559 0.58153   2
  -1  -3  -2 3.88585 0.59531   3
   1  -3   2 3.44528 0.59185   1
   1  -3   2 3.27620 0.51785   1
   1  -3   2 3.23390 0.31707   1
   1  -3   2 3.41358 0.60245   1
   1  -3   2 3.88901 0.58232   4
   1  -3   2 3.77295 0.54955   1
   1  -3   2 3.68836 0.56015   1
  -1   3  -2 3.88253 0.64371   4
   1   3   2 3.39022 0.49370   2
   1   3   2 3.55486 0.32917   2
   1   3   2 4.09454 0.48981   3
   1   3   2 3.25859 0.49370   2
  -1   3  -2 3.67787 0.48616   1
   1   3   2 3.45614 0.34018   2
   1   3   2 3.32441 0.51572   2
   2  -3   2 1.31372 0.28075   4
   2  -3   2 1.03287 0.42118   4
   2  -3   2 1.34380 0.30087   4
   2  -3   2 0.78977 0.40505   1
   2  -3   2 0.93268 0.16044   4
   2  -3   2 0.84046 0.13163   1
  -2  -3  -2 0.67575 0.22521   1
  -2  -3  -2 0.77814 0.26619   1
   2  -3   2 0.89316 0.24088   4
   2  -3   2 0.68851 0.24305   1
   2  -3   2 0.79993 0.28347   1
   2   3   2 0.73716 0.12282   1
   2   3   2 1.00065 0.21579   3
  -2   3  -2 0.87083 0.24305   1
   2   3   2 0.79857 0.20478   1
   2   3   2 0.95154 0.10795   3
   2   3   2 0.97123 0.24522   3
   2   3   2 1.01039 0.18637   3
   2   3   2 1.00065 0.37274   3
   2   3   2 1.02023 0.19621   3
  -2   3  -2 0.94264 0.28075   4
   2   3   2 1.42250 0.42185   3
   3  -3   2 0.25327 0.45789   2
   3  -3   2 0.01002 0.36970   3
   3   3   2 -0.0285 0.38014   2
   3   3   2 0.27557 0.39910   2
   4  -3   2 -0.0479 0.52730   1
   4  -3   2 0.20919 0.39839   4
   4  -3   2 -0.2397 0.51768   1
   4  -3   2 0.26893 0.18921   4
   4  -3   2 0.14935 0.26893   4
   4  -3   2 0.20919 0.30879   4
   4  -3   2 -0.4794 0.51768   1
   4   3   2 0.48265 0.28778   1
   4   3   2 0.50117 0.32484   1
   4   3   2 -0.1392 0.36199   1
   4   3   2 0.29536 0.20678   3
   4   3   2 0.26584 0.29536   3
   5  -3   2 1.10940 0.36977   1
   5  -3   2 0.54178 0.41905   2
   5   3   2 1.08492 0.24963   1
   6  -4  -2 -0.0479 0.08622   4
   5  -4  -2 6.70433 0.91199   1
   5  -4  -2 5.92861 0.96607   2
   5   4  -2 6.75912 0.75208   1
   5   4  -2 6.45033 0.92010   4
   4  -4  -2 0.65278 0.38402   1
   4  -4  -2 0.55843 0.43880   3
   4  -4  -2 0.05981 0.62825   3
   4  -4  -2 0.76804 0.42244   1
   4  -4  -2 0.55843 0.77778   3
   4  -4  -2 0.40879 0.18944   3
   4   4  -2 1.05874 0.62601   1
   4   4  -2 0.56083 0.25579   3
   4   4  -2 0.36405 0.40332   3
   4   4  -2 0.58047 0.74774   3
   4   4  -2 0.22628 0.29517   3
   3  -4  -2 5.48615 1.00900   2
   3  -4  -2 3.79987 0.86227   1
   3   4  -2 5.53262 0.91577   2
   3   4  -2 3.55858 0.63436   1
   3   4  -2 5.12663 0.97240   2
  -2  -4   2 9.88622 1.02550   1
  -2  -4   2 10.8093 1.05626   1
   2  -4  -2 12.2806 1.17495   1
   2  -4  -2 12.3078 1.14087   2
   2  -4  -2 12.5333 0.97333   2
   2  -4  -2 13.7576 1.12391   2
   2  -4  -2 14.0284 1.46502   2
   2  -4  -2 12.2837 1.39424   3
   2  -4  -2 14.6406 1.13387   2
   2   4  -2 11.3015 1.07683   1
   2   4  -2 10.7476 1.02550   1
   2   4  -2 13.4175 1.45162   3
   2   4  -2 11.8655 1.01532   1
   2   4  -2 10.2760 0.96398   1
   2   4  -2 12.2836 0.93949   2
  -2   4   2 11.4428 1.11367   1
   2   4  -2 12.1732 1.03579   1
   2   4  -2 11.5271 1.02550   1
  -2   4   2 10.5131 1.09317   1
   2   4  -2 12.2655 1.39470   1
   1  -4  -2 0.29154 0.30199   3
   1  -4  -2 0.34367 0.24997   3
  -1  -4   2 0.47786 0.30796   1
   1  -4  -2 0.52397 0.22166   1
  -1  -4   2 0.91299 0.34355   1
   1   4  -2 0.56934 0.10802   1
   1   4  -2 0.53990 0.23563   1
  -1   4   2 0.36445 0.26031   3
   1   4  -2 1.06020 0.32396   1
   1   4  -2 0.55959 0.22579   1
   1   4  -2 0.59878 0.15706   1
   1   4  -2 1.22711 0.30437   1
   1   4  -2 0.61848 0.28467   1
   1   4  -2 0.84426 0.11777   1
   1   4  -2 1.39401 0.41228   1
   0  -4   2 0.57998 0.32829   2
   0  -4  -2 0.83827 0.28940   1
   0  -4  -2 0.74074 0.30949   2
   0  -4  -2 0.71856 0.14371   2
   0  -4  -2 0.79152 0.23044   4
   0  -4   2 0.78786 0.49238   2
   0  -4  -2 0.49744 0.33167   2
   0  -4   2 0.53618 0.29548   2
   0  -4   2 0.55802 0.13127   2
   0   4   2 0.86820 0.22954   1
   0   4  -2 0.84836 0.12116   1
   0   4  -2 0.94937 0.35347   1
   0   4   2 0.72965 0.12165   2
   0   4  -2 0.97966 0.31315   1
   0   4   2 0.77389 0.34276   2
   0   4  -2 0.74407 0.39393   2
   1  -4   2 1.24899 0.39878   1
  -1  -4  -2 1.30284 0.34283   3
   1  -4   2 1.46391 0.36598   4
   1  -4   2 1.34196 0.34569   4
   1  -4   2 1.40293 0.33549   4
   1  -4   2 1.24899 0.40931   1
   1  -4   2 0.83968 0.15738   1
  -1  -4  -2 1.28329 0.36249   3
   1  -4   2 1.00759 0.44079   1
   1   4   2 1.44002 0.29390   3
  -1   4  -2 1.41303 0.38627   4
   1   4   2 1.27586 0.32717   3
  -1   4  -2 1.42323 0.34569   4
  -1   4  -2 1.68754 0.18294   4
   1   4   2 1.32250 0.31345   3
   1   4   2 1.58692 0.31345   3
   1   4   2 1.89064 0.47018   3
   1   4   2 1.01776 0.18606   2
   1   4   2 1.12708 0.31733   2
   1   4   2 1.21468 0.18606   2
   2  -4   2 1.71108 0.37244   4
   2  -4   2 1.49966 0.21141   4
   2  -4   2 1.39830 0.33438   1
   2  -4   2 2.35520 0.47310   4
   2  -4   2 2.05333 0.39253   4
   2  -4   2 1.48967 0.18112   4
   2  -4   2 1.96267 0.60395   4
   2  -4   2 1.52995 0.34226   4
  -2  -4  -2 1.45343 0.32408   3
   2  -4   2 0.98281 0.28366   1
  -2  -4  -2 1.43267 0.33771   1
   2   4   2 1.45134 0.17256   3
  -2   4  -2 1.19564 0.36477   1
   2   4   2 2.32134 0.57788   3
   2   4   2 1.18713 0.26607   1
   2   4   2 1.80221 0.26448   3
   2   4   2 1.83159 0.27420   3
  -2   4  -2 1.59033 0.32206   4
   2   4   2 2.41919 0.47010   3
   2   4   2 1.49854 0.16653   3
   2   4   2 1.53774 0.28403   3
   2   4   2 1.72381 0.27420   3
   3  -4   2 3.50360 0.64414   2
   3  -4   2 3.80619 0.88809   2
   3   4   2 2.91916 0.68050   1
   3   4   2 3.27535 0.66077   2
   4  -4   2 1.07895 0.39492   1
   4  -4   2 0.87661 0.44314   1
   4  -4   2 1.08851 0.25046   1
   4  -4   2 0.41917 0.50896   4
   4  -4   2 0.55892 0.67865   4
   4  -4   2 0.64872 0.31935   4
   4  -4   2 0.80916 0.47203   1
   4  -4   2 0.73852 0.74853   4
   4   4   2 1.34616 0.53477   1
   4   4   2 0.86671 0.22133   1
   4   4   2 1.08803 0.35034   1
   4   4   2 0.53083 0.64888   3
   4   4   2 0.89436 0.24898   1
   4   4   2 0.56042 0.45224   3
   4   4   2 0.86671 0.61782   1
   5  -4   2 4.13097 0.78915   1
   5  -4   2 3.39058 0.74049   1
   5   4   2 3.50537 0.45969   1
   6  -4   2 0.03836 0.02875   3
   6   4   2 -0.0189 0.04738   4
   6  -5  -2 0.63001 0.46416   4
   6   5  -2 1.15334 0.19065   4
   5  -5  -2 0.17480 0.25256   1
   4  -5  -2 0.05775 0.06741   1
   4  -5  -2 0.03853 0.03853   1
   4  -5  -2 0.00966 0.08662   1
   4  -5  -2 0.01922 0.02887   1
   4  -5  -2 0.00000 0.05775   1
   4   5  -2 0.01823 0.02739   1
   4   5  -2 0.11872 0.09133   1
   4   5  -2 -0.0092 0.04562   1
   4   5  -2 0.07310 0.09133   1
   3  -5  -2 0.44179 0.61238   1
   3  -5  -2 0.62245 0.65256   1
   3  -5  -2 0.93274 0.41235   2
   3   5  -2 0.62326 0.65293   1
   3   5  -2 1.40526 0.63704   2
   2  -5  -2 3.20358 0.32750   1
   2  -5  -2 3.08079 0.57318   1
   2  -5  -2 3.44063 0.53323   2
  -2  -5   2 2.62480 0.42032   1
  -2  -5   2 3.40053 0.53845   3
   2  -5  -2 3.58150 0.58348   2
   2  -5  -2 4.75855 0.84504   2
   2  -5  -2 3.53125 0.84504   2
   2  -5  -2 3.49099 0.33200   2
   2  -5  -2 2.74302 0.49125   1
   2   5  -2 3.43165 0.40195   3
   2   5  -2 4.44148 0.69610   3
   2   5  -2 2.92212 0.39986   1
  -2   5   2 2.56900 0.49125   1
   2   5  -2 3.40058 0.39471   2
   2   5  -2 2.84005 0.43061   1
   2   5  -2 4.32386 0.81383   3
   2   5  -2 3.03483 0.29732   1
   2   5  -2 3.84343 0.30399   3
   1  -5  -2 0.07301 0.08347   3
   1  -5  -2 0.12510 0.26066   3
   1  -5  -2 0.01046 0.16683   3
  -1  -5   2 -0.1477 0.29555   1
   1  -5  -2 0.07301 0.23984   3
  -1  -5   2 0.25613 0.22658   1
   1  -5  -2 0.01046 0.03127   3
   1   5  -2 0.04308 0.23679   2
   1   5  -2 0.02149 0.32296   2
  -1   5   2 0.03127 0.06255   3
   1   5  -2 0.18715 0.25613   1
   1   5  -2 0.03228 0.07537   2
   1   5  -2 -0.1084 0.22658   1
  -1   5   2 0.06255 0.20857   3
   1   5  -2 -0.0099 0.16749   1
   1   5  -2 0.10765 0.08617   2
   1   5  -2 -0.1084 0.10840   1
   1   5  -2 -0.0886 0.17727   1
   0  -5  -2 1.84158 0.33865   1
   0  -5  -2 1.83762 0.44432   1
   0  -5   2 1.70824 0.43525   2
   0  -5  -2 1.70362 0.47262   2
   0  -5  -2 2.00872 0.41971   1
   0  -5   2 1.51233 0.42433   2
   0  -5   2 1.53416 0.23934   2
   0  -5   2 1.49062 0.50051   2
   0  -5  -2 1.53869 0.23086   2
   0   5   2 1.47276 0.19778   2
   0   5  -2 2.34332 0.38378   1
   0   5  -2 2.53521 0.48479   1
   0   5   2 1.74749 0.35168   2
   0   5   2 1.52766 0.37373   2
   0   5  -2 1.93927 0.47477   1
   0   5  -2 1.64298 0.21762   2
   1  -5   2 5.49431 0.77292   1
   1  -5   2 5.34804 0.45965   1
  -1  -5  -2 5.01469 0.74895   2
   1  -5   2 5.29586 0.81473   1
   1  -5   2 3.72905 0.43869   1
  -1  -5  -2 4.75415 0.79240   2
   1  -5   2 5.61198 0.63148   4
   1  -5   2 5.60958 0.80575   4
   1   5   2 5.01469 0.73806   2
  -1   5  -2 4.54379 0.44917   1
   1   5   2 5.39455 0.46675   2
   1   5   2 4.68904 0.65129   2
  -1   5  -2 5.79536 0.85552   4
  -1   5  -2 4.97200 0.73123   1
   1   5   2 4.74326 0.61874   2
   1   5   2 4.88436 0.65129   2
   2  -5   2 5.89608 0.78613   2
   2  -5   2 5.48256 0.49749   1
  -2  -5  -2 5.17928 0.69463   1
   2  -5   2 6.38994 0.89703   2
   2  -5   2 5.45211 0.50767   1
   2  -5   2 3.58396 0.70056   1
   2  -5   2 3.89875 0.76146   1
   2  -5   2 5.90619 0.73579   2
   2  -5   2 6.07755 0.73579   2
   2   5   2 5.53679 0.62311   1
   2   5   2 5.84239 0.90036   3
  -2   5  -2 4.18298 0.74119   1
   2   5   2 5.40400 0.81729   1
   2   5   2 5.63896 0.59247   1
   2   5   2 5.75634 0.60070   3
   2   5   2 5.95989 0.60675   3
   2   5   2 5.74452 0.46000   3
   3  -5   2 -0.0783 0.07825   2
   3  -5   2 0.01007 0.13049   3
   3  -5   2 -0.0098 0.01951   2
   3  -5   2 0.01007 0.18063   3
   3  -5   2 0.03913 0.13689   2
   3  -5   2 -0.0293 0.05864   2
   3  -5   2 0.01951 0.01951   2
   3   5   2 0.00988 0.07880   1
   3   5   2 0.00000 0.05747   1
   3   5   2 -0.0375 0.12179   2
   3   5   2 0.06559 0.13119   2
   3   5   2 0.03750 0.07499   2
   4  -5   2 -0.0871 0.24192   1
   4  -5   2 -0.0290 0.13552   1
   4  -5   2 0.03874 0.05805   1
   4  -5   2 0.07747 0.14513   1
   4   5   2 0.29295 0.10074   1
   4   5   2 0.04573 0.07329   1
   4   5   2 0.16475 0.09156   1
   4   5   2 0.12820 0.18312   1
   4   5   2 -0.1190 0.13729   1
   4   5   2 0.15566 0.19230   1
   5  -5   2 0.76046 0.39969   3
   5  -5   2 -0.1267 0.52643   3
   5   5   2 1.07021 0.53511   1
   6  -5   2 -0.0191 0.05751   3
   6   5   2 0.17033 0.08517   4
   6  -6  -2 0.24882 0.15312   4
   6   6  -2 0.06664 0.10473   4
   5  -6  -2 2.93290 0.63803   2
   5   6  -2 2.42164 0.40196   2
   4  -6  -2 0.44046 0.99096   3
   4  -6  -2 1.39126 0.56054   3
   4  -6  -2 1.65160 0.51044   3
   4  -6  -2 1.18112 0.51044   3
   4   6  -2 2.16389 0.37117   1
   4   6  -2 1.55188 0.49112   3
   4   6  -2 1.80172 0.75151   1
   4   6  -2 2.85202 0.60666   1
   4   6  -2 1.78673 0.41231   4
   3  -6  -2 11.6545 1.19004   2
   3  -6  -2 10.6686 1.16645   1
   3  -6  -2 8.43627 0.97532   1
   3  -6  -2 12.0872 1.13104   2
   3  -6  -2 13.1494 1.77031   2
   3  -6  -2 12.9035 1.45561   2
   3   6  -2 11.0436 0.91787   1
   3   6  -2 9.33621 1.35206   1
   3   6  -2 9.08942 1.04617   1
   3   6  -2 9.65200 1.27316   1
   2  -6  -2 5.49455 0.84059   1
   2  -6  -2 4.78722 1.05580   1
   2  -6  -2 5.99685 0.97385   1
   2  -6  -2 6.76340 0.57458   2
   2  -6  -2 7.09603 0.78619   2
   2  -6  -2 7.35810 0.79630   2
  -2  -6   2 5.86329 0.70606   1
   2  -6  -2 5.03328 0.78928   1
   2  -6  -2 5.94565 0.56379   1
   2   6  -2 6.34416 0.67537   1
   2   6  -2 6.47353 0.93059   3
   2   6  -2 5.81207 0.67537   1
   2   6  -2 6.33400 0.65484   1
  -1  -6   2 1.74458 0.48934   2
  -1  -6   2 1.56372 0.58505   2
   1   6  -2 1.84643 0.38507   3
   1   6  -2 2.09324 0.22710   3
   1   6  -2 1.59562 0.41486   2
   0  -6  -2 103.111 9.31047   2
   0  -6  -2 109.008 8.22518   1
   0  -6   2 106.471 8.77340   1
   0  -6   2 105.698 9.18548   2
   0  -6   2 104.016 9.25026   2
   0  -6  -2 106.526 8.97990   1
   0  -6  -2 106.209 8.62813   1
   0  -6   2 107.000 8.55376   1
   0  -6  -2 106.095 8.59311   3
   0   6  -2 106.182 8.38307   1
   0   6   2 97.6123 9.83313   2
   0   6  -2 109.397 8.63824   1
   0   6   2 106.242 9.00105   1
   0   6   2 106.108 8.67165   1
   0   6  -2 106.093 9.12267   3
   0   6   2 106.101 8.58098   1
   0   6  -2 106.896 8.92884   1
   0   6   2 106.278 9.12214   1
   1  -6   2 8.08114 0.94643   4
  -1  -6  -2 8.15564 0.94181   3
   1  -6   2 7.88317 0.94764   1
   1  -6   2 8.15489 0.66257   4
  -1  -6  -2 7.88061 0.99719   2
   1  -6   2 6.78982 0.99976   1
  -1  -6  -2 7.13014 0.68616   2
   1  -6   2 7.44581 0.90596   1
  -1   6  -2 8.01866 0.94764   1
   1   6   2 8.13091 0.64436   3
   1   6   2 7.48397 0.85781   2
   1   6   2 7.95568 0.85781   2
   1   6   2 6.95860 0.86845   2
  -1   6  -2 6.04003 0.90596   1
  -1   6  -2 6.67523 0.65610   1
   1   6   2 6.63692 0.82554   2
   1   6   2 8.07811 0.94107   4
  -1   6  -2 7.21674 0.96853   1
   2  -6   2 6.61049 0.95586   2
  -2  -6  -2 3.72655 0.61095   1
   2  -6   2 5.31259 0.72444   2
   2  -6   2 4.91010 0.44276   2
   2  -6   2 4.73903 0.70436   2
   2  -6   2 2.90874 0.62035   3
   2   6   2 5.07800 0.69465   3
   2   6   2 6.92720 0.94904   3
   2   6   2 3.50258 0.38687   1
   2   6   2 3.28871 0.51923   1
   2   6   2 3.78762 0.58041   1
   2   6   2 4.48120 0.38158   3
   2   6   2 4.57904 0.56746   3
   3  -6   2 10.1015 0.81494   3
   3  -6   2 9.60854 1.19733   3
   3  -6   2 7.75723 1.05645   3
   3  -6   2 10.0613 0.98600   3
   3  -6   2 10.9262 1.17483   2
   3  -6   2 10.2323 0.90547   3
   3  -6   2 10.0311 1.01618   3
   3  -6   2 9.42738 1.51927   3
   3  -6   2 7.72706 0.91556   3
   3   6   2 8.98013 1.23792   1
   3   6   2 9.81526 1.12991   1
   3   6   2 9.00970 0.95300   1
   3   6   2 9.60900 0.84499   1
   3   6   2 8.16471 1.13976   1
   4  -6   2 4.20908 0.82177   4
   4  -6   2 6.40686 0.60277   1
   4  -6   2 4.74014 1.28277   4
   4  -6   2 5.18113 0.77161   4
   4  -6   2 4.44953 0.54111   4
   4   6   2 5.38606 0.92218   3
   4   6   2 5.89756 1.06317   1
   4   6   2 5.71966 0.64752   3
   5  -6   2 0.77234 0.59499   2
   5  -6   2 1.64821 0.61446   3
   5   6   2 1.16339 0.26696   1
   5   6   2 1.43035 0.45768   1
   6  -6   2 0.02120 0.09555   4
   6  -7  -2 1.34968 0.47316   1
   6   7  -2 1.84336 0.23751   4
   5  -7  -2 0.51523 0.45692   1
   5   7  -2 -0.0570 0.22826   1
   4  -7  -2 2.61046 0.49306   1
   4  -7  -2 2.11564 0.93256   4
   4  -7  -2 2.95853 0.64784   1
   4  -7  -2 2.53687 0.33090   4
   4   7  -2 2.64711 0.46660   1
   4   7  -2 2.49341 0.46142   3
   4   7  -2 2.61120 0.86146   1
   3  -7  -2 1.09296 0.71883   2
   3  -7  -2 0.76801 0.25600   2
   3  -7  -2 0.78777 0.33482   2
   3  -7  -2 -0.0591 0.64989   2
   3  -7  -2 0.54364 0.36246   1
   3  -7  -2 0.63289 0.15822   3
   3  -7  -2 0.99448 0.35447   2
   3   7  -2 0.70011 0.12899   2
   3   7  -2 0.42346 0.21662   1
   3   7  -2 0.49240 0.21662   1
   3   7  -2 0.35451 0.25603   1
   3   7  -2 0.70011 0.51587   2
   2  -7  -2 2.94473 0.52439   2
   2  -7  -2 1.88583 0.70596   2
   2  -7  -2 2.03706 0.27231   2
   2  -7  -2 1.98669 0.78658   2
   2   7  -2 2.01636 0.54815   2
   2   7  -2 1.68133 0.35660   1
   2   7  -2 1.53864 0.34649   1
   2   7  -2 1.76278 0.34649   1
   1  -7  -2 2.33520 0.29316   1
   1  -7  -2 2.68077 0.59693   1
   1  -7  -2 2.63886 0.63873   1
   1  -7  -2 3.16018 0.58743   2
   1  -7  -2 2.68175 0.47630   3
  -1  -7   2 2.39877 0.58919   1
  -1  -7   2 2.38833 0.53653   1
  -1   7   2 1.71737 0.28276   1
  -1   7   2 3.01835 0.54690   2
   1   7  -2 2.26200 0.27354   1
  -1   7   2 2.02103 0.25136   1
   1   7  -2 2.56710 0.59975   1
   1   7  -2 1.94635 0.25254   1
   1   7  -2 2.61976 0.45242   1
   1   7  -2 3.60077 0.59356   3
  -1   7   2 2.60746 0.45030   1
  -1   7   2 2.26188 0.48170   1
   1   7  -2 1.84113 0.39976   1
   1   7  -2 2.38833 0.55764   1
   0  -7  -2 0.33044 0.11018   3
   0  -7  -2 -0.0100 0.34048   3
   0  -7   2 0.20202 0.29289   3
   0  -7  -2 0.60081 0.26033   3
   0  -7   2 0.06392 0.30901   2
   0  -7  -2 0.25029 0.33044   3
   0  -7   2 -0.2929 0.33332   3
   0  -7   2 0.15979 0.11726   2
   0  -7  -2 0.15070 0.35515   2
   0   7   2 0.13990 0.25832   2
   0   7  -2 -0.0101 0.30302   3
   0   7  -2 0.20202 0.22218   3
   0   7   2 0.61075 0.28032   3
   0   7  -2 0.18175 0.09088   3
   0   7  -2 0.01069 0.31970   2
   0   7   2 0.33044 0.22026   3
   0   7   2 0.25029 0.29036   3
   1  -7   2 4.48944 0.44688   1
  -1  -7  -2 4.33143 0.77692   1
   1  -7   2 4.08415 0.75866   1
   1  -7   2 5.08758 0.78502   4
   1  -7   2 4.01139 0.72750   1
  -1  -7  -2 4.60307 0.71355   3
   1  -7   2 3.80353 0.73781   1
  -1   7  -2 4.63903 0.78502   4
   1   7   2 4.43775 0.42571   1
   1   7   2 3.70354 0.65981   1
  -1   7  -2 3.78279 0.71707   1
   1   7   2 3.75670 0.65981   1
   1   7   2 4.57610 0.72365   1
  -1   7  -2 3.85555 0.41571   1
  -1   7  -2 5.15896 0.76467   4
   2  -7   2 0.28504 0.54976   3
   2  -7   2 0.36654 0.38687   3
   2  -7   2 0.57019 0.41740   3
   2  -7   2 0.43783 0.17311   3
   2   7   2 0.58748 0.48618   1
   2   7   2 0.66857 0.13168   1
   2   7   2 0.71916 0.37482   1
   2   7   2 0.77172 0.28327   2
   2   7   2 0.49634 0.24314   1
   3  -7   2 1.61322 0.49405   3
   3  -7   2 0.96797 0.80666   3
   3  -7   2 1.80477 0.25203   3
   3  -7   2 1.84513 0.52429   3
   3  -7   2 1.76442 0.37309   3
   3  -7   2 2.15632 0.37241   1
   3  -7   2 1.79476 0.32262   3
   3  -7   2 1.12929 0.68560   3
   3  -7   2 1.71405 0.55453   3
   3  -7   2 2.23468 0.39208   1
   3   7   2 1.72541 0.24505   1
   3   7   2 1.97057 0.49021   1
   3   7   2 2.20232 0.71873   2
   3   7   2 1.65677 0.33336   1
   3   7   2 1.95090 0.57842   1
   4  -7   2 0.28317 0.24409   1
   4  -7   2 0.08786 0.22460   1
   4  -7   2 0.21480 0.38083   1
   4  -7   2 0.04878 0.10745   1
   4   7   2 0.15331 0.27958   1
   4   7   2 0.14426 0.11722   1
   4   7   2 -0.0811 0.09922   1
   4   7   2 -0.1804 0.19835   1
   5  -7   2 0.11579 0.48406   2
   5  -7   2 0.38038 0.35113   3
   5   7   2 0.81879 0.44750   1
   6  -7   2 0.48882 0.29720   3
   6  -8  -2 0.75619 0.39941   1
   6   8  -2 1.38766 0.28655   4
   5  -8  -2 0.07776 0.23317   3
   5   8  -2 -0.0476 0.11421   1
   4  -8  -2 2.46078 0.60268   2
   4  -8  -2 2.44073 0.37166   2
   4  -8  -2 3.24371 0.66811   1
   4  -8  -2 2.65160 1.04456   2
   4   8  -2 2.90963 0.44055   4
   4   8  -2 3.10376 0.53363   1
   4   8  -2 3.35282 0.97824   1
   3  -8  -2 3.49752 0.54186   2
   3  -8  -2 3.24631 0.49399   1
   3  -8  -2 3.52718 0.59117   2
   3  -8  -2 4.28576 0.91631   2
   3  -8  -2 4.27587 1.04439   2
   3  -8  -2 4.35474 0.70937   2
   3  -8  -2 3.20596 0.52423   1
   3   8  -2 3.41858 0.90376   1
   3   8  -2 3.47498 0.34930   1
   3   8  -2 2.96670 0.53041   1
   3   8  -2 3.21224 0.53041   1
   3   8  -2 3.45321 0.46743   1
   2  -8  -2 53.6512 4.34246   2
   2  -8  -2 52.6034 4.51376   2
   2  -8  -2 56.2104 5.02756   2
   2  -8  -2 51.3037 4.05028   2
   2   8  -2 42.1209 3.96716   1
   2   8  -2 48.4575 3.86504   2
   2   8  -2 41.4631 4.63513   1
  -1  -8   2 3.36160 0.60926   1
   1  -8  -2 4.55836 0.67875   2
   1  -8  -2 3.74804 0.64826   2
   1  -8  -2 3.67711 0.38489   2
   1  -8  -2 4.27478 0.73951   2
  -1  -8   2 2.35308 0.74583   1
   1  -8  -2 4.02157 0.63820   2
   1   8  -2 3.38268 0.60926   1
  -1   8   2 3.70750 0.64826   2
   1   8  -2 3.59692 0.63412   3
  -1   8   2 3.49542 0.57913   2
   1   8  -2 4.69679 0.67378   3
   1   8  -2 3.10944 0.39915   1
   0  -8  -2 2.36353 0.63032   4
   0  -8  -2 2.73502 0.48084   3
   0  -8  -2 3.05558 0.62112   3
   0  -8  -2 2.24326 0.63025   1
   0  -8  -2 2.15775 0.30977   1
   0  -8   2 2.20688 0.57015   1
   0  -8   2 1.97460 0.30620   1
   0  -8   2 2.62497 0.54515   3
   0  -8   2 2.62497 0.63609   3
   0   8  -2 2.19628 0.46466   1
   0   8   2 2.74496 0.46084   3
   0   8   2 3.32599 0.57108   3
   0   8  -2 2.45342 0.29278   3
   0   8   2 2.02960 0.28844   1
   0   8  -2 2.73607 0.57553   3
   0   8  -2 2.84717 0.55527   3
   0   8   2 2.26458 0.48067   1
   0   8   2 2.94534 0.55098   3
  -1  -8  -2 -0.0197 0.05912   3
   1  -8   2 0.11217 0.07137   2
   1  -8   2 -0.0306 0.07137   2
   1  -8   2 -0.0102 0.08159   2
   1  -8   2 0.00000 0.02070   1
   1  -8   2 0.04080 0.07137   2
  -1   8  -2 0.00000 0.07262   1
  -1   8  -2 0.01023 0.06114   2
   1   8   2 0.03945 0.02956   3
   1   8   2 0.09857 0.04923   3
   2  -8   2 45.4406 3.73499   2
   2  -8   2 46.6822 4.01532   2
   2  -8   2 44.6796 4.15553   2
   2   8   2 45.4075 3.65395   2
   2   8   2 43.6030 3.90299   3
   2   8   2 44.8647 4.16756   2
   2   8   2 43.5850 3.59819   4
   3  -8   2 1.65736 0.37263   1
   3  -8   2 0.97980 0.79803   3
   3  -8   2 1.75544 0.50012   1
   3  -8   2 1.14141 0.70714   3
   3  -8   2 1.18184 0.34349   3
   3  -8   2 1.82410 0.51980   1
   3  -8   2 1.19197 0.32322   3
   3  -8   2 1.96143 0.52953   1
   3   8   2 1.70856 0.36549   2
   3   8   2 1.02799 0.57763   1
   3   8   2 1.45870 0.28390   1
   3   8   2 1.50977 0.22403   1
   3   8   2 1.90038 0.43853   2
   3   8   2 1.45870 0.54827   1
   3   8   2 1.50948 0.33017   1
   4  -8   2 2.72629 0.97090   1
   4  -8   2 2.20651 0.37262   1
   4  -8   2 2.45175 0.63743   1
   4  -8   2 1.74008 0.59345   4
   4   8   2 0.50953 0.82307   3
   4   8   2 1.74423 0.33320   3
   4   8   2 2.18382 0.53924   2
   5  -8   2 -0.4486 0.50704   3
   5  -8   2 0.24429 0.35051   2
   5   8   2 0.18540 0.25754   2
   5   8   2 0.37094 0.45652   1
   6  -9  -2 1.06743 0.28593   3
   5  -9  -2 0.33948 0.32012   3
   5   9  -2 0.31493 0.22907   1
   5   9  -2 0.03119 0.12475   2
   4  -9  -2 0.96926 1.03712   1
   4  -9  -2 0.53325 0.53325   2
   4  -9  -2 0.84508 0.31194   2
   4   9  -2 0.66722 0.30423   3
   4   9  -2 1.26995 0.29104   1
   4   9  -2 0.90993 0.81611   4
   3  -9  -2 0.59118 0.24627   2
   3  -9  -2 0.29272 0.27257   3
   3  -9  -2 0.29272 0.60569   3
   3  -9  -2 0.76847 0.28570   2
   3  -9  -2 1.54682 0.72904   2
   3  -9  -2 1.92117 0.44333   2
   3  -9  -2 0.80790 0.26604   2
   3   9  -2 0.35331 0.65229   2
   3   9  -2 0.60703 0.34422   2
   3   9  -2 0.67037 0.26271   2
   3   9  -2 0.31398 0.20611   1
   3   9  -2 0.50734 0.14494   2
   3   9  -2 0.56168 0.22645   2
   2  -9  -2 1.29554 0.69295   2
   2  -9  -2 1.39587 0.52221   2
   2  -9  -2 1.21516 0.86370   2
   2  -9  -2 0.92393 0.21094   2
   2   9  -2 0.68357 0.47252   1
   2   9  -2 0.75395 0.19098   1
   1  -9  -2 1.11074 0.47753   4
   1  -9  -2 1.14442 0.55702   2
   1  -9  -2 1.16474 0.46590   2
   1  -9  -2 1.68123 0.25316   2
  -1  -9   2 0.13594 0.51241   1
   1  -9  -2 2.20787 0.50643   2
  -1   9   2 1.11169 0.43231   2
   1   9  -2 1.56793 0.23820   3
   1   9  -2 1.10852 0.37646   1
   1   9  -2 0.64835 0.46017   1
   1   9  -2 2.27247 0.51601   3
   1   9  -2 1.05617 0.44968   1
   0  -9  -2 1.72381 0.27063   3
   0  -9   2 1.61490 0.63590   3
   0  -9   2 1.45335 0.25279   1
   0  -9  -2 1.66370 0.50115   3
   0  -9   2 1.51396 0.57536   3
   0  -9  -2 1.74392 0.43098   3
   0  -9   2 0.81086 0.49501   1
   0  -9  -2 1.59352 0.50115   3
   0  -9  -2 1.36388 0.49015   1
   0   9   2 1.87421 0.45098   3
   0   9   2 1.49766 0.22310   3
   0   9  -2 1.50383 0.44415   3
   0   9  -2 1.53421 0.23215   3
   0   9   2 1.86416 0.44103   3
   0   9  -2 1.49550 0.52660   1
   0   9  -2 1.09524 0.58977   1
   0   9   2 1.27859 0.37290   1
   0   9  -2 1.87731 0.46429   3
   1  -9   2 2.09679 0.64128   2
   1  -9   2 2.29017 0.32569   2
   1  -9   2 1.88300 0.55980   2
   1  -9   2 1.13793 0.57934   1
   1  -9   2 2.52428 0.60054   2
  -1  -9  -2 2.14229 0.52324   3
   1   9   2 1.90532 0.43442   3
   1   9   2 1.78723 0.38806   3
   1   9   2 3.33682 0.52324   3
  -1   9  -2 2.15785 0.57002   2
  -1   9  -2 2.06627 0.53949   2
   2  -9   2 0.15966 0.21952   2
   2  -9   2 0.20961 0.09980   2
   2  -9   2 -0.1098 0.26947   2
   2   9   2 0.01003 0.15995   1
   2   9   2 0.05997 0.07000   1
   2   9   2 0.10517 0.14332   2
   2   9   2 0.21024 0.23890   2
   3  -9   2 1.31415 0.25498   1
   3  -9   2 1.49073 0.62761   1
   3  -9   2 1.29458 0.37263   1
   3  -9   2 0.33348 0.48055   1
   3  -9   2 0.94152 0.24514   1
   3  -9   2 1.11800 0.32364   1
   3  -9   2 0.61787 0.31381   1
   3  -9   2 0.75510 0.40204   1
   3   9   2 0.10771 0.15660   3
   3   9   2 0.13895 0.19463   3
   3   9   2 -0.3082 0.30816   2
   3   9   2 0.32624 0.36251   2
   3   9   2 -0.2537 0.25370   2
   3   9   2 0.44405 0.22652   2
   4  -9   2 0.59443 0.30227   2
   4  -9   2 0.85783 0.37899   2
   4  -9   2 0.83627 0.92692   2
   4  -9   2 0.40303 0.54400   2
   4   9   2 1.57254 0.47971   1
   4   9   2 0.74451 0.77389   3
   4   9   2 0.95951 0.28428   1
   4   9   2 0.97725 0.29319   1
   4   9   2 0.86082 0.15570   3
   5  -9   2 -0.0780 0.11691   3
   5   9   2 0.00000 0.06037   1
   5   9   2 0.12350 0.10454   1
   5 -10  -2 0.56085 0.50788   2
   5  10  -2 0.58309 0.21028   1
   5  10  -2 0.65961 0.27721   1
   4 -10  -2 0.67520 1.11852   2
   4 -10  -2 1.00763 0.57442   2
   4 -10  -2 1.04796 0.33254   2
   4  10  -2 1.23636 0.33367   3
   4  10  -2 -0.0701 0.77938   1
   4  10  -2 1.54997 0.39404   1
   4  10  -2 0.92237 0.11772   3
   3 -10  -2 11.3923 1.77236   1
   3 -10  -2 6.42809 0.83893   3
   3 -10  -2 7.75214 1.03095   3
   3 -10  -2 7.86335 1.05112   3
   3 -10  -2 7.14578 0.89956   3
   3 -10  -2 8.21091 1.33527   3
   3  10  -2 8.07609 0.84395   3
   3  10  -2 9.92083 1.45705   2
   3  10  -2 6.82985 0.83411   3
   3  10  -2 7.70324 0.72613   3
   2 -10  -2 11.1696 1.47998   2
   2 -10  -2 9.09500 1.73336   1
   2 -10  -2 10.0636 0.93807   1
   2 -10  -2 10.3390 1.35606   1
   2  10  -2 8.75749 1.30963   1
   2  10  -2 10.7869 0.90972   1
   1 -10  -2 6.57473 0.63727   2
   1 -10  -2 6.86805 0.99127   2
   1 -10  -2 6.40275 1.07223   2
   1 -10  -2 6.51406 1.06209   2
  -1  10   2 5.13016 0.86903   1
   1  10  -2 6.50480 0.60483   2
   1  10  -2 6.43547 0.93207   2
   1  10  -2 5.58267 0.90233   2
   1  10  -2 7.97238 0.90233   2
   0 -10   2 16.7975 1.50895   1
   0 -10  -2 17.8286 1.81257   1
   0 -10  -2 19.5105 1.45380   3
   0 -10  -2 18.8487 1.82468   3
   0 -10   2 15.5924 1.77088   1
   0 -10   2 13.9787 1.81282   1
   0 -10  -2 18.3691 1.69593   1
   0 -10   2 17.4891 1.81282   1
   0 -10  -2 18.6312 1.81132   3
   0  10  -2 16.1478 1.71854   1
   0  10  -2 16.7450 1.83373   1
   0  10  -2 16.7765 1.48803   1
   0  10  -2 18.6676 1.77835   3
   0  10  -2 18.7485 1.74568   3
   0  10   2 17.8497 1.77014   1
   0  10   2 15.0408 1.70656   1
   1 -10   2 17.8374 1.94036   2
   1 -10   2 18.7268 1.60685   2
   1 -10   2 16.8821 1.91086   2
   1 -10   2 18.7369 1.92019   2
   1  10   2 19.2205 1.78776   2
  -1  10  -2 15.7038 1.91659   1
   1  10   2 23.1317 1.92596   2
   2 -10   2 23.3065 2.55423   2
   2 -10   2 24.0917 2.45484   2
   2 -10   2 22.3921 2.13682   2
   2  10   2 22.0463 2.12927   2
   2  10   2 27.9819 2.02560   2
   2  10   2 24.7503 2.44954   2
   2  10   2 26.2860 2.21404   2
   3 -10   2 9.21212 1.05841   1
   3 -10   2 9.01611 1.17598   1
   3 -10   2 7.05136 1.05363   4
   3 -10   2 7.38570 1.03341   4
   3 -10   2 7.42625 0.96248   4
   3 -10   2 8.77104 1.47000   1
   3 -10   2 8.70109 0.83719   4
   3 -10   2 9.13367 1.78358   1
   3 -10   2 7.75043 1.03341   4
   3  10   2 8.68633 0.87139   3
   3  10   2 8.24382 1.02805   3
   3  10   2 9.60725 1.01646   2
   3  10   2 8.69787 0.72088   3
   3  10   2 8.69720 0.80141   3
   3  10   2 6.84376 1.14550   3
   3  10   2 9.17549 0.75560   2
   3  10   2 8.28301 1.38052   3
   3  10   2 8.70251 0.92015   4
   4 -10   2 2.53321 1.17079   2
   4 -10   2 1.69559 0.61561   2
   4 -10   2 3.03019 0.50335   1
   4 -10   2 1.63495 0.71654   2
   4  10   2 2.97620 0.50343   1
   4  10   2 2.70238 0.46809   1
   4  10   2 2.40950 0.31341   3
   4  10   2 2.59483 0.98031   2
   4  10   2 2.58858 0.42356   3
   4  10   2 2.59483 0.52857   2
   5 -10   2 0.85400 0.47568   3
   5  10   2 1.28930 0.52141   4
   5  10   2 0.70272 0.29807   2
   5  10   2 0.91957 0.40767   4
   5 -11  -2 0.20296 0.17388   3
   5  11  -2 -0.2007 0.20067   4
   5  11  -2 0.02167 0.10855   2
   4 -11  -2 0.24271 0.64086   1
   4 -11  -2 0.07030 0.31133   2
   4 -11  -2 0.14560 0.22333   1
   4 -11  -2 -0.0291 0.14560   1
   4  11  -2 -0.2092 0.20920   1
   4  11  -2 -0.0872 0.13943   1
   3 -11  -2 0.09800 0.32338   1
   3 -11  -2 0.07844 0.16660   1
   3 -11  -2 0.61736 0.35276   1
   2 -11  -2 0.08132 0.36571   1
   2 -11  -2 0.12932 0.13930   2
   2 -11  -2 0.06093 0.51805   1
   2 -11  -2 0.67641 0.41778   2
   2 -11  -2 -0.0796 0.12932   2
   2  11  -2 0.12978 0.11119   2
   2  11  -2 -0.2410 0.29657   2
   1 -11  -2 1.32990 0.56420   2
   1 -11  -2 0.70762 0.49948   1
   1 -11  -2 1.31979 0.55409   2
   1  11  -2 0.97616 0.51741   2
   1  11  -2 0.97616 0.22453   2
   1  11  -2 1.00544 0.44906   2
   0 -11   2 -0.0101 0.07025   2
   0 -11   2 -0.0602 0.21075   2
   0 -11  -2 0.02098 0.16815   1
   0 -11   2 0.08032 0.26087   2
   0 -11  -2 0.05002 0.20027   2
   0 -11  -2 0.04206 0.07359   1
   0 -11  -2 0.01054 0.25228   1
   0 -11   2 0.19062 0.17060   2
   0  11   2 0.10014 0.07011   2
   0  11  -2 0.22072 0.16053   2
   0  11  -2 -0.1505 0.18056   2
   0  11   2 0.04206 0.14717   1
   0  11   2 0.36047 0.18018   2
   0  11  -2 0.07025 0.08032   2
   0  11  -2 0.20069 0.19062   2
   0  11  -2 0.16053 0.21075   2
   1 -11   2 9.54845 1.41126   2
   1 -11   2 9.80867 1.34119   2
   1 -11   2 11.0898 1.38125   2
   1 -11   2 11.4201 1.06098   2
   1  11   2 12.3833 1.29631   2
   1  11   2 12.2262 1.37481   2
   1  11   2 12.5109 1.02128   2
   2 -11   2 1.80042 0.31654   2
   2 -11   2 2.04780 0.81120   2
   2 -11   2 1.54321 0.29680   2
   2 -11   2 0.53959 0.57012   3
   2  11   2 1.44921 0.28804   2
   2  11   2 1.43067 0.24153   2
   2  11   2 2.23885 0.49239   2
   2  11   2 2.06236 0.62248   2
   2  11   2 1.97878 0.47375   2
   2  11   2 1.84869 0.29726   2
   3 -11   2 1.59242 0.42598   4
   3 -11   2 1.75469 0.57818   4
   3 -11   2 1.71410 0.73028   4
   3 -11   2 2.69085 1.00779   1
   3 -11   2 1.77961 0.43481   2
   3 -11   2 1.59242 0.31448   4
   3 -11   2 1.86895 0.99808   1
   3 -11   2 2.31907 0.51862   1
   3  11   2 2.26204 0.72418   2
   3  11   2 2.11900 0.32187   2
   3  11   2 1.90439 0.44706   2
   3  11   2 1.74359 0.35263   3
   3  11   2 1.54767 0.24484   3
   3  11   2 2.02061 0.28608   2
   3  11   2 1.78011 0.38661   4
   4 -11   2 1.12575 0.98747   1
   4 -11   2 0.20225 0.53596   2
   4  11   2 0.80938 0.43107   1
   4  11   2 1.04693 0.27277   1
   4  11   2 1.36364 0.23756   1
   5 -11   2 1.24376 0.45991   4
   5  11   2 1.24662 0.37289   4
   5  11   2 0.95888 0.31598   2
   5 -12  -2 7.18061 0.84817   3
   5  12  -2 5.28775 0.78260   2
   5  12  -2 7.24417 0.76259   4
   4 -12  -2 0.66721 0.43470   2
   4 -12  -2 0.80876 0.93003   2
   4 -12  -2 0.90975 0.32346   2
   4  12  -2 1.05047 0.27485   3
   4  12  -2 1.06032 0.45162   3
   3 -12  -2 10.6840 1.14431   4
   3 -12  -2 9.82317 1.21521   4
   3 -12  -2 11.3111 1.76191   1
   3 -12  -2 10.7412 1.28135   4
   3 -12  -2 9.79280 1.24558   4
   3 -12  -2 10.6638 2.21781   4
   3  12  -2 9.95380 1.10055   3
   3  12  -2 10.7459 1.00850   3
   3  12  -2 10.7419 0.91729   3
   3  12  -2 8.54870 1.56231   3
   2 -12  -2 1.63160 0.79110   2
   2 -12  -2 0.90351 1.06593   1
   2 -12  -2 1.45356 0.28674   2
   2 -12  -2 0.73092 0.39590   1
   2 -12  -2 1.11281 0.61151   1
   2 -12  -2 1.13716 0.30658   2
   2 -12  -2 0.55832 0.46698   1
   2  12  -2 1.86696 0.64065   2
   2  12  -2 1.35446 0.25620   2
   2  12  -2 2.05908 0.29283   2
   2  12  -2 1.55576 0.45761   2
   1 -12  -2 10.5963 1.01015   1
   1 -12  -2 10.6375 1.48431   1
   1 -12  -2 9.88509 1.35031   1
   1  12  -2 10.0454 0.96396   1
   1  12  -2 10.9075 1.33091   4
   1  12  -2 12.3644 1.30450   2
   0 -12   2 4.67814 0.76080   1
   0 -12  -2 2.71004 0.78916   1
   0 -12   2 3.22842 0.85341   1
   0  12   2 4.38180 0.73719   1
   0  12   2 5.26438 0.50878   1
   0  12  -2 5.27444 0.51411   1
   0  12  -2 5.10995 0.90477   1
   0  12  -2 4.49301 0.77111   1
   1 -12   2 12.9007 1.18585   1
   1 -12   2 12.5224 1.63558   1
   1 -12   2 13.0661 1.54531   2
   1  12   2 11.7031 1.36792   1
   1  12   2 11.2166 1.41853   1
   1  12   2 13.9140 1.09922   2
  -1  12  -2 12.5940 1.40046   1
   2 -12   2 -0.0492 0.25591   2
   2 -12   2 0.07130 0.14259   3
   2 -12   2 0.31494 0.41338   2
   2 -12   2 0.09162 0.41746   3
   2 -12   2 0.07130 0.32584   3
   2 -12   2 0.17712 0.25591   2
   2 -12   2 0.14760 0.16735   2
   2  12   2 0.03943 0.19703   1
   2  12   2 0.10840 0.12806   1
   2  12   2 -0.0275 0.25666   2
   2  12   2 0.11818 0.11818   1
   2  12   2 0.18337 0.12838   2
   2  12   2 0.16498 0.11918   2
   2  12   2 -0.0275 0.33005   2
   2  12   2 -0.1192 0.22006   2
   3 -12   2 6.35464 0.79065   1
   3 -12   2 7.67245 0.89806   1
   3 -12   2 8.64854 1.02495   1
   3 -12   2 4.46665 1.23735   4
   3  12   2 5.08889 0.75227   1
   3  12   2 5.24824 0.62834   1
   3  12   2 4.46539 0.52638   3
   3  12   2 5.62872 0.57526   1
   3  12   2 5.23936 1.15051   1
   3  12   2 6.74390 0.81424   1
   3  12   2 4.69065 0.67264   1
   4 -12   2 0.21304 0.31448   2
   4 -12   2 0.55267 0.41447   1
   4 -12   2 1.05594 0.74015   1
   4  12   2 0.96722 0.36048   1
   4  12   2 -0.0264 0.27263   1
   4  12   2 0.40449 0.23744   1
   5 -12   2 3.50503 0.67968   3
   5  12   2 2.75059 0.41451   4
   5  12   2 2.26482 0.37001   2
   5 -13  -2 0.55739 0.27869   3
   5 -13  -2 -0.0576 0.59585   3
   5  13  -2 -0.3042 0.30423   4
   5  13  -2 0.27570 0.18029   4
   4 -13  -2 0.17480 0.22342   1
   4 -13  -2 0.75767 0.51486   1
   4 -13  -2 0.39823 0.21368   1
   4 -13  -2 0.02022 0.13168   2
   4  13  -2 0.07867 0.12244   1
   4  13  -2 0.00985 0.11783   3
   4  13  -2 0.22733 0.12244   1
   3 -13  -2 3.48716 1.23644   1
   3 -13  -2 1.28705 0.94255   4
   3 -13  -2 2.77229 0.55064   1
   3 -13  -2 2.69579 0.54721   4
   3 -13  -2 3.30355 0.58920   1
   3 -13  -2 2.70585 0.61816   4
   3  13  -2 2.71420 0.47200   3
   3  13  -2 2.93867 0.34882   1
   3  13  -2 1.78974 0.98335   3
   3  13  -2 3.38336 0.54939   1
   2 -13  -2 1.44414 0.75641   2
   2 -13  -2 0.59924 0.32421   2
   2 -13  -2 0.58948 0.23581   2
   2 -13  -2 0.00000 0.40683   1
   2 -13  -2 -0.0786 0.53045   2
   2 -13  -2 0.38561 0.21317   3
   2 -13  -2 0.03044 0.33492   3
   2  13  -2 0.47433 0.22730   1
   2  13  -2 0.67879 0.21725   2
   2  13  -2 0.70594 0.39827   2
   2  13  -2 0.55206 0.19909   2
   2  13  -2 0.74216 0.51593   2
   2  13  -2 0.44469 0.19766   1
   2  13  -2 0.50685 0.21725   2
   1 -13  -2 -0.1282 0.29592   2
   1 -13  -2 -0.1775 0.27613   2
   1  13  -2 1.31158 0.34917   2
   1  13  -2 2.22696 0.41524   2
   1  13  -2 1.28328 0.16043   2
   0 -13   2 2.17738 0.53462   2
   0  13   2 2.33845 0.59680   2
   0  13   2 2.30910 0.57728   2
   0  13   2 1.67594 0.29634   1
   1 -13   2 3.11705 0.79394   2
   1 -13   2 2.76937 0.80435   1
   1  13   2 2.59767 0.38108   1
   1  13   2 3.24103 0.66342   2
   1  13   2 3.94238 0.76760   2
   2 -13   2 0.07838 0.02937   2
   2 -13   2 0.06856 0.04891   2
   2 -13   2 0.11747 0.06856   2
   2 -13   2 0.13711 0.10775   2
   2 -13   2 0.04891 0.04891   2
   2 -13   2 0.11747 0.03919   2
   2 -13   2 0.07838 0.08810   2
   2  13   2 0.02717 0.01808   2
   2  13   2 0.04526 0.06344   2
   2  13   2 0.04526 0.03626   2
   2  13   2 -0.0091 0.05435   2
   2  13   2 0.00000 0.02794   1
   2  13   2 0.03626 0.01808   2
   2  13   2 0.01808 0.02717   2
   2  13   2 -0.0272 0.04526   2
   2  13   2 0.00000 0.01860   1
   3 -13   2 0.30481 0.38603   4
   3 -13   2 0.44708 1.04640   4
   3 -13   2 0.70061 0.25299   1
   3 -13   2 0.89523 0.38925   1
   3 -13   2 1.34285 0.91465   1
   3 -13   2 0.32509 0.45716   4
   3  13   2 1.02844 0.57524   1
   3  13   2 0.40206 0.37264   3
   3  13   2 0.64491 0.17432   1
   3  13   2 0.65366 0.17432   1
   3  13   2 0.45320 0.27888   1
   3  13   2 1.44675 0.34864   1
   3  13   2 0.57524 0.17432   1
   4 -13   2 0.52230 0.28576   1
   4 -13   2 0.22665 0.48286   1
   5 -13   2 0.62301 0.44804   3
   5  13   2 0.65711 0.17833   4
   5  13   2 0.49321 0.32876   1
   5 -14  -2 3.85079 0.93875   3
   5  14  -2 3.46133 0.56549   4
   4 -14  -2 2.29149 0.55349   1
   4 -14  -2 3.00997 1.37881   1
   4  14  -2 1.87787 0.33801   3
   4  14  -2 2.37158 0.42473   1
   3 -14  -2 -0.2203 0.26819   1
   3 -14  -2 0.03834 0.09580   1
   3 -14  -2 0.08619 0.11492   1
   3 -14  -2 0.14366 0.10541   1
   3 -14  -2 0.01912 0.20122   1
   3  14  -2 0.05151 0.06013   1
   3  14  -2 -0.1718 0.17177   1
   3  14  -2 -0.0429 0.06013   1
   3  14  -2 0.08588 0.04290   1
   2 -14  -2 4.53690 1.10636   3
   2 -14  -2 4.23239 1.09617   3
   2 -14  -2 6.05019 0.72209   2
   2 -14  -2 4.85159 0.92361   3
   2 -14  -2 4.45576 0.78148   3
   2 -14  -2 5.28804 0.65972   3
   2  14  -2 5.77699 0.55617   2
   2  14  -2 5.49772 0.62202   1
   2  14  -2 4.75591 0.62294   3
   2  14  -2 5.49839 0.61092   1
   2  14  -2 6.50358 1.19305   2
   1 -14  -2 8.54988 0.85090   1
   1 -14  -2 7.97242 1.37766   1
   1 -14  -2 8.64103 1.22575   1
   1  14  -2 7.74247 1.21039   1
   1  14  -2 7.12228 1.17036   1
   1  14  -2 7.99262 0.80031   1
   1  14  -2 8.40271 0.86031   1
   0  14  -2 0.16286 0.33523   2
   0  14  -2 0.15325 0.14364   2
   1 -14   2 7.00574 1.36251   1
   1 -14   2 9.03936 1.33202   1
   1 -14   2 9.52740 0.91507   1
   1  14   2 10.0408 0.88568   1
   1  14   2 8.11029 0.91553   1
   1  14   2 8.84664 1.17426   1
   1  14   2 9.14520 1.24393   1
   2 -14   2 0.92678 0.79438   3
   2 -14   2 1.40289 0.35072   1
   2 -14   2 1.55876 0.97419   1
   2 -14   2 0.76384 0.56013   3
   2 -14   2 1.20179 0.46850   3
   2 -14   2 1.76339 0.38971   1
   2 -14   2 0.89624 0.33610   3
   2  14   2 1.09367 0.24629   3
   2  14   2 1.23349 0.27826   3
   2  14   2 0.84738 0.50246   3
   2  14   2 1.22376 0.28243   3
   2  14   2 1.78537 0.65497   2
   2  14   2 1.22376 0.26354   3
   2  14   2 1.23185 0.26942   3
   2  14   2 1.26503 0.29608   2
   2  14   2 1.14299 0.56166   3
   3 -14   2 2.79239 1.12476   1
   3 -14   2 1.25080 0.48482   1
   3 -14   2 0.84380 0.93526   4
   3 -14   2 1.48343 0.45574   1
   3 -14   2 1.08091 0.46471   4
   3  14   2 1.16868 0.24920   1
   3  14   2 1.05014 0.24533   3
   3  14   2 0.80481 0.30430   3
   3  14   2 1.25462 0.66166   1
   3  14   2 1.09998 0.39531   1
   4 -14   2 6.91242 1.56337   3
   4 -14   2 2.64125 0.82921   2
   4  14   2 3.26095 0.53696   4
   4  14   2 3.47613 0.42890   1
   5 -14   2 4.12044 0.79902   4
   5  14   2 5.62043 0.53310   4
   5  14   2 4.67590 0.56114   4
   5 -15  -2 0.02862 0.02862   3
   5 -15  -2 0.01905 0.07640   3
   5  15  -2 -0.0189 0.02836   4
   5  15  -2 0.01887 0.01887   4
   4 -15  -2 1.25092 1.13449   1
   4 -15  -2 0.55276 0.36844   1
   4  15  -2 0.18788 0.25712   2
   4  15  -2 0.23738 0.31644   2
   3 -15  -2 0.94065 0.38951   1
   3 -15  -2 1.12116 1.11163   1
   3 -15  -2 2.15683 0.94065   1
   3  15  -2 0.99271 0.23754   1
   3  15  -2 1.49332 0.39882   1
   3  15  -2 0.88241 0.79755   1
   3  15  -2 1.54421 0.26307   1
   2 -15  -2 1.32974 0.85759   1
   2 -15  -2 0.98452 0.55823   3
   2 -15  -2 1.00488 0.93382   3
   2 -15  -2 1.11647 0.47709   3
   2 -15  -2 1.87891 0.35655   1
   2  15  -2 1.60488 0.34772   2
   2  15  -2 1.87238 0.68649   2
   1 -15  -2 4.19888 0.61715   3
   1 -15  -2 4.65513 0.68427   2
   1 -15  -2 4.08755 1.09273   3
   1  15  -2 5.56414 0.67030   2
   1  15  -2 4.83877 0.56926   2
   1  15  -2 5.16010 0.57847   2
   1  15  -2 3.23493 0.85868   1
   1  15  -2 5.75690 1.00995   2
   0  15  -2 0.37813 0.44431   2
   1 -15   2 -0.0673 0.16336   2
   1 -15   2 0.21135 0.07691   2
   1 -15   2 0.02882 0.18254   2
   1 -15   2 0.16336 0.09609   2
   1  15   2 -0.1012 0.13793   2
   1  15   2 0.14716 0.15639   2
   1  15   2 0.10121 0.06440   2
   1  15   2 0.12880 0.08276   2
   1  15   2 0.00923 0.04595   2
   2 -15   2 1.65998 0.93694   3
   2 -15   2 5.00326 0.63627   1
   2 -15   2 2.82094 0.52956   3
   2 -15   2 3.33349 0.63069   3
   2 -15   2 2.77007 0.61108   3
   2 -15   2 4.01037 0.76160   1
   2  15   2 2.99838 0.44382   3
   2  15   2 3.31667 0.47380   3
   2  15   2 2.85048 0.46360   3
   2  15   2 2.97870 0.69046   3
   2  15   2 2.74195 0.83836   3
   2  15   2 3.33696 0.42759   1
   3 -15   2 0.80198 0.44446   1
   3 -15   2 0.76331 0.40579   1
   3 -15   2 2.47350 1.16910   1
   3 -15   2 -0.7439 0.86953   1
   3  15   2 0.84968 0.67129   1
   3  15   2 0.79027 0.22945   1
   3  15   2 0.76470 0.27189   1
   3  15   2 0.82419 0.21240   1
   4 -15   2 2.70656 1.23554   3
   4 -15   2 1.59840 0.55900   3
   4  15   2 1.72540 0.32865   1
   4  15   2 1.46374 0.38570   2
   5 -15   2 -0.0868 0.22176   3
   5  15   2 0.18270 0.30915   1
   5 -16  -2 0.40875 0.20909   3
   5 -16  -2 0.21151 0.83357   1
   5  16  -2 0.27703 0.21181   1
   5  16  -2 0.34614 0.27396   4
   4 -16  -2 8.80903 2.01125   1
   4 -16  -2 7.88187 1.07621   2
   4  16  -2 9.83499 0.91531   1
   4  16  -2 8.21194 0.92969   4
   3 -16  -2 1.64485 0.53503   4
   3 -16  -2 2.63192 1.27352   1
   3  16  -2 3.19426 0.54782   1
   3  16  -2 1.84576 0.31187   1
   2 -16  -2 6.28169 0.70109   1
   2 -16  -2 3.28855 0.72061   3
   2 -16  -2 4.36782 0.82426   1
   2 -16  -2 3.72357 1.12753   1
   2  16  -2 3.43929 0.97850   4
   2  16  -2 4.45054 0.52363   1
   2  16  -2 3.57792 0.50612   1
   2  16  -2 4.50288 0.47994   1
   2  16  -2 4.65125 0.54980   1
   1 -16  -2 0.99135 0.30349   3
   1  16  -2 1.30916 0.62731   2
   1  16  -2 1.46373 0.30002   2
   0  16  -2 29.4058 2.49077   3
   0  16   2 22.2090 2.48997   3
   1 -16   2 1.47683 0.37157   2
   1 -16   2 -0.2001 0.62885   2
   1  16   2 1.11837 0.58189   2
   1  16   2 0.62609 0.26700   3
   1  16   2 0.65468 0.22728   2
   1  16   2 1.04568 0.62741   2
   1  16   2 1.03656 0.30919   2
   2 -16   2 7.42124 1.03843   1
   2 -16   2 4.97936 0.76371   3
   2 -16   2 4.84698 0.88586   3
   2 -16   2 3.98144 1.19137   3
   2  16   2 6.07972 0.62289   3
   2  16   2 6.05214 0.72076   3
   2  16   2 5.78555 1.15511   3
   2  16   2 6.14587 0.72532   3
   3 -16   2 0.02890 0.09638   1
   3 -16   2 0.00000 0.20243   1
   3  16   2 0.00000 0.04217   1
   3  16   2 0.00000 0.08444   1
   3  16   2 -0.0085 0.05064   1
   4 -16   2 5.51363 0.80163   3
   4 -16   2 5.59178 1.24152   3
   4  16   2 4.83651 0.60460   2
   4  16   2 4.83651 0.77581   2
   5 -16   2 0.00000 0.10121   1
   5  16   2 0.01851 0.06495   4
   5  16   2 0.01851 0.03713   4
   4 -17  -2 0.17322 0.22140   3
   4 -17  -2 0.10592 0.53907   3
   4  17  -2 -0.1425 0.14247   1
   4  17  -2 -0.1330 0.19956   1
   3 -17  -2 0.35672 0.15020   1
   3 -17  -2 0.16894 0.27225   1
   3  17  -2 0.08441 0.11819   1
   3  17  -2 0.02531 0.05063   1
   2 -17  -2 0.10251 0.11176   1
   2 -17  -2 0.05588 0.14904   1
   2  17  -2 0.02564 0.16244   1
   2  17  -2 -0.0086 0.05986   1
   2  17  -2 -0.0086 0.07693   1
   2  17  -2 0.00000 0.04271   1
   1 -17  -2 1.37715 0.32787   1
   1  17  -2 1.15937 0.78956   3
   1  17  -2 1.37416 0.31433   1
   0  17   2 3.23134 0.53699   2
   1 -17   2 1.35175 0.41308   1
   1  17   2 1.62089 0.35822   1
   1  17   2 0.79643 0.66702   3
   1  17   2 1.06568 0.32238   1
   2 -17   2 0.91323 0.75325   1
   2  17   2 0.13838 0.73125   3
   2  17   2 0.18774 0.27666   3
   2  17   2 0.51997 0.23019   1
   2  17   2 0.34947 0.19607   1
   3 -17   2 0.92479 0.45278   1
   3 -17   2 1.12703 1.00180   1
   3  17   2 0.39730 0.16906   1
   3  17   2 0.32964 0.29581   1
   3  17   2 0.32456 0.18549   3
   4 -17   2 0.69164 0.39937   3
   4 -17   2 -0.0292 0.71118   3
   4  17   2 0.49144 0.36858   1
   4  17   2 0.52507 0.15941   1
   4 -18  -2 0.50071 0.29205   1
   4 -18  -2 1.52293 1.03447   3
   4  18  -2 0.87300 0.28469   4
   4  18  -2 0.69273 0.21825   4
   3 -18  -2 4.57883 1.60449   1
   3  18  -2 4.20787 0.58278   3
   3  18  -2 4.78813 0.58140   1
   2 -18  -2 -0.1285 0.33024   1
   2  18  -2 -0.0253 0.41257   1
   2  18  -2 0.08420 0.13471   1
   1 -18  -2 2.61910 0.49550   3
   1  18  -2 2.18993 0.84997   3
   0  18   2 27.2785 2.59968   1
   1  18   2 0.61017 0.30979   3
   2 -18   2 0.94674 0.40720   3
   2 -18   2 1.47230 0.67091   1
   2 -18   2 2.74888 1.16479   1
   2  18   2 1.86259 0.32721   1
   2  18   2 1.28584 0.40550   3
   2  18   2 1.66962 0.68800   1
   3 -18   2 1.63940 1.35423   2
   3 -18   2 1.62919 0.60077   2
   3  18   2 1.86271 0.29075   4
   3  18   2 2.62615 0.37643   1
   4 -18   2 2.04687 0.89420   1
   4 -18   2 3.20236 0.62102   3
   4  18   2 2.02750 0.30517   2
   4  18   2 2.59499 0.41076   4
   4 -19  -2 1.57852 0.82275   3
   4  19  -2 2.38240 0.36870   4
   4  19  -2 1.57200 0.28804   1
   3 -19  -2 2.72768 0.94378   1
   3  19  -2 1.05360 0.45023   4
   3  19  -2 0.88076 0.26722   2
   2 -19  -2 0.24475 0.50760   1
   2  19  -2 0.12535 0.20065   1
   1 -19  -2 2.19301 0.44758   1
   0  19   2 1.62737 0.33424   1
   1  19   2 -0.0682 0.10227   1
   2  19   2 0.46597 0.19973   1
   2  19   2 0.24746 0.25739   3
   2  19   2 0.03962 0.21777   3
   3 -19   2 0.04088 0.88858   2
   3  19   2 0.13829 0.27647   2
   3  19   2 0.12838 0.12838   2
   4 -19   2 0.26093 0.61839   3
   4 -19   2 -0.0966 0.25123   3
   4  19   2 -0.0836 0.15794   4
   4 -20  -2 1.08145 0.80821   1
   4  20  -2 1.59132 0.29195   4
   4  20  -2 1.41309 0.26580   1
   3 -20  -2 3.71157 1.42529   1
   3  20  -2 3.12784 0.49048   1
   2 -20  -2 0.47755 0.39648   1
   2  20  -2 0.02519 0.10918   1
   1  20  -2 2.29220 0.46045   3
   2  20   2 0.05006 0.12515   1
   2  20   2 0.01978 0.12880   3
   3 -20   2 6.37983 1.43180   1
   3  20   2 5.87283 0.74032   2
   3  20   2 6.82116 0.65267   1
   4 -20   2 0.02339 0.25780   1
   4  20   2 -0.0184 0.07398   4
   4 -21  -2 0.39546 0.42370   3
   4  21  -2 0.10356 0.27622   1
   3 -21  -2 4.15109 1.25968   4
   3  21  -2 1.83356 0.37051   4
   2 -21  -2 0.79544 0.50621   1
   2  21  -2 0.09443 0.14590   1
   2  21  -2 0.01986 0.09951   3
   2  21   2 0.37431 0.22969   1
   3 -21   2 1.16364 0.78545   4
   3  21   2 0.65054 0.29943   2
   4  21   2 -0.0276 0.09192   4
   3 -22  -2 0.83413 1.08057   4
   3  22  -2 0.91728 0.28372   4
   2 -22  -2 2.59714 1.49130   2
   2  22  -2 3.64902 0.61984   2
   1  22  -2 2.65639 0.45271   1
   1  22   2 2.41345 0.37264   3
   2 -22   2 4.28283 1.31051   1
   2  22   2 3.08359 0.50510   1
   3 -22   2 1.17658 0.64619   4
   3  22   2 0.50071 0.21329   4
   3 -23  -2 0.00944 0.13180   4
   3  23  -2 -0.0377 0.03766   4
   2 -23  -2 1.98903 0.83348   1
   1  23   2 0.57251 0.25154   1
   2 -23   2 0.14485 0.29950   1
   2  23   2 0.02793 0.05587   1
   3 -23   2 0.24927 0.27803   4
   3  23   2 0.13821 0.09217   4
   3 -24  -2 -0.1681 0.25230   4
   3  24  -2 -0.0281 0.05615   4
   2 -24  -2 2.28974 0.83864   4
   2  24  -2 2.15007 0.35048   4
   1  24  -2 0.77084 0.27260   1
  -1  24   2 0.08111 0.26346   2
   1  24   2 0.20223 0.19310   1
   1  24   2 0.10073 0.15104   2
   2 -24   2 3.55525 1.04739   4
   2  24   2 3.38517 0.43594   4
   3 -24   2 0.42396 0.41407   4
   3  24   2 0.42337 0.15117   4
   2 -25  -2 1.21534 0.60767   4
   2  25  -2 0.78167 0.27309   4
   1 -25  -2 0.92872 0.79737   4
   1  25  -2 0.70340 0.21864   4
   0 -25  -2 0.00000 0.02879   1
   1  25   2 0.08370 0.10236   4
   2 -25   2 0.97367 0.58225   4
   2  25   2 0.81802 0.23045   4
   2  26  -2 0.71084 0.24665   4
   1 -26  -2 0.40918 0.75191   1
   1  26  -2 0.78347 0.19836   4
   0 -26  -2 1.12719 0.53678   1
   0  26   2 1.73902 0.26834   1
   1 -26   2 0.71342 0.73639   1
   1  26   2 0.62050 0.21067   1
   1  27  -2 0.01873 0.01873   4
   0  27   2 -0.0184 0.01839   4
   0  27  -2 0.00000 0.02645   1
   1 -27   2 0.01885 0.04717   4
   5   0  -3 0.05997 0.15996   2
   5   0  -3 0.15905 0.27830   3
   5   0  -3 0.76898 0.35566   1
   5   0  -3 0.19224 0.34602   1
   3   0  -3 0.17372 0.11581   2
   3   0  -3 0.08686 0.23173   2
   3   0  -3 0.01001 0.08982   1
   3   0  -3 0.24131 0.15445   2
   1   0  -3 305.421 24.8577   3
   1   0  -3 305.334 24.2374   4
   1   0  -3 305.493 24.2432   3
   1   0  -3 287.705 28.7653   2
  -1   0   3 307.378 23.8568   1
   1   0  -3 305.122 24.4356   2
   1   0  -3 303.035 25.3934   2
   1   0  -3 300.459 25.7495   2
   1   0  -3 303.329 25.4353   2
   1   0  -3 278.480 27.1527   2
  -1   0   3 305.328 24.3777   2
  -1   0  -3 15.1777 1.36260   4
  -1   0  -3 16.0231 1.44222   4
   1   0   3 14.8793 1.32279   4
   1   0   3 15.3269 1.35262   4
   1   0   3 15.0782 1.41239   4
   1   0   3 17.3857 1.48192   4
   1   0   3 15.0683 1.25316   4
   1   0   3 14.2406 1.46248   4
   1   0   3 14.5810 1.41239   4
   1   0   3 15.5656 1.36260   4
   3   0   3 -0.3081 0.30815   2
   3   0   3 0.61629 0.41412   2
   5   0   3 0.21300 0.22271   1
   5   0   3 0.07751 0.10655   1
   6  -1  -3 0.44640 0.49880   1
   5  -1  -3 2.78475 0.60707   1
   5  -1  -3 2.92924 0.62631   1
   5   1  -3 2.61603 0.59410   1
   5   1  -3 2.18457 0.59855   2
   5   1  -3 2.79808 0.58449   1
   5   1  -3 2.35728 0.38332   1
   4  -1  -3 0.40793 0.28461   1
   4  -1  -3 0.39841 0.24664   1
   4  -1  -3 0.99607 0.37948   1
   4  -1  -3 0.95811 0.24664   1
   4  -1  -3 -0.1233 0.42686   1
   4  -1  -3 0.92966 0.62612   1
   4   1  -3 0.99533 0.38493   1
   4   1  -3 0.00000 0.24412   1
   4   1  -3 0.61031 0.45067   1
   4   1  -3 0.82627 0.28170   1
   4   1  -3 0.46009 0.18780   1
   4   1  -3 0.09882 0.32610   3
   4   1  -3 0.28170 0.40377   1
   3  -1  -3 4.87859 0.67978   1
   3  -1  -3 6.87408 1.01804   2
   3  -1  -3 5.11845 0.68981   1
   3  -1  -3 4.64866 0.83972   1
   3   1  -3 5.17322 0.81736   1
   3   1  -3 3.53850 0.60800   1
   3   1  -3 4.38576 0.77747   1
   3   1  -3 4.92407 1.00673   1
   2  -1  -3 1.82785 0.34765   3
   2  -1  -3 1.92720 0.36758   3
   2  -1  -3 1.88744 0.61589   3
   2  -1  -3 2.06620 0.46693   3
   2   1  -3 1.85593 0.40469   3
   2   1  -3 2.13229 0.49361   3
   2   1  -3 2.65551 0.66145   3
   2   1  -3 2.04347 0.32577   3
   1  -1  -3 24.7665 1.68866   1
   1  -1  -3 24.7468 1.89597   1
   1  -1  -3 24.4901 1.77751   1
  -1  -1   3 19.1190 1.80937   4
  -1  -1   3 19.3074 1.80153   1
   1   1  -3 19.1221 1.82590   3
   1   1  -3 19.1605 1.75252   1
   1   1  -3 19.1191 2.11889   2
   1   1  -3 19.1997 1.74280   1
   1   1  -3 20.9033 1.84071   1
   1   1  -3 19.6402 1.67425   1
   1   1  -3 19.1190 1.72577   2
   0  -1   3 6.60442 0.65932   1
   0  -1   3 6.84927 0.63954   3
   0  -1  -3 6.81620 0.74655   2
   0  -1   3 6.28012 0.56207   1
   0  -1   3 5.72890 0.73500   1
   0  -1  -3 6.28208 0.56418   1
   0  -1  -3 6.49909 0.69434   1
   0  -1   3 5.77216 0.56207   1
   0  -1  -3 6.81944 0.60992   4
   0   1   3 6.73776 0.66180   1
   0   1  -3 6.84947 0.73881   3
   0   1  -3 6.56116 0.71343   1
   0   1   3 6.77030 0.66180   1
   0   1  -3 6.26939 0.56207   1
   0   1  -3 5.73974 0.71343   1
   0   1   3 6.32551 0.56418   1
   0   1  -3 6.82092 0.65417   3
   0   1   3 6.83223 0.72027   4
   1  -1   3 75.9365 6.10104   4
   1  -1   3 74.7093 6.78396   1
   1  -1   3 68.5834 6.51426   1
   1  -1   3 77.3521 6.28071   4
  -1  -1  -3 76.2326 6.23658   4
  -1  -1  -3 79.4053 6.18721   4
   1  -1   3 75.6220 6.08963   4
   1  -1   3 75.8395 6.26071   4
   1   1   3 75.9970 6.54233   4
   1   1   3 76.6675 6.21686   4
   1   1   3 76.0487 6.44934   4
   1   1   3 75.7090 6.39373   4
   1   1   3 81.5006 6.64177   4
  -1   1  -3 75.6934 6.32952   4
  -1   1  -3 81.4191 6.28071   4
   1   1   3 75.8467 6.13350   4
   1   1   3 75.7780 5.83140   4
   1   1   3 78.3181 6.18721   4
   1   1   3 70.8368 6.80183   1
   2  -1   3 0.04052 0.03036   1
   2  -1   3 0.02021 0.03036   1
   2  -1   3 -0.1294 0.17911   4
   2  -1   3 0.04052 0.11140   1
  -2  -1  -3 -0.0493 0.12837   4
   2  -1   3 -0.0398 0.12939   4
   2  -1   3 -0.0199 0.09954   4
   2  -1   3 -0.0398 0.07967   4
   2  -1   3 0.26877 0.15924   4
   2   1   3 0.19751 0.19751   4
   2   1   3 0.04933 0.10866   4
   2   1   3 0.07905 0.13828   4
   2   1   3 -0.1679 0.16790   4
  -2   1  -3 -0.0100 0.07967   4
   2   1   3 0.03048 0.03048   1
  -2   1  -3 0.09954 0.12939   4
   2   1   3 -0.0493 0.07905   4
   2   1   3 0.01019 0.04067   1
   2   1   3 0.11847 0.09876   4
   2   1   3 0.04067 0.09143   1
   3  -1   3 4.36777 0.70637   3
   3  -1   3 4.47714 0.84569   3
   3   1   3 3.52737 0.69363   1
   3   1   3 5.93546 0.87256   2
   3   1   3 4.38946 0.83227   1
   4  -1   3 0.21857 0.30407   1
   4  -1   3 -0.4371 0.43714   1
   4  -1   3 0.09921 0.16866   4
   4  -1   3 -0.0095 0.21857   1
   4  -1   3 -0.0475 0.38014   1
   4  -1   3 0.13869 0.17822   3
   4   1   3 0.29146 0.23498   1
   4   1   3 0.14097 0.22564   1
   4   1   3 0.07909 0.27661   3
   4   1   3 0.17859 0.26317   1
   4   1   3 0.00000 0.15040   1
   5  -1   3 2.71565 0.65091   2
   5   1   3 3.88361 0.49266   1
   6  -2  -3 0.52574 0.53878   1
   5  -2  -3 0.24174 0.28194   2
   5  -2  -3 0.07051 0.46326   2
   5  -2  -3 0.95599 0.46347   1
   5   2  -3 0.88850 0.32485   1
   5   2  -3 0.91715 0.23880   1
   5   2  -3 0.80245 0.41081   1
   4  -2  -3 0.05714 0.16197   1
   4  -2  -3 0.06670 0.16197   1
   4  -2  -3 -0.0286 0.07626   1
   4  -2  -3 0.03813 0.09527   1
   4  -2  -3 -0.0096 0.06670   1
   4  -2  -3 -0.0476 0.05714   1
   4   2  -3 0.00000 0.09333   1
   4   2  -3 -0.0466 0.06534   1
   4   2  -3 0.14931 0.07470   1
   4   2  -3 0.01863 0.10269   1
   4   2  -3 -0.0094 0.09333   1
   4   2  -3 0.16793 0.13068   1
   4   2  -3 0.01863 0.04662   1
   4   2  -3 0.06534 0.05598   1
   3  -2  -3 -0.0194 0.12652   2
   3  -2  -3 0.07790 0.10709   2
   3   2  -3 0.00000 0.07884   1
   3   2  -3 -0.0765 0.11460   2
   3   2  -3 0.00958 0.04772   2
   3   2  -3 0.04772 0.07647   2
   2  -2  -3 0.07979 0.03989   2
   2  -2  -3 0.12958 0.02989   2
   2  -2  -3 0.03989 0.01000   2
   2  -2  -3 0.02989 0.02989   2
   2  -2  -3 0.08968 0.02989   2
   2  -2  -3 0.03989 0.02989   2
   2  -2  -3 0.12958 0.07979   2
   2  -2  -3 0.01990 0.05979   2
   2  -2  -3 0.07979 0.02989   2
   2  -2  -3 0.02989 0.01000   2
   2   2  -3 0.00000 0.08165   1
   2   2  -3 -0.0099 0.04919   3
   2   2  -3 0.01966 0.02954   3
  -2   2   3 0.01000 0.01990   2
   2   2  -3 -0.0295 0.03942   3
  -2   2   3 0.03989 0.01990   2
   1  -2  -3 -0.0100 0.00997   1
   1  -2  -3 -0.0497 0.04965   1
   1  -2  -3 -0.0100 0.02981   1
   1  -2  -3 0.00000 0.01013   1
   1  -2  -3 -0.0298 0.02981   1
   1  -2  -3 0.00997 0.02981   1
  -1  -2   3 -0.0195 0.02933   1
  -1  -2   3 -0.0098 0.01952   1
   1  -2  -3 -0.0198 0.02981   1
   1  -2  -3 -0.0198 0.01984   1
   1  -2  -3 0.03978 0.03978   1
   1   2  -3 -0.0195 0.02933   1
  -1   2   3 -0.0198 0.01984   1
   1   2  -3 0.00000 0.01020   1
   1   2  -3 -0.0195 0.01952   1
   1   2  -3 0.00000 0.01020   1
   1   2  -3 -0.0098 0.01952   1
  -1   2   3 0.00997 0.02981   1
   1   2  -3 0.00000 0.03048   1
   1   2  -3 0.00000 0.01020   1
   1   2  -3 0.00000 0.03048   1
   0  -2  -3 12.4751 1.05709   4
   0  -2   3 11.5030 1.01655   2
   0  -2   3 11.5672 1.11283   2
   0  -2   3 12.1852 1.11834   3
   0  -2   3 11.6528 1.25193   2
   0  -2  -3 13.8912 1.12681   4
   0  -2   3 11.4281 0.99519   2
   0  -2  -3 12.1032 1.03653   1
   0  -2  -3 12.4552 1.08700   4
   0   2  -3 12.1773 1.15927   3
   0   2  -3 12.1769 1.06107   3
   0   2   3 12.4452 1.05709   4
   0   2   3 12.1772 1.07901   3
   0   2   3 12.2558 1.08700   4
   0   2  -3 10.7005 1.24131   2
   0   2  -3 11.8348 1.20911   2
   0   2  -3 11.8454 1.01655   2
   0   2   3 12.2284 1.00843   4
   1  -2   3 7.22083 0.91866   1
   1  -2   3 7.49239 0.80607   4
  -1  -2  -3 7.78359 0.87580   4
   1  -2   3 6.48378 0.83316   1
   1  -2   3 7.60254 0.61503   4
   1  -2   3 6.66539 0.79041   1
   1  -2   3 7.89504 0.77634   4
  -1  -2  -3 7.98040 0.70850   4
   1  -2   3 6.47317 0.64094   1
  -1   2  -3 7.70337 0.75622   4
   1   2   3 7.11534 0.74956   2
   1   2   3 7.19139 0.65182   2
   1   2   3 7.72456 0.82654   4
   1   2   3 7.51556 0.62455   4
   1   2   3 7.57617 0.75765   4
   1   2   3 7.49309 0.75765   4
   1   2   3 6.75685 0.78214   2
  -1   2  -3 7.81432 0.89741   4
   1   2   3 7.72456 0.73801   4
   1   2   3 7.46000 0.85661   4
   2  -2   3 0.30309 0.42429   1
   2  -2   3 0.27280 0.28283   1
   2  -2   3 0.27280 0.19193   1
   2  -2   3 0.02016 0.37383   1
   2  -2   3 0.51519 0.11117   1
   2  -2   3 0.43443 0.24250   1
   2  -2   3 0.41416 0.09090   1
   2  -2   3 0.45459 0.26266   1
   2   2   3 0.95482 0.38390   3
   2   2   3 0.78755 0.20676   3
  -2   2  -3 0.45459 0.31323   1
  -2   2  -3 0.22223 0.19193   1
   2   2   3 0.60035 0.19331   1
   3  -2   3 1.57546 0.58830   3
   3  -2   3 1.65518 0.65811   3
   3   2   3 2.04910 0.59365   3
   3   2   3 2.44241 0.62012   2
   4  -2   3 0.43745 0.41751   4
   4  -2   3 0.05963 0.20880   4
   4  -2   3 0.50634 0.28661   1
   4  -2   3 0.45852 0.34391   1
   4  -2   3 0.36785 0.61634   4
   4   2   3 0.70099 0.29907   1
   4   2   3 0.35506 0.30579   3
   4   2   3 1.09354 0.45798   1
   4   2   3 0.54208 0.33648   1
   4   2   3 0.53280 0.22435   1
   5  -2   3 0.02915 0.16528   1
   5   2   3 -0.0192 0.09638   1
   6  -3  -3 2.29015 0.59283   4
   5  -3  -3 0.00000 0.46121   1
   5  -3  -3 1.64497 0.48384   1
   5   3  -3 0.12953 0.41848   2
   5   3  -3 1.75286 0.82875   1
   5   3  -3 1.06697 0.40009   1
   5   3  -3 0.74304 0.23812   1
   4  -3  -3 3.53288 0.53735   3
   4  -3  -3 4.27379 0.81269   1
   4  -3  -3 3.71034 1.07564   3
   4  -3  -3 3.38364 0.66683   3
   4  -3  -3 3.29410 0.65684   3
   4  -3  -3 3.54286 1.06482   3
   4   3  -3 3.48841 0.65039   3
   4   3  -3 3.80947 1.10303   1
   4   3  -3 3.89296 0.50047   1
   4   3  -3 4.48613 0.88984   1
   4   3  -3 4.01345 0.55616   1
   4   3  -3 4.05045 0.63956   1
   3  -3  -3 0.22048 0.55125   1
   3  -3  -3 0.44025 0.49894   4
   3   3  -3 0.90183 0.58856   2
   3   3  -3 0.32795 0.38756   1
   3   3  -3 0.04964 0.23854   1
   2  -3  -3 19.0510 1.66236   1
   2  -3  -3 17.3274 1.67259   1
   2  -3  -3 19.3263 1.54001   1
   2  -3  -3 20.5297 1.68282   1
   2  -3  -3 20.3156 1.90716   1
   2  -3  -3 19.9280 1.54001   1
   2  -3  -3 18.4696 2.17232   1
   2  -3  -3 19.3365 1.70317   1
  -2   3   3 17.0521 1.64200   1
   2   3  -3 17.8666 1.91029   1
  -2   3   3 17.8271 1.64200   1
   2   3  -3 20.0528 2.12475   1
   2   3  -3 17.6010 1.57317   1
  -1  -3   3 0.02138 0.25711   2
   1   3  -3 0.24492 0.21554   1
   1   3  -3 0.27431 0.20581   1
   1   3  -3 0.21554 0.28414   1
   0  -3  -3 18.5897 1.57492   4
   0  -3   3 17.8023 1.74986   1
   0  -3   3 17.8150 1.38722   3
   0  -3  -3 17.7290 1.56818   2
   0  -3   3 17.8056 1.60305   4
   0  -3  -3 17.9790 1.57817   4
   0  -3  -3 17.8279 1.67074   4
   0  -3   3 17.8055 1.52646   4
   0  -3  -3 19.5764 1.61471   4
   0  -3   3 17.2090 1.69942   2
   0   3  -3 19.5116 1.74652   3
   0   3   3 17.8140 1.59886   4
   0   3   3 17.8041 1.60940   4
   0   3   3 18.1709 1.58481   4
   0   3  -3 19.0525 1.58684   3
   0   3   3 17.8120 1.64947   4
   0   3  -3 18.2341 1.67674   3
   0   3   3 17.8047 1.55387   3
   0   3  -3 17.7037 1.73168   2
   0   3  -3 17.8025 1.52958   1
   1  -3   3 1.08912 0.34897   1
   1  -3   3 1.22670 0.33836   1
   1  -3   3 1.26110 0.43772   4
   1  -3   3 1.12095 0.17979   1
  -1  -3  -3 1.45303 0.38288   3
   1  -3   3 1.05741 0.39129   1
   1  -3   3 0.78247 0.15857   1
   1  -3   3 0.86712 0.32786   1
   1   3   3 1.58066 0.27485   3
   1   3   3 1.25863 0.27121   2
   1   3   3 1.04162 0.18447   2
   1   3   3 1.70829 0.40248   3
   1   3   3 1.21521 0.30375   2
  -1   3  -3 0.75076 0.14807   1
   1   3   3 0.90058 0.15193   2
  -1   3  -3 1.40861 0.43579   4
   1   3   3 1.57081 0.31414   3
  -1   3  -3 1.08912 0.31726   1
   1   3   3 1.26440 0.31876   3
   2  -3   3 5.13793 0.44159   4
  -2  -3  -3 6.46125 0.61866   3
   2  -3   3 4.82552 0.65617   1
  -2  -3  -3 4.43801 0.67182   1
   2  -3   3 5.79030 0.69243   4
   2  -3   3 3.41221 0.56534   1
   2  -3   3 5.46909 0.64220   4
   2  -3   3 4.47222 0.43411   1
   2  -3   3 3.58375 0.62590   1
   2  -3   3 5.67988 0.88308   4
  -2   3  -3 5.15806 0.70250   4
   2   3   3 7.03076 0.84451   3
   2   3   3 5.94080 0.79536   3
   2   3   3 4.88029 0.41240   3
   2   3   3 4.53980 0.42749   1
   2   3   3 4.81455 0.55982   1
   2   3   3 4.38706 0.54961   1
   2   3   3 4.60086 0.55982   1
   2   3   3 5.42034 0.55976   3
   2   3   3 4.77392 0.52929   1
  -2   3  -3 4.77499 0.57547   1
   3  -3   3 0.55280 0.48490   2
   3  -3   3 0.64005 0.41701   2
   3   3   3 0.46478 0.42681   2
   3   3   3 0.42681 0.36992   2
   4  -3   3 1.02608 0.76706   4
   4  -3   3 2.47016 0.37778   4
   4  -3   3 1.72349 0.78705   4
   4  -3   3 2.84251 0.63383   1
   4  -3   3 2.69851 0.61456   1
   4  -3   3 2.66970 0.49936   1
   4   3   3 3.24231 0.51095   1
   4   3   3 2.23527 0.41355   3
   4   3   3 2.44199 0.46284   3
   4   3   3 2.63845 0.59454   1
   5  -3   3 0.77888 0.41864   3
   5  -3   3 1.07085 0.51600   3
   5  -3   3 0.62720 0.37018   2
   5   3   3 0.69203 0.22107   1
   5  -4  -3 0.03050 0.17288   2
   5  -4  -3 0.59116 0.23264   1
   5   4  -3 0.35203 0.29497   1
   4  -4  -3 -0.2206 0.22059   1
   4  -4  -3 0.04791 0.18220   1
   4  -4  -3 0.03839 0.21097   1
   4  -4  -3 0.14382 0.33564   1
   4  -4  -3 0.06715 0.09591   1
   4  -4  -3 0.05753 0.11506   1
   4   4  -3 0.19323 0.13795   1
   4   4  -3 0.17477 0.28523   1
   4   4  -3 0.11036 0.11036   1
   4   4  -3 0.15641 0.11959   1
   4   4  -3 0.51518 0.21159   1
   4   4  -3 0.12882 0.10123   1
   4   4  -3 0.29436 0.17477   1
   4   4  -3 0.12882 0.09200   1
   3  -4  -3 0.02937 0.08810   2
   3  -4  -3 0.13711 0.12729   2
   3   4  -3 -0.0660 0.11308   2
   3   4  -3 0.03773 0.08481   2
   2  -4  -3 9.18460 1.03271   2
  -2  -4   3 5.39867 0.60326   1
  -2  -4   3 5.58266 0.66459   1
   2  -4  -3 6.09181 0.54174   1
   2  -4  -3 6.95865 0.77202   2
   2  -4  -3 5.35589 0.71552   1
   2  -4  -3 8.18185 0.77202   2
   2  -4  -3 6.49741 0.54140   2
   2   4  -3 5.72584 0.60326   1
   2   4  -3 6.04275 0.59300   1
   2   4  -3 6.44985 0.50293   4
  -2   4   3 5.93843 0.69501   1
  -2   4   3 5.32523 0.66436   1
   2   4  -3 5.06125 0.61352   1
   2   4  -3 6.19618 1.08386   1
   2   4  -3 6.16551 0.95094   1
   1  -4  -3 0.00000 0.06154   1
  -1  -4   3 -0.0197 0.04918   1
   1  -4  -3 0.00000 0.02048   1
   1  -4  -3 0.00000 0.04106   1
   1  -4  -3 0.00000 0.07183   1
   1  -4  -3 -0.0101 0.01008   1
   1  -4  -3 0.05021 0.06030   1
  -1  -4   3 0.02953 0.06893   1
   1  -4  -3 -0.0502 0.06030   1
   1   4  -3 -0.0197 0.05906   1
   1   4  -3 -0.0099 0.00988   1
   1   4  -3 0.00000 0.07233   1
   1   4  -3 -0.0197 0.03941   1
  -1   4   3 -0.0101 0.05021   1
   1   4  -3 -0.0197 0.05906   1
   1   4  -3 0.00000 0.02062   1
   1   4  -3 -0.0492 0.04918   1
  -1   4   3 0.05021 0.05021   1
   1   4  -3 -0.0197 0.03941   1
   1   4  -3 -0.0197 0.01965   1
   0  -4   3 5.58309 0.75561   3
   0  -4   3 5.09462 0.71090   2
   0  -4   3 4.64226 0.86173   2
   0  -4   3 5.58412 0.51542   3
   0   4  -3 6.47079 0.68217   1
   0   4  -3 5.58395 0.74117   4
   0   4  -3 5.46088 0.50628   2
   0   4  -3 5.58367 0.91995   1
   0   4  -3 5.61404 0.67450   1
   1  -4   3 4.53909 0.69188   1
  -1  -4  -3 5.48047 0.80070   3
   1  -4   3 5.47058 0.75312   4
   1  -4   3 5.71481 0.49827   4
  -1  -4  -3 5.52838 0.76394   3
   1  -4   3 5.96899 0.78294   4
  -1   4  -3 5.69452 0.71185   4
  -1   4  -3 5.26231 0.50314   1
   1   4   3 5.49490 0.68950   3
   1   4   3 4.19081 0.67139   2
  -1   4  -3 5.37766 0.89104   1
   1   4   3 5.47191 0.69068   1
   1   4   3 5.96533 0.62789   3
   1   4   3 5.33861 0.69300   2
   1   4   3 4.79725 0.48727   2
   1   4   3 5.55094 0.77817   3
   1   4   3 5.47749 0.46317   3
   2  -4   3 -0.0703 0.09034   4
  -2  -4  -3 0.31366 0.11760   3
   2  -4   3 -0.0502 0.09034   4
   2  -4   3 -0.1406 0.14059   4
   2  -4   3 0.06022 0.18067   4
   2  -4   3 -0.0502 0.12045   4
   2  -4   3 -0.0602 0.10041   4
  -2  -4  -3 0.67638 0.12743   3
   2   4   3 0.12743 0.07847   3
  -2   4  -3 -0.0200 0.11048   4
   2   4   3 0.49989 0.15683   3
   2   4   3 0.33333 0.04896   3
   2   4   3 0.32349 0.09803   3
   2   4   3 0.25486 0.14700   3
   2   4   3 0.26469 0.07847   3
   2   4   3 0.32349 0.03923   3
   2   4   3 0.19606 0.06863   3
   3  -4   3 0.40797 0.24281   2
   3  -4   3 0.32057 0.32057   2
   3  -4   3 0.55374 0.20404   2
   3  -4   3 0.01999 0.30051   3
   3   4   3 0.17902 0.13195   2
   3   4   3 0.30151 0.24499   2
   3   4   3 0.37694 0.28270   2
   3   4   3 0.08866 0.12810   1
   4  -4   3 1.68933 0.45376   1
   4  -4   3 1.80524 0.55988   1
   4  -4   3 1.43296 0.43567   4
   4  -4   3 1.83419 0.36680   1
   4  -4   3 1.92105 0.67579   1
   4  -4   3 1.18812 0.78874   4
   4  -4   3 1.21806 0.19969   4
   4   4   3 1.91088 0.50770   1
   5  -4   3 0.11691 0.16569   3
   5  -4   3 -0.0487 0.12668   3
   5   4   3 0.02875 0.07674   1
   6   4   3 -0.1704 0.17043   4
   6  -5  -3 0.50749 0.29687   4
   6   5  -3 0.02918 0.24860   1
   5  -5  -3 -0.1359 0.16495   1
   5   5  -3 -0.1140 0.20911   1
   5   5  -3 0.03805 0.08553   1
   4  -5  -3 8.60611 1.14817   3
   4  -5  -3 10.4516 1.11539   1
   4  -5  -3 9.01890 0.91343   1
   4  -5  -3 10.7496 1.73071   1
   4  -5  -3 9.43236 1.20190   1
   4   5  -3 8.68656 0.92157   1
   4   5  -3 8.42824 1.47517   3
   4   5  -3 8.58274 0.95581   3
   4   5  -3 9.65371 0.98545   1
   3  -5  -3 0.02944 0.11774   2
   3  -5  -3 -0.0490 0.07856   2
   3  -5  -3 0.09815 0.13744   2
   3  -5  -3 0.02944 0.04903   2
   3   5  -3 -0.0187 0.08417   2
   3   5  -3 -0.0561 0.12160   2
   2  -5  -3 5.89980 1.00504   2
   2  -5  -3 4.83555 0.45082   1
  -2  -5   3 3.96604 0.54178   1
   2  -5  -3 3.67784 0.67617   1
   2  -5  -3 5.04046 0.44054   1
   2  -5  -3 3.66767 0.66589   1
   2  -5  -3 6.60340 0.94475   2
   2  -5  -3 4.77399 0.72735   1
   2  -5  -3 5.51791 0.68344   2
  -2  -5   3 4.59979 0.64400   1
   2   5  -3 3.77184 0.48047   1
   2   5  -3 4.66121 0.88926   1
   2   5  -3 4.97803 0.56218   1
   2   5  -3 5.26346 0.41242   3
   2   5  -3 4.66121 0.52127   1
   2   5  -3 4.05811 0.56218   1
   2   5  -3 4.92697 0.51112   1
   2   5  -3 5.11621 0.96235   3
  -2   5   3 3.79057 0.61472   1
   2   5  -3 4.76332 0.41905   1
   1  -5  -3 2.06760 0.47408   1
   1  -5  -3 2.21895 0.48410   1
  -1  -5   3 1.84963 0.55275   2
  -1  -5   3 1.95594 0.42522   2
   1  -5  -3 0.84279 0.34338   3
   1   5  -3 2.10436 0.47419   1
   1   5  -3 1.98331 0.24264   2
   1   5  -3 2.16362 0.44456   1
  -1   5   3 1.53999 0.21855   3
   1   5  -3 1.93461 0.26571   2
   1   5  -3 2.19325 0.37538   1
   1   5  -3 2.61809 0.52364   1
   1   5  -3 2.75643 0.58290   1
  -1   5   3 1.78964 0.39535   3
   1   5  -3 1.94527 0.24449   2
   1   5  -3 2.17353 0.37538   1
  -1   5   3 1.82084 0.41623   3
   0  -5  -3 4.93578 0.45326   4
   0  -5   3 5.32143 0.84655   1
   0  -5   3 4.86214 0.70842   2
   0  -5  -3 5.54933 0.74855   1
   0  -5  -3 4.66849 0.60942   2
   0  -5  -3 5.00691 0.79486   1
   0  -5   3 5.04929 0.45350   1
   0  -5  -3 4.93930 0.71859   1
   0  -5   3 4.77634 0.72984   2
   0   5   3 4.72285 0.59850   2
   0   5   3 4.78812 0.47887   2
   0   5   3 4.93661 0.65086   1
   0   5   3 4.93930 0.66804   1
   0   5  -3 5.76482 0.67530   1
   0   5  -3 5.30121 0.75587   1
   0   5  -3 5.33144 0.79621   1
   0   5  -3 5.08963 0.45350   1
   0   5   3 5.02033 0.65875   1
   1  -5   3 0.52762 0.30003   4
   1  -5   3 0.49981 0.13537   1
   1  -5   3 0.88640 0.35658   4
   1  -5   3 0.52070 0.13537   1
   1  -5   3 0.14582 0.30197   1
   1  -5   3 0.54004 0.29547   4
   1  -5   3 0.86606 0.42792   4
  -1   5  -3 0.78450 0.35658   4
  -1   5  -3 0.28119 0.28119   1
  -1   5  -3 0.24996 0.36444   1
  -2  -5  -3 4.63884 0.78156   1
   2  -5   3 7.27733 0.94222   1
   2  -5   3 4.81728 0.82144   3
   2  -5   3 7.16703 0.57141   1
   2  -5   3 5.67931 0.55777   3
   2  -5   3 4.18851 0.82144   3
   2  -5   3 6.25732 0.79103   3
   2  -5   3 7.04678 0.86208   1
   2  -5   3 6.68149 0.80870   1
   2   5   3 5.58290 0.68015   1
   2   5   3 5.43058 0.63952   1
   2   5   3 6.47616 0.88307   1
   2   5   3 7.02129 0.85191   3
   2   5   3 5.24792 0.52783   1
  -2   5  -3 4.77669 0.81138   3
   2   5   3 6.68830 0.67570   3
   2   5   3 4.57796 0.65978   1
   2   5   3 6.83525 0.51903   3
   3  -5   3 0.18070 0.24104   3
   3  -5   3 -0.0389 0.19461   1
   3  -5   3 0.13054 0.20085   3
   3  -5   3 0.24322 0.28216   1
   3  -5   3 0.13054 0.08038   3
   3  -5   3 0.08038 0.34147   3
   3  -5   3 0.55466 0.53514   1
   3  -5   3 0.06023 0.07031   3
   3  -5   3 0.20085 0.20085   3
   3  -5   3 0.09035 0.20085   3
   3  -5   3 -0.0194 0.37947   1
   3   5   3 2.13275 0.48641   2
   4  -5   3 4.65798 0.87333   1
   4  -5   3 2.79137 1.14053   4
   4  -5   3 4.31836 0.71807   1
   4  -5   3 2.79137 0.86044   4
   4  -5   3 4.53183 0.55318   1
   4  -5   3 2.67125 0.40022   4
   4   5   3 4.55696 1.06364   1
   4   5   3 4.59365 0.64186   1
   4   5   3 3.29229 0.67324   3
   4   5   3 2.28831 0.86424   3
   4   5   3 3.35582 0.47677   1
   5  -5   3 0.20485 0.35110   3
   5  -5   3 -0.1366 0.44863   3
   5   5   3 0.23904 0.22955   1
   5   5   3 0.35387 0.47818   1
   6  -5   3 0.19179 0.30128   1
   6   5   3 -0.0472 0.32128   4
   6  -6  -3 0.20571 0.30243   4
   6   6  -3 0.37193 0.12398   4
   5  -6  -3 0.12336 0.39072   2
   5   6  -3 0.21167 0.20156   2
   4  -6  -3 -0.1445 0.14447   1
   4  -6  -3 0.12524 0.11558   1
   4  -6  -3 -0.0578 0.09635   1
   4  -6  -3 0.09635 0.09635   1
   4  -6  -3 0.18303 0.12524   1
   4   6  -3 -0.0091 0.06333   1
   4   6  -3 -0.0091 0.09046   1
   4   6  -3 0.07241 0.05426   1
   4   6  -3 -0.0452 0.11759   1
   4   6  -3 0.01805 0.04518   1
   4   6  -3 0.01805 0.17185   1
   3  -6  -3 2.56625 0.52114   2
   3  -6  -3 2.64496 0.46216   2
   3  -6  -3 2.82189 0.53090   2
   3  -6  -3 4.09032 0.92422   2
   3  -6  -3 2.42103 0.86040   3
   3  -6  -3 2.76291 0.86525   2
   3   6  -3 5.11239 0.99277   2
   3   6  -3 2.97841 0.49178   2
   3   6  -3 2.16291 0.34564   1
   3   6  -3 3.48871 0.77936   2
   3   6  -3 2.32092 0.27649   1
  -2  -6   3 3.10118 0.56105   1
   2  -6  -3 5.32614 0.99680   2
   2  -6  -3 4.50052 0.40276   2
   2  -6  -3 4.21866 0.65443   2
   2  -6  -3 2.94586 0.57482   1
   2  -6  -3 3.69511 0.63433   2
   2  -6  -3 5.12476 0.90610   2
   2   6  -3 3.71197 0.73650   2
   2   6  -3 4.23246 0.54009   2
   2   6  -3 3.62140 0.36725   1
   2   6  -3 3.38677 0.45903   1
   2   6  -3 4.42887 0.37313   2
   2   6  -3 4.97881 0.95252   2
   2   6  -3 3.66316 0.55807   4
   2   6  -3 3.50925 0.47950   1
   2   6  -3 3.66395 0.51913   4
   1  -6  -3 -0.0505 0.18178   2
   1  -6  -3 -0.1212 0.15148   2
   1  -6  -3 -0.1515 0.15148   2
   1  -6  -3 0.07073 0.15148   2
   1  -6  -3 -0.0303 0.04043   2
   1  -6  -3 0.03123 0.06247   3
  -1  -6   3 -0.0494 0.17810   3
  -1  -6   3 -0.0693 0.15835   3
   1   6  -3 0.07922 0.09898   3
  -1   6   3 0.01045 0.04168   3
   1   6  -3 0.00000 0.20875   1
   1   6  -3 -0.0099 0.16828   3
  -1   6   3 -0.0606 0.14146   2
   1   6  -3 0.03155 0.09465   2
   1   6  -3 0.05937 0.04944   3
   1   6  -3 -0.0198 0.17810   3
  -1   6   3 -0.1415 0.14146   2
  -1   6   3 -0.1212 0.12119   2
   1   6  -3 -0.1583 0.15835   3
   1   6  -3 0.05937 0.03961   3
   0  -6   3 0.40459 0.30344   3
   0  -6  -3 0.48944 0.22974   3
   0  -6  -3 0.23976 0.28965   3
   0  -6   3 -0.1011 0.38429   3
   0  -6  -3 0.05397 0.30250   2
   0  -6  -3 0.36961 0.30969   3
   0  -6   3 0.34392 0.30344   3
   0  -6   3 0.32363 0.12133   3
   0  -6  -3 0.30969 0.11983   3
   0   6  -3 0.28315 0.24277   3
   0   6   3 0.19444 0.09722   2
   0   6  -3 0.43492 0.12133   3
   0   6   3 0.57931 0.24968   3
   0   6   3 0.19444 0.24853   2
   0   6   3 0.06481 0.22696   2
   0   6   3 0.27963 0.24968   3
   0   6  -3 0.58659 0.38429   3
   0   6  -3 0.24277 0.36411   3
  -1  -6  -3 6.67524 0.65001   3
   1  -6   3 7.38407 0.99949   4
   1  -6   3 8.24074 0.80573   4
   1  -6   3 7.86335 0.95867   4
  -1  -6  -3 7.43863 0.90405   3
   1  -6   3 7.80217 0.67315   4
   1  -6   3 8.45486 1.01985   4
  -1  -6  -3 7.17339 0.94338   3
   1  -6   3 6.87409 0.97914   4
   1   6   3 5.73339 0.79926   1
  -1   6  -3 8.10816 0.91785   4
  -1   6  -3 6.61237 0.66326   1
   1   6   3 6.66274 0.61017   3
   1   6   3 6.43677 0.85261   1
   1   6   3 6.70206 0.82519   3
  -1   6  -3 7.45537 1.06067   4
  -1   6  -3 6.96585 0.99949   4
   1   6   3 6.67725 0.92766   3
   2  -6   3 2.98334 0.56064   1
   2  -6   3 2.88322 0.31040   1
   2  -6   3 3.40379 0.59066   1
   2  -6   3 3.78417 0.70082   1
   2   6   3 1.89158 0.41468   1
   2   6   3 2.74932 0.61642   2
   2   6   3 2.78848 0.45007   2
   2   6   3 2.22539 0.42483   1
   2   6   3 3.42443 0.56745   2
   2   6   3 2.84717 0.27391   2
   3  -6   3 1.05254 0.41908   1
   3  -6   3 0.94530 0.57500   1
   3  -6   3 0.96485 0.15592   1
   3  -6   3 0.95507 0.46776   1
   3  -6   3 0.91607 0.39953   1
   3  -6   3 0.85761 0.19493   1
   3  -6   3 0.96485 0.35085   1
   3  -6   3 0.80893 0.27283   1
   3  -6   3 1.16945 0.50677   1
   3  -6   3 0.63416 0.21142   3
   3   6   3 0.70538 0.25983   2
   3   6   3 0.59866 0.31405   1
   3   6   3 0.90022 0.14849   2
   3   6   3 1.02087 0.47329   2
   3   6   3 0.65763 0.22574   1
   3   6   3 0.99304 0.24130   2
   3   6   3 0.23559 0.50051   1
   4  -6   3 0.20051 0.17044   4
   4  -6   3 0.20051 0.18040   4
   4  -6   3 0.09020 0.88219   4
   4  -6   3 0.26064 0.47121   4
   4  -6   3 0.49746 0.36096   1
   4   6   3 1.75714 0.62821   1
   4   6   3 0.31394 0.66714   3
   4   6   3 1.10163 0.36420   1
   5  -6   3 0.43907 0.50739   3
   5  -6   3 0.29471 0.37898   2
   5   6   3 0.99241 0.39120   1
   5   6   3 0.83017 0.20991   1
   6  -7  -3 0.57321 0.25796   4
   6   7  -3 0.47185 0.29280   1
   5  -7  -3 0.25244 0.34954   1
   5   7  -3 -0.0857 0.17131   1
   4  -7  -3 1.60156 0.61744   1
   4  -7  -3 -0.1930 0.88764   1
   4  -7  -3 1.23293 0.23056   2
   4  -7  -3 1.19292 0.47118   2
   4  -7  -3 1.31531 0.40620   2
   4   7  -3 1.17876 0.28486   3
   4   7  -3 -0.0718 0.69924   1
   3  -7  -3 8.85983 1.11754   1
   3  -7  -3 9.92697 1.06725   1
   3  -7  -3 9.54443 1.55048   1
   3  -7  -3 9.95727 1.15783   1
   3  -7  -3 7.28926 1.47999   1
   3  -7  -3 8.16513 0.93637   1
   3  -7  -3 10.7896 1.37821   2
   3   7  -3 10.3185 0.83562   3
   3   7  -3 9.57942 0.93626   1
   3   7  -3 9.47097 1.31073   1
   3   7  -3 8.78116 1.17283   1
   3   7  -3 9.66809 0.97571   1
   2  -7  -3 2.93868 0.33908   1
   2  -7  -3 3.87818 0.73538   2
   2  -7  -3 3.79765 0.88644   2
   2  -7  -3 3.49544 0.60443   2
   2   7  -3 2.86462 0.31495   1
   2   7  -3 2.41762 0.43682   1
   2   7  -3 2.24491 0.27430   1
   2   7  -3 2.49893 0.62980   1
   1  -7  -3 33.8708 2.47637   2
   1  -7  -3 33.0824 2.75945   2
   1  -7  -3 28.5855 2.79466   1
  -1  -7   3 30.4160 2.83255   1
  -1  -7   3 31.2208 2.76985   1
   1  -7  -3 33.2947 2.71899   2
   1  -7  -3 31.9977 2.82605   1
   1   7  -3 32.1697 2.40978   4
  -1   7   3 24.6289 2.70048   1
  -1   7   3 29.1506 2.74237   1
   1   7  -3 30.2697 2.93708   1
   1   7  -3 30.7610 2.79071   1
  -1   7   3 31.0975 2.77377   1
   1   7  -3 34.1292 2.63680   3
   1   7  -3 25.3885 2.69667   1
   1   7  -3 32.1302 2.73850   1
  -1   7   3 26.4815 2.53302   1
   0  -7   3 0.30340 0.36406   3
   0  -7  -3 0.21987 0.31983   3
   0  -7   3 0.15165 0.28311   3
   0  -7   3 0.31355 0.28311   3
   0  -7  -3 0.21987 0.32986   3
   0  -7  -3 0.17987 0.10999   3
   0  -7   3 0.19212 0.10113   3
   0  -7  -3 -0.1599 0.32986   3
   0  -7  -3 0.27983 0.19992   3
   0   7  -3 0.36406 0.10113   3
   0   7   3 0.38982 0.24985   3
   0   7   3 -0.1799 0.25988   3
   0   7  -3 0.54604 0.35392   3
   0   7   3 0.14915 0.10652   3
   0   7  -3 0.38425 0.34388   3
   0   7  -3 0.07385 0.22154   2
   1  -7   3 13.8750 1.25483   3
   1  -7   3 9.59535 1.20843   1
  -1  -7  -3 11.0500 1.15122   3
   1  -7   3 10.8959 1.18351   3
  -1  -7  -3 10.7963 1.26516   3
   1  -7   3 11.4877 0.95898   3
   1  -7   3 10.8060 1.21439   3
  -1   7  -3 8.14936 1.19818   1
  -1   7  -3 11.3040 1.16304   3
  -1   7  -3 9.65731 0.95025   1
   1   7   3 10.8374 1.11666   3
   1   7   3 10.0532 1.15594   1
   1   7   3 10.8455 0.90542   3
   1   7   3 11.1975 1.20047   3
  -1   7  -3 9.75024 1.24977   1
   2  -7   3 1.08006 0.40997   1
   2  -7   3 0.53910 0.45769   3
   2  -7   3 0.72214 0.17293   3
   2  -7   3 0.92006 0.50999   1
   2   7   3 1.00457 0.43889   2
   2   7   3 1.16071 0.17551   2
   2   7   3 0.78485 0.41251   1
   3  -7   3 11.5899 1.74503   3
   3  -7   3 11.1662 1.45252   3
   3  -7   3 13.7332 1.28844   1
   3  -7   3 12.2788 1.06394   1
   3  -7   3 12.1715 1.39574   1
   3  -7   3 11.9210 1.23525   3
   3  -7   3 11.5395 1.34153   3
   3  -7   3 12.9035 1.39574   1
   3  -7   3 13.2939 1.16155   1
   3   7   3 11.1652 1.26348   1
   3   7   3 12.2246 1.43599   2
   3   7   3 12.2798 1.16905   2
   3   7   3 13.0439 1.05862   2
   3   7   3 11.8718 1.12611   1
   3   7   3 11.7724 1.41035   1
   4  -7   3 0.95419 0.56248   4
   4  -7   3 1.00436 0.26114   4
   4  -7   3 1.01818 0.40527   4
   4  -7   3 -0.2451 0.80405   1
   4   7   3 1.57279 0.29829   1
   4   7   3 1.34676 0.69595   1
   4   7   3 0.60782 0.54902   3
   5  -7   3 0.24446 0.41450   2
   5  -7   3 0.21258 0.36141   2
   5   7   3 0.39046 0.18095   1
   5   7   3 0.38101 0.35244   1
   6  -7   3 0.33151 0.24592   3
   6   7   3 0.17746 0.24183   1
   6  -8  -3 0.11015 0.24761   3
   6   8  -3 -0.0761 0.07611   4
   5  -8  -3 0.01044 0.33314   2
   5   8  -3 0.10493 0.16212   1
   4  -8  -3 0.19316 0.17378   1
   4  -8  -3 0.12554 0.06762   1
   4  -8  -3 -0.0290 0.27036   1
   4  -8  -3 0.20285 0.21243   1
   4   8  -3 -0.0622 0.27550   1
   4   8  -3 0.01817 0.11832   3
   4   8  -3 -0.0266 0.07995   1
   3  -8  -3 6.62100 0.78604   1
   3  -8  -3 8.09707 0.98500   2
   3  -8  -3 5.61328 1.18917   1
   3  -8  -3 7.45748 0.80626   1
   3  -8  -3 9.28897 0.93579   2
   3  -8  -3 8.79642 0.96534   2
   3  -8  -3 7.26592 1.25973   1
   3  -8  -3 7.85075 1.36916   2
   3  -8  -3 7.71291 0.96534   2
   3   8  -3 6.51930 0.73747   1
   3   8  -3 6.82418 0.79646   1
   3   8  -3 7.50678 0.65484   4
   3   8  -3 7.34535 0.97350   1
   3   8  -3 6.41121 1.17018   1
   2  -8  -3 2.67858 1.00693   2
   2  -8  -3 2.04395 0.66761   1
   2  -8  -3 2.32607 0.29201   2
   2  -8  -3 2.64838 0.59412   2
   2   8  -3 1.79586 0.31281   1
   2   8  -3 2.31836 0.61563   2
   2   8  -3 2.14894 0.43384   1
   1  -8  -3 0.93421 0.45136   1
   1  -8  -3 1.76925 0.55605   2
  -1  -8   3 1.06217 0.39711   3
   1  -8  -3 1.08177 0.44490   2
   1  -8  -3 1.24353 0.22240   2
  -1  -8   3 1.94570 0.63529   3
   1  -8  -3 1.34463 0.46508   2
   1   8  -3 2.47186 0.52616   3
  -1   8   3 1.37496 0.39429   2
  -1   8   3 0.71374 0.40935   1
   1   8  -3 1.46924 0.44669   3
   1   8  -3 1.78688 0.46661   3
   1   8  -3 2.05494 0.25810   3
   0  -8  -3 0.17063 0.33066   1
   0  -8  -3 0.17063 0.33066   1
   0  -8  -3 0.28000 0.25000   3
   0  -8  -3 0.15993 0.12794   1
   0  -8   3 -0.0101 0.37409   3
   0  -8   3 0.20975 0.12581   1
   0  -8   3 -0.0405 0.31345   3
   0  -8  -3 -0.2500 0.35002   3
   0  -8   3 0.31345 0.31345   3
   0   8   3 0.14934 0.24530   1
   0   8  -3 0.71775 0.38412   3
   0   8  -3 0.58633 0.36395   3
   0   8   3 0.20261 0.26658   1
   0   8   3 0.06397 0.25599   1
   0   8  -3 0.48523 0.12128   3
   0   8   3 0.13864 0.26658   1
   0   8   3 0.15993 0.09596   1
   0   8  -3 0.34377 0.23252   3
   1  -8   3 14.4491 1.73022   1
   1  -8   3 19.3998 1.71359   2
  -1  -8  -3 15.6770 1.64556   3
  -1  -8  -3 15.4135 1.66665   3
   1  -8   3 18.2779 1.40758   2
   1  -8   3 15.0876 1.64778   1
   1  -8   3 16.8499 1.67277   2
   1   8   3 17.0862 1.54702   3
   1   8   3 14.4859 1.62361   1
   1   8   3 14.9497 1.60257   1
  -1   8  -3 14.3873 1.68900   1
   1   8   3 16.1106 1.33026   3
   1   8   3 15.4438 1.64638   3
  -1   8  -3 17.4109 1.68300   2
   2  -8   3 0.47838 0.16283   3
   2  -8   3 0.92807 0.49897   1
   2  -8   3 0.76831 0.40908   1
   2   8   3 0.62588 0.37746   4
   2   8   3 0.41020 0.11010   1
   3  -8   3 0.03031 0.25260   3
   3  -8   3 0.02017 0.41428   3
   3  -8   3 0.03031 0.15154   3
   3  -8   3 0.24430 0.23459   1
   3  -8   3 -0.0488 0.07823   1
   3  -8   3 -0.1369 0.13686   1
   3  -8   3 0.05048 0.23243   3
   3  -8   3 0.21498 0.25410   1
   3  -8   3 0.13686 0.41046   1
   3   8   3 0.11869 0.07308   2
   3   8   3 -0.0456 0.10047   2
   3   8   3 0.08215 0.10047   2
   3   8   3 -0.0182 0.20083   2
   3   8   3 -0.0182 0.23738   2
   3   8   3 -0.2465 0.24654   2
   3   8   3 -0.0182 0.04561   2
   3   8   3 0.31952 0.16429   2
   4  -8   3 -0.0690 0.08868   1
   4  -8   3 0.00000 0.04923   1
   4  -8   3 0.22668 0.08868   1
   4  -8   3 0.10845 0.15768   1
   4   8   3 0.20643 0.07184   1
   4   8   3 0.18852 0.12568   1
   4   8   3 0.06284 0.01791   1
   4   8   3 0.26027 0.08976   1
   4   8   3 0.08075 0.04483   1
   5  -8   3 0.44895 0.29280   3
   5  -8   3 -0.3123 0.31228   3
   5   8   3 0.39927 0.42778   1
   6   9  -3 -0.0380 0.08540   4
   5  -9  -3 -0.1647 0.46499   3
   5   9  -3 0.14625 0.28202   2
   5   9  -3 0.57391 0.25827   1
   4  -9  -3 0.02007 0.32182   2
   4  -9  -3 0.01009 0.18099   2
   4  -9  -3 0.21255 0.53142   1
   4  -9  -3 0.12561 0.25122   1
   4   9  -3 -0.1410 0.14099   1
   4   9  -3 0.10572 0.15858   1
   4   9  -3 0.94294 0.46710   1
   4   9  -3 -0.0353 0.50237   1
   3  -9  -3 9.16993 1.17025   1
   3  -9  -3 9.89626 1.08950   1
   3  -9  -3 11.0025 1.49726   2
   3  -9  -3 9.48270 1.12987   1
   3  -9  -3 10.5198 1.22140   2
   3  -9  -3 12.1451 1.93060   2
   3  -9  -3 10.4312 1.28048   2
   3   9  -3 9.41956 1.46347   1
   3   9  -3 10.4406 0.87832   2
   3   9  -3 10.4677 0.93263   2
   3   9  -3 9.99825 1.00983   1
   2  -9  -3 -0.2108 0.25091   2
   2  -9  -3 0.03074 0.07176   1
   2  -9  -3 -0.1305 0.25091   2
   2  -9  -3 -0.4517 0.45168   2
   2   9  -3 0.08541 0.22785   2
   2   9  -3 0.45561 0.17082   2
   2   9  -3 -0.0665 0.06646   2
  -1  -9   3 1.95826 0.57651   3
   1  -9  -3 1.85009 0.51556   2
   1  -9  -3 1.38503 0.24267   2
   1  -9  -3 1.68834 0.56616   2
   1  -9  -3 1.31425 0.40442   2
   1  -9  -3 0.93434 0.49344   1
  -1   9   3 0.62991 0.37793   1
   1   9  -3 1.77928 0.53672   3
   1   9  -3 2.88264 0.52686   3
   1   9  -3 3.82697 0.67592   3
   1   9  -3 1.35183 0.34788   3
   0  -9   3 2.73778 0.35752   3
   0  -9   3 2.76922 0.73782   3
   0  -9  -3 2.92203 0.35021   3
   0  -9  -3 2.99210 0.51031   3
   0  -9   3 2.91074 0.60644   3
   0  -9  -3 2.79195 0.61038   3
   0  -9   3 3.15334 0.60644   3
   0  -9  -3 3.06205 0.66047   3
   0  -9  -3 2.87194 0.62042   3
   0   9   3 2.73282 0.53172   1
   0   9  -3 3.48676 0.58616   3
   0   9   3 2.82196 0.53039   3
   0   9  -3 2.90060 0.34367   3
   0   9   3 2.74122 0.33607   3
   0   9   3 3.47239 0.57044   3
   0   9  -3 2.85012 0.63675   3
   0   9   3 2.74186 0.53039   3
   0   9  -3 2.93091 0.65692   3
   1  -9   3 3.68064 0.69964   2
   1  -9   3 5.06974 0.78069   2
  -1  -9  -3 1.88354 0.66966   1
   1   9   3 2.63696 0.55462   1
   1   9   3 1.63237 0.46047   1
   1   9   3 2.00908 0.48136   1
  -1   9  -3 4.50191 0.67940   2
   1   9   3 2.58458 0.32444   1
   1   9   3 2.85169 0.60187   3
   2  -9   3 0.07962 0.09947   2
   2  -9   3 0.00000 0.12967   1
   2  -9   3 0.14915 0.03981   2
   2   9   3 0.01903 0.06674   2
   2   9   3 0.00956 0.07630   2
   2   9   3 0.04762 0.02859   2
   2   9   3 -0.0572 0.08577   2
   3  -9   3 15.8664 1.43795   1
   3  -9   3 13.1897 1.32292   2
   3  -9   3 12.0148 1.45757   4
   3  -9   3 12.7841 1.97374   4
   3  -9   3 13.9492 1.53578   1
   3  -9   3 11.6504 2.22686   4
   3  -9   3 13.1935 1.47357   3
   3   9   3 13.1886 1.12707   3
   3   9   3 13.1158 1.30176   3
   3   9   3 13.1158 1.33112   3
   3   9   3 12.0784 1.41929   3
   3   9   3 13.3525 1.13236   2
   3   9   3 12.6852 1.24305   3
   3   9   3 12.6949 1.63459   3
   3   9   3 13.1946 1.04384   4
   3   9   3 13.1649 1.44422   3
   3   9   3 13.7058 1.48564   2
   4  -9   3 0.18137 0.29227   2
   4  -9   3 0.07057 0.51398   2
   4  -9   3 0.29227 0.45352   2
   4  -9   3 0.97957 0.87070   1
   4   9   3 0.73122 0.29428   1
   4   9   3 0.35008 0.25283   3
   4   9   3 0.34279 0.46039   3
   4   9   3 0.45474 0.13372   1
   4   9   3 -0.1962 0.63309   1
   4   9   3 0.49043 0.32102   1
   5  -9   3 -0.0878 0.08778   3
   5   9   3 0.13282 0.05689   1
   5   9   3 0.32254 0.10437   1
   5 -10  -3 1.70168 0.52206   3
   5  10  -3 1.09704 0.44734   2
   5  10  -3 0.95858 0.27693   2
   4 -10  -3 1.40154 0.28998   1
   4 -10  -3 0.88641 0.90652   2
   4 -10  -3 1.22894 0.56410   2
   4  10  -3 1.72443 0.87530   1
   4  10  -3 1.25701 0.34368   3
   4  10  -3 1.33925 0.40266   1
   3 -10  -3 0.24604 0.62992   1
   3 -10  -3 0.39375 0.22640   1
   3 -10  -3 0.26579 0.48232   1
   3 -10  -3 0.45279 0.27557   1
   3 -10  -3 0.05045 0.35347   3
   3 -10  -3 0.10101 0.55549   3
   3 -10  -3 0.05045 0.23231   3
   3  10  -3 0.21127 0.11941   1
   3  10  -3 0.03931 0.17676   3
   3  10  -3 0.18662 0.22593   3
   3  10  -3 -0.0090 0.48563   2
   2 -10  -3 0.79970 0.96954   2
   2  10  -3 5.36647 0.85225   2
   1 -10  -3 1.70637 0.57558   2
   1 -10  -3 2.09013 0.60586   2
   1 -10  -3 1.59537 0.54519   2
   1 -10  -3 1.65594 0.28267   2
   1  10  -3 2.78570 0.62236   2
   1  10  -3 1.75838 0.26674   2
  -1  10   3 1.23516 0.50240   1
   1  10  -3 1.28917 0.51569   1
   1  10  -3 1.71884 0.56311   2
   0 -10  -3 0.59068 0.32034   2
   0 -10   3 0.62601 0.47460   2
   0 -10   3 0.56156 0.45766   1
   0 -10  -3 0.38069 0.47584   1
   0 -10  -3 0.60072 0.43051   2
   0 -10   3 0.98951 0.20195   2
   0 -10  -3 0.54987 0.43351   1
   0 -10   3 0.67656 0.42406   2
   0 -10  -3 0.70084 0.19020   2
   0  10  -3 0.47842 0.41604   1
   0  10  -3 1.00966 0.45434   2
   0  10   3 0.53927 0.33837   1
   0  10   3 0.58063 0.16017   2
   0  10   3 0.14808 0.34898   1
   0  10  -3 0.61588 0.44432   2
   0  10   3 0.14808 0.30665   1
   0  10  -3 0.74714 0.31306   2
   0  10  -3 0.85825 0.19182   2
   0  10   3 1.07119 0.39044   2
   1 -10   3 3.98688 0.86089   1
   1 -10   3 5.47998 0.91499   2
   1 -10   3 5.68110 0.95524   2
   1 -10   3 5.10406 0.57396   1
   1  10   3 5.13839 0.75937   2
   1  10   3 4.30013 0.73566   1
   1  10   3 5.10569 0.48526   3
   1  10   3 4.45551 0.75645   1
  -1  10  -3 3.94586 0.73793   1
   2 -10   3 0.34623 0.49891   3
   2 -10   3 0.39709 0.51923   3
   2  10   3 0.60166 0.43248   2
   2  10   3 0.00000 0.30301   1
   2  10   3 -0.2162 0.31969   2
   2  10   3 0.26782 0.12893   1
   3 -10   3 0.05063 0.55745   4
   3 -10   3 1.13512 0.43059   1
   3 -10   3 0.44602 0.81091   4
   3 -10   3 0.93940 0.72406   1
   3 -10   3 0.51688 0.21290   4
   3 -10   3 0.36489 0.38512   4
   3 -10   3 0.63858 0.32432   4
   3 -10   3 0.58785 0.46625   4
   3  10   3 0.98049 0.35982   2
   3  10   3 0.58742 0.17617   3
   3  10   3 0.75399 0.55173   3
   3  10   3 0.13709 0.52860   3
   3  10   3 0.50906 0.29371   3
   3  10   3 0.64615 0.22517   3
   3  10   3 0.80058 0.14391   2
   3  10   3 0.47970 0.31325   3
   4 -10   3 0.11882 0.20804   1
   4 -10   3 0.07928 0.13869   1
   4 -10   3 -0.1188 0.11882   1
   4  10   3 0.00000 0.04431   1
   4  10   3 0.05321 0.12422   1
   4  10   3 -0.0887 0.08871   1
   4  10   3 0.34595 0.15082   1
   4  10   3 0.05321 0.08871   1
   5 -10   3 0.62828 0.50700   1
   5  10   3 0.97407 0.31210   4
   5  10   3 0.90795 0.26476   4
   5  10   3 0.74705 0.47891   4
   5 -11  -3 0.93562 0.38586   3
   5  11  -3 0.70955 0.31656   2
   5  11  -3 0.80212 0.30605   4
   4 -11  -3 3.79344 1.55371   2
   4 -11  -3 4.51828 0.76613   2
   4 -11  -3 4.42907 0.56499   2
   4  11  -3 4.11559 0.65815   3
   4  11  -3 3.94859 0.58938   3
   3 -11  -3 0.41449 0.43478   3
   3 -11  -3 1.25299 0.34258   1
   3 -11  -3 1.04738 0.35240   1
   3 -11  -3 0.87959 0.47524   3
   3 -11  -3 0.79877 0.70780   3
   3 -11  -3 1.16491 0.70480   1
   3  11  -3 1.19883 0.70679   2
   3  11  -3 0.81585 0.33423   3
   3  11  -3 0.62901 0.26541   3
   3  11  -3 1.04100 0.19351   1
   2 -11  -3 5.16068 0.67614   2
   2 -11  -3 6.56274 0.66627   2
   2 -11  -3 6.45343 1.06393   2
   2 -11  -3 6.01586 1.37223   2
   2 -11  -3 6.41363 1.04409   2
   2  11  -3 6.99798 0.58242   2
   2  11  -3 5.35253 0.64715   2
   2  11  -3 5.43571 1.00767   2
   1 -11  -3 10.0784 1.01587   2
   1 -11  -3 9.89996 1.44456   3
   1 -11  -3 9.90005 1.31935   3
   1  11  -3 11.3411 1.36910   2
   1  11  -3 11.8266 0.99043   2
   1  11  -3 12.6228 1.27200   2
   0 -11   3 4.11175 0.81229   4
   0 -11  -3 4.55772 0.87954   2
   0 -11  -3 3.61641 0.75474   1
   0 -11   3 3.50854 0.45410   1
   0 -11  -3 4.11484 0.45605   2
   0 -11   3 3.86968 0.86678   1
   0  11  -3 5.35542 0.95743   2
   0  11  -3 4.65728 0.87760   2
   0  11   3 4.11206 0.75999   4
   0  11   3 4.66759 0.77959   2
   0  11   3 3.22863 0.61847   1
   0  11  -3 4.19852 0.44875   2
   0  11  -3 4.08643 0.71204   1
   0  11   3 3.56405 0.42973   1
   0  11   3 3.49065 0.66043   1
   0  11  -3 3.09574 0.62944   1
   1 -11   3 1.24531 0.28889   2
   1 -11   3 1.28518 0.61766   2
   1 -11   3 1.59396 0.61766   2
   1 -11   3 0.51147 0.53188   1
   1  11   3 1.12538 0.46037   1
   1  11   3 1.42005 0.49941   2
   1  11   3 1.27309 0.22525   2
   2 -11   3 0.39463 0.18742   2
   2 -11   3 0.58205 0.23680   2
   2 -11   3 -0.1282 0.21701   2
   2 -11   3 0.25649 0.08876   2
   2  11   3 -0.1391 0.13908   2
   2  11   3 -0.0742 0.07424   2
   2  11   3 -0.0649 0.06494   2
   2  11   3 -0.0185 0.05563   2
   2  11   3 -0.0185 0.05563   2
   2  11   3 0.05563 0.14839   2
   2  11   3 0.00000 0.08663   1
   2  11   3 -0.0556 0.16690   2
   3 -11   3 1.59434 0.75312   1
   3 -11   3 1.26844 0.41599   4
   3 -11   3 1.73131 0.95857   1
   3 -11   3 1.86827 0.49881   1
   3 -11   3 0.57844 0.27401   4
   3 -11   3 1.20758 0.84227   4
   3 -11   3 1.46718 0.44995   1
   3 -11   3 1.82913 0.42061   1
   3  11   3 1.48456 0.22355   2
   3  11   3 1.72605 0.42925   2
   3  11   3 1.37546 0.36244   4
   3  11   3 1.37051 0.28907   3
   3  11   3 2.23585 0.42925   2
   3  11   3 1.37051 0.34499   3
   3  11   3 1.37231 0.20260   3
   3  11   3 0.73450 0.63656   3
   4 -11   3 2.15577 0.45542   2
   4 -11   3 2.68204 0.77926   2
   4 -11   3 2.35820 1.18412   2
   4  11   3 2.61468 0.33300   3
   4  11   3 2.27195 0.43094   3
   4  11   3 2.84531 0.51554   3
   4  11   3 3.27222 0.52179   1
   5 -11   3 0.45874 0.50353   1
   5  11   3 0.82729 0.22746   1
   5  11   3 1.22532 0.29224   4
   5  11   3 0.48317 0.36235   2
   5 -12  -3 0.10585 0.08655   3
   5  12  -3 0.05735 0.04776   4
   5  12  -3 -0.0191 0.06694   4
   4 -12  -3 0.73548 1.13219   1
   4 -12  -3 0.17179 0.29301   2
   4 -12  -3 0.61929 0.52251   1
   4  12  -3 0.77549 0.21780   1
   4  12  -3 0.57508 0.37468   1
   3 -12  -3 0.25262 0.19434   1
   3 -12  -3 0.15545 0.13606   1
   3 -12  -3 -0.0194 0.32065   1
   3 -12  -3 0.09717 0.13606   1
   3 -12  -3 0.38868 0.41783   1
   3  12  -3 0.34545 0.32777   1
   3  12  -3 -0.0266 0.07090   1
   3  12  -3 0.02950 0.14750   3
   3  12  -3 0.02950 0.07873   3
   2 -12  -3 0.29653 0.17786   2
   2 -12  -3 0.34590 0.20760   2
   2 -12  -3 0.22733 0.30645   2
   2 -12  -3 0.27670 0.25697   2
   2 -12  -3 0.21741 0.80056   2
   2 -12  -3 -0.0889 0.50403   2
   2 -12  -3 0.60287 0.51395   2
   2  12  -3 1.10527 0.48415   2
   1 -12  -3 5.11433 1.00691   2
   1 -12  -3 7.30765 0.68791   2
   1 -12  -3 4.92221 1.00077   4
   1  12  -3 6.17890 0.93591   2
   1  12  -3 5.93060 0.60168   2
   1  12  -3 5.74917 0.94549   2
   0 -12   3 1.65019 0.55006   2
   0 -12   3 0.54234 0.75716   1
   0  12   3 2.03563 0.46675   2
   0  12   3 2.11511 0.28796   2
   0  12   3 1.84697 0.52631   2
   0  12  -3 1.54211 0.58938   2
   0  12  -3 1.69926 0.48129   2
   0  12  -3 1.56171 0.28483   2
   1 -12   3 0.10855 0.26638   2
   1 -12   3 0.10855 0.22690   2
   2 -12   3 1.45338 0.87400   2
   2 -12   3 2.30768 0.40257   2
   2 -12   3 1.87565 0.69719   2
   2 -12   3 2.11126 0.53023   2
   2 -12   3 1.06987 0.33625   3
   2 -12   3 1.33547 0.29462   2
   2 -12   3 1.41408 0.49103   2
   2  12   3 1.77648 0.62265   2
   2  12   3 1.43764 0.26554   2
   2  12   3 1.70318 0.40295   2
   2  12   3 1.17043 0.52129   1
   2  12   3 1.43764 0.28391   2
   2  12   3 1.72155 0.49443   2
   2  12   3 1.83140 0.29300   2
   2  12   3 1.66653 0.25635   2
   3 -12   3 0.95471 0.30472   4
   3 -12   3 -0.4201 0.80118   1
   3 -12   3 -0.1465 0.48855   1
   3 -12   3 1.04480 0.41185   4
   3  12   3 1.02883 0.45073   3
   3  12   3 1.46697 0.31814   1
   3  12   3 0.71531 0.65654   3
   3  12   3 1.03122 0.21368   3
   3  12   3 0.84268 0.22536   3
   3  12   3 0.69565 0.33318   3
   3  12   3 0.81330 0.26458   3
   4 -12   3 2.39322 1.18669   3
   4 -12   3 2.55143 0.60321   3
   4 -12   3 2.54151 0.49450   3
   4  12   3 2.62761 0.30084   1
   4  12   3 2.50372 0.41585   1
   4  12   3 2.74262 0.49546   1
   4  12   3 2.10572 0.43099   3
   5 -12   3 0.13619 0.18477   3
   5  12   3 -0.0752 0.08451   4
   5  12   3 0.01134 0.21471   2
   5 -13  -3 0.09590 0.15342   3
   5  13  -3 0.21941 0.18123   4
   5  13  -3 0.12401 0.09540   4
   4 -13  -3 6.62720 1.49961   1
   4 -13  -3 4.64645 0.85029   2
   4 -13  -3 5.12216 0.66813   2
   4  13  -3 5.34759 0.69791   3
   4  13  -3 5.88496 0.67514   3
   3 -13  -3 -0.3180 0.80927   1
   3 -13  -3 0.04053 0.61771   4
   3 -13  -3 0.10128 0.27345   4
   3 -13  -3 0.29872 0.33718   1
   3 -13  -3 0.15186 0.34436   4
   3  13  -3 0.81038 0.20915   1
   3  13  -3 0.66224 0.58384   1
   3  13  -3 0.53148 0.20041   1
   2 -13  -3 2.29753 0.37307   2
   2 -13  -3 0.15203 1.23687   3
   2 -13  -3 1.76737 0.69710   2
   2 -13  -3 1.32808 0.91237   3
   2 -13  -3 2.09140 0.37307   2
   2 -13  -3 1.68878 0.51056   2
   2 -13  -3 0.79075 0.43595   3
   2  13  -3 1.39496 0.72224   1
   2  13  -3 1.34544 0.29682   1
   2  13  -3 1.43456 0.33641   1
   2  13  -3 1.41471 0.29682   1
   2  13  -3 1.51887 0.27124   2
   1 -13  -3 -0.0394 0.34490   2
   1 -13  -3 -0.0296 0.12812   2
   1 -13  -3 0.27590 0.49279   2
   1  13  -3 -0.0282 0.41380   2
   1  13  -3 0.49841 0.14101   2
   1  13  -3 -0.0376 0.29156   2
   0 -13   3 0.79332 0.46787   1
   0  13   3 1.04531 0.23450   2
   0  13  -3 1.14211 0.25164   2
   0  13  -3 0.90524 0.41696   1
   0  13   3 1.14301 0.60570   2
   0  13  -3 2.10995 0.61940   2
   1 -13   3 -0.0879 0.18557   2
   1 -13   3 0.02033 0.24447   1
   1 -13   3 0.05859 0.08788   2
   1  13   3 0.00000 0.20748   1
   1  13   3 0.16086 0.06624   2
   1  13   3 0.10411 0.17025   2
   2 -13   3 0.74395 0.91710   3
   2 -13   3 1.19257 0.45946   2
   2 -13   3 0.89676 0.54012   3
   2 -13   3 0.64203 0.41776   3
   2 -13   3 0.83563 0.28529   3
   2 -13   3 0.88654 0.85597   3
   2 -13   3 1.29032 0.31277   2
   2  13   3 1.79245 0.36214   2
   2  13   3 1.30364 0.26252   2
   2  13   3 0.92477 0.58046   3
   2  13   3 1.17673 0.23531   3
   2  13   3 0.39355 0.49194   3
   2  13   3 0.65921 0.50171   3
   2  13   3 1.17801 0.23564   1
   2  13   3 0.64934 0.20665   3
   2  13   3 1.17797 0.26898   1
   3 -13   3 2.01898 0.44866   1
   3 -13   3 1.56053 0.97530   1
   3 -13   3 0.09145 0.39641   4
   3 -13   3 0.00000 0.85829   1
   3 -13   3 0.76075 0.84850   1
   3  13   3 0.81017 0.64458   1
   3  13   3 0.64304 0.22901   3
   3  13   3 0.92341 0.23522   1
   3  13   3 0.64242 0.19627   3
   3  13   3 0.61769 0.21566   3
   3  13   3 1.00179 0.39198   1
   4 -13   3 2.07335 0.45416   3
   4 -13   3 1.57330 0.71518   2
   4  13   3 1.86136 0.33312   3
   4  13   3 1.92995 0.58783   3
   4  13   3 2.46401 0.39144   1
   5 -13   3 0.02912 0.10684   3
   5  13   3 0.01868 0.08419   4
   5  13   3 -0.0561 0.05613   4
   5 -14  -3 0.09174 0.26360   1
   5 -14  -3 -0.6211 0.62111   3
   5  14  -3 0.08991 0.17982   1
   5  14  -3 0.15405 0.24396   1
   4 -14  -3 3.11546 1.12237   1
   4 -14  -3 1.89633 0.65789   1
   4  14  -3 3.39111 0.49714   1
   4  14  -3 3.48879 0.43499   1
   3 -14  -3 -0.0477 0.26729   1
   3 -14  -3 0.21002 0.61101   1
   3 -14  -3 0.24824 0.80198   1
   3 -14  -3 0.14585 0.32096   4
   3  14  -3 0.05910 0.14774   3
   3  14  -3 -0.1717 0.53233   1
   3  14  -3 0.00988 0.14774   3
   3  14  -3 -0.1460 0.16312   1
   2 -14  -3 0.12164 0.61847   3
   2 -14  -3 -0.0487 0.67286   2
   2 -14  -3 0.77038 0.38030   2
   2 -14  -3 0.67286 0.29256   2
   2 -14  -3 0.71189 0.28278   2
   2 -14  -3 0.79963 0.45836   2
   2  14  -3 0.52469 0.25738   3
   2  14  -3 0.44545 0.23762   3
   2  14  -3 0.71749 0.53811   2
   2  14  -3 0.35638 0.20793   3
   2  14  -3 0.63670 0.25106   2
   1 -14  -3 0.43830 0.21427   2
   1 -14  -3 0.83773 0.49673   2
   1 -14  -3 0.29224 0.37011   2
   1 -14  -3 0.09102 0.15170   1
   1  14  -3 1.15938 0.42665   2
   1  14  -3 0.15769 0.32459   2
   1  14  -3 0.13640 0.13640   4
   0 -14   3 0.24294 0.40486   1
   0  14  -3 0.33400 0.45541   1
   0  14  -3 0.19228 0.19228   1
   1 -14   3 1.41247 0.77402   2
   1 -14   3 0.82204 0.27726   1
   1 -14   3 0.24421 0.64098   1
   1 -14   3 1.07389 0.35800   2
   1  14   3 1.11783 0.30742   2
   1  14   3 0.66571 0.49679   1
   1  14   3 0.90357 0.45646   2
   1  14   3 1.11783 0.23285   2
   2 -14   3 0.80708 0.44728   1
   2 -14   3 1.23485 0.90432   1
   2 -14   3 0.88481 0.79732   1
   2 -14   3 0.79405 0.54586   2
   2 -14   3 1.04037 0.40837   1
   2 -14   3 0.92373 0.31113   1
   2 -14   3 0.79418 0.32357   4
   2  14   3 1.09407 0.22416   2
   2  14   3 0.86092 0.51119   2
   2  14   3 0.79048 0.22062   3
   2  14   3 1.22855 0.26904   2
   2  14   3 1.04028 0.22416   2
   2  14   3 0.93261 0.52909   2
   2  14   3 0.79344 0.52245   3
   3 -14   3 -0.0584 0.36015   1
   3 -14   3 0.22386 0.21410   1
   3 -14   3 0.36015 0.64240   1
   3 -14   3 0.46715 0.37958   1
   3 -14   3 0.02030 0.73228   4
   3  14   3 0.34394 0.28374   1
   3  14   3 0.23217 0.12040   1
   3  14   3 0.12399 0.14166   3
   3  14   3 0.20638 0.15472   1
   3  14   3 0.23217 0.42992   1
   4 -14   3 2.52234 0.73895   3
   4 -14   3 1.64826 0.56657   2
   4  14   3 2.39638 0.44093   4
   4  14   3 3.19782 0.60359   1
   4  14   3 2.41416 0.29727   1
   4  14   3 2.25943 0.40271   2
   5 -14   3 0.01934 0.05812   3
   5  14   3 -0.0280 0.04655   4
   5  14   3 -0.0093 0.01860   4
   5 -15  -3 1.78867 0.81300   3
   5 -15  -3 1.58293 0.41653   1
   5  15  -3 1.81275 0.30368   4
   4 -15  -3 2.74488 0.67660   1
   4 -15  -3 4.40734 1.15978   1
   3 -15  -3 1.20642 0.52715   4
   3 -15  -3 1.49023 0.50691   4
   3 -15  -3 1.49023 1.01372   4
   3 -15  -3 1.58144 1.24689   4
   3 -15  -3 1.59453 0.49649   4
   3  15  -3 1.68944 0.83199   1
   3  15  -3 2.15636 0.36507   1
   3  15  -3 1.46921 0.35499   3
   3  15  -3 1.59756 0.30830   3
   2 -15  -3 3.65044 0.57803   3
   2 -15  -3 2.68712 1.07489   3
   2 -15  -3 4.19160 1.11523   1
   2 -15  -3 3.36646 0.66926   3
   2 -15  -3 4.37424 0.75950   1
   2  15  -3 3.89559 0.46354   2
   2  15  -3 3.77702 0.50103   3
   2  15  -3 3.12146 0.51527   3
   2  15  -3 4.78709 0.52596   2
   2  15  -3 1.82334 0.87201   3
   1 -15  -3 4.79028 0.63671   3
   1 -15  -3 3.63820 1.06115   3
   1 -15  -3 5.34610 0.70747   3
   1  15  -3 4.71773 0.61969   1
   1  15  -3 5.01750 0.70962   1
   1  15  -3 3.67816 0.59974   1
   1  15  -3 5.35529 1.11533   4
   1  15  -3 5.26745 1.04950   1
   1  15  -3 5.61080 0.57761   2
   0  15  -3 1.63621 0.67678   1
   1 -15   3 2.66429 0.90506   3
   1 -15   3 4.08551 0.63298   2
   1 -15   3 3.41676 0.55928   3
   1  15   3 4.54863 0.52382   2
   1  15   3 4.37396 0.47782   2
   1  15   3 4.37396 0.84541   2
   1  15   3 4.98046 0.92809   2
   1  15   3 3.55621 0.54216   2
   2 -15   3 1.36549 0.40764   3
   2 -15   3 2.37908 0.40453   1
   2 -15   3 0.83561 0.51966   3
   2 -15   3 0.34651 0.96808   3
   2 -15   3 1.25336 0.36685   3
   2 -15   3 1.34515 1.03943   3
   2  15   3 2.63571 0.38162   1
   2  15   3 1.74440 0.66730   3
   2  15   3 2.04117 0.33720   1
   2  15   3 1.46879 0.66053   3
   2  15   3 1.89028 0.32839   1
   2  15   3 1.66596 0.59151   3
   2  15   3 2.07659 0.32839   1
   3 -15   3 -0.1263 0.84510   1
   3 -15   3 2.20517 0.87423   1
   3 -15   3 -0.1748 0.39824   1
   3  15   3 0.34045 0.53619   1
   3  15   3 0.18652 0.24542   3
   3  15   3 0.39150 0.16169   1
   3  15   3 0.48515 0.18721   1
   3  15   3 0.06874 0.15708   3
   4 -15   3 2.71275 0.82558   3
   4 -15   3 0.82167 0.55126   2
   4  15   3 1.11064 0.35698   2
   4  15   3 0.90235 0.29750   2
   5 -15   3 1.56345 0.39852   3
   5  15   3 1.48465 0.37116   1
   5  15   3 1.56020 0.28496   4
   5 -16  -3 -0.1611 0.31277   3
   5  16  -3 -0.0758 0.17978   4
   5  16  -3 0.10296 0.17641   4
   4 -16  -3 0.03858 0.12532   1
   4 -16  -3 0.03858 0.19282   1
   4 -16  -3 0.01027 0.34795   2
   4  16  -3 -0.0094 0.09387   1
   4  16  -3 -0.0845 0.12202   1
   3 -16  -3 1.48060 1.28793   4
   3 -16  -3 1.59630 0.46953   1
   3 -16  -3 1.59630 0.49769   1
   3 -16  -3 1.55872 0.49769   1
   3  16  -3 1.22381 0.35530   3
   3  16  -3 2.05151 0.35456   1
   2 -16  -3 2.77722 0.97293   1
   2 -16  -3 2.75837 0.68014   1
   2 -16  -3 3.59901 0.56682   1
   2 -16  -3 2.38204 0.59804   3
   2  16  -3 3.15618 0.40107   1
   2  16  -3 2.54592 0.43597   1
   2  16  -3 1.97383 0.42653   3
   2  16  -3 0.98199 0.84310   3
   2  16  -3 2.13252 0.43648   3
   1 -16  -3 8.03331 0.95996   3
   1  16  -3 8.02977 0.89993   3
   1  16  -3 8.84187 0.95417   2
   1  16  -3 9.65978 1.37219   2
   0  16  -3 1.56553 0.71951   3
   0  16  -3 3.38804 0.48533   2
   1 -16   3 0.49499 0.59974   2
   1  16   3 0.15902 0.26839   3
   1  16   3 0.48156 0.42706   2
   1  16   3 0.19880 0.22861   3
   1  16   3 0.03978 0.15902   3
   2 -16   3 1.15132 0.52982   3
   2 -16   3 1.25322 1.14121   3
   2 -16   3 1.47313 0.44706   4
   2 -16   3 1.09020 0.50949   3
   2 -16   3 2.07856 0.53396   1
   2  16   3 1.89269 0.33860   1
   2  16   3 2.03160 0.64245   1
   2  16   3 2.43970 0.39939   1
   2  16   3 1.86665 0.33860   1
   2  16   3 2.50920 0.81611   1
   2  16   3 2.20526 0.36464   1
   3 -16   3 1.09660 0.56286   1
   3 -16   3 3.10554 1.20339   1
   3  16   3 1.62546 0.30478   1
   3  16   3 1.05828 0.24550   1
   3  16   3 1.22761 0.42333   1
   3  16   3 1.16833 0.24550   1
   4 -16   3 0.16663 0.23525   3
   4 -16   3 0.88203 0.43128   3
   4  16   3 0.41974 0.15860   1
   5 -16   3 0.21706 0.28082   1
   5  16   3 0.31418 0.15709   4
   4 -17  -3 0.28800 0.25714   2
   4 -17  -3 0.08235 1.15220   2
   4  17  -3 0.38658 0.23197   4
   4  17  -3 0.25444 0.32866   2
   3 -17  -3 2.08971 1.38975   4
   3 -17  -3 2.82123 0.56981   1
   3  17  -3 2.76012 0.47415   1
   3  17  -3 2.03494 0.42478   3
   2 -17  -3 0.51982 0.42699   1
   2 -17  -3 -0.7055 0.75184   1
   2 -17  -3 0.16223 0.24339   3
   2  17  -3 0.20527 0.17963   1
   2  17  -3 0.63280 0.52163   1
   2  17  -3 0.13902 0.20853   3
   2  17  -3 0.35058 0.16247   1
   1 -17  -3 6.03207 0.79425   4
   1  17  -3 3.59189 1.01053   3
   1  17  -3 4.75256 0.66037   3
   1  17  -3 6.03472 0.75321   4
   0  17  -3 2.57461 0.37966   2
   1 -17   3 7.32612 0.86369   3
   1  17   3 5.83871 1.12394   3
   1  17   3 7.92502 0.74078   1
   1  17   3 5.93819 0.75598   3
   1  17   3 7.08208 0.86533   3
   2 -17   3 -0.0378 0.11325   1
   2 -17   3 0.04716 0.04716   1
   2 -17   3 -0.0188 0.04716   1
   2  17   3 0.00000 0.03408   1
   2  17   3 -0.0085 0.03408   1
   2  17   3 -0.0085 0.01699   1
   2  17   3 0.00000 0.07660   1
   2  17   3 -0.0511 0.05961   1
   3 -17   3 3.34236 0.67042   1
   3 -17   3 4.55690 1.17565   1
   3  17   3 3.36883 0.39034   1
   3  17   3 3.12267 0.56007   1
   4 -17   3 0.06396 0.34119   1
   4 -17   3 -0.3322 0.75219   3
   4  17   3 0.07343 0.23070   2
   4  17   3 0.05239 0.15727   2
   4 -18  -3 0.71588 0.72546   3
   4  18  -3 -0.0096 0.24774   4
   4  18  -3 -0.0572 0.19058   4
   3 -18  -3 0.13998 0.10272   1
   3  18  -3 0.02577 0.03439   1
   3  18  -3 -0.0086 0.01715   1
   2 -18  -3 -0.0731 0.18272   1
   2 -18  -3 0.06396 0.22836   1
   2  18  -3 0.03375 0.05904   1
   2  18  -3 -0.1012 0.10117   1
   2  18  -3 0.05904 0.21926   1
   1  18  -3 1.51160 0.97098   3
   1  18  -3 1.36139 0.38036   3
   0  18   3 0.89957 0.19789   1
   1  18   3 1.02516 0.75649   3
   1  18   3 2.06121 0.41742   1
   1  18   3 2.44382 0.40879   1
   2  18   3 0.11746 0.07547   1
   2  18   3 0.16778 0.09230   1
   2  18   3 0.23483 0.09230   1
   2  18   3 -0.0252 0.10905   1
   3 -18   3 0.62481 0.42964   1
   3 -18   3 0.78112 1.02517   1
   3  18   3 -0.0344 0.28375   1
   3  18   3 0.28282 0.19507   4
   4 -18   3 0.77879 0.63271   3
   4 -18   3 -0.0292 0.46721   3
   4  18   3 0.80873 0.25102   4
   4 -19  -3 -0.5316 0.69294   3
   4  19  -3 0.77250 0.19315   4
   4  19  -3 0.99710 0.29443   4
   3 -19  -3 3.98195 1.26788   1
   3  19  -3 1.92341 0.38665   2
   3  19  -3 3.01470 0.50545   1
   2 -19  -3 6.06416 1.48902   1
   2 -19  -3 4.48499 0.77610   1
   2  19  -3 5.17473 0.67932   1
   1 -19  -3 1.78794 0.47480   3
   0  19  -3 0.04040 0.21200   3
   0  19   3 -0.2806 0.28058   1
   1 -19   3 3.68468 0.52636   1
   1  19   3 3.14726 0.53778   3
   1  19   3 3.22031 0.52425   3
   2  19   3 0.48479 0.32650   3
   2  19   3 0.62490 0.27980   3
   3 -19   3 1.32241 1.08663   2
   3 -19   3 2.09121 0.51257   2
   3  19   3 2.13507 0.41514   2
   3  19   3 2.44121 0.35381   1
   4 -19   3 0.40503 0.36122   3
   4 -19   3 0.05652 0.49795   1
   4  19   3 0.35037 0.27790   1
   4 -20  -3 -0.1982 0.70765   3
   4  20  -3 0.23049 0.20957   2
   4  20  -3 0.18636 0.14336   1
   3 -20  -3 0.13343 0.20014   1
   3 -20  -3 2.07718 0.76233   1
   3  20  -3 0.02021 0.20248   2
   2 -20  -3 0.29398 1.12528   3
   2  20  -3 0.82760 0.24489   1
   1  20   3 0.35374 0.30947   3
   2  20   3 1.48028 0.28438   1
   2  20   3 1.47622 0.34943   3
   3 -20   3 0.02933 0.10763   1
   3  20   3 0.01840 0.02765   1
   3  20   3 0.04605 0.03689   1
   4 -20   3 -0.0290 0.34754   3
   4  20   3 0.34038 0.17476   4
   4 -21  -3 0.66343 0.62658   1
   3 -21  -3 1.87193 0.91223   4
   3  21  -3 1.31655 0.36104   2
   2 -21  -3 7.37394 1.86891   3
   2  21  -3 7.37528 0.78363   3
   1 -21  -3 0.00871 0.05206   1
   1  21   3 0.01000 0.09972   3
   1  21   3 0.00000 0.14174   1
   2  21   3 4.40684 0.52348   4
   2  21   3 4.50627 0.57186   1
   3 -21   3 0.41839 0.74256   2
   3  21   3 0.43456 0.23798   2
   3 -22  -3 -0.3963 0.70768   4
   3  22  -3 0.43716 0.23755   4
   2 -22  -3 0.29298 0.61352   1
   2  22  -3 0.14514 0.14514   1
   1  22   3 0.03371 0.05897   1
   2 -22   3 0.13474 0.30788   1
   2  22   3 -0.0445 0.08903   1
   2  22   3 -0.0267 0.10680   1
   3 -22   3 -0.0388 0.17426   4
   3  22   3 -0.0093 0.05535   4
   3 -23  -3 1.70343 0.68519   4
   3  23  -3 1.79735 0.32167   4
   2 -23  -3 -0.4622 0.64139   1
   2 -23  -3 0.28478 0.18305   2
   2  23  -3 0.47734 0.21956   1
   1  23   3 0.14975 0.28959   2
   2 -23   3 2.01947 1.09709   1
   2  23   3 0.75989 0.32420   2
   3 -23   3 2.56020 0.73984   4
   3  23   3 2.97961 0.35754   4
   3 -24  -3 -0.0836 0.19526   4
   3  24  -3 0.02942 0.10321   4
   2 -24  -3 0.13127 0.29996   4
   2  24  -3 0.00000 0.11071   1
   1 -24  -3 0.23066 0.47058   1
   1  24  -3 0.34182 0.17086   1
   1  24   3 0.95688 0.24177   2
   2 -24   3 0.07728 0.22205   4
   2  24   3 0.00000 0.06411   1
   2 -25  -3 0.82592 0.54078   3
   2  25  -3 0.76579 0.30369   1
   1 -25  -3 3.50756 1.04615   1
   1  25  -3 3.33713 0.44635   2
   0  25   3 0.26407 0.22342   2
   1  25   3 2.43601 0.41610   4
   2 -25   3 0.47009 0.67160   4
   2  25   3 0.38899 0.17783   3
   2  26  -3 -0.0565 0.07536   4
   1 -26  -3 -0.0462 0.07406   4
   1  26  -3 -0.0095 0.04744   4
   0  26   3 0.43407 0.12005   4
   1 -26   3 -0.2295 0.25822   4
   1  26   3 0.05504 0.09177   4
   1  27  -3 0.12556 0.17261   1
   0  27  -3 0.75006 0.23187   1
   4   0  -4 2.82024 0.53767   1
   4   0  -4 2.79185 0.57532   1
   4   0  -4 2.62041 0.45283   3
   4   0  -4 2.96168 0.56596   1
   4   0  -4 2.28705 0.83164   3
   4   0  -4 2.37623 0.38612   3
   4   0  -4 2.71645 0.85830   1
   2   0  -4 0.80270 0.15855   3
   2   0  -4 0.79286 0.13877   3
   2   0  -4 0.83242 0.30726   3
   2   0  -4 1.22885 0.57476   3
   2   0  -4 1.06036 0.41621   3
   2   0  -4 0.59916 0.25384   1
   0   0   4 230.200 18.1769   4
   0   0   4 225.598 18.2171   4
   0   0  -4 223.754 19.1128   4
   0   0   4 223.718 18.8155   4
   0   0  -4 213.762 21.9848   1
   0   0   4 224.328 18.7650   4
   0   0  -4 231.315 18.1869   4
   0   0  -4 235.084 18.2271   4
   0   0  -4 222.907 18.9580   1
  -2   0  -4 0.11904 0.19848   4
   2   0   4 0.09074 0.15123   1
   2   0   4 0.13895 0.12900   4
   2   0   4 0.14881 0.05952   4
   2   0   4 0.12900 0.05952   4
   2   0   4 -0.1290 0.16872   4
   2   0   4 0.11904 0.21828   4
   2   0   4 0.06049 0.12098   1
  -2   0  -4 -0.0794 0.10919   4
   2   0   4 0.13895 0.27781   4
   4   0   4 2.51901 0.60603   1
   4   0   4 2.54741 0.48292   1
   4   0   4 1.52508 0.81206   4
   4   0   4 1.80233 0.36645   4
   4   0   4 1.86959 0.49144   2
   4   0   4 2.04549 0.64393   1
   4   0   4 1.95078 0.39772   1
   6  -1  -4 1.80379 0.39332   4
   5  -1  -4 -0.0192 0.17328   1
   5  -1  -4 0.12518 0.17328   1
   5  -1  -4 0.47185 0.19260   1
   5   1  -4 0.09578 0.15323   1
   5   1  -4 0.00000 0.11500   1
   5   1  -4 0.02872 0.04784   1
   5   1  -4 0.03833 0.16284   1
   4  -1  -4 0.01892 0.09478   1
   4  -1  -4 0.20848 0.13271   1
   4  -1  -4 0.00000 0.06636   1
   4  -1  -4 0.04734 0.03793   1
   4  -1  -4 0.13271 0.16113   1
   4  -1  -4 0.08527 0.08527   1
   4  -1  -4 0.12320 0.09478   1
   4  -1  -4 0.02842 0.05685   1
   4   1  -4 -0.0187 0.05627   1
   4   1  -4 -0.0281 0.03754   1
   4   1  -4 0.30016 0.12195   1
   4   1  -4 0.08440 0.08440   1
   4   1  -4 -0.0469 0.15008   1
   4   1  -4 -0.0281 0.07509   1
   3  -1  -4 0.04836 0.16459   2
   3  -1  -4 0.69700 0.30015   2
   3   1  -4 0.09589 0.16302   2
   3   1  -4 0.05751 0.11503   2
   3   1  -4 0.01991 0.27921   1
   3   1  -4 -0.0191 0.16302   2
   2  -1  -4 1.61009 0.28822   2
   2  -1  -4 1.50357 0.25394   1
   2  -1  -4 1.78905 0.65600   2
   2  -1  -4 1.80889 0.35781   2
   2  -1  -4 1.52385 0.15234   1
   2  -1  -4 1.80889 0.24844   2
   2  -1  -4 2.00768 0.52680   2
   2  -1  -4 1.54423 0.15234   1
   2   1  -4 1.50369 0.28443   1
   2   1  -4 2.01652 0.48435   3
  -2   1   4 1.30038 0.22347   1
   2   1  -4 1.61119 0.66233   3
  -2   1   4 1.52385 0.22347   1
   2   1  -4 1.84846 0.44479   3
   1  -1  -4 32.5432 2.78265   4
   1  -1  -4 35.1189 2.96879   4
  -1  -1   4 35.3883 2.93707   3
  -1  -1   4 35.3901 2.89362   2
   1  -1  -4 35.3612 2.92286   4
   1  -1  -4 32.3879 2.91712   4
   1  -1  -4 33.1741 2.78265   4
   1  -1  -4 35.2224 3.41361   4
   1  -1  -4 31.5811 2.89636   4
   1  -1  -4 29.6675 3.08262   4
   1  -1  -4 34.9431 3.02057   4
   1   1  -4 34.2715 2.99109   2
   1   1  -4 35.3919 2.90962   3
  -1   1   4 34.0534 2.91712   4
   1   1  -4 32.9120 3.44070   2
   1   1  -4 33.4976 2.81328   2
   1   1  -4 38.4536 2.85751   1
   1   1  -4 34.8886 3.16880   2
   1   1  -4 35.3875 2.74254   2
   1   1  -4 35.3935 2.89306   4
  -1   1   4 33.4949 2.95852   4
   1   1  -4 34.4597 2.97011   2
   0  -1   4 34.6963 2.92636   4
   0  -1  -4 32.7131 2.86432   1
   0  -1   4 34.3305 2.85198   1
   0  -1   4 32.6686 2.75540   1
   0  -1   4 33.0117 3.04491   1
   0  -1  -4 34.4790 3.02579   1
   0  -1  -4 34.6272 2.86312   4
   0  -1  -4 37.4001 2.81302   4
   0  -1   4 34.8206 2.80119   4
   0   1   4 34.4682 2.99349   1
   0   1  -4 31.1890 3.35582   1
   0   1   4 35.8985 2.87306   4
   0   1  -4 33.8051 2.85198   1
   0   1  -4 34.5904 2.94412   2
   0   1  -4 34.9900 2.85109   4
   0   1   4 33.3915 2.86432   1
   0   1   4 34.6272 2.83650   4
   0   1  -4 34.6813 2.90804   4
  -1  -1  -4 2.56694 0.38652   4
   1  -1   4 2.71772 0.44130   4
  -1  -1  -4 2.89401 0.51536   4
   1  -1   4 2.75786 0.44130   4
   1  -1   4 2.42037 0.27844   1
   1  -1   4 2.54719 0.50939   4
   1  -1   4 3.07875 0.44130   4
   1  -1   4 2.25966 0.44978   1
   1  -1   4 2.64751 0.27080   4
  -1   1  -4 2.90824 0.45126   4
   1   1   4 2.63633 0.43613   4
   1   1   4 2.27901 0.39968   1
   1   1   4 3.15169 0.47569   4
   1   1   4 2.72551 0.45591   4
   1   1   4 2.88407 0.49557   4
   1   1   4 2.55006 0.27858   4
   1   1   4 2.82462 0.45591   4
   1   1   4 2.75523 0.25768   4
  -1   1  -4 2.25966 0.49265   1
  -2  -1  -4 0.74151 0.22740   4
   2  -1   4 0.96635 0.29890   4
   2  -1   4 0.85682 0.27891   4
  -2  -1  -4 0.73160 0.35593   4
   2  -1   4 0.97634 0.13951   4
   2  -1   4 0.67478 0.40285   1
   2  -1   4 1.02610 0.13951   4
   2  -1   4 0.74719 0.44830   4
   2  -1   4 0.67478 0.22153   1
   2  -1   4 0.76708 0.24903   4
   2   1   4 0.78109 0.11861   4
   2   1   4 0.72178 0.28671   4
   2   1   4 0.96892 0.35593   4
   2   1   4 0.58534 0.26240   1
  -2   1  -4 0.91658 0.35866   4
   2   1   4 0.98865 0.43507   4
  -2   1  -4 0.48336 0.23163   1
   2   1   4 0.69213 0.11861   4
   2   1   4 0.51467 0.20186   1
   2   1   4 0.79100 0.23732   4
   2   1   4 0.68049 0.30024   4
   3  -1   4 1.19405 0.56723   3
   3  -1   4 1.80677 0.57665   2
   3   1   4 1.10970 0.60434   3
   4  -1   4 1.53316 0.49516   1
   4  -1   4 1.49504 0.31425   1
   4  -1   4 1.33314 0.37137   1
   4  -1   4 1.59983 0.58084   1
   4  -1   4 1.14136 0.44272   3
   4   1   4 2.40131 0.35781   1
   4   1   4 1.63856 0.58384   1
   4   1   4 2.61790 0.40494   1
   5  -1   4 0.59428 0.35860   2
   5   1   4 0.97611 0.24158   1
   6  -2  -4 0.58512 0.26855   4
   5  -2  -4 5.47049 1.39900   1
   5  -2  -4 4.60211 0.83934   1
   5  -2  -4 3.32853 0.66573   1
   5  -2  -4 4.04255 0.81041   1
   5   2  -4 4.64223 0.70681   1
   5   2  -4 2.84783 0.64949   2
   5   2  -4 2.71793 0.48962   2
   4  -2  -4 4.64417 0.56149   1
   4  -2  -4 5.50062 0.82791   1
   4  -2  -4 4.93913 0.84701   1
   4  -2  -4 6.19537 1.34186   1
   4  -2  -4 5.11993 0.98972   1
   4  -2  -4 5.00576 0.64711   1
   4  -2  -4 5.61489 0.69475   1
   4   2  -4 4.31785 0.91245   3
   4   2  -4 4.07708 0.75028   3
   4   2  -4 3.96845 0.76008   3
   4   2  -4 3.73149 0.56274   3
   4   2  -4 4.12639 0.67126   3
   4   2  -4 4.41911 0.58738   1
   4   2  -4 4.24482 1.02665   3
   4   2  -4 3.65258 1.21419   3
   3  -2  -4 2.70402 0.93145   1
   3  -2  -4 3.94599 0.82613   2
   3   2  -4 2.92780 0.64729   1
   3   2  -4 4.35694 0.76275   2
   3   2  -4 4.70972 0.96291   2
   2  -2  -4 0.00000 0.08143   1
   2  -2  -4 0.02990 0.07979   2
  -2  -2   4 0.01020 0.04070   1
  -2  -2   4 0.01020 0.03050   1
   2  -2  -4 0.03990 0.02990   2
   2  -2  -4 0.15948 0.07979   2
   2  -2  -4 0.03990 0.02990   2
   2  -2  -4 0.07979 0.16948   2
   2  -2  -4 0.03990 0.06979   2
   2  -2  -4 0.13959 0.08969   2
   2  -2  -4 0.09969 0.22928   2
   2   2  -4 -0.0592 0.05917   3
  -2   2   4 -0.0598 0.05979   2
   2   2  -4 -0.0592 0.05917   3
  -2   2   4 0.02030 0.06102   1
   2   2  -4 0.01020 0.05080   1
   2   2  -4 -0.0099 0.14792   3
   2   2  -4 0.01020 0.22371   1
   2   2  -4 -0.0395 0.12824   3
   1  -2  -4 1.09493 0.37185   3
   1  -2  -4 1.12591 0.51649   3
   1  -2  -4 1.29342 0.39801   1
   1  -2  -4 1.08457 0.37185   3
   1  -2  -4 1.21885 0.26855   3
   1  -2  -4 1.04323 0.25819   3
   1  -2  -4 1.12591 0.16525   3
  -1  -2   4 0.83109 0.28407   2
   1  -2  -4 0.89859 0.16525   3
  -1  -2   4 0.92574 0.37872   2
   1  -2  -4 1.22921 0.19623   3
   1   2  -4 0.89419 0.13676   2
   1   2  -4 0.79954 0.14731   2
   1   2  -4 1.14671 0.35772   2
   1   2  -4 1.06250 0.25252   2
  -1   2   4 0.48551 0.29953   3
   1   2  -4 1.08350 0.34717   2
  -1   2   4 1.03287 0.30989   3
   1   2  -4 1.31299 0.48995   1
   1   2  -4 0.93630 0.34717   2
   1   2  -4 1.25422 0.27431   1
   0  -2   4 10.6189 1.12791   1
   0  -2  -4 10.5677 0.91193   1
   0  -2   4 11.6116 1.05375   3
   0  -2   4 9.96982 1.05341   1
   0  -2  -4 10.6106 1.04063   1
   0  -2  -4 11.6264 1.10873   4
   0  -2   4 10.5232 0.89374   1
   0  -2   4 10.8423 0.90442   1
   0  -2  -4 10.0955 1.07281   1
   0   2   4 11.5653 1.04063   1
   0   2  -4 10.7573 1.08532   1
   0   2  -4 11.1722 1.02150   1
   0   2  -4 9.83150 1.11723   1
   0   2   4 10.6320 0.90116   1
   0   2   4 10.4818 1.02998   1
   0   2   4 10.7501 1.09433   1
   0   2  -4 10.5551 0.89374   1
   0   2  -4 11.4170 1.22364   1
   1  -2   4 25.2260 2.21903   4
   2  -2   4 4.43877 0.80527   2
   2  -2   4 5.61908 0.72992   4
   2  -2   4 3.67379 0.53348   2
   2  -2   4 3.43229 0.59386   2
  -2  -2  -4 4.48060 0.73671   1
   2  -2   4 4.32802 0.39254   2
   2  -2   4 3.17060 0.58376   2
   2  -2   4 4.73923 0.61990   4
   2  -2   4 4.03614 0.38244   2
  -2   2  -4 3.92549 0.54347   2
   2   2   4 5.16452 0.70963   4
   2   2   4 4.83927 0.55194   4
   2   2   4 4.81949 0.38437   4
   2   2   4 4.21822 0.55501   1
   2   2   4 4.17784 0.38344   1
   2   2   4 3.83479 0.55501   1
   2   2   4 3.57241 0.50461   1
   2   2   4 4.68159 0.64062   4
  -2   2  -4 3.65370 0.69451   2
   2   2   4 4.53111 0.54489   1
   3  -2   4 1.49232 0.62578   2
   3  -2   4 2.15653 0.59691   2
   3   2   4 2.04623 0.51389   2
   3   2   4 1.84642 0.50445   2
   4  -2   4 4.27084 0.51704   1
   4  -2   4 3.68364 0.71105   3
   4  -2   4 4.74956 0.76611   1
   4  -2   4 3.48064 0.51711   4
   4  -2   4 3.68325 0.94314   4
   4   2   4 3.72650 0.73031   1
   4   2   4 3.68249 0.51115   2
   4   2   4 4.02610 0.63667   1
   5  -2   4 1.38048 0.53466   3
   5   2   4 1.85106 0.33741   1
   5   2   4 1.57148 0.28925   1
   5  -3  -4 0.74425 0.22233   1
   5  -3  -4 0.74425 0.21263   1
   5   3  -4 0.03814 0.15246   1
   5   3  -4 0.40023 0.35263   1
   4  -3  -4 0.21008 0.11457   1
   4  -3  -4 0.29610 0.13373   1
   4  -3  -4 0.00000 0.22924   1
   4  -3  -4 0.06687 0.06687   1
   4  -3  -4 0.02864 0.11457   1
   4   3  -4 0.00989 0.26624   3
   4   3  -4 0.00989 0.14785   3
   4   3  -4 -0.0278 0.06483   1
   4   3  -4 0.08331 0.11108   1
   4   3  -4 0.01848 0.08331   1
   4   3  -4 0.17591 0.16662   1
   4   3  -4 0.09260 0.10189   1
   3  -3  -4 0.18529 0.20486   2
   3  -3  -4 0.04872 0.14625   2
   3   3  -4 -0.1042 0.14206   2
   3   3  -4 -0.1516 0.18948   2
   2  -3  -4 0.11217 0.25481   1
   2  -3  -4 -0.1499 0.22989   2
   2  -3  -4 0.02035 0.13252   1
   2  -3  -4 0.20389 0.07137   1
  -2  -3   4 -0.0690 0.12804   3
   2  -3  -4 0.18344 0.20389   1
   2  -3  -4 0.35982 0.21986   2
   2  -3  -4 -0.2399 0.46980   2
  -2  -3   4 0.22395 0.15267   1
   2  -3  -4 0.16309 0.07137   1
   2  -3  -4 0.16309 0.32619   1
   2   3  -4 0.34469 0.48261   3
   2   3  -4 0.20363 0.06107   1
   2   3  -4 0.21384 0.16288   1
   2   3  -4 0.45307 0.29550   3
   2   3  -4 0.26596 0.17724   3
   2   3  -4 0.13235 0.11203   1
  -2   3   4 0.13252 0.16309   1
   2   3  -4 0.06107 0.11203   1
   2   3  -4 0.04075 0.12214   1
  -2   3   4 0.13252 0.18344   1
   2   3  -4 0.17310 0.05085   1
   1  -3  -4 3.42236 0.34121   3
   1  -3  -4 3.87021 0.73999   1
  -1  -3   4 2.96481 0.53805   2
   1  -3  -4 3.44272 0.56353   2
   1  -3  -4 3.48020 0.34998   1
   1  -3  -4 4.08015 0.58000   1
   1  -3  -4 3.55011 0.63006   1
   1  -3  -4 3.37060 0.47562   3
   1  -3  -4 3.87021 0.59003   1
  -1  -3   4 2.89093 0.55922   2
   1   3  -4 3.98161 0.68652   1
   1   3  -4 3.40793 0.32713   2
   1   3  -4 3.68738 0.53936   1
   1   3  -4 4.24642 0.54920   1
   1   3  -4 3.44385 0.58745   3
  -1   3   4 2.82270 0.49626   3
  -1   3   4 3.44240 0.48591   3
   1   3  -4 3.11255 0.32713   2
   1   3  -4 3.23913 0.47477   2
   1   3  -4 3.22854 0.48535   2
   0  -3   4 12.9691 1.21852   2
   0  -3   4 15.8371 1.33386   3
   0  -3  -4 14.1534 1.48194   2
   0  -3   4 14.6128 1.32388   3
   0  -3   4 17.7583 1.50311   3
   0  -3  -4 14.5355 1.44561   4
   0  -3  -4 13.8742 1.40675   2
   0  -3  -4 13.4232 1.26716   2
   0  -3   4 14.8915 1.18459   3
   0   3   4 16.6590 1.33591   4
   0   3  -4 15.4092 1.18459   3
   0   3   4 14.2179 1.41961   4
   0   3   4 13.9386 1.41753   2
   0   3  -4 16.6832 1.35373   3
   0   3   4 14.2686 1.41640   4
   0   3  -4 14.2445 1.43341   3
   0   3   4 12.9722 1.26716   2
   1  -3   4 -0.0810 0.29332   4
  -1  -3  -4 0.47241 0.23626   4
   1  -3   4 0.30480 0.29425   1
  -1  -3  -4 0.33315 0.37604   1
   1  -3   4 0.51582 0.12135   4
   1  -3   4 0.14718 0.31534   1
   1  -3   4 0.13664 0.35741   1
   1  -3   4 -0.2630 0.26299   4
   1   3   4 0.30081 0.35460   1
   1   3   4 0.29014 0.25792   1
   1   3   4 0.43312 0.27555   4
  -1   3  -4 0.41467 0.27313   4
  -1   3  -4 0.51582 0.41467   4
   1   3   4 0.51181 0.26578   4
   1   3   4 0.20413 0.10746   1
  -1   3  -4 0.28382 0.09457   1
   1   3   4 0.24714 0.26859   1
   1   3   4 0.37604 0.24714   1
   1   3   4 0.15046 0.15046   1
   1   3   4 0.27937 0.10746   1
  -2  -3  -4 0.09081 0.26242   1
   2  -3   4 0.34928 0.34928   1
   2  -3   4 0.24947 0.29943   1
   2  -3   4 0.29943 0.39924   1
   2  -3   4 0.09076 0.21188   3
   2  -3   4 0.29943 0.24947   1
   2  -3   4 0.16139 0.09076   3
   2  -3   4 0.18152 0.27239   3
   2   3   4 -0.0393 0.15729   3
   2   3   4 0.04040 0.28256   1
   2   3   4 0.13121 0.17161   1
   2   3   4 0.16148 0.06054   1
   2   3   4 0.01013 0.19175   1
   2   3   4 0.50136 0.34407   3
   2   3   4 0.12108 0.08079   1
   2   3   4 0.16148 0.19175   1
   2   3   4 0.15135 0.21200   1
  -2   3  -4 0.10088 0.31276   3
   3  -3   4 -0.0964 0.16397   1
   3  -3   4 0.03860 0.24107   1
   3  -3   4 0.21214 0.22182   1
   3   3   4 0.02959 0.17757   1
   3   3   4 0.01970 0.22696   1
   3   3   4 0.00990 0.08878   1
   4  -3   4 0.27901 0.12956   4
   4  -3   4 0.67414 0.35634   1
   4  -3   4 0.75113 0.28892   1
   4  -3   4 0.85709 0.44299   1
   4  -3   4 0.51041 0.41411   1
   4  -3   4 0.38867 0.61790   4
   4   3   4 0.66083 0.25134   1
   4   3   4 0.48400 0.22342   1
   4   3   4 0.09850 0.34471   3
   4   3   4 0.52125 0.32575   1
   5  -3   4 1.33367 0.44781   3
   5   3   4 1.50009 0.27886   1
   5  -4  -4 4.14447 0.66816   1
   5   4  -4 3.54165 0.64738   1
   5   4  -4 4.77930 1.00923   1
   5   4  -4 2.73239 0.47606   1
   4  -4  -4 0.21069 0.10539   1
   4  -4  -4 0.34480 0.18196   1
   4  -4  -4 0.06706 0.10539   1
   4  -4  -4 0.26814 0.13412   1
   4   4  -4 -0.0092 0.04590   1
   4   4  -4 0.14702 0.11946   1
   4   4  -4 -0.0276 0.04590   1
   4   4  -4 0.06434 0.08268   1
   4   4  -4 -0.0643 0.22058   1
   3  -4  -4 2.40649 0.85103   2
   3  -4  -4 2.52384 0.66518   2
   3   4  -4 2.82218 0.72432   2
   3   4  -4 2.50239 0.85605   2
  -2  -4   4 3.83009 0.58067   1
  -2  -4   4 3.40228 0.46858   1
   2   4  -4 4.41841 0.72816   3
   2   4  -4 4.65451 0.51169   3
   2   4  -4 4.76279 0.36413   3
   2   4  -4 4.15603 0.50935   1
   2   4  -4 3.70789 0.46858   1
   2   4  -4 2.94391 0.42781   1
   2   4  -4 5.67800 0.94472   3
   2   4  -4 3.83009 0.45836   1
   2   4  -4 4.09493 0.36671   1
  -1  -4   4 15.1660 1.39472   3
   1  -4  -4 15.1540 1.47091   3
   1  -4  -4 12.9995 1.35693   3
  -1  -4   4 13.9100 1.53850   2
   1  -4  -4 15.2405 1.41563   1
   1  -4  -4 14.6982 1.49158   3
   1  -4  -4 15.7123 1.21482   1
   1  -4  -4 13.1549 1.23266   3
   1  -4  -4 15.8830 1.42570   1
   1   4  -4 14.4580 1.48586   2
   1   4  -4 14.7320 1.25405   2
   1   4  -4 15.2042 1.29904   1
   1   4  -4 12.8879 1.36990   2
  -1   4   4 13.9214 1.41906   3
   1   4  -4 14.7425 1.69663   2
  -1   4   4 13.2585 1.38799   3
   1   4  -4 15.5684 1.39746   1
   1   4  -4 15.0271 1.25405   2
   1   4  -4 15.1653 1.43166   4
   0  -4   4 0.31827 0.11673   2
   0  -4  -4 0.44852 0.29905   4
   0  -4  -4 0.60799 0.20936   4
   0  -4   4 0.37963 0.11986   3
   0  -4   4 0.25464 0.28646   2
   0  -4  -4 0.51831 0.31894   4
   0  -4   4 0.35180 0.30002   3
   0  -4   4 0.13791 0.39255   2
   0   4   4 0.44852 0.26915   4
   0   4   4 0.45852 0.19936   4
   0   4  -4 0.46962 0.24974   3
   0   4   4 0.43862 0.25915   4
   0   4   4 0.38873 0.09968   4
   0   4   4 0.14003 0.25856   2
   0   4  -4 0.20154 0.37126   2
   1  -4   4 6.04463 0.73022   4
  -1  -4  -4 5.19042 0.79098   4
   1   4   4 4.32099 0.63105   2
   1   4   4 5.17563 0.66111   4
   1   4   4 4.87726 0.44920   2
   1   4   4 4.71676 0.67385   2
   1   4   4 3.70067 0.43847   2
   1   4   4 4.64187 0.65240   2
   1   4   4 4.96276 0.66312   2
   1   4   4 4.83445 0.62032   2
   2  -4   4 2.80801 0.52776   1
   2  -4   4 2.92746 0.52776   1
   2  -4   4 2.39970 0.45805   1
   2  -4   4 1.76929 0.47523   3
  -2  -4  -4 1.51267 0.44377   1
   2  -4   4 2.55901 0.63723   1
   2  -4   4 2.69844 0.27876   1
   2  -4   4 1.23352 0.40445   3
   2  -4   4 2.34996 0.24890   1
   2   4   4 2.37486 0.23556   3
   2   4   4 1.75473 0.36304   1
   2   4   4 1.68413 0.36304   1
  -2   4  -4 3.78383 0.62734   1
   2   4   4 2.30615 0.54957   3
   2   4   4 2.34543 0.37287   3
   2   4   4 2.41414 0.52988   3
   2   4   4 2.04116 0.37287   3
   3  -4   4 0.52106 0.53111   3
   3  -4   4 1.03375 0.15457   1
   3  -4   4 1.00477 0.23191   1
   3  -4   4 0.85175 0.52106   3
   3  -4   4 1.07242 0.22222   1
   3  -4   4 1.07242 0.26089   1
   3  -4   4 0.82169 0.15027   3
   3  -4   4 1.23668 0.42515   1
   3  -4   4 0.92987 0.63928   3
   3  -4   4 0.89185 0.27058   3
   3   4   4 1.01548 0.53599   2
   3   4   4 1.41981 0.29153   2
   3   4   4 1.72067 0.34793   2
   3   4   4 0.81746 0.43338   1
   3   4   4 1.12828 0.16920   2
   3   4   4 0.67955 0.53176   1
   3   4   4 0.88631 0.24617   1
   4  -4   4 0.02995 0.06993   4
   4  -4   4 0.05810 0.16467   1
   4  -4   4 0.06781 0.31963   1
   4  -4   4 0.16467 0.25182   1
   4  -4   4 0.05810 0.33896   1
   4  -4   4 -0.1356 0.13562   1
   4   4   4 0.04621 0.33302   1
   4   4   4 -0.0277 0.11098   1
   4   4   4 0.09251 0.12026   1
   5  -4   4 2.28061 0.57504   3
   5   4   4 2.23476 0.39319   1
   6   4   4 0.09456 0.07569   4
   6  -5  -4 -0.0096 0.03831   4
   6   5  -4 0.00000 0.02978   1
   5  -5  -4 1.88017 0.59114   1
   4  -5  -4 0.53760 0.30717   1
   4  -5  -4 0.14395 0.38401   1
   4  -5  -4 0.00000 0.23996   1
   4  -5  -4 0.23996 0.23043   1
   4   5  -4 0.03939 0.08855   3
   4   5  -4 0.07296 0.13668   1
   4   5  -4 0.51957 0.32812   1
   4   5  -4 -0.3008 0.42842   1
   4   5  -4 -0.0638 0.16401   1
   4   5  -4 0.52861 0.41013   1
   3  -5  -4 0.03925 0.06866   2
   3  -5  -4 -0.0098 0.15690   2
   3  -5  -4 -0.0785 0.25497   2
   3  -5  -4 -0.0588 0.09807   2
   3  -5  -4 -0.0687 0.12748   2
   3   5  -4 0.03737 0.07474   2
   3   5  -4 0.07474 0.18674   2
   3   5  -4 0.00994 0.05941   1
   3   5  -4 -0.1961 0.19611   2
   2  -5  -4 0.63528 0.29714   1
   2  -5  -4 1.32550 0.41165   2
   2  -5  -4 1.03421 0.17072   2
   2  -5  -4 0.96401 0.17072   2
   2  -5  -4 1.18489 0.48195   2
   2  -5  -4 1.22508 0.71290   2
   2  -5  -4 0.77876 0.34843   1
   2  -5  -4 0.96401 0.36149   2
  -2  -5   4 0.91618 0.28500   1
  -2   5   4 0.67629 0.28686   1
   2   5  -4 0.91618 0.25447   1
   2   5  -4 2.31178 0.39352   3
   2   5  -4 3.06932 0.72793   3
   2   5  -4 1.22970 0.14752   3
   2   5  -4 1.72150 0.53117   3
   2   5  -4 0.89586 0.21383   1
   2   5  -4 1.20996 0.29514   3
  -1  -5   4 16.0841 1.63898   1
  -1  -5   4 16.0739 1.76110   1
   1   5  -4 19.9046 1.67930   1
   1   5  -4 15.9676 1.72596   4
   1   5  -4 16.0332 1.45569   1
   1   5  -4 15.1542 1.63486   2
   1   5  -4 17.6919 1.72864   1
   1   5  -4 17.6227 1.42247   1
  -1   5   4 19.4725 1.44986   1
   1   5  -4 15.9829 1.56079   1
   1   5  -4 20.4578 1.88678   1
   0  -5  -4 2.36322 0.39887   4
   0  -5  -4 4.06822 0.61821   4
   0  -5  -4 2.22687 0.28771   4
   0  -5   4 2.27719 0.47152   3
   0  -5   4 2.34732 0.45139   3
   0  -5  -4 2.20512 0.50561   2
   0  -5  -4 2.71218 0.49859   4
   0  -5   4 1.54478 0.66663   2
   0  -5   4 2.40759 0.27088   3
   0   5   4 1.82866 0.26888   2
   0   5  -4 2.59817 0.48148   3
   0   5  -4 2.46777 0.55171   3
   0   5   4 1.85013 0.37646   2
   0   5  -4 3.11980 0.50160   3
   0   5   4 2.22905 0.38982   4
   0   5   4 2.25350 0.42878   4
   0   5  -4 2.56809 0.56178   3
   0   5  -4 2.47772 0.27088   3
   0   5   4 2.23349 0.47858   4
  -1  -5  -4 13.6524 1.26632   2
  -1  -5  -4 15.6291 1.47442   3
   1  -5   4 13.4859 1.52026   1
   1  -5   4 15.2196 1.31155   4
   1  -5   4 14.2719 1.46860   1
   1  -5   4 14.4649 1.49605   4
   1  -5   4 14.6197 1.21997   4
  -1  -5  -4 16.1795 1.46456   3
   1   5   4 14.4835 1.51966   3
   1   5   4 13.9823 1.42589   2
   1   5   4 14.8721 1.33678   3
  -1   5  -4 14.7723 1.56568   4
   1   5   4 14.4629 1.19932   1
  -1   5  -4 13.8996 1.53064   1
  -1   5  -4 14.4729 1.45348   4
  -1   5  -4 13.2790 1.23073   1
   2  -5   4 0.52682 0.39760   1
   2  -5   4 0.29379 0.14187   3
   2  -5   4 0.02022 0.27357   3
   2  -5   4 0.05061 0.38495   3
   2   5   4 0.37238 0.24156   1
   2   5   4 0.24156 0.37238   1
   2   5   4 0.31202 0.20128   1
   2   5   4 0.35219 0.10064   1
   2   5   4 0.20128 0.18109   1
   2   5   4 0.23147 0.08056   1
   2   5   4 0.18109 0.34220   1
   3  -5   4 3.53351 0.58089   1
   3  -5   4 3.56254 0.62925   1
   3  -5   4 3.14657 0.39833   3
   3  -5   4 3.44641 0.79385   1
   3  -5   4 2.04942 0.39179   3
   3  -5   4 2.81284 0.51230   3
   3  -5   4 2.92338 0.68311   3
   3  -5   4 2.85304 0.70326   3
   3  -5   4 2.61190 0.46212   3
   3  -5   4 3.15273 0.31040   4
   3   5   4 3.50107 0.65358   2
   3   5   4 3.82791 0.53221   2
   3   5   4 4.07065 0.79358   2
   3   5   4 2.90920 0.42264   1
   3   5   4 2.81101 0.34397   1
   3   5   4 3.13288 0.46125   1
   3   5   4 3.34243 0.74695   2
   4  -5   4 -0.1169 0.17530   1
   4  -5   4 0.42867 0.47733   1
   4  -5   4 -0.4773 0.79881   1
   4  -5   4 0.43834 0.26305   1
   4  -5   4 0.58452 0.34092   1
   4  -5   4 0.11013 0.62051   4
   4   5   4 0.28487 0.22594   3
   4   5   4 0.54230 0.24819   1
   4   5   4 0.15716 0.41257   3
   4   5   4 -0.0092 0.60665   1
   4   5   4 0.30458 0.21609   3
   5  -5   4 0.01059 0.26391   2
   5   5   4 -0.0383 0.07658   1
   5   5   4 -0.1721 0.17215   1
   6   5   4 0.01499 0.19428   1
   6   6  -4 0.12552 0.26661   1
   5  -6  -4 0.85346 0.39759   1
   5   6  -4 0.34430 0.28346   2
   4  -6  -4 0.88043 0.16007   3
   4  -6  -4 1.27886 0.83653   1
   4  -6  -4 1.81735 0.72117   1
   4  -6  -4 1.26931 0.50001   1
   4  -6  -4 0.96052 0.35014   3
   4  -6  -4 2.30781 0.61536   1
   4   6  -4 0.39343 0.76713   3
   4   6  -4 2.04215 0.85843   1
   4   6  -4 0.86549 0.28521   3
   3  -6  -4 9.18114 1.03571   1
   3  -6  -4 9.84486 0.75419   1
   3  -6  -4 9.91484 0.87162   3
   3  -6  -4 8.83920 1.40782   1
   3  -6  -4 7.92412 0.87483   1
   3  -6  -4 8.73863 1.03571   1
   3  -6  -4 9.30178 0.75419   1
   3  -6  -4 9.56323 1.08605   1
   3  -6  -4 8.87944 1.50839   1
   3  -6  -4 8.88953 0.88492   1
   3   6  -4 8.05404 1.12656   1
   3   6  -4 9.05213 0.93882   1
   3   6  -4 7.66864 1.24511   1
   3   6  -4 8.84456 0.80044   1
   3   6  -4 9.13113 1.48232   1
   2  -6  -4 14.9937 1.55875   2
   2  -6  -4 14.9736 1.20671   2
   2  -6  -4 16.1502 1.91068   2
   2  -6  -4 15.5971 1.46816   2
   2   6  -4 13.2247 1.35088   1
   2   6  -4 12.7168 1.30014   1
   2   6  -4 14.4191 1.73267   2
   2   6  -4 14.2723 1.57605   2
   2   6  -4 15.5939 1.16493   2
   2   6  -4 13.7033 1.30457   4
   2   6  -4 12.0160 1.18837   1
   1  -6  -4 -0.0605 0.06047   2
  -1  -6   4 0.14858 0.32698   3
   1  -6  -4 0.16130 0.09071   2
   1  -6  -4 -0.1412 0.27224   2
   1  -6  -4 0.22177 0.21176   2
  -1  -6   4 -0.0297 0.21795   3
   1  -6  -4 0.06240 0.27048   1
   1  -6  -4 -0.0201 0.21176   2
   1   6  -4 0.14858 0.31704   3
   1   6  -4 0.16846 0.07931   3
  -1   6   4 0.06240 0.06240   1
  -1   6   4 -0.0201 0.20165   2
   1   6  -4 0.21795 0.29726   3
   1   6  -4 -0.1288 0.12880   3
   1   6  -4 0.10180 0.07127   3
   1   6  -4 0.00000 0.31092   1
   1   6  -4 0.02073 0.16614   2
   1   6  -4 0.11886 0.20811   3
  -1   6   4 0.11094 0.20165   2
   1   6  -4 0.08312 0.06229   2
  -1   6   4 -0.0404 0.19154   2
   0  -6   4 3.78518 0.60405   3
   0  -6   4 4.61068 0.63425   3
   0   6  -4 3.99663 0.59396   3
  -1  -6  -4 0.51140 0.40318   3
  -1  -6  -4 0.68848 0.42291   3
   1  -6   4 -0.2241 0.42783   4
   1  -6   4 0.26741 0.28794   1
   1  -6   4 0.29826 0.14402   1
   1  -6   4 0.49915 0.40750   4
   1  -6   4 -0.2241 0.32595   4
   1   6   4 0.42357 0.11651   1
  -1   6  -4 0.47882 0.49915   4
   1   6   4 0.44470 0.32830   1
   1   6   4 0.67861 0.31469   3
   1   6   4 0.45598 0.33706   4
  -1   6  -4 0.66213 0.49915   4
   1   6   4 0.48191 0.12785   3
  -1   6  -4 0.41144 0.28794   1
  -1   6  -4 0.34974 0.13371   1
   1   6   4 0.19054 0.14827   1
   2  -6   4 4.55661 0.81191   3
   2  -6   4 5.26116 0.91327   1
   2  -6   4 5.95597 0.90331   1
   2  -6   4 5.54902 0.55591   1
   2   6   4 5.73100 0.81176   2
   2   6   4 5.81899 0.50854   2
   2   6   4 5.36911 0.82147   2
   2   6   4 5.12465 0.67482   2
   3  -6   4 3.43374 0.52360   3
   3  -6   4 4.10834 0.80561   3
   3  -6   4 4.09834 0.71491   3
   3  -6   4 4.78310 0.71792   1
   3  -6   4 5.83093 1.12549   1
   3  -6   4 3.56464 0.53371   3
   3  -6   4 4.77347 0.42694   1
   3  -6   4 3.97744 0.82571   3
   3  -6   4 4.28964 0.86601   3
   3   6   4 5.27228 0.91735   2
   3   6   4 5.70781 0.89876   2
   3   6   4 5.32786 0.66714   2
   3   6   4 4.72515 0.68038   1
   3   6   4 4.46245 0.45115   1
   3   6   4 3.85439 0.50998   1
   3   6   4 4.20746 0.49041   1
   4  -6   4 1.87533 0.36102   4
   4  -6   4 2.33194 0.62704   1
   4  -6   4 2.20210 0.98743   3
   4  -6   4 2.78266 0.61731   1
   4  -6   4 2.20456 0.41151   1
   4   6   4 2.08041 0.41214   3
   4   6   4 2.04114 0.88315   3
   4   6   4 2.20282 0.61246   2
   4   6   4 3.25057 0.56611   1
   5  -6   4 0.72238 0.41000   3
   5   6   4 0.43092 0.26677   2
   5   6   4 0.51305 0.58489   2
   6  -7  -4 0.00000 0.04266   1
   6   7  -4 0.00000 0.03335   1
   5   7  -4 0.05104 0.14309   2
   4  -7  -4 0.95208 0.21050   2
   4  -7  -4 0.56124 0.46101   2
   4  -7  -4 1.30281 0.53118   2
   4  -7  -4 0.80179 0.61130   2
   4  -7  -4 1.13242 0.46101   2
   4  -7  -4 0.42090 0.84180   2
   4   7  -4 1.80030 0.29557   1
   4   7  -4 1.52260 0.78816   1
   4   7  -4 1.42404 0.26871   1
   3  -7  -4 0.10826 0.09839   2
   3  -7  -4 -0.0394 0.06888   2
   3  -7  -4 -0.0491 0.04914   2
   3  -7  -4 0.00000 0.02984   1
   3  -7  -4 0.00000 0.15920   1
   3  -7  -4 0.08852 0.08852   2
   3  -7  -4 0.00987 0.01964   2
   3  -7  -4 0.00000 0.10950   1
   3  -7  -4 -0.0295 0.06888   2
   3  -7  -4 -0.0099 0.04914   2
   3   7  -4 0.01834 0.02756   2
   3   7  -4 0.06433 0.13779   2
   3   7  -4 0.18379 0.12867   2
   3   7  -4 -0.0459 0.04590   2
   3   7  -4 0.10111 0.10111   2
   3   7  -4 0.05512 0.05512   2
   3   7  -4 0.02756 0.03678   2
   2   7  -4 2.48761 0.32357   1
   2   7  -4 3.31681 0.34385   1
   2   7  -4 3.55384 0.68749   2
   2   7  -4 2.79099 0.47531   1
   2   7  -4 4.26067 0.84242   2
   2   7  -4 3.39892 0.51324   2
   1  -7  -4 0.48420 0.35306   2
   1  -7  -4 1.88652 0.41357   2
   1  -7  -4 0.92813 0.43381   2
  -1  -7   4 0.82449 0.38738   3
   1  -7  -4 0.68598 0.37330   2
  -1  -7   4 2.37402 0.58606   3
   1   7  -4 1.15229 0.38738   3
  -1   7   4 0.47419 0.35306   2
   1   7  -4 3.46662 0.63567   3
   1   7  -4 1.79793 0.22846   3
   1   7  -4 2.95011 0.52648   3
   1   7  -4 3.04945 0.52648   3
   0  -7   4 -0.0201 0.37354   3
   0  -7  -4 0.41926 0.36940   3
   0  -7   4 0.35329 0.30287   3
   0  -7  -4 0.29950 0.29950   3
   0  -7   4 0.03126 0.30230   2
   0  -7  -4 0.11708 0.11708   1
   0  -7  -4 0.17964 0.21959   3
   0  -7   4 -0.0303 0.10096   3
   0  -7  -4 0.16973 0.27947   3
   0   7   4 0.04259 0.26596   1
   0   7   4 0.40925 0.21959   3
   0   7   4 0.12764 0.24473   1
   0   7   4 0.20968 0.08982   3
   0   7   4 0.15946 0.22335   3
   0   7  -4 -0.3230 0.32301   3
   0   7  -4 0.08344 0.35448   2
   0   7  -4 -0.0707 0.20191   3
   0   7  -4 0.04172 0.11471   2
   1  -7   4 11.4523 1.27476   2
   1  -7   4 10.7550 1.23938   1
  -1  -7  -4 13.0037 1.32895   3
  -1  -7  -4 11.1234 1.34830   1
   1  -7   4 8.90098 1.30082   1
   1  -7   4 12.1457 1.00962   2
   1   7   4 12.0390 1.20098   3
  -1   7  -4 11.8194 1.28488   2
   1   7   4 11.0390 1.22194   1
   1   7   4 11.4073 1.19152   3
   1   7   4 11.4532 0.97620   3
  -1   7  -4 11.7174 1.34616   2
  -1   7  -4 9.57703 1.33154   1
   1   7   4 11.9505 1.13206   3
   2  -7   4 0.33532 0.28446   3
   2  -7   4 0.54545 0.14872   1
   2  -7   4 0.50575 0.42647   1
   2  -7   4 0.46616 0.42647   1
   2   7   4 0.40878 0.26282   2
   2   7   4 0.95385 0.36016   2
   3  -7   4 1.09874 0.28198   1
   3  -7   4 0.43391 0.43391   3
   3  -7   4 0.97233 0.73903   1
   3  -7   4 0.50456 0.27248   3
   3  -7   4 0.29262 0.62562   3
   3  -7   4 0.70011 0.17498   1
   3  -7   4 1.03076 0.51538   1
   3  -7   4 0.95293 0.46671   1
   3   7   4 0.82737 0.22068   2
   3   7   4 0.99291 0.16544   2
   3   7   4 0.57787 0.47009   3
   3   7   4 0.47009 0.52884   3
   3   7   4 0.81825 0.12874   2
   3   7   4 0.80902 0.26660   2
   3   7   4 1.00213 0.38611   2
   4  -7   4 -0.2661 0.26614   1
   4  -7   4 0.20702 0.26614   1
   4  -7   4 -0.0986 0.11824   1
   4  -7   4 -0.1281 0.53218   1
   4   7   4 -0.1088 0.24492   1
   4   7   4 -0.2449 0.33563   1
   4   7   4 0.63496 0.21772   1
   4   7   4 -0.0181 0.05441   1
   4   7   4 -0.0453 0.10881   1
   5  -7   4 0.09692 0.30156   1
   5  -7   4 0.69340 0.45907   3
   5   7   4 0.17130 0.30460   1
   5   7   4 0.15517 0.15517   2
   6  -8  -4 0.42405 0.36553   1
   5  -8  -4 -0.0776 0.07758   1
   5   8  -4 -0.0096 0.06693   1
   4  -8  -4 -0.0192 0.12521   1
   4  -8  -4 -0.2215 0.33707   1
   4  -8  -4 0.34673 0.61637   1
   4  -8  -4 0.01007 0.35132   2
   4  -8  -4 -0.2215 0.27930   1
   4   8  -4 -0.1865 0.56825   1
   4   8  -4 0.00986 0.15725   3
   4   8  -4 -0.1421 0.14206   1
   3  -8  -4 1.28933 0.26189   1
   3  -8  -4 1.25912 0.21157   1
   3  -8  -4 0.62451 0.85618   1
   3  -8  -4 0.80587 0.61440   1
   3  -8  -4 1.24901 0.67493   1
   3  -8  -4 0.91660 0.49356   1
   3  -8  -4 0.90650 0.49356   1
   3  -8  -4 1.21880 0.44325   1
   3  -8  -4 1.15838 0.32231   1
   3   8  -4 1.40403 0.63823   2
   3   8  -4 1.85077 0.31907   2
   3   8  -4 1.29172 0.19660   3
   3   8  -4 2.36133 0.44673   2
   3   8  -4 1.67756 0.27353   2
   2  -8  -4 17.2657 1.59882   2
   2  -8  -4 18.0701 1.83011   2
   2  -8  -4 18.6132 2.48372   2
   2   8  -4 18.8395 1.68395   2
   2   8  -4 18.5333 1.96141   2
   2   8  -4 18.4567 1.51178   2
   1  -8  -4 0.20185 0.10092   2
   1  -8  -4 0.26238 0.24224   2
  -1  -8   4 -0.0100 0.29841   3
  -1  -8   4 -0.0398 0.20892   3
   1  -8  -4 0.51464 0.30277   2
   1  -8  -4 0.87795 0.32292   2
   1  -8  -4 1.25138 0.32292   2
   1   8  -4 0.08949 0.26858   3
   1   8  -4 -0.2188 0.21879   3
  -1   8   4 -0.0605 0.21197   2
   1   8  -4 -0.1393 0.21879   3
   1   8  -4 0.03107 0.09321   1
   1   8  -4 -0.0298 0.11932   3
   0  -8  -4 1.42364 0.49938   1
   0  -8   4 1.15422 0.59276   1
   0  -8  -4 2.15755 0.28966   3
   0  -8  -4 2.36735 0.41951   3
   0  -8  -4 2.30734 0.58933   3
   0  -8   4 1.84054 0.59276   1
   0  -8  -4 2.04823 0.53252   3
   0  -8   4 1.74698 0.29111   1
   0  -8   4 1.98614 0.60308   1
   0   8  -4 2.57929 0.72827   3
   0   8   4 1.89116 0.43554   1
   0   8   4 2.03156 0.48272   3
   0   8  -4 1.93410 0.43672   1
   0   8  -4 2.25563 0.72827   3
   0   8   4 2.06768 0.40949   3
   0   8   4 1.64680 0.25502   1
   0   8   4 2.03795 0.48137   3
   0   8  -4 2.09381 0.29332   3
   1   8   4 43.6858 3.43926   3
   1   8   4 37.0437 3.42947   3
   1   8   4 37.6154 3.22248   3
   2  -8   4 33.6723 3.66651   1
   2  -8   4 39.5585 3.28988   1
   2  -8   4 36.4766 3.51780   1
   2  -8   4 33.2964 3.30527   3
   2   8   4 41.8495 3.33835   2
   2   8   4 40.0119 3.62698   2
   2   8   4 42.4075 3.23249   2
   2   8   4 41.3684 3.12672   2
   3  -8   4 -0.1657 0.64316   1
   3  -8   4 1.02319 0.49693   1
   3  -8   4 0.54571 0.28258   1
   3  -8   4 0.38412 0.16174   4
   3  -8   4 0.03032 0.26284   4
   3  -8   4 0.68216 0.40925   1
   3  -8   4 -0.0487 0.67238   1
   3  -8   4 1.08164 0.45803   1
   3  -8   4 0.55548 0.40925   1
   3   8   4 0.35246 0.20565   3
   3   8   4 0.53821 0.12774   2
   3   8   4 0.48349 0.10038   2
   3   8   4 0.30356 0.49928   3
   3   8   4 0.52000 0.25538   2
   3   8   4 0.63859 0.29189   2
   3   8   4 0.35246 0.47974   3
   3   8   4 0.43600 0.13272   3
   3   8   4 0.43760 0.37242   3
   3   8   4 0.47434 0.20066   2
   4  -8   4 1.29845 0.67442   4
   4  -8   4 1.17760 1.07694   4
   4   8   4 1.88361 0.75702   1
   4   8   4 1.57714 0.28838   1
   4   8   4 1.74846 0.55877   1
   4   8   4 1.66727 0.23432   1
   4   8   4 2.41535 0.45960   1
   5  -8   4 0.47862 0.23446   3
   5  -8   4 0.26376 0.26376   3
   5   8   4 -0.1045 0.16142   1
   5  -9  -4 0.12577 0.16450   3
   5   9  -4 -0.0096 0.12470   1
   5   9  -4 0.06716 0.17262   1
   4  -9  -4 -0.0771 0.82844   1
   4  -9  -4 1.79166 0.59722   1
   4  -9  -4 1.78321 0.33916   4
   4  -9  -4 1.85911 0.63577   1
   4   9  -4 1.69037 0.97300   3
   4   9  -4 1.38576 0.37342   3
   4   9  -4 2.01762 0.41413   1
   4   9  -4 3.32161 0.81058   1
   4   9  -4 1.95593 0.35244   1
   3  -9  -4 -0.1771 0.44295   2
   3  -9  -4 -0.1674 0.16737   2
   3  -9  -4 0.12797 0.14761   2
   3  -9  -4 -0.1181 0.33473   2
   3  -9  -4 0.26581 0.28546   2
   3  -9  -4 0.03024 0.24199   1
   3  -9  -4 -0.0295 0.09844   2
   3  -9  -4 -0.2165 0.31498   2
   3   9  -4 0.80559 0.38922   2
   3   9  -4 0.47066 0.12674   2
   3   9  -4 0.49780 0.14481   2
   2  -9  -4 -0.5814 0.87214   2
   2  -9  -4 0.18440 0.17423   1
   2  -9  -4 0.16395 0.43037   1
   2  -9  -4 0.54130 0.45110   2
   2   9  -4 0.53858 0.38733   2
   2   9  -4 0.55744 0.30232   2
   2   9  -4 0.20056 0.14041   1
   1  -9  -4 1.20087 0.48433   2
   1  -9  -4 0.25156 0.45067   1
   1  -9  -4 1.12027 0.51303   2
   1  -9  -4 1.17061 0.24222   2
   1  -9  -4 1.31181 0.52472   2
   1   9  -4 1.25388 0.45779   2
   1   9  -4 0.80445 0.44351   1
   1   9  -4 2.22916 0.54733   2
   1   9  -4 1.96054 0.26873   2
  -1   9   4 0.94317 0.42964   1
   0  -9  -4 2.86825 0.45973   3
   0  -9  -4 2.58363 0.59299   1
   0  -9   4 2.89340 0.34401   3
   0  -9  -4 2.64841 0.59968   3
   0  -9  -4 2.31895 0.61412   1
   0  -9  -4 2.74836 0.38976   3
   0  -9   4 2.69105 0.61708   3
   0  -9   4 1.84446 0.65283   1
   0  -9   4 2.24857 0.66311   1
   0   9   4 2.75839 0.45973   3
   0   9  -4 4.30970 0.75874   3
   0   9   4 2.36133 0.51885   1
   0   9  -4 2.62022 0.52605   3
   0   9   4 2.72841 0.54965   3
   0   9  -4 2.73144 0.34401   3
   0   9   4 2.47774 0.49772   1
   0   9  -4 3.23730 0.74859   3
   0   9   4 2.63839 0.31979   3
   1   9   4 7.02394 0.64122   2
   2   9   4 37.8197 3.75156   2
   2   9   4 45.1614 3.55216   2
   2   9   4 46.6905 4.12196   2
   3  -9   4 0.41981 0.30269   1
   3  -9   4 -0.0976 0.68343   1
   3  -9   4 0.00000 0.42960   1
   3  -9   4 0.42960 0.50765   1
   3  -9   4 0.63456 0.77127   1
   3  -9   4 0.68343 0.30269   1
   3   9   4 1.49410 0.54333   2
   3   9   4 2.16413 0.35313   2
   3   9   4 1.35822 0.28974   2
   3   9   4 2.83416 0.59764   2
   4  -9   4 0.05036 0.56465   2
   4  -9   4 0.79384 0.28774   1
   4  -9   4 0.62513 0.39322   2
   4  -9   4 0.05036 0.94776   2
   4   9   4 0.72274 0.17604   3
   4   9   4 0.72274 0.36137   3
   4   9   4 1.10221 0.26886   1
   4   9   4 1.16495 0.50185   1
   4   9   4 1.20082 0.73484   1
   4   9   4 1.47866 0.43011   1
   5  -9   4 -0.1172 0.11716   3
   5   9   4 0.06628 0.07577   4
   5 -10  -4 0.34775 0.33718   2
   5  10  -4 0.05361 0.26825   2
   5  10  -4 0.18246 0.36492   2
   4 -10  -4 0.29201 0.46321   2
   4 -10  -4 0.41418 0.25042   1
   4  10  -4 0.21621 0.26541   3
   4  10  -4 0.85813 0.28019   1
   4  10  -4 0.32574 0.31666   4
   4  10  -4 0.32436 0.85507   3
   3 -10  -4 5.51078 0.83776   3
   3 -10  -4 5.28876 0.69643   3
   3 -10  -4 3.51241 0.62576   3
   3 -10  -4 5.90076 1.55391   1
   3 -10  -4 4.02711 1.02951   3
   3 -10  -4 5.51873 0.55586   3
   3 -10  -4 5.06664 0.73682   3
   3 -10  -4 6.03847 1.28835   1
   3 -10  -4 5.67466 0.96380   1
   3  10  -4 4.69117 0.66874   3
   3  10  -4 5.34028 1.15064   3
   3  10  -4 5.30092 0.63925   3
   3  10  -4 5.51936 0.50965   4
   2 -10  -4 9.61407 0.88856   2
   2 -10  -4 10.5825 1.32777   2
   2 -10  -4 7.94449 1.27481   1
   2 -10  -4 8.94392 1.75406   1
   2  10  -4 9.52229 0.85307   4
   2  10  -4 7.65319 1.25883   1
   2  10  -4 8.96202 1.16893   1
   1 -10  -4 1.20141 0.53275   1
   1 -10  -4 1.23274 0.53275   1
   1 -10  -4 0.24028 0.50141   1
   1 -10  -4 1.01331 0.28209   1
   1  10  -4 1.93138 0.27446   2
   1  10  -4 1.65681 0.55886   2
   1  10  -4 0.76762 0.47082   1
   0 -10   4 -0.1105 0.60261   2
   0 -10  -4 1.16845 0.49479   1
   0 -10   4 0.77298 0.49468   1
   0 -10  -4 1.29474 0.52636   1
   0 -10   4 1.43255 0.24739   1
   0 -10   4 0.41229 0.49468   1
   0 -10  -4 0.84218 0.50524   1
   0 -10  -4 1.47649 0.27495   2
   0  10  -4 1.30891 0.57718   1
   0  10  -4 1.80772 0.27118   2
   0  10   4 1.31586 0.47367   1
   0  10  -4 1.10277 0.62866   1
   0  10   4 1.14744 0.42109   1
   0  10  -4 1.42232 0.45354   1
   0  10   4 1.16845 0.23156   1
   0  10   4 0.65265 0.38952   1
   0  10   4 1.27373 0.38952   1
   1 -10   4 0.00000 0.06077   1
   1 -10   4 -0.1799 0.17988   2
   1 -10   4 -0.1599 0.18990   2
   1 -10   4 0.08001 0.17988   2
   1  10   4 0.57105 0.15753   2
   1  10   4 0.08859 0.04918   2
   1  10   4 0.22646 0.15753   2
   2  10   4 22.3463 2.16523   2
   2  10   4 17.1722 1.89341   2
   2  10   4 20.7059 1.96844   2
   2  10   4 21.8214 1.76226   2
   3 -10   4 4.43851 0.49856   1
   3 -10   4 4.94688 0.62565   1
   3 -10   4 3.95446 0.63882   4
   3 -10   4 4.67318 1.09499   1
   3 -10   4 3.95446 0.78070   4
   3 -10   4 4.64386 0.90926   1
   3 -10   4 4.86873 1.15364   1
   3 -10   4 4.66338 0.73323   1
   3  10   4 4.25872 0.43517   4
   3  10   4 3.97501 0.60702   3
   3  10   4 3.27009 0.83220   3
   3  10   4 4.24936 0.74191   3
   3  10   4 5.06451 0.68369   2
   3  10   4 4.23690 0.60256   3
   3  10   4 3.68128 0.42101   3
   3  10   4 3.98484 0.52864   3
   3  10   4 3.48545 0.88111   3
   4 -10   4 0.97226 0.57539   3
   4 -10   4 0.92270 0.50593   3
   4 -10   4 0.51524 0.29299   2
   4  10   4 1.36514 0.42826   1
   4  10   4 0.46031 0.35255   3
   4  10   4 0.56215 0.16056   1
   4  10   4 0.63348 0.24979   1
   4  10   4 0.54066 0.49479   3
   5 -10   4 -0.4881 0.48810   3
   5  10   4 -0.3208 0.32080   4
   5  10   4 -0.3019 0.30187   4
   5 -11  -4 -0.0866 0.28888   3
   5  11  -4 0.29791 0.24017   4
   5  11  -4 -0.1153 0.28827   4
   4 -11  -4 0.41419 0.18299   1
   4 -11  -4 0.15410 0.84760   1
   4 -11  -4 0.32753 0.36597   1
   4  11  -4 0.25306 0.19196   1
   4  11  -4 0.00986 0.29495   3
   3 -11  -4 0.08087 0.28285   4
   3 -11  -4 0.01014 0.59610   4
   3 -11  -4 -0.3029 0.35172   1
   3 -11  -4 0.02017 0.45463   4
   3 -11  -4 -0.0098 0.21491   1
   3 -11  -4 0.10751 0.25401   1
   3 -11  -4 -0.3810 0.40052   1
   3 -11  -4 -0.0782 0.16611   1
   3  11  -4 0.21493 0.18808   2
   3  11  -4 0.12538 0.44773   2
   3  11  -4 0.06890 0.15744   3
   2 -11  -4 2.21486 0.36752   2
   2 -11  -4 1.51106 0.49694   1
   2 -11  -4 0.69979 1.04454   1
   2 -11  -4 2.17510 0.75486   2
   2 -11  -4 1.86609 0.80121   1
   2 -11  -4 2.85046 0.85418   2
   2 -11  -4 1.98642 0.35755   2
   2  11  -4 2.01838 0.30415   2
   2  11  -4 1.71140 0.33835   1
   2  11  -4 1.63186 0.73628   1
   2  11  -4 2.00914 0.29490   2
   2  11  -4 1.88977 0.36232   4
   2  11  -4 1.75123 0.54724   1
   1 -11  -4 0.02003 0.06021   2
   1 -11  -4 -0.0101 0.02003   2
   1 -11  -4 -0.0101 0.06021   2
   1  11  -4 -0.0097 0.06755   2
   1  11  -4 -0.0097 0.04819   2
   1  11  -4 -0.0097 0.01926   2
   0 -11   4 0.11259 0.50136   1
   0 -11  -4 0.12515 0.45907   1
   0 -11  -4 0.63216 0.20729   3
   0 -11  -4 0.10433 0.41731   1
   0  11   4 0.45907 0.41731   1
   0  11  -4 0.72288 0.58422   2
   0  11  -4 0.80203 0.20798   2
   0  11   4 0.72818 0.16959   2
   0  11  -4 0.37861 0.39903   1
   0  11   4 0.10433 0.37556   1
   0  11   4 0.74808 0.32917   2
   0  11  -4 0.72288 0.58422   2
   0  11   4 0.21912 0.28170   1
   1 -11   4 0.89176 0.22791   2
   1 -11   4 0.64299 0.56129   1
   1 -11   4 0.48984 0.53069   1
   1  11   4 1.18003 0.47786   2
   1  11   4 0.88745 0.18528   2
   1  11   4 1.07272 0.44861   2
   2 -11   4 0.56062 0.32456   1
   2 -11   4 0.58025 0.41304   1
   2 -11   4 1.16051 0.55076   1
   2 -11   4 0.96380 0.26556   1
   2 -11   4 0.79659 0.66874   1
   2 -11   4 0.85558 0.41304   1
   2 -11   4 0.66874 0.24583   1
   2  11   4 1.11033 0.24986   2
   2  11   4 0.98086 0.43493   2
   2  11   4 0.78650 0.18507   2
   2  11   4 0.97157 0.33311   2
   2  11   4 1.17511 0.21282   2
   2  11   4 0.94382 0.42564   2
   2  11   4 0.54593 0.21282   2
   3 -11   4 3.21791 0.96436   4
   3 -11   4 4.10968 1.20350   1
   3 -11   4 4.70652 0.81218   1
   3 -11   4 5.41103 0.76320   1
   3 -11   4 4.82390 0.64582   1
   3 -11   4 2.41595 0.99481   4
   3 -11   4 4.78474 0.75339   1
   3  11   4 3.80183 0.67988   1
   3  11   4 3.62602 0.61199   3
   3  11   4 3.63203 0.48303   2
   3  11   4 3.59421 0.42113   3
   3  11   4 4.37430 0.55462   1
   3  11   4 4.07021 0.86768   1
   3  11   4 2.59526 0.83244   3
   3  11   4 3.86446 0.42047   1
   4 -11   4 0.39660 0.34698   3
   4 -11   4 -0.0397 0.54528   3
   4 -11   4 0.33713 0.26772   3
   4  11   4 0.17621 0.16649   3
   4  11   4 0.22258 0.12469   1
   4  11   4 -0.2493 0.28492   1
   4  11   4 0.18603 0.45045   3
   5 -11   4 -0.4292 0.42920   3
   5  11   4 0.58283 0.15983   4
   5  11   4 -0.2538 0.25384   4
   5  11   4 0.38537 0.22564   4
   5 -12  -4 1.74852 0.55382   1
   5  12  -4 1.74933 0.32940   2
   5  12  -4 1.68119 0.38626   2
   4 -12  -4 0.15145 0.78777   2
   4 -12  -4 -0.1445 0.31805   1
   4 -12  -4 0.53971 0.30838   1
   4  12  -4 0.28519 0.20657   3
   4  12  -4 -0.2271 0.33184   1
   3 -12  -4 3.77180 0.67756   4
   3 -12  -4 3.98420 1.01116   4
   3 -12  -4 2.65951 1.01116   4
   3 -12  -4 3.21566 0.59661   4
   3 -12  -4 4.20663 0.76854   4
   3 -12  -4 3.41791 1.31454   4
   3 -12  -4 3.54936 0.67756   4
   3 -12  -4 3.71114 0.92018   4
   3  12  -4 3.13164 0.53173   3
   3  12  -4 4.04743 1.31961   3
   3  12  -4 4.37380 0.60572   4
   2 -12  -4 -0.0592 0.29619   2
   2 -12  -4 0.21716 0.24677   2
   2 -12  -4 -0.4837 0.48375   2
   2 -12  -4 -0.4146 0.71081   2
   2 -12  -4 0.29619 0.49365   2
   2 -12  -4 0.25668 0.17765   2
   2 -12  -4 0.46404 0.40472   2
   2 -12  -4 0.03038 0.16207   1
   2  12  -4 0.09916 0.14869   1
   2  12  -4 -0.3373 0.33729   2
   2  12  -4 0.05948 0.15864   1
   2  12  -4 0.34634 0.33729   2
   2  12  -4 0.04953 0.15864   1
   2  12  -4 0.60162 0.19146   2
   1 -12  -4 -0.0697 0.47754   2
   1 -12  -4 0.34929 0.20545   1
   1 -12  -4 -0.1393 0.45768   2
   1  12  -4 0.80962 0.48196   4
   1  12  -4 0.77754 0.23227   1
   1  12  -4 0.46454 0.45441   1
   0  12  -4 0.52716 0.14640   2
   0  12   4 0.01976 0.13860   2
   1 -12   4 4.33011 0.89350   2
   1 -12   4 3.31347 0.79521   1
   1 -12   4 3.92758 0.49097   2
   1  12   4 3.56623 0.44206   1
   1  12   4 5.13989 0.82472   2
   1  12   4 3.96996 0.78634   2
   2 -12   4 0.90727 0.26503   3
   2 -12   4 1.23420 0.49953   1
   2 -12   4 1.48898 0.30371   1
   2 -12   4 1.60649 0.80325   1
   2 -12   4 0.50972 0.45870   3
   2 -12   4 0.14274 0.37720   3
   2 -12   4 0.04080 0.65236   3
   2  12   4 0.93033 0.50922   4
   2  12   4 0.46197 0.20644   1
   2  12   4 0.98725 0.20108   2
   2  12   4 1.11526 0.24684   2
   2  12   4 1.08784 0.59417   2
   2  12   4 0.55040 0.24567   1
   2  12   4 0.62897 0.20644   1
   2  12   4 0.73712 0.19658   1
   2  12   4 1.45341 0.34733   2
   2  12   4 0.06881 0.42264   1
   3 -12   4 2.02600 0.58727   1
   3 -12   4 1.78125 0.62634   1
   3 -12   4 1.90848 0.55792   1
   3 -12   4 1.34125 0.50806   4
   3 -12   4 2.09452 1.05703   1
   3 -12   4 1.69521 0.90346   3
   3 -12   4 1.00594 1.09736   4
   3  12   4 2.79773 0.35305   1
   3  12   4 2.17990 0.29126   1
   3  12   4 2.72708 0.31772   1
   3  12   4 2.11819 0.67953   1
   3  12   4 2.53294 0.46778   1
   3  12   4 2.67414 0.45893   1
   3  12   4 1.41086 0.48008   3
   4 -12   4 0.34679 0.61195   2
   4 -12   4 0.32633 0.40797   2
   4 -12   4 1.01026 0.94091   3
   4  12   4 0.51904 0.51904   3
   4  12   4 0.59754 0.26755   1
   4  12   4 0.72232 0.16942   1
   5 -12   4 1.98747 0.51636   3
   5  12   4 1.29288 0.34328   1
   5  12   4 1.92915 0.33713   4
   5  12   4 1.46458 0.59497   1
   5 -13  -4 -0.6506 0.65059   3
   5 -13  -4 0.44972 0.25836   3
   5  13  -4 0.21580 0.23986   1
   5  13  -4 0.09600 0.19187   1
   4 -13  -4 0.33735 0.14455   1
   4 -13  -4 0.26986 0.31811   1
   4 -13  -4 0.02891 0.09640   1
   4  13  -4 -0.0352 0.07039   1
   4  13  -4 -0.0264 0.07039   1
   3 -13  -4 1.03722 0.75872   1
   3 -13  -4 0.67231 0.37454   1
   3 -13  -4 1.01805 0.77789   1
   3 -13  -4 1.21004 0.41298   1
   3 -13  -4 -0.9124 0.91237   1
   3 -13  -4 0.61460 0.41298   1
   3 -13  -4 0.08100 0.32379   4
   3  13  -4 0.73115 0.19148   1
   3  13  -4 -0.4265 0.65283   1
   3  13  -4 0.53396 0.24860   2
   3  13  -4 0.43369 0.27591   3
   2 -13  -4 0.15690 0.38247   2
   2 -13  -4 0.27456 0.20599   2
   2 -13  -4 -0.0490 0.23541   2
   2 -13  -4 0.03037 0.16202   3
   2 -13  -4 0.06074 0.12149   3
   2 -13  -4 0.25498 0.42172   2
   2 -13  -4 0.21573 0.70612   2
   2 -13  -4 -0.0098 0.37263   2
   2  13  -4 -0.0451 0.10833   2
   2  13  -4 0.40635 0.14448   2
   2  13  -4 0.09937 0.29801   2
   2  13  -4 -0.1083 0.10833   2
   2  13  -4 0.09031 0.10833   2
   2  13  -4 -0.0361 0.27999   2
   1 -13  -4 3.59068 0.86570   2
   1 -13  -4 2.95125 0.72794   2
   1 -13  -4 2.95125 0.45254   2
   1  13  -4 3.68090 0.75863   2
   1  13  -4 3.66211 0.47763   2
   1  13  -4 3.99929 0.81481   2
   0 -13   4 0.28417 0.41613   1
   0  13   4 0.29423 0.44648   1
   0  13  -4 0.49114 0.49114   2
   0  13   4 0.22319 0.14208   1
   0  13  -4 0.33498 0.23347   1
   0  13  -4 0.35638 0.34672   2
   1 -13   4 0.29540 0.58068   1
   1 -13   4 0.52535 0.24321   2
   1 -13   4 0.68112 0.67136   2
   1  13   4 0.18939 0.14949   1
   1  13   4 0.38878 0.40868   1
   1  13   4 -0.0849 0.34916   2
   2 -13   4 1.28800 0.28295   1
   2 -13   4 1.44410 0.34147   1
   2 -13   4 1.47337 0.54642   1
   2 -13   4 0.50980 0.72384   3
   2 -13   4 0.73407 0.40784   3
   2 -13   4 0.74430 0.48935   3
   2  13   4 0.84590 0.55081   3
   2  13   4 1.01302 0.24586   3
   2  13   4 0.92453 0.54094   3
   2  13   4 1.19368 0.49734   2
   2  13   4 1.38353 0.26223   2
   2  13   4 1.34733 0.27130   2
   2  13   4 1.15747 0.24111   3
   3 -13   4 1.97648 1.00777   1
   3 -13   4 3.81604 0.99805   1
   3  13   4 1.19813 0.25548   3
   3  13   4 1.28031 0.35705   1
   3  13   4 1.19817 0.47733   2
   3  13   4 1.05872 0.68624   3
   3  13   4 1.47190 0.29616   1
   4 -13   4 -0.5934 0.64285   3
   4 -13   4 -0.0890 0.42530   3
   4  13   4 0.26934 0.11670   1
   4  13   4 0.70022 0.17956   1
   4  13   4 0.85286 0.26033   1
   5 -13   4 0.02352 0.38894   1
   5  13   4 0.96066 0.18656   4
   5  13   4 1.23124 0.26112   4
   5 -14  -4 3.05017 0.49564   3
   5 -14  -4 3.60298 0.90553   3
   5  14  -4 2.52517 0.41715   4
   5  14  -4 2.50726 0.41186   3
   4 -14  -4 0.71358 0.30857   1
   4 -14  -4 0.64228 1.21538   3
   4 -14  -4 0.59816 0.39539   2
   4  14  -4 0.51219 0.22656   2
   4  14  -4 0.23644 0.33494   2
   3 -14  -4 0.35435 0.38472   4
   3 -14  -4 0.60556 0.40699   4
   3 -14  -4 1.08435 0.72293   1
   3 -14  -4 0.66588 0.40903   1
   3 -14  -4 -0.6087 0.68486   1
   3  14  -4 0.88423 0.20607   1
   3  14  -4 0.60165 0.84830   3
   3  14  -4 0.25645 0.27614   3
   3  14  -4 0.75549 0.25757   1
   2 -14  -4 0.37981 0.74019   1
   2 -14  -4 0.35448 0.73944   3
   2 -14  -4 0.30388 0.44572   3
   2 -14  -4 0.27351 0.22281   3
   2 -14  -4 0.75962 0.24344   1
   2 -14  -4 0.43823 0.56483   1
   2 -14  -4 0.33426 0.36464   3
   2 -14  -4 1.47060 1.14921   1
   2  14  -4 0.49318 0.20625   2
   2  14  -4 0.51118 0.18835   2
   2  14  -4 0.70843 0.21525   2
   2  14  -4 -0.0448 0.52907   2
   1 -14  -4 4.06091 0.62631   1
   1 -14  -4 4.01045 0.54544   1
   1 -14  -4 4.35385 1.05056   1
   1  14  -4 4.68919 0.96187   2
   1  14  -4 4.60743 0.52485   1
   1  14  -4 4.28739 0.95165   1
   1  14  -4 3.64633 0.63112   1
   1  14  -4 3.71646 0.55093   1
   1  14  -4 3.57619 0.51084   1
   0 -14   4 1.67034 0.60742   1
   0  14  -4 2.86476 0.68834   1
   1 -14   4 5.31478 0.54985   2
   1 -14   4 4.68071 0.98699   3
   1 -14   4 5.34381 1.05143   2
   1  14   4 3.48251 0.55562   1
   1  14   4 3.50232 0.47620   1
   1  14   4 3.70076 0.52587   1
   1  14   4 4.45483 0.83338   1
   1  14   4 4.41512 0.87309   1
   2 -14   4 4.38516 0.75671   1
   2 -14   4 3.11989 0.60156   3
   2 -14   4 2.76307 1.01954   3
   2 -14   4 3.62845 0.54330   1
   2 -14   4 3.54106 0.52384   1
   2 -14   4 2.92619 0.66272   3
   2 -14   4 1.95758 0.90746   3
   2  14   4 3.21929 0.50205   3
   2  14   4 3.24543 0.44039   3
   2  14   4 3.12084 0.40359   3
   2  14   4 3.62975 0.73492   2
   2  14   4 3.27061 0.42143   4
   2  14   4 4.02414 0.73492   2
   2  14   4 3.17989 0.79742   3
   2  14   4 3.11096 0.44300   3
   3 -14   4 -0.0098 0.24445   1
   3 -14   4 0.07828 0.27378   1
   3 -14   4 0.12713 0.58681   1
   3 -14   4 -0.1956 0.30322   1
   3 -14   4 0.23474 0.56719   1
   3  14   4 -0.1808 0.36150   1
   3  14   4 -0.1205 0.22379   1
   3  14   4 0.06868 0.19619   3
   3  14   4 0.10326 0.09471   1
   3  14   4 0.00000 0.11189   1
   4 -14   4 0.95524 0.65415   1
   4 -14   4 1.90537 0.77993   3
   4  14   4 1.67502 0.50066   1
   4  14   4 1.05316 0.28466   4
   4  14   4 1.02351 0.43308   2
   5 -14   4 0.77589 0.41851   3
   5  14   4 0.93806 0.16713   4
   5  14   4 0.77555 0.28804   4
   5 -15  -4 0.08581 0.17150   2
   5 -15  -4 0.00000 0.41865   1
   5  15  -4 0.14287 0.08572   4
   5  15  -4 0.28584 0.16198   4
   4 -15  -4 0.07713 0.03856   1
   4 -15  -4 0.05779 0.03856   1
   4 -15  -4 0.17338 0.15415   1
   4  15  -4 -0.0367 0.03670   1
   4  15  -4 -0.0183 0.03670   1
   3 -15  -4 -0.0095 0.15076   1
   3 -15  -4 -0.1320 0.30153   1
   3 -15  -4 0.05652 0.16022   1
   3 -15  -4 -0.1130 0.16022   1
   3 -15  -4 -0.0754 0.40522   1
   3  15  -4 -0.0765 0.09353   1
   3  15  -4 -0.2890 0.28902   1
   3  15  -4 0.16148 0.08500   1
   3  15  -4 -0.0935 0.09353   1
   2 -15  -4 4.33077 0.84315   1
   2 -15  -4 4.98228 1.20720   1
   2 -15  -4 4.46484 1.14973   1
   2 -15  -4 4.96315 0.58442   1
   2 -15  -4 3.80884 1.14463   3
   2  15  -4 4.04818 1.10134   3
   2  15  -4 3.37350 0.50598   3
   2  15  -4 3.57195 0.52589   3
   2  15  -4 4.37536 0.48909   1
   1 -15  -4 0.56731 0.25964   2
   1 -15  -4 0.23218 0.21203   3
   1 -15  -4 0.17163 0.65613   3
   1  15  -4 0.99777 0.53088   2
   1  15  -4 0.32035 0.46679   2
   1  15  -4 0.64988 0.21972   2
   1  15  -4 0.43934 0.17390   2
   1  15  -4 1.20831 0.31126   2
   0  15  -4 1.58014 0.34803   2
   0  15  -4 1.42966 0.59256   2
   1 -15   4 0.34458 0.11483   2
   1 -15   4 0.04781 0.22015   2
   1  15   4 -0.0183 0.18352   2
   1  15   4 -0.0367 0.04583   2
   1  15   4 -0.0826 0.09176   2
   1  15   4 0.02752 0.15600   2
   1  15   4 -0.0367 0.07344   2
   2 -15   4 0.02035 0.21415   3
   2 -15   4 0.10593 0.22142   1
   2 -15   4 0.15402 0.12515   1
   2 -15   4 0.06740 0.36578   1
   2  15   4 0.17686 0.25642   1
   2  15   4 -0.0176 0.24755   1
   2  15   4 -0.2210 0.23877   1
   2  15   4 0.05304 0.11495   1
   2  15   4 -0.0796 0.07956   1
   2  15   4 0.07078 0.10608   1
   2  15   4 0.05304 0.08843   1
   3 -15   4 1.90646 0.97765   1
   3 -15   4 -0.0880 0.27371   1
   3 -15   4 0.79190 0.51820   1
   3  15   4 0.41806 0.27300   1
   3  15   4 0.17663 0.19633   3
   3  15   4 0.29449 0.17663   3
   3  15   4 0.13745 0.42209   3
   4 -15   4 2.46273 0.60086   3
   4 -15   4 2.05880 0.81765   3
   4  15   4 1.58262 0.53746   2
   4  15   4 1.97572 0.44731   4
   4  15   4 1.94096 0.30862   2
   5 -15   4 -0.2712 0.29067   3
   5  15   4 0.23344 0.16056   1
   5  15   4 -0.0277 0.17566   4
   5 -16  -4 -0.0662 0.20786   3
   5  16  -4 0.00000 0.08654   1
   4 -16  -4 1.93140 0.44969   2
   4 -16  -4 2.43152 0.98030   1
   4 -16  -4 2.01320 0.42919   2
   4  16  -4 2.57130 0.44434   1
   4  16  -4 1.29802 0.38121   2
   3 -16  -4 0.70941 0.48639   4
   3 -16  -4 0.41544 1.25658   4
   3 -16  -4 1.61724 0.47672   1
   3  16  -4 1.73553 0.34707   1
   3  16  -4 0.84975 0.32606   3
   2 -16  -4 1.71261 0.97863   1
   2 -16  -4 1.81615 0.42343   1
   2 -16  -4 2.33369 1.04452   1
   2 -16  -4 1.02573 0.91275   1
   2 -16  -4 1.62794 0.61164   1
   2  16  -4 1.35841 0.77503   1
   2  16  -4 0.99984 0.67281   3
   2  16  -4 1.04492 0.29611   1
   2  16  -4 2.08994 0.33960   1
   1 -16  -4 0.09515 0.08560   2
   1  16  -4 0.02725 0.05449   2
   1  16  -4 0.21807 0.10899   2
   1  16  -4 -0.0091 0.17259   2
   1  16  -4 0.03636 0.06361   2
   0  16  -4 6.31534 0.72753   3
   0  16  -4 7.33588 1.23278   3
   1 -16   4 0.57073 0.46607   2
   1  16   4 -0.1543 0.18153   2
   1  16   4 0.03975 0.15891   3
   1  16   4 0.07951 0.11916   3
   1  16   4 -0.2541 0.29952   2
   2 -16   4 1.74718 0.38192   1
   2 -16   4 1.82360 1.05976   1
   2 -16   4 2.10994 0.53467   1
   2 -16   4 1.58017 0.51987   3
   2  16   4 2.23459 0.37245   1
   2  16   4 1.48935 0.33539   3
   2  16   4 1.41040 0.35507   3
   2  16   4 1.34134 0.58193   3
   2  16   4 1.95745 0.78816   1
   3 -16   4 1.00812 1.13028   4
   3 -16   4 0.35637 0.59057   4
   3  16   4 0.90371 0.26524   3
   3  16   4 0.94302 0.38308   3
   4 -16   4 1.99652 0.58897   3
   4 -16   4 2.94761 1.03168   3
   4  16   4 1.97729 0.29555   2
   4  16   4 2.16420 0.38242   1
   4  16   4 2.22015 0.28923   1
   5 -16   4 -0.0580 0.14491   3
   5  16   4 0.06443 0.06443   4
   4 -17  -4 0.21996 0.44951   3
   4  17  -4 0.89203 0.23975   1
   4  17  -4 0.41244 0.15345   1
   3 -17  -4 0.20457 0.34413   1
   3 -17  -4 -0.8928 0.89282   1
   3 -17  -4 0.16218 0.37509   4
   3  17  -4 0.11863 0.33626   3
   3  17  -4 -0.0766 0.18716   1
   2 -17  -4 1.20165 0.34204   1
   2 -17  -4 2.31095 1.03531   1
   2 -17  -4 1.58987 0.48993   1
   2 -17  -4 1.09076 0.59155   1
   2 -17  -4 1.19247 1.09076   1
   2  17  -4 3.08814 0.85539   1
   1 -17  -4 0.18601 0.15812   1
   1  17  -4 0.08947 0.27738   1
   1  17  -4 0.00000 0.12528   1
   1  17  -4 0.08049 0.16996   1
   0  17   4 3.81996 0.57992   1
   1 -17   4 0.48695 0.68365   1
   1  17   4 0.33767 0.48877   1
   2 -17   4 0.01891 0.18945   1
   2 -17   4 0.00000 0.10423   1
   2 -17   4 -0.0663 0.06632   1
   2  17   4 -0.0425 0.04248   1
   2  17   4 0.01697 0.10203   1
   2  17   4 0.00853 0.04248   1
   2  17   4 0.01697 0.03404   1
   3 -17   4 0.00000 0.16684   1
   3 -17   4 0.05886 0.23554   1
   3  17   4 0.17924 0.05975   1
   3  17   4 0.01703 0.05119   1
   3  17   4 -0.0342 0.11949   1
   4 -17   4 0.57265 0.63746   1
   4 -17   4 0.58504 0.59571   3
   4  17   4 0.46493 0.15844   2
   4  17   4 0.42264 0.28530   2
   4 -18  -4 -0.1236 1.10334   3
   4  18  -4 0.87076 0.24879   4
   4  18  -4 0.84206 0.28709   4
   3 -18  -4 0.31608 0.33464   1
   3 -18  -4 0.50191 0.64140   1
   3  18  -4 0.12866 0.18803   3
   3  18  -4 -0.2771 0.29444   1
   2 -18  -4 0.41817 0.29736   3
   2 -18  -4 -0.1091 0.50028   1
   2 -18  -4 0.14185 0.42546   3
   2 -18  -4 -0.4184 0.86416   1
   2  18  -4 0.23878 0.78587   3
   2  18  -4 0.17900 0.20894   3
   2  18  -4 0.75224 0.31275   1
   1 -18  -4 0.41764 0.29050   1
   1  18  -4 0.77918 0.26265   1
   1  18  -4 -0.0963 0.22762   1
   1  18  -4 0.38524 0.56904   1
   0  18   4 11.6808 1.21821   1
   1 -18   4 1.02373 0.38734   1
   1  18   4 0.59682 0.74597   3
   1  18   4 0.93620 0.26877   1
   1  18   4 1.68172 0.35537   1
   1  18   4 0.97090 0.33807   1
   2 -18   4 1.97709 0.57071   3
   2  18   4 2.13650 0.49915   4
   2  18   4 2.13351 0.38874   3
   2  18   4 2.13608 0.39999   4
   2  18   4 2.41669 0.41117   1
   3 -18   4 0.47331 0.50289   1
   3 -18   4 0.49310 1.08471   1
   3  18   4 0.45912 0.19923   1
   3  18   4 0.75358 0.30315   1
   4 -18   4 0.18855 0.38811   1
   4 -18   4 0.69322 0.55659   3
   4  18   4 0.65860 0.33897   4
   4 -19  -4 -0.0567 0.26471   3
   4  19  -4 0.01258 0.06265   1
   4  19  -4 -0.1144 0.11443   4
   3 -19  -4 0.42107 0.37433   1
   3 -19  -4 1.70307 1.04809   1
   3  19  -4 0.13916 0.14903   2
   3  19  -4 0.53786 0.34958   1
   2 -19  -4 0.11682 0.10781   1
   2 -19  -4 -0.1078 0.13476   1
   2 -19  -4 0.13476 0.05390   1
   2 -19  -4 0.10781 0.08085   1
   2  19  -4 -0.0168 0.04209   1
   2  19  -4 0.05054 0.03372   1
   1 -19  -4 0.29265 0.35318   3
   1  19  -4 2.07414 0.70574   1
   0  19  -4 0.18654 0.19535   1
   0  19   4 0.34071 0.27954   1
   1  19   4 0.57720 0.28013   1
   1  19   4 0.74698 0.27161   1
   2  19   4 0.67588 0.25035   1
   2  19   4 0.47461 0.30659   3
   2  19   4 0.53400 0.34208   1
   2  19   4 0.73430 0.28374   1
   3 -19   4 0.94559 0.52204   1
   3 -19   4 0.24709 0.88532   2
   3  19   4 0.68740 0.26785   1
   3  19   4 0.83919 0.23212   1
   4 -19   4 0.04601 0.28734   1
   4 -19   4 -0.0389 0.17506   3
   4  19   4 -0.1013 0.10132   4
   4  19   4 0.08285 0.05523   4
   4 -20  -4 0.30887 0.73200   1
   4  20  -4 0.75101 0.22818   4
   4  20  -4 0.57041 0.13312   4
   3 -20  -4 4.35896 1.22510   1
   3  20  -4 3.17575 0.48153   2
   3  20  -4 4.32649 0.54667   1
   2 -20  -4 0.89136 0.70909   3
   2 -20  -4 -0.3575 1.03665   1
   2  20  -4 1.56558 0.31484   1
   2  20  -4 1.56558 0.26380   1
   1 -20  -4 1.72902 0.43666   1
   0  20   4 0.07704 0.07704   1
   1  20   4 -0.1925 0.19252   1
   1  20   4 -0.1758 0.17581   1
   1  20   4 0.03986 0.13945   3
   2  20   4 0.29441 0.24688   4
   2  20   4 0.36940 0.23501   1
   2  20   4 0.62958 0.26861   1
   2  20   4 -0.2267 0.22667   1
   3 -20   4 3.96563 1.01100   4
   3  20   4 3.18831 0.40668   1
   3  20   4 2.40035 0.44632   3
   4 -20   4 0.73639 0.38758   3
   4  20   4 0.53654 0.18878   4
   4 -21  -4 0.22408 0.13072   3
   4 -21  -4 -0.0186 0.42943   3
   3 -21  -4 -0.0379 0.22708   4
   3  21  -4 0.03838 0.07675   4
   2 -21  -4 0.94237 0.59236   1
   1 -21  -4 0.41537 0.33750   1
   1  21   4 0.70072 0.20852   1
   1  21   4 0.68407 0.34199   1
   2  21   4 0.38624 0.15446   1
   2  21   4 0.21456 0.18029   1
   2  21   4 0.22317 0.16307   1
   3 -21   4 0.55702 0.63513   4
   3  21   4 0.25982 0.29099   2
   3  21   4 0.36031 0.19406   4
   3 -22  -4 1.39884 0.89402   1
   3  22  -4 1.43257 0.30560   4
   2 -22  -4 0.85018 0.26508   1
   2 -22  -4 2.52303 1.10610   1
   2  22  -4 0.66401 0.30183   2
   1 -22  -4 1.78601 0.42378   3
   0  22   4 0.07025 0.24084   3
   1  22   4 1.74221 0.30537   2
   2 -22   4 -0.3120 0.78967   1
   2  22   4 0.86157 0.23333   1
   2  22   4 0.96923 0.30516   1
   3 -22   4 0.95293 0.68071   4
   3  22   4 1.05567 0.22034   4
   3 -23  -4 -0.1491 0.27030   4
   3  23  -4 -0.0570 0.06658   4
   2 -23  -4 -0.0094 0.48843   1
   2  23  -4 0.58636 0.18263   1
   1 -23  -4 0.23909 0.30988   1
   1  23   4 0.54124 0.31427   1
   1  23   4 0.29960 0.24961   2
   2 -23   4 -0.3999 0.69251   4
   2  23   4 0.49896 0.25870   4
   2  23   4 0.98874 0.26797   4
   3 -23   4 -0.3869 0.52230   4
   3  23   4 0.21378 0.11150   3
   3  23   4 0.16082 0.20103   1
   3  24  -4 0.58304 0.32789   1
   2 -24  -4 4.04722 0.95122   4
   2  24  -4 3.96829 0.57810   4
   1 -24  -4 0.75802 0.50840   1
   1  24  -4 -0.0576 0.18238   1
   0  24   4 0.13077 0.15085   2
   1  24   4 0.19146 0.17135   2
   2 -24   4 3.62752 0.87287   4
   2  24   4 3.08787 0.43341   1
   2 -25  -4 0.06692 0.34593   1
   2  25  -4 0.13333 0.11423   4
   1 -25  -4 0.12992 0.14844   4
   1  25  -4 0.02881 0.08643   4
   0  25   4 -0.0278 0.06483   4
   1  25   4 0.07274 0.14548   1
   2 -25   4 0.20479 0.55407   1
   2  25   4 0.26848 0.17091   4
   2  25   4 0.14094 0.17935   1
   1 -26  -4 0.49175 0.45812   1
   1  26  -4 0.43773 0.24456   1
   1 -26   4 0.29809 0.44226   4
   1  26   4 0.21513 0.14342   1
   0  27  -4 0.01419 0.11323   1
   0  27  -4 0.07066 0.14146   1
   5   0  -5 -0.1537 0.21128   1
   5   0  -5 0.08642 0.21128   1
   5   0  -5 -0.1825 0.19211   1
   3   0  -5 0.63473 0.52891   2
   3   0  -5 -0.3077 0.30772   2
   1   0  -5 209.451 17.7541   4
   1   0  -5 209.466 17.1903   4
   1   0  -5 197.352 20.1838   4
   1   0  -5 228.076 17.1371   1
   1   0  -5 187.142 17.2755   4
  -1   0   5 227.332 17.1867   1
   1   0  -5 209.465 16.9881   4
  -1   0   5 212.029 17.1273   1
   1   0  -5 208.914 17.8014   4
   1   0   5 50.9174 4.06346   4
  -1   0  -5 49.3799 4.06346   4
  -1   0  -5 50.6978 4.17322   4
   1   0   5 47.2535 3.87369   4
   1   0   5 46.5646 3.82382   4
   1   0   5 44.1285 4.35552   1
   1   0   5 47.2334 4.06346   4
   3   0   5 2.50235 0.49653   3
   3   0   5 2.57187 0.62561   3
   3   0   5 3.49065 0.75346   2
   3   0   5 2.90943 0.35748   3
   5   0   5 1.25829 0.33001   2
   5  -1  -5 3.26648 0.70576   2
   5  -1  -5 2.75235 0.58471   2
   5  -1  -5 3.14553 0.60494   2
   5   1  -5 2.64066 0.61243   2
   5   1  -5 4.24454 0.75693   1
   5   1  -5 2.03820 0.39157   2
   4  -1  -5 0.39683 0.40668   3
   4  -1  -5 0.28767 0.74401   3
   4  -1  -5 0.59525 0.46629   3
   4  -1  -5 0.25792 0.36708   3
   4  -1  -5 0.51584 0.71426   3
   4   1  -5 0.20774 0.71212   3
   4   1  -5 0.40546 0.40546   3
   4   1  -5 0.47471 0.20774   3
   4   1  -5 0.13850 0.41539   3
   4   1  -5 0.65074 0.38662   3
   3  -1  -5 1.63050 0.62019   1
   3  -1  -5 2.53144 0.85993   2
   3   1  -5 1.50635 0.54864   1
   3   1  -5 2.15475 0.85794   1
   3   1  -5 1.29681 0.47880   1
   2  -1  -5 1.04479 0.27392   1
  -2  -1   5 0.51679 0.18236   1
   2  -1  -5 0.91292 0.24349   1
   2  -1  -5 0.67971 0.26374   1
  -2  -1   5 0.74987 0.20269   1
   2  -1  -5 1.05424 0.63645   2
   2  -1  -5 1.06412 0.14914   2
   2  -1  -5 0.80140 0.27392   1
   2  -1  -5 0.95352 0.13187   1
   2  -1  -5 1.11390 0.25857   2
   2  -1  -5 1.58126 0.43764   2
   2   1  -5 1.49485 0.29700   3
   2   1  -5 1.41561 0.38607   3
   2   1  -5 1.56416 0.43563   3
   2   1  -5 0.86139 0.25331   1
   2   1  -5 0.98296 0.19253   1
  -2   1   5 0.86225 0.22314   1
  -2   1   5 0.89267 0.20289   1
   2   1  -5 0.97290 0.12157   1
   2   1  -5 0.99313 0.18236   1
   2   1  -5 1.29685 0.65339   3
   1  -1  -5 3.63245 0.62767   4
   1  -1  -5 3.70450 0.36013   4
   1  -1  -5 4.48122 0.75518   1
   1  -1  -5 3.38545 0.48368   4
  -1  -1   5 3.17761 0.59003   2
   1  -1  -5 4.11354 0.65581   1
   1  -1  -5 3.79822 0.51107   4
   1  -1  -5 4.56075 0.58624   1
   1  -1  -5 3.72504 0.34991   4
  -1  -1   5 3.83578 0.51274   1
  -1   1   5 3.79709 0.53508   4
  -1   1   5 4.15331 0.61604   1
   1   1  -5 3.57089 0.50718   2
   1   1  -5 3.59166 0.35196   2
   1   1  -5 3.64336 0.52784   2
   1   1  -5 3.79833 0.59377   2
   1   1  -5 5.30497 0.84805   1
   1   1  -5 3.41568 0.63135   2
   1   1  -5 3.69517 0.36224   2
   0  -1  -5 17.5725 1.53281   4
   0  -1   5 13.2226 1.19840   4
   0  -1  -5 16.3001 1.44267   4
   0  -1   5 16.1388 1.50804   4
   0  -1  -5 12.5755 1.28928   4
   0  -1   5 13.6322 1.34826   4
   0  -1   5 14.1913 1.21843   4
   0  -1  -5 15.1681 1.36248   4
   0  -1   5 13.4823 1.34826   4
   0   1  -5 16.4385 1.47809   4
   0   1   5 15.5487 1.38258   4
   0   1  -5 16.4085 1.42810   4
   0   1  -5 14.2213 1.49802   4
   0   1  -5 15.9690 1.36819   4
   0   1   5 13.8657 1.43262   4
   0   1   5 15.2582 1.37253   4
   0   1  -5 14.8006 1.21843   4
  -1  -1  -5 30.2873 2.82214   1
  -1  -1  -5 34.6914 2.80156   4
   1  -1   5 33.6495 2.71075   4
   1  -1   5 33.6392 2.74037   4
   1  -1   5 33.6133 2.84717   4
   1  -1   5 33.5772 2.92882   4
  -1  -1  -5 33.7567 2.97672   4
   1   1   5 35.1781 2.65248   4
   1   1   5 28.2533 2.98183   1
  -1   1  -5 35.2099 2.84043   4
  -1   1  -5 34.5274 2.96094   4
   1   1   5 34.1549 2.63265   4
   1   1   5 33.6118 3.02491   4
   1   1   5 35.1484 2.79159   4
  -1   1  -5 29.8437 2.79951   1
   1   1   5 33.5960 2.88846   4
   2  -1   5 2.92973 0.27803   1
   2  -1   5 1.43586 0.41164   2
  -2  -1  -5 2.49477 0.52471   4
   2  -1   5 1.46597 0.40167   2
   2  -1   5 2.28422 0.55616   1
   2  -1   5 3.02905 0.28799   1
   2  -1   5 2.70131 0.59591   1
   2  -1   5 2.70131 0.46681   1
   2  -1   5 1.64677 0.39160   2
   2   1   5 2.14428 0.36071   1
   2   1   5 2.81155 0.26732   4
   2   1   5 2.20438 0.39076   1
  -2   1  -5 3.68453 0.62569   1
   2   1   5 3.02931 0.26732   4
   2   1   5 2.99962 0.53454   4
   2   1   5 2.13422 0.40081   1
   2   1   5 3.00955 0.44547   4
   2   1   5 3.56396 0.62372   4
   3  -1   5 3.47832 0.72626   2
   3  -1   5 2.97549 0.38809   3
   3  -1   5 2.69680 0.50748   3
   3  -1   5 3.03519 0.40796   3
   3  -1   5 3.58337 0.75492   2
   3   1   5 2.94282 0.39637   3
   3   1   5 3.09151 0.57467   3
   3   1   5 2.93288 0.64404   3
   3   1   5 3.13106 0.36665   3
   3   1   5 3.33858 0.41362   3
   4  -1   5 0.38718 0.22834   4
   4  -1   5 0.93555 0.25778   1
   4  -1   5 0.47650 0.12906   4
   4  -1   5 0.35740 0.45669   4
   4  -1   5 0.44673 0.41695   4
   4   1   5 0.63279 0.52409   4
   4   1   5 0.69853 0.31153   1
   4   1   5 1.12342 0.74579   1
   4   1   5 0.67022 0.20766   1
   6  -2  -5 1.20903 0.35508   4
   5  -2  -5 1.75522 0.50149   1
   5  -2  -5 1.50707 0.46529   2
   5  -2  -5 2.15069 0.60762   1
   5   2  -5 1.87392 0.44940   1
   5   2  -5 1.50541 0.51180   2
   5   2  -5 1.49534 0.32113   2
   4  -2  -5 0.19006 0.16156   1
   4  -2  -5 -0.0950 0.20903   1
   4  -2  -5 0.15203 0.32312   1
   4  -2  -5 0.26603 0.19959   1
   4  -2  -5 0.05700 0.23753   1
   4   2  -5 -0.0373 0.10244   1
   4   2  -5 0.13036 0.14895   1
   4   2  -5 0.00991 0.39513   3
   4   2  -5 0.32581 0.30723   1
   4   2  -5 0.21413 0.19555   1
   4   2  -5 0.14895 0.18621   1
   3  -2  -5 0.13586 0.37838   2
   3  -2  -5 0.34929 0.51425   2
   3   2  -5 0.14263 0.25683   2
   3   2  -5 -0.3709 0.49459   2
   2  -2  -5 0.09969 0.14949   2
   2  -2  -5 0.00000 0.19305   1
   2  -2  -5 0.04067 0.05076   1
   2  -2  -5 -0.1296 0.28908   2
   2  -2  -5 -0.0598 0.17938   2
   2  -2  -5 0.08134 0.12190   1
   2  -2  -5 0.14949 0.41866   2
   2  -2  -5 0.03048 0.06095   1
  -2  -2   5 0.07098 0.12162   1
  -2  -2   5 0.09882 0.12845   3
   2  -2  -5 0.04067 0.15238   1
  -2   2   5 0.10969 0.13959   2
   2   2  -5 0.06081 0.04057   1
   2   2  -5 -0.0197 0.09882   3
   2   2  -5 0.23718 0.16800   3
   2   2  -5 0.08115 0.05064   1
  -2   2   5 0.06095 0.14229   1
   2   2  -5 0.46445 0.26682   3
   2   2  -5 0.06081 0.10138   1
   2   2  -5 0.21736 0.14817   3
   2   2  -5 0.22727 0.42490   3
  -1  -2   5 8.76044 0.99303   1
   1   2  -5 12.0738 1.00289   1
   1   2  -5 10.3532 0.87508   1
   1   2  -5 10.3631 0.97341   1
   0  -2   5 19.8864 1.64400   1
   0  -2   5 19.7916 1.78100   1
   0  -2  -5 20.0645 1.87238   1
   0  -2   5 20.3125 1.70186   3
   0  -2  -5 19.9262 1.64903   1
   0  -2   5 18.5375 1.58078   1
   0  -2  -5 20.3525 1.83845   4
   0  -2   5 18.2319 1.90753   1
   0  -2  -5 20.1719 1.71910   4
   0   2  -5 18.6850 1.89696   1
   0   2   5 19.5645 1.63836   1
   0   2  -5 20.0632 1.74462   3
   0   2  -5 18.9063 1.83375   1
   0   2  -5 19.1803 2.00235   1
   0   2   5 19.4368 1.80857   1
   0   2   5 20.0744 1.81266   4
   0   2  -5 19.4333 1.62296   1
   0   2   5 19.8517 1.79790   1
   1  -2   5 0.22017 0.32500   1
   1  -2   5 0.13626 0.34592   1
   1  -2   5 0.41314 0.29224   4
   1   2   5 2.42423 0.41557   4
   1   2   5 2.75077 0.38589   4
   1   2   5 2.21639 0.33647   4
  -1   2  -5 0.34269 0.42325   4
  -1   2  -5 0.45348 0.23179   4
   1   2   5 1.27648 0.14838   4
   2  -2   5 0.61369 0.32193   3
   2  -2   5 0.84510 0.15087   3
  -2  -2  -5 0.48044 0.40042   1
   2  -2   5 0.71430 0.46282   3
   2  -2   5 0.80493 0.15087   3
   2  -2   5 1.00048 0.37638   1
   2  -2   5 0.16097 0.27168   3
   2  -2   5 0.32193 0.24150   3
   2  -2   5 0.60370 0.44273   3
   2   2   5 1.06591 0.15790   4
   2   2   5 0.92091 0.45042   1
   2   2   5 0.84079 0.14017   1
   2   2   5 0.74069 0.27029   1
   2   2   5 0.40042 0.21025   1
  -2   2  -5 0.24150 0.37229   3
   2   2   5 0.84079 0.37040   1
   2   2   5 0.41035 0.28023   1
   2   2   5 0.89089 0.27029   1
   2   2   5 0.81077 0.31035   1
   3  -2   5 2.11939 0.32758   3
   3  -2   5 1.67540 0.18946   3
   3  -2   5 1.61548 0.64819   3
   3  -2   5 1.57567 0.17945   3
   3  -2   5 1.89477 0.28919   3
   3  -2   5 2.11748 0.59796   3
   3  -2   5 1.46594 0.55847   3
   3  -2   5 1.92467 0.31909   3
   3  -2   5 2.23997 0.47867   1
   3   2   5 1.54239 0.31637   3
   3   2   5 1.72042 0.26698   3
   3   2   5 1.87860 0.34603   3
   3   2   5 2.03679 0.48448   3
   3   2   5 2.57118 0.66419   2
   4  -2   5 0.80583 0.33830   4
   4  -2   5 0.74616 0.46763   4
   4  -2   5 0.77599 0.18901   4
   4  -2   5 0.98890 0.40325   1
   4  -2   5 0.75614 0.74616   4
   4  -2   5 1.14261 0.27843   1
   4   2   5 1.40827 0.39430   1
   4   2   5 1.16417 0.33799   1
   4   2   5 1.04212 0.23468   1
   5  -2   5 -0.0485 0.18464   3
   5  -2   5 0.12635 0.16524   3
   5   2   5 0.07716 0.07716   1
   5  -3  -5 0.44684 0.40620   2
   5   3  -5 0.93543 0.42004   1
   5   3  -5 0.60280 0.20093   2
   4  -3  -5 3.70255 0.72661   3
   4  -3  -5 3.45376 0.69676   3
   4  -3  -5 4.40514 0.70554   1
   4  -3  -5 2.69729 0.84602   3
   4   3  -5 3.50251 0.61171   3
   4   3  -5 3.39405 0.69069   3
   4   3  -5 3.78872 0.51304   3
   4   3  -5 3.89130 0.68671   3
   4   3  -5 3.79852 0.98659   3
   4   3  -5 3.85770 0.96690   3
   4   3  -5 3.66046 0.55253   3
   3  -3  -5 0.50139 0.47131   1
   3  -3  -5 1.20751 0.76932   2
   3   3  -5 1.04906 0.52927   2
   3   3  -5 -0.0945 0.67099   2
   2  -3  -5 3.46720 0.49962   2
   2  -3  -5 2.48525 0.49909   1
   2  -3  -5 3.20588 0.34067   1
  -2  -3   5 2.55581 0.43613   1
   2  -3  -5 2.89270 0.56019   1
   2  -3  -5 2.84183 0.31581   1
  -2  -3   5 2.57605 0.51720   1
   2  -3  -5 3.95680 0.71942   2
   2  -3  -5 2.66865 0.50931   1
   2  -3  -5 4.01673 0.94923   2
  -2   3   5 2.12879 0.41756   1
   2   3  -5 3.32544 0.39473   3
   2   3  -5 3.90764 0.30595   3
   2   3  -5 4.25298 0.65129   3
   2   3  -5 3.71027 0.50321   3
   2   3  -5 3.40432 0.39473   3
   2   3  -5 4.88457 0.89795   3
   2   3  -5 4.14450 0.52301   3
   2   3  -5 3.36493 0.29605   3
   1  -3  -5 17.4473 1.70969   3
  -1  -3   5 16.2021 1.73669   2
   1  -3  -5 15.3256 1.47279   3
   1  -3  -5 18.7599 1.70089   1
   1  -3  -5 17.2207 2.00836   3
   1  -3  -5 17.5915 1.67880   3
  -1  -3   5 18.0277 1.57146   4
   1   3  -5 20.2053 1.62237   1
  -1   3   5 16.5203 1.66846   3
   1   3  -5 17.9907 1.73669   2
   1   3  -5 18.3273 1.86814   1
   1   3  -5 18.8877 1.41585   1
  -1   3   5 17.4987 1.62735   3
   1   3  -5 16.6284 1.62225   2
   1   3  -5 18.0267 1.45696   4
   1   3  -5 15.9837 1.60150   2
   0  -3   5 28.2637 2.29888   3
   0  -3  -5 25.5429 2.12595   3
   0  -3  -5 23.8181 2.36803   1
   0  -3  -5 25.8161 2.32428   4
   0  -3   5 25.3502 2.31500   2
   0  -3   5 24.6694 2.29409   2
   0  -3  -5 25.5452 2.27716   4
   0  -3   5 26.4126 2.04013   3
   0  -3   5 24.7636 2.07406   2
   0   3  -5 24.9731 2.56644   2
   0   3   5 25.1137 2.32553   1
   0   3   5 23.1386 2.16629   1
   0   3  -5 27.0694 2.24917   3
   0   3  -5 27.2785 2.19935   3
   0   3  -5 26.5420 2.29888   3
   0   3  -5 26.6415 2.04013   3
   0   3   5 24.4871 2.31488   1
   0   3   5 25.5562 2.33747   4
   1  -3   5 5.98573 0.71705   1
   1  -3   5 6.16046 0.73557   4
  -1  -3  -5 5.58416 0.55204   1
   1  -3   5 5.27911 0.52994   1
   1  -3   5 3.93851 0.71705   1
   1  -3   5 6.14982 0.76739   3
  -1  -3  -5 6.28553 0.71046   4
   1  -3   5 6.14156 0.55079   1
  -1  -3  -5 6.15833 0.90707   4
  -1   3  -5 5.86106 0.75864   1
  -1   3  -5 6.28931 0.88838   4
  -1   3  -5 5.32059 0.80012   1
   1   3   5 4.42694 0.72189   1
  -1   3  -5 5.58046 0.54037   1
   1   3   5 6.60126 0.52299   4
   1   3   5 6.15833 0.67535   4
   1   3   5 6.82822 0.69076   4
   2  -3   5 3.96245 0.72138   1
   2  -3   5 2.82292 0.32260   3
   2  -3   5 3.72536 0.62256   1
   2  -3   5 2.85315 0.51414   3
   2  -3   5 3.40907 0.56329   1
  -2  -3  -5 1.27946 0.50974   1
   2  -3   5 1.29051 0.47389   3
   2   3   5 3.92810 0.63990   4
   2   3   5 2.55893 0.43986   1
   2   3   5 3.11094 0.47252   4
   2   3   5 4.00690 0.64978   4
   2   3   5 3.45558 0.30524   4
   2   3   5 2.69879 0.44978   1
   2   3   5 2.73880 0.49982   1
   2   3   5 2.07906 0.38982   1
   2   3   5 2.70882 0.28986   1
   3  -3   5 0.72991 0.26998   3
   3  -3   5 0.81987 0.14993   3
   3  -3   5 0.95987 0.42994   3
   3  -3   5 1.21518 0.27001   3
   3  -3   5 0.43997 0.53986   3
   3  -3   5 1.12976 0.26998   3
   3  -3   5 1.01985 0.44990   3
   3  -3   5 1.32367 0.28777   1
   3  -3   5 0.98986 0.16999   3
   3  -3   5 1.27566 0.51790   1
   3   3   5 1.12475 0.24662   4
   3   3   5 1.44409 0.53804   2
   3   3   5 1.18393 0.29601   4
   3   3   5 1.19383 0.44396   4
   3   3   5 1.11485 0.18744   4
   3   3   5 0.75966 0.60181   4
   4  -3   5 1.47761 0.36696   1
   4  -3   5 1.05273 0.56981   1
   4  -3   5 0.99470 0.41530   1
   4   3   5 2.15697 0.36416   1
   4   3   5 2.63326 0.36416   1
   5  -3   5 1.09439 0.58931   2
   5   3   5 1.57673 0.32692   1
   5  -4  -5 0.19355 0.15482   1
   5  -4  -5 0.16452 0.20325   1
   5   4  -5 0.12397 0.09537   1
   4  -4  -5 0.17205 0.21991   1
   4  -4  -5 0.34420 0.27726   1
   4  -4  -5 0.81269 0.50675   1
   4  -4  -5 0.41114 0.40155   1
   4  -4  -5 0.43022 0.19123   1
   4   4  -5 0.21107 0.14682   1
   4   4  -5 0.04924 0.18726   3
   4   4  -5 0.01967 0.22671   3
   4   4  -5 0.34868 0.33957   1
   3  -4  -5 0.11719 0.18559   2
   3  -4  -5 -0.0586 0.16609   2
   3  -4  -5 -0.0098 0.09770   2
   3  -4  -5 -0.2247 0.22469   2
   3  -4  -5 -0.2052 0.42988   2
   3  -4  -5 0.27349 0.36148   2
   3   4  -5 0.23461 0.26276   2
   3   4  -5 0.61949 0.29101   2
   3   4  -5 0.29101 0.16890   2
   3   4  -5 0.83537 0.45991   2
   2  -4  -5 3.67678 0.65360   1
   2  -4  -5 5.06675 0.45058   2
   2  -4  -5 5.23700 0.46062   2
   2  -4  -5 4.22824 0.70472   1
   2  -4  -5 4.92664 0.71092   2
  -2  -4   5 3.77255 0.56793   1
   2  -4  -5 4.33038 0.65360   1
   2  -4  -5 5.75769 1.07140   2
   2  -4  -5 6.64890 0.92125   2
   2   4  -5 4.51291 0.42592   1
   2   4  -5 4.69540 0.63893   1
   2   4  -5 5.22572 0.84798   3
  -2   4   5 4.10571 0.59234   1
   2   4  -5 4.24924 0.62876   1
   2   4  -5 6.00467 1.06487   3
   2   4  -5 4.85775 0.53751   1
   2   4  -5 4.73599 0.53751   1
   2   4  -5 5.31444 0.42399   3
   1  -4  -5 -0.0200 0.06019   1
   1  -4  -5 -0.0602 0.08032   1
  -1  -4   5 0.00988 0.09853   1
  -1  -4   5 -0.0789 0.07886   1
   1  -4  -5 -0.0200 0.09029   1
   1  -4  -5 -0.0101 0.03010   1
   1  -4  -5 0.00000 0.01029   1
   1  -4  -5 -0.0903 0.09029   1
   1  -4  -5 -0.0602 0.06019   1
   1   4  -5 0.00000 0.11246   1
  -1   4   5 -0.0200 0.02003   1
   1   4  -5 -0.0295 0.05909   1
   1   4  -5 -0.0295 0.08864   1
  -1   4   5 -0.0602 0.08032   1
   1   4  -5 0.00000 0.02040   1
   1   4  -5 0.08864 0.09853   1
   1   4  -5 -0.0295 0.05909   1
   1   4  -5 0.00988 0.02955   1
   1   4  -5 0.07886 0.08864   1
  -1   4   5 -0.0703 0.07026   1
   0  -4   5 0.76373 0.16737   2
   0  -4   5 0.85786 0.17787   2
   0  -4   5 0.40799 0.48124   2
   0  -4  -5 1.03670 0.30907   4
   0  -4  -5 1.10649 0.40866   4
   0  -4  -5 0.87216 0.43603   2
   0  -4  -5 0.82959 0.17016   2
   0  -4   5 1.21685 0.42889   3
   0  -4   5 0.92554 0.42631   3
   0   4  -5 0.51262 0.30337   2
   0   4   5 0.62753 0.36167   2
   0   4   5 0.78703 0.15949   2
   0   4   5 0.92537 0.32236   4
   0   4   5 1.08660 0.34886   4
   0   4  -5 0.93752 0.15957   3
   1  -4   5 0.76892 0.29338   4
  -1  -4  -5 0.82752 0.39410   4
   1  -4   5 0.21650 0.32981   1
  -1  -4  -5 0.47285 0.10841   4
   1  -4   5 0.60706 0.14167   4
   1  -4   5 -0.0810 0.28323   4
  -1  -4  -5 0.38421 0.22660   4
   1  -4   5 0.34015 0.39163   1
   1   4   5 0.25387 0.28559   1
  -1   4  -5 0.31958 0.29890   1
   1   4   5 0.63047 0.29557   4
   1   4   5 0.63047 0.21671   4
  -1   4  -5 0.52607 0.40470   4
   1   4   5 0.41376 0.31524   4
  -1   4  -5 0.42490 0.11133   4
  -1   4  -5 0.53622 0.35406   4
   1   4   5 0.62069 0.10841   4
   2  -4   5 -0.0099 0.04926   1
   2  -4   5 0.08872 0.15776   1
   2  -4   5 0.01013 0.15150   3
   2  -4   5 0.26627 0.18734   1
   2   4   5 0.06879 0.07864   2
   2   4   5 0.03932 0.02947   2
   2   4   5 0.06879 0.09825   2
   2   4   5 0.15719 0.11786   2
   2   4   5 0.09825 0.03932   2
   2   4   5 0.32423 0.16704   2
   3  -4   5 0.18264 0.23076   1
   3   4   5 1.68839 0.30014   2
   3   4   5 1.10684 0.17820   2
   3   4   5 0.83483 0.12194   2
   3   4   5 0.71290 0.16879   2
   4  -4   5 2.86607 0.42752   1
   4  -4   5 3.76955 0.72865   1
   4  -4   5 2.43782 0.37963   4
   4  -4   5 3.60447 0.58296   1
   4   4   5 3.48101 0.42701   1
   4   4   5 2.39098 0.27546   3
   4   4   5 3.38817 0.88187   1
   4   4   5 2.84345 0.53011   3
   5  -4   5 -0.0098 0.07802   3
   5   4   5 -0.0096 0.03838   1
   6   4   5 0.75303 0.41339   1
   5  -5  -5 0.39700 0.47451   1
   5   5  -5 1.17308 0.95371   1
   5   5  -5 -0.1622 0.20980   1
   4  -5  -5 6.85106 1.07860   3
   4  -5  -5 7.02086 1.43813   3
   4  -5  -5 7.87551 0.95804   1
   4  -5  -5 7.46351 1.08259   1
   4   5  -5 7.97397 1.24706   1
   4   5  -5 6.49063 0.77811   3
   4   5  -5 7.23701 1.01150   4
   4   5  -5 6.47097 0.83719   3
   4   5  -5 9.33937 1.32896   1
   4   5  -5 7.44604 1.56563   1
   4   5  -5 7.73731 0.88293   1
   3  -5  -5 0.50241 0.34166   1
   3  -5  -5 0.33158 0.34166   1
   3  -5  -5 0.45212 0.43206   1
   3  -5  -5 0.13062 0.78370   1
   3  -5  -5 0.18080 0.47228   1
   3  -5  -5 0.73459 0.22528   2
   3  -5  -5 0.61287 0.65308   1
   3   5  -5 0.31699 0.11884   1
   3   5  -5 0.75467 0.28888   2
   3   5  -5 0.57455 0.72321   1
   3   5  -5 1.31374 0.58701   2
   3   5  -5 0.99691 0.46589   2
   3   5  -5 0.16843 0.51513   1
   3   5  -5 0.62414 0.20808   1
   2  -5  -5 7.71051 1.10589   1
   2  -5  -5 6.29741 0.89081   1
  -2  -5   5 5.71324 0.77994   1
   2  -5  -5 8.68677 1.38429   2
   2  -5  -5 7.40330 0.67584   1
   2  -5  -5 8.18101 0.67327   3
   2  -5  -5 6.27697 0.89081   1
   2  -5  -5 8.55637 0.96301   2
   2   5  -5 7.38460 0.77994   1
   2   5  -5 6.52357 1.00288   1
   2   5  -5 7.49606 1.26625   1
   2   5  -5 6.72618 0.75973   1
   2   5  -5 8.18439 0.65193   2
   2   5  -5 8.69750 0.85304   2
   2   5  -5 7.07063 0.63820   1
  -1  -5   5 1.02240 0.33406   3
   1  -5  -5 1.23683 0.19104   1
   1  -5  -5 1.48829 0.20113   1
   1  -5  -5 1.31732 0.45249   1
   1  -5  -5 0.90929 0.47532   3
   1  -5  -5 1.06596 0.48265   1
   1  -5  -5 1.31732 0.32176   1
  -1  -5   5 1.18499 0.49379   3
   1   5  -5 0.87794 0.16525   2
   1   5  -5 0.92953 0.29952   2
  -1   5   5 0.81632 0.33063   3
  -1   5   5 0.80595 0.15495   3
   1   5  -5 1.15537 0.15799   3
  -1   5   5 0.66126 0.38235   3
   1   5  -5 0.60940 0.24793   2
   1   5  -5 1.41212 0.54312   3
   1   5  -5 1.37260 0.39503   3
   1   5  -5 0.98123 0.48549   2
   1   5  -5 1.31336 0.43455   3
  -1   5   5 0.72335 0.40298   3
   0  -5  -5 1.70450 0.29905   4
   0  -5   5 1.45077 0.40023   3
   0  -5   5 0.89740 0.20870   2
   0  -5  -5 1.27587 0.51831   4
   0  -5   5 1.56076 0.47028   3
   0  -5  -5 1.25587 0.19936   4
   0  -5  -5 1.11640 0.50831   4
   0  -5   5 0.77211 0.61564   2
   0   5   5 1.16619 0.17937   4
   0   5  -5 1.10052 0.58027   3
   0   5   5 1.38545 0.39873   4
   0   5   5 1.09245 0.36415   4
   0   5   5 1.60481 0.31894   4
   0   5  -5 1.37069 0.38015   3
   0   5  -5 1.09225 0.49455   3
   0   5  -5 1.18061 0.38015   3
   0   5  -5 1.16064 0.21015   3
   0   5   5 1.20608 0.43862   4
  -1  -5  -5 4.37149 0.70890   4
  -1  -5  -5 2.98041 0.69511   1
  -1  -5  -5 4.53889 0.71877   4
   1  -5   5 4.43068 0.74018   4
   1  -5   5 4.03527 0.54745   4
   1  -5   5 3.89991 0.39920   1
   1  -5   5 4.19748 0.64885   4
  -1  -5  -5 3.86515 0.41073   1
   1  -5   5 3.56222 0.65507   1
  -1   5  -5 3.31651 0.38893   1
   1   5   5 3.88617 0.64239   1
  -1   5  -5 3.68501 0.71657   1
  -1   5  -5 3.22441 0.60394   1
  -1   5  -5 4.33946 0.78065   4
   1   5   5 3.19106 0.37914   1
   1   5   5 5.05086 0.60055   4
   2  -5   5 13.8821 1.55561   1
   2  -5   5 13.4013 1.32596   3
   2  -5   5 13.6250 1.38944   4
   2   5   5 13.6374 1.39441   2
   2   5   5 13.2768 1.14802   1
   2   5   5 13.7497 1.48968   2
   2   5   5 13.2469 1.29771   1
   3  -5   5 2.78558 0.49153   1
   3  -5   5 2.32286 0.81928   1
   3  -5   5 2.14942 0.58792   1
   3  -5   5 1.74462 0.51086   1
   3  -5   5 2.28439 0.34699   1
   3  -5   5 2.84340 0.65540   1
   3  -5   5 2.47707 0.35666   1
   3   5   5 1.65836 0.29810   2
   3   5   5 1.53397 0.35476   4
   3   5   5 1.41465 0.67786   4
   3   5   5 1.63967 0.33539   2
   3   5   5 1.53250 0.27502   4
   3   5   5 1.67695 0.47510   2
   3   5   5 2.10551 0.57761   2
   4  -5   5 2.93344 0.46055   4
   4  -5   5 3.63606 1.25114   1
   4  -5   5 3.66538 0.73308   1
   4  -5   5 2.98356 0.79096   4
   4  -5   5 4.64288 0.59620   1
   4  -5   5 4.65258 0.81132   1
   4   5   5 3.54465 0.36571   3
   4   5   5 3.75525 0.68273   1
   4   5   5 3.08564 1.00236   3
   4   5   5 5.55439 0.82118   1
   4   5   5 4.16117 0.49819   1
   5  -5   5 1.84430 0.47816   3
   5  -5   5 2.51764 0.58553   3
   5   5   5 -0.0669 0.58323   1
   5   5   5 0.97908 0.26795   2
   5   6  -5 0.20386 0.24466   2
   4  -6  -5 2.42085 0.27012   2
   4  -6  -5 2.59047 0.53730   1
   4  -6  -5 2.55217 0.61401   1
   4  -6  -5 2.49039 0.96622   2
   4   6  -5 1.98839 0.42329   3
   4   6  -5 1.70294 0.90563   3
   4   6  -5 2.37228 0.49221   3
   3  -6  -5 3.73923 0.54962   2
   3  -6  -5 3.19945 1.08939   2
   3  -6  -5 3.60190 0.42203   2
   3  -6  -5 2.76768 0.27476   2
   3  -6  -5 3.00315 0.50049   2
   3  -6  -5 4.60298 0.90294   2
   3  -6  -5 3.12100 0.85381   2
   3  -6  -5 4.08280 0.62808   2
   3   6  -5 2.21459 0.29662   1
   3   6  -5 2.30365 0.52402   1
   3   6  -5 3.37494 0.94316   2
   3   6  -5 2.39011 0.80593   2
   3   6  -5 2.17512 0.41523   1
   2  -6  -5 0.22569 0.10260   1
   2  -6  -5 0.44180 0.37151   2
   2  -6  -5 -0.4418 0.62247   2
   2  -6  -5 -0.4116 0.41159   2
   2   6  -5 0.31096 0.09719   2
   2   6  -5 0.06059 0.16162   1
   2   6  -5 0.52474 0.35961   2
   2   6  -5 0.39840 0.50534   2
   2   6  -5 0.47619 0.10694   2
   2   6  -5 0.47619 0.31096   2
  -1  -6   5 -0.0297 0.05939   3
   1  -6  -5 0.04028 0.05028   2
   1  -6  -5 -0.0201 0.05028   2
   1  -6  -5 0.01010 0.04028   2
   1  -6  -5 -0.0101 0.02009   2
   1  -6  -5 -0.0503 0.05028   2
  -1  -6   5 -0.0495 0.04946   3
   1   6  -5 -0.0099 0.04946   3
   1   6  -5 0.00993 0.02969   3
   1   6  -5 -0.0099 0.06932   3
  -1   6   5 0.05028 0.04028   2
   1   6  -5 0.00993 0.02969   3
  -1   6   5 -0.0101 0.03019   2
   1   6  -5 0.00993 0.01976   3
   1   6  -5 0.00993 0.05939   3
   1   6  -5 0.00000 0.01032   1
   1   6  -5 -0.0198 0.05939   3
   0  -6   5 0.95354 0.19069   3
   0  -6   5 0.69540 0.65386   2
   0  -6  -5 0.83672 0.49581   4
   0  -6   5 0.59161 0.47741   2
   0  -6  -5 1.33601 0.45864   4
   0  -6  -5 1.41582 0.20942   4
   0  -6  -5 1.06679 0.43874   4
   0  -6   5 1.02381 0.41148   3
   0  -6  -5 1.53543 0.31903   4
   0   6  -5 1.13415 0.52192   3
   0   6  -5 1.00367 0.58213   3
   0   6  -5 0.93350 0.38137   3
   0   6  -5 1.32495 0.20076   3
   0   6   5 0.83747 0.29913   4
   0   6   5 1.14659 0.35893   4
   0   6   5 0.67761 0.39180   2
   0   6   5 0.93718 0.37883   4
   0   6   5 0.83437 0.18089   4
   1  -6   5 -0.0507 0.10159   4
   1  -6   5 -0.0305 0.30478   4
  -1  -6  -5 -0.2166 0.25600   3
   1  -6   5 0.07146 0.23474   1
   1  -6   5 -0.0102 0.29458   4
  -1  -6  -5 0.13629 0.36692   1
   1  -6   5 -0.0102 0.26412   4
   1   6   5 0.30528 0.23635   3
  -1   6  -5 0.00000 0.33597   1
   1   6   5 0.03144 0.08392   1
  -1   6  -5 0.12244 0.22450   1
   1   6   5 0.11537 0.15722   1
   1   6   5 -0.1083 0.25600   3
   1   6   5 -0.2166 0.26588   3
  -1   6  -5 0.17272 0.34543   4
  -1   6  -5 0.05098 0.09183   1
   2  -6   5 1.47533 0.62943   1
   2  -6   5 3.63919 0.56067   1
   2  -6   5 2.37035 0.59017   1
   2   6   5 1.13663 0.37884   1
   2   6   5 1.90277 0.49762   2
   2   6   5 2.02962 0.54646   2
   2   6   5 1.35631 0.21465   2
   3  -6   5 0.31899 0.32869   1
   3  -6   5 -0.0870 0.23202   1
   3  -6   5 0.21930 0.45859   3
   3  -6   5 0.18126 0.25179   3
   3  -6   5 -0.1546 0.33829   1
   3  -6   5 -0.0193 0.11596   1
   3  -6   5 -0.1933 0.19334   1
   3  -6   5 0.29000 0.19334   1
   3  -6   5 0.26101 0.58960   1
   3   6   5 0.40702 0.24048   2
   3   6   5 0.15689 0.12748   4
   3   6   5 0.28678 0.15726   2
   3   6   5 -0.1664 0.44394   2
   3   6   5 0.31452 0.16644   2
   3   6   5 0.09807 0.37261   4
   3   6   5 -0.0185 0.06476   2
   3   6   5 0.16673 0.06866   4
   3   6   5 0.22202 0.34226   2
   3   6   5 0.24048 0.09250   2
   4  -6   5 0.37368 0.64912   1
   4  -6   5 0.59013 0.19671   1
   4  -6   5 0.96381 0.43278   1
   4  -6   5 0.68848 0.41305   1
   4   6   5 0.14811 0.17587   4
   4   6   5 0.06873 0.58903   3
   4   6   5 0.68775 0.28432   1
   4   6   5 0.28432 0.22011   1
   5  -6   5 -0.0293 0.20515   3
   5  -6   5 0.13676 0.14646   3
   5   6   5 0.04763 0.09536   1
   5   6   5 0.21931 0.14298   1
   5  -7  -5 0.28096 0.31974   1
   5   7  -5 1.10021 0.46878   1
   5   7  -5 0.15437 0.23677   2
   4  -7  -5 1.96842 0.47051   1
   4  -7  -5 1.62274 0.59533   1
   4  -7  -5 3.21679 0.79702   1
   4  -7  -5 2.13168 0.86415   1
   4   7  -5 0.74785 0.83638   3
   4   7  -5 1.32454 0.68907   1
   4   7  -5 0.77736 0.35423   3
   4   7  -5 2.38947 0.93970   1
   4   7  -5 0.86589 0.31485   3
   3  -7  -5 1.99210 0.38229   1
   3  -7  -5 2.42475 0.35212   1
   3  -7  -5 2.69644 0.78477   1
   3  -7  -5 1.32814 1.03627   1
   3  -7  -5 3.09577 0.58970   2
   3  -7  -5 2.92868 0.92378   2
   3  -7  -5 2.47512 0.30186   1
   3  -7  -5 3.24315 0.57984   2
   3  -7  -5 2.73790 0.48784   3
   3  -7  -5 2.79106 0.76655   2
   3   7  -5 2.38774 0.41438   1
   3   7  -5 2.77128 0.29362   2
   3   7  -5 2.69365 0.41438   1
   3   7  -5 2.43702 0.78938   1
   3   7  -5 2.59498 0.56245   1
   3   7  -5 3.30348 0.74326   2
   3   7  -5 3.29427 0.96352   2
   2  -7  -5 12.2623 1.21518   2
   2   7  -5 8.25714 0.78446   1
   2   7  -5 7.38219 1.32762   1
   2   7  -5 8.57975 1.01961   2
   2   7  -5 8.40796 1.16671   1
   1  -7  -5 1.77306 0.57362   1
   1  -7  -5 1.55399 0.44850   1
   1  -7  -5 3.74646 0.64451   2
   1  -7  -5 1.77306 0.58408   1
  -1  -7   5 0.86439 0.65856   1
  -1  -7   5 1.37896 0.42187   1
   1   7  -5 1.93589 0.51624   3
   1   7  -5 1.53328 0.25723   1
   1   7  -5 2.54156 0.60556   3
  -1   7   5 1.41841 0.40675   1
  -1   7   5 1.20991 0.43803   1
   1   7  -5 1.62597 0.53511   1
   1   7  -5 2.74998 0.64530   3
   0  -7   5 4.39801 0.47491   1
   0  -7  -5 6.22403 0.81791   4
   0  -7  -5 5.12688 0.48875   4
   0  -7   5 3.51012 0.80525   1
   0  -7  -5 4.91925 0.59244   1
   0  -7  -5 4.92280 0.83592   4
   0  -7   5 4.48054 0.77429   1
   0  -7  -5 5.37621 0.82792   4
   0  -7   5 4.66643 0.77429   1
   0   7  -5 5.75754 0.91596   3
   0   7   5 4.26336 0.76169   1
   0   7  -5 3.84046 0.88789   1
   0   7  -5 4.61475 0.48526   1
   0   7   5 4.42200 0.47603   1
   0   7   5 4.13634 0.66651   1
   0   7  -5 4.56318 0.69175   1
   0   7   5 3.94597 0.60305   1
   0   7   5 5.28646 0.73807   4
   1  -7   5 1.08166 0.44902   4
   1  -7   5 1.52968 0.50654   2
  -1  -7  -5 1.55650 0.49258   3
   1  -7   5 0.95914 0.53059   4
   1  -7   5 1.84366 0.38491   2
  -1  -7  -5 1.12667 0.47988   1
  -1   7  -5 2.06660 0.57747   2
   1   7   5 1.33532 0.42767   1
   1   7   5 1.23100 0.21912   1
   1   7   5 1.61559 0.45316   3
   1   7   5 0.85544 0.36509   1
   1   7   5 1.06409 0.32345   1
  -1   7  -5 1.08166 0.46939   4
   2  -7   5 0.00000 0.18675   1
   2  -7   5 0.01019 0.15230   3
   2  -7   5 0.09831 0.06883   1
   2  -7   5 -0.1966 0.19662   1
   2   7   5 -0.1161 0.11612   2
   2   7   5 -0.0193 0.13554   2
   2   7   5 -0.0097 0.03874   2
   2   7   5 0.00000 0.10868   1
   3  -7   5 8.17509 1.17062   3
   3  -7   5 8.51263 1.05685   1
   3  -7   5 8.66785 1.06647   1
   3  -7   5 8.17496 0.95762   2
   3  -7   5 9.34647 0.81439   1
   3  -7   5 9.20108 1.22159   1
   3  -7   5 8.17601 1.40832   3
   3   7   5 8.46512 0.84469   2
   3   7   5 8.31823 0.83548   2
   3   7   5 8.63955 1.17522   2
   3   7   5 8.96096 0.87223   2
   3   7   5 8.63043 0.72534   2
   3   7   5 9.50256 0.95483   2
   3   7   5 8.77732 0.78962   2
   3   7   5 8.17464 0.88279   3
   3   7   5 8.65797 1.20275   2
   4  -7   5 1.42522 0.42560   1
   4  -7   5 1.18765 0.47504   1
   4  -7   5 0.32160 1.11561   4
   4  -7   5 0.84422 0.31162   4
   4   7   5 0.57868 0.28442   3
   4   7   5 0.50017 0.87294   3
   4   7   5 0.65719 0.16676   3
   4   7   5 1.78651 0.46482   1
   4   7   5 1.08470 0.51044   1
   5  -7   5 0.22978 0.50324   1
   5  -7   5 0.55709 0.40064   3
   5   7   5 0.57993 0.49438   4
   6  -8  -5 0.02855 0.06664   4
   5   8  -5 0.27824 0.28786   1
   4  -8  -5 0.00000 0.10569   1
   4  -8  -5 0.02881 0.04798   1
   4  -8  -5 0.11522 0.15366   1
   4  -8  -5 0.12486 0.18247   1
   4  -8  -5 0.02881 0.12486   1
   4   8  -5 -0.0443 0.17755   1
   4   8  -5 0.07987 0.06215   1
   4   8  -5 0.00930 0.07421   4
   4   8  -5 0.00930 0.05561   4
   3  -8  -5 7.59207 0.96376   2
   3  -8  -5 9.61793 1.05224   2
   3  -8  -5 6.03010 0.74491   1
   3  -8  -5 7.25766 0.63922   2
   3  -8  -5 8.63444 1.38664   2
   3  -8  -5 8.05432 1.53412   2
   3  -8  -5 6.86437 0.76706   2
   3  -8  -5 5.79856 1.24829   1
   3  -8  -5 6.10058 0.93627   1
   3   8  -5 6.57071 0.76837   1
   3   8  -5 6.81402 0.63501   2
   3   8  -5 9.77453 1.40288   2
   3   8  -5 6.45253 0.77826   1
   3   8  -5 5.75303 1.17233   1
   2  -8  -5 10.0139 1.18401   2
  -1  -8   5 -0.3882 0.38816   3
   1   8  -5 0.10271 0.42104   1
   1   8  -5 0.24879 0.47771   3
   1   8  -5 -0.0100 0.11940   3
   1   8  -5 -0.1592 0.41801   3
   1   8  -5 -0.1194 0.30859   3
   1   8  -5 0.07191 0.18482   1
   0  -8   5 0.25218 0.11101   3
   0  -8  -5 -0.0799 0.27937   4
   0  -8  -5 0.02108 0.09501   1
   0  -8   5 0.56497 0.27242   3
   0  -8  -5 0.19960 0.22953   4
   0  -8   5 0.61537 0.33293   3
   0  -8  -5 0.43914 0.32933   4
   0  -8  -5 -0.0498 0.15966   4
   0  -8   5 0.73650 0.29255   3
   0   8   5 -0.0399 0.25946   4
   0   8  -5 -0.0504 0.09077   3
   0   8   5 -0.0898 0.20961   4
   0   8   5 -0.0299 0.13974   4
   0   8  -5 0.10089 0.17153   3
   0   8   5 0.06334 0.15835   1
   0   8  -5 1.34175 0.38333   3
   0   8   5 0.01059 0.07393   1
   1  -8   5 19.6363 2.43924   4
   1  -8   5 25.0454 2.38815   4
   1  -8   5 27.5917 2.11549   2
   1  -8   5 23.6472 2.41887   4
  -1  -8  -5 26.9924 2.43498   3
  -1   8  -5 26.5843 2.39750   2
   1   8   5 25.6813 2.45466   3
   1   8   5 22.3055 2.35400   1
   1   8   5 26.4205 2.05051   3
   1   8   5 22.6996 2.36429   1
   1   8   5 26.2530 2.25758   3
   3  -8   5 1.35174 0.31118   1
   3   8   5 0.08201 0.13668   2
   3   8   5 0.00983 0.31341   3
   3   8   5 -0.0273 0.24612   2
   3   8   5 0.02938 0.21546   3
   4  -8   5 0.11913 0.17869   3
   4  -8   5 0.35748 0.20857   3
   4  -8   5 0.13905 0.56606   3
   4  -8   5 -0.1191 0.32770   3
   4   8   5 -0.0453 0.12692   1
   4   8   5 -0.0453 0.08155   1
   4   8   5 -0.2537 0.27192   1
   5  -8   5 0.44970 0.37145   3
   5  -8   5 0.70387 0.35194   3
   5   8   5 -0.4833 0.48327   4
   5   9  -5 0.57774 0.23112   1
   5   9  -5 0.43498 0.23340   2
   4  -9  -5 0.64326 0.25125   2
   4  -9  -5 0.56290 0.84430   2
   4  -9  -5 0.67351 0.50261   2
   4  -9  -5 0.61311 0.42215   2
   4  -9  -5 -0.3361 0.63384   1
   4   9  -5 0.84617 0.30846   1
   4   9  -5 0.36401 0.35415   3
   4   9  -5 0.52140 0.31477   3
   4   9  -5 1.47192 0.54646   1
   4   9  -5 0.95190 0.89019   1
   3  -9  -5 9.22410 1.07192   2
   3  -9  -5 8.43270 1.76306   1
   3  -9  -5 7.32450 1.45079   1
   3  -9  -5 10.2075 1.47506   2
   3  -9  -5 8.88981 0.94408   2
   3  -9  -5 11.0532 1.24888   2
   3  -9  -5 9.36180 1.10141   2
   3  -9  -5 8.58095 0.79091   1
   3  -9  -5 7.91892 0.90669   1
   3   9  -5 8.67867 0.74208   2
   3   9  -5 8.72387 1.05879   2
   3   9  -5 7.37289 0.90563   1
   3   9  -5 8.38673 0.94503   1
   3   9  -5 6.30978 1.32892   1
   2  -9  -5 7.91344 1.46060   2
   2  -9  -5 6.64290 1.01043   2
   2  -9  -5 4.71206 0.85037   2
   2   9  -5 2.90274 0.40041   1
   2   9  -5 2.84270 0.62059   1
   2   9  -5 3.28576 0.80163   4
   1   9  -5 10.0040 1.27275   2
   1   9  -5 7.75465 1.11480   2
  -1   9   5 10.1325 1.13810   2
   1   9  -5 8.97801 0.82870   2
   1   9  -5 7.12317 1.19378   2
   0  -9  -5 2.74563 0.58906   3
   0  -9  -5 3.15493 0.36944   3
   0  -9  -5 2.79550 0.63894   3
   0  -9   5 1.26142 0.66661   1
   0  -9  -5 2.58590 0.41931   3
   0  -9  -5 2.52601 0.60899   3
   0  -9   5 2.46143 0.34874   1
   0  -9   5 1.33323 0.60510   1
   0  -9   5 1.92814 0.64614   1
   0   9   5 1.84112 0.47342   1
   0   9   5 2.51408 0.44489   3
   0   9  -5 3.14443 0.81631   2
   0   9   5 2.93531 0.30956   3
   0   9  -5 2.94285 0.36281   2
   0   9  -5 3.26533 0.80630   2
   0   9  -5 2.51210 0.54124   3
   0   9   5 2.41986 0.52608   1
   0   9   5 2.84548 0.56914   3
   1  -9   5 8.49581 0.87056   2
   1  -9   5 10.8174 1.33088   2
   1  -9   5 9.55658 1.30087   2
  -1   9  -5 10.5473 1.15081   2
   2  -9   5 1.76813 0.54024   1
   2  -9   5 2.19053 0.75632   1
   2  -9   5 2.08244 0.30456   1
   2   9   5 1.15157 0.48229   3
   2   9   5 1.01994 0.38620   1
   2   9   5 1.28589 0.23635   2
   2   9   5 1.37107 0.49167   2
   3  -9   5 20.8256 1.98049   4
   3  -9   5 19.1332 2.07637   4
   3  -9   5 18.9813 2.09669   4
   3  -9   5 20.6931 2.53224   4
   3  -9   5 20.1866 2.15744   4
   3  -9   5 19.6599 1.91432   4
   3  -9   5 20.1461 1.74211   4
   3   9   5 18.9983 1.96842   3
   3   9   5 20.3791 1.90958   3
   3   9   5 19.8208 2.17401   3
   3   9   5 18.8121 1.90958   3
   3   9   5 20.5488 1.70459   3
   3   9   5 20.7908 1.78370   3
   3   9   5 18.8416 1.77255   3
   3   9   5 19.1256 2.06625   3
   3   9   5 20.5161 1.65497   3
   4  -9   5 2.49303 0.69532   3
   4  -9   5 2.30433 0.39732   3
   4  -9   5 2.30433 0.57606   3
   4   9   5 0.28410 0.58787   3
   4   9   5 1.53339 0.30672   1
   4   9   5 1.14625 0.23517   3
   4   9   5 1.26736 0.31212   3
   5  -9   5 0.31282 0.30311   3
   5   9   5 0.75557 0.29281   4
   5 -10  -5 -0.0481 0.04814   3
   5  10  -5 0.02893 0.04818   1
   5  10  -5 -0.0289 0.02893   1
   4 -10  -5 1.92005 0.70085   1
   4 -10  -5 0.85568 0.30202   2
   4 -10  -5 1.06712 0.53356   2
   4 -10  -5 1.11129 0.44254   2
   4  10  -5 0.99367 0.36405   3
   4  10  -5 0.79689 0.33455   3
   4  10  -5 0.85590 0.38369   3
   4  10  -5 1.13981 0.94694   1
   3 -10  -5 3.07624 0.54459   3
   3 -10  -5 3.65108 0.64545   3
   3 -10  -5 3.39897 0.40346   3
   3 -10  -5 4.64130 1.10877   1
   3 -10  -5 2.98539 0.85730   3
   3 -10  -5 3.90329 0.91780   3
   3 -10  -5 4.00008 1.11327   3
   3 -10  -5 3.13674 0.50433   3
   3 -10  -5 4.01334 0.65749   1
   3  10  -5 2.88536 0.55149   3
   3  10  -5 2.53084 0.32499   3
   3  10  -5 2.64909 0.43335   3
   3  10  -5 2.81652 0.95520   3
   3  10  -5 3.40732 0.54161   3
   3  10  -5 3.53534 0.40371   3
   2 -10  -5 9.47558 0.94657   2
   2 -10  -5 10.8506 1.36503   2
   2 -10  -5 8.80806 1.32515   2
   2  10  -5 11.0918 1.14259   2
   1 -10  -5 3.15663 0.71373   2
   1 -10  -5 1.49784 0.55289   2
   1 -10  -5 2.04076 0.55289   2
   1 -10  -5 2.49312 0.36191   2
   1  10  -5 0.70354 0.47562   4
   1  10  -5 0.49725 0.61899   1
   1  10  -5 1.85707 0.29170   2
   0 -10  -5 0.91835 0.46919   2
   0 -10  -5 0.43477 0.43477   2
   0 -10   5 0.30611 0.43875   1
   0 -10  -5 1.20782 0.49913   2
   0 -10  -5 0.44916 0.19965   2
   0 -10   5 1.28402 0.23891   2
   0 -10   5 0.99529 0.58725   2
   0  10  -5 0.40815 0.44899   1
   0  10   5 0.38692 0.34507   1
   0  10   5 0.33458 0.34507   1
   0  10  -5 0.70665 0.33845   2
   0  10  -5 1.08495 0.48771   2
   0  10   5 0.62889 0.28946   2
   0  10   5 0.37643 0.38692   1
   1 -10   5 0.52641 0.18869   2
   1 -10   5 0.76471 0.54624   2
   1 -10   5 -0.0795 0.47670   2
   1 -10   5 -0.4867 0.52641   2
   1  10   5 0.87365 0.37297   2
   1  10   5 0.80492 0.32394   2
   2 -10   5 0.15278 0.37699   3
   2 -10   5 0.21589 0.14717   1
   2 -10   5 -0.4023 0.48091   1
   2 -10   5 -0.3239 0.51034   1
   2  10   5 0.10860 0.11840   1
   2  10   5 0.22417 0.13078   2
   2  10   5 0.72844 0.40160   2
   2  10   5 0.22417 0.15879   2
   2  10   5 0.04930 0.30600   1
   2  10   5 0.02960 0.35530   1
   3 -10   5 0.20539 0.39117   1
   3 -10   5 0.14664 0.24443   1
   3 -10   5 0.44001 0.25424   1
   3 -10   5 -0.0293 0.11731   1
   3 -10   5 0.18577 0.44982   1
   3 -10   5 -0.0880 0.41068   1
   3 -10   5 -0.0293 0.27376   1
   3 -10   5 0.07827 0.19558   1
   3  10   5 -0.0630 0.14396   2
   3  10   5 0.09902 0.34190   2
   3  10   5 0.21599 0.18901   2
   3  10   5 -0.3239 0.32394   2
   3  10   5 0.03920 0.08811   3
   3  10   5 -0.1890 0.22493   2
   3  10   5 -0.0630 0.07203   2
   3  10   5 -0.0990 0.18901   2
   3  10   5 0.00000 0.10838   1
   4 -10   5 0.15889 0.36750   3
   4 -10   5 -0.0100 0.22843   3
   4 -10   5 0.19864 0.30793   3
   4  10   5 -0.0360 0.17981   1
   4  10   5 0.46748 0.27874   1
   4  10   5 -0.0449 0.10785   1
   4  10   5 0.47650 0.26070   1
   5 -10   5 0.43008 0.33234   3
   5  10   5 0.49874 0.29175   4
   5  10   5 0.04392 0.23048   2
   5 -11  -5 0.45175 0.36518   3
   5  11  -5 0.20037 0.20037   2
   5  11  -5 -0.0771 0.17341   4
   4 -11  -5 1.73400 0.64518   2
   4 -11  -5 2.37084 0.98862   1
   4 -11  -5 2.19811 0.41276   1
   4  11  -5 4.21703 0.94489   1
   4  11  -5 2.12686 0.42916   3
   4  11  -5 1.79103 0.44282   3
   3 -11  -5 0.69663 0.42401   4
   3 -11  -5 0.72691 0.70676   4
   3 -11  -5 1.78274 0.95469   1
   3 -11  -5 0.46442 0.66635   4
   3 -11  -5 0.84749 0.35070   1
   3 -11  -5 0.70676 0.36345   4
   3 -11  -5 0.09084 0.85815   4
   3 -11  -5 0.57551 0.36345   4
   3  11  -5 0.72795 0.26128   3
   3  11  -5 0.84278 0.72622   2
   3  11  -5 0.72945 0.19394   4
   3  11  -5 0.77110 0.16134   2
   3  11  -5 0.62082 0.27586   3
   3  11  -5 0.46317 0.32519   3
   2 -11  -5 0.57728 0.66840   1
   2 -11  -5 1.19950 0.43623   2
   2 -11  -5 0.89214 0.28747   2
   2 -11  -5 1.83390 0.77322   2
   2 -11  -5 1.26891 0.26768   2
   2 -11  -5 1.98266 1.13009   2
   2 -11  -5 1.50686 0.61462   2
   2  11  -5 2.38853 0.31239   2
   2  11  -5 0.85442 0.56036   2
   2  11  -5 1.79140 0.33073   2
   1 -11  -5 6.33842 1.09149   2
   1 -11  -5 5.47760 0.64077   1
   1 -11  -5 4.95055 0.91984   1
   1  11  -5 6.00753 0.58443   2
   1  11  -5 6.67827 1.12100   2
   1  11  -5 5.89446 1.05290   2
   0 -11  -5 7.23925 1.20323   2
   0 -11  -5 7.58737 0.77562   2
   0 -11  -5 6.76197 1.18339   2
   0  11   5 9.08884 1.08394   2
   0  11   5 8.13427 0.75578   2
   1 -11   5 3.11867 0.76461   1
   1 -11   5 3.46777 0.83740   2
   1 -11   5 3.15253 0.47285   2
   1  11   5 3.40493 0.61116   2
   1  11   5 3.39519 0.39768   2
   1  11   5 4.01599 0.67908   2
   2 -11   5 1.25420 0.56827   1
   2 -11   5 0.88180 0.30380   1
   2 -11   5 1.70492 0.67609   1
   2 -11   5 1.35218 0.42134   1
   2 -11   5 1.25420 0.41151   1
   2  11   5 -0.1199 0.35057   2
   2  11   5 0.43368 0.45210   2
   3 -11   5 0.92113 0.45079   1
   3 -11   5 0.01019 0.76156   4
   3 -11   5 0.32491 0.35536   4
   3 -11   5 1.64637 0.81340   1
   3 -11   5 1.34253 0.73496   1
   3 -11   5 0.01019 0.48737   4
   3 -11   5 0.94079 0.31356   1
   3 -11   5 0.64679 0.20583   1
   3  11   5 0.46040 0.35262   3
   3  11   5 0.13716 0.21546   3
   3  11   5 1.49096 0.37496   1
   3  11   5 1.21415 0.58030   1
   3  11   5 0.22529 0.29387   3
   3  11   5 0.53871 0.19591   3
   3  11   5 0.67854 0.47320   1
   3  11   5 0.47013 0.42120   3
   3  11   5 0.57145 0.16322   3
   4 -11   5 1.95566 0.45665   3
   4 -11   5 1.65783 0.54597   3
   4  11   5 1.40207 0.32776   2
   4  11   5 1.34164 0.25461   3
   4  11   5 0.84223 0.47003   3
   5 -11   5 -0.0586 0.29305   3
   5  11   5 -0.1219 0.17809   4
   5  11   5 0.24372 0.35617   4
   5 -12  -5 0.13415 0.15327   3
   5 -12  -5 0.03834 0.05746   3
   5  12  -5 -0.0385 0.03851   4
   5  12  -5 0.08657 0.05771   4
   4 -12  -5 0.05043 0.41387   2
   4 -12  -5 0.16152 0.97924   2
   4 -12  -5 0.06056 0.22208   2
   4  12  -5 0.21051 0.16661   1
   4  12  -5 -0.1403 0.28942   1
   3 -12  -5 0.53556 0.41423   4
   3 -12  -5 0.72440 0.69544   1
   3 -12  -5 0.95625 0.88862   1
   3 -12  -5 0.08088 0.71738   4
   3 -12  -5 0.45467 0.37390   4
   3 -12  -5 1.25562 0.45400   1
   3 -12  -5 0.58603 0.24254   4
   3 -12  -5 0.33346 0.36376   4
   3 -12  -5 0.19196 0.65678   4
   3  12  -5 0.51275 0.28595   3
   3  12  -5 0.61137 0.34510   3
   3  12  -5 0.49307 0.79870   3
   3  12  -5 0.97079 0.22946   1
   2 -12  -5 1.47815 1.04461   2
   2 -12  -5 0.61097 0.39420   2
   2 -12  -5 1.42893 0.56175   2
   2 -12  -5 0.59130 0.58141   2
   2 -12  -5 1.82302 0.32521   2
   2 -12  -5 1.43871 0.37443   2
   2 -12  -5 0.58141 0.67997   2
   2  12  -5 0.29774 0.51603   1
   1 -12  -5 1.48275 0.30679   1
   1 -12  -5 2.27158 0.71421   2
   1 -12  -5 1.66652 0.57531   2
   1  12  -5 1.80456 0.66138   2
   1  12  -5 1.91790 0.31178   2
   1  12  -5 2.20135 0.72743   2
   0  12  -5 1.85262 0.61109   2
   0  12   5 1.08445 0.25572   1
   0  12   5 3.14338 0.62083   2
   0  12  -5 1.71680 0.73717   2
   1 -12   5 3.55625 0.80113   2
   1 -12   5 3.64415 0.50802   2
   1 -12   5 4.68949 0.91834   2
   1  12   5 3.03626 0.40100   2
   1  12   5 4.53529 0.71609   2
   1  12   5 3.70456 0.67787   2
   2 -12   5 0.93791 0.46890   1
   2 -12   5 0.27535 0.34674   3
   2 -12   5 0.42826 0.61186   3
   2 -12   5 0.45884 0.44872   3
   2 -12   5 1.09421 0.29310   1
   2 -12   5 1.40681 0.30290   1
   2 -12   5 -0.0488 0.61550   1
   2  12   5 0.87578 0.54737   2
   2  12   5 0.39309 0.51098   3
   2  12   5 1.15852 0.20982   2
   2  12   5 1.24060 0.24633   2
   2  12   5 0.86663 0.43784   2
   2  12   5 0.71153 0.18246   2
   2  12   5 0.57675 0.22696   1
   3 -12   5 0.23377 0.85372   4
   3 -12   5 -0.1963 0.85394   1
   3 -12   5 0.88338 0.42210   1
   3 -12   5 0.35570 0.26425   4
   3 -12   5 0.63015 0.54879   4
   3 -12   5 0.63015 0.40657   4
   3  12   5 0.91713 0.43211   1
   3  12   5 0.71429 0.17638   1
   3  12   5 0.97002 0.65255   1
   3  12   5 0.67610 0.40169   3
   3  12   5 1.50802 0.26458   1
   3  12   5 0.56828 0.19598   3
   3  12   5 1.62266 0.60850   1
   3  12   5 1.12881 0.29103   1
   4 -12   5 2.35085 0.73397   3
   4 -12   5 1.65636 0.46292   1
   4  12   5 2.91854 0.51349   1
   4  12   5 2.00870 0.29996   3
   4  12   5 2.63031 0.36928   1
   4  12   5 1.41022 0.53861   3
   5 -12   5 0.02341 0.23454   1
   5  12   5 -0.0840 0.08400   4
   5  12   5 0.01173 0.07016   1
   5  12   5 0.01173 0.14032   1
   5 -13  -5 0.43631 0.81674   1
   5 -13  -5 0.45605 0.30754   3
   5  13  -5 0.35657 0.35657   1
   5  13  -5 -0.0288 0.23054   4
   4 -13  -5 5.21837 0.80910   2
   4 -13  -5 5.51164 0.65734   2
   4 -13  -5 6.14954 1.63348   1
   4  13  -5 5.00360 0.70917   3
   4  13  -5 6.05511 0.74796   3
   3 -13  -5 0.33482 0.33482   1
   3 -13  -5 -0.1053 0.59317   1
   3 -13  -5 0.29663 0.33482   1
   3 -13  -5 0.40181 0.55487   1
   3 -13  -5 0.26784 0.33482   1
   3 -13  -5 -0.6888 0.68884   1
   3 -13  -5 0.64105 0.37312   1
   3 -13  -5 0.23915 0.61226   1
   3  13  -5 0.24344 0.15648   1
   3  13  -5 -0.0174 0.13040   1
   3  13  -5 0.20728 0.24667   3
   3  13  -5 0.22417 0.21526   2
   3  13  -5 0.03950 0.69083   3
   2 -13  -5 4.03635 0.85987   3
   2 -13  -5 4.72423 0.60701   3
   2 -13  -5 5.64873 1.17474   2
   2 -13  -5 4.64335 1.66921   3
   2 -13  -5 4.73437 1.12289   3
   2 -13  -5 4.96563 1.11679   3
   2 -13  -5 4.74452 0.62720   3
   2  13  -5 4.96831 0.53844   4
   2  13  -5 4.95681 0.62443   3
   2  13  -5 4.82953 1.10077   3
   2  13  -5 4.99832 0.51430   2
   2  13  -5 4.68082 0.97186   3
   2  13  -5 4.76010 0.61484   3
   1 -13  -5 0.52975 0.49058   2
   1 -13  -5 0.68682 0.40221   2
   1 -13  -5 0.06060 0.16163   1
   1  13  -5 0.19590 0.16783   2
   1  13  -5 0.41967 0.41041   2
   1  13  -5 -0.0933 0.35437   2
   1  13  -5 -0.0186 0.13986   2
   0  13  -5 5.07750 0.91973   2
   0  13  -5 4.35900 0.54611   2
   0  13  -5 6.09294 1.07301   2
   1 -13   5 0.16304 0.57070   3
   1 -13   5 0.13248 0.20383   3
   1  13   5 1.56099 0.27269   2
   1  13   5 0.76167 0.17865   2
   1  13   5 1.19425 0.40437   2
   1  13   5 1.04380 0.38551   2
   2 -13   5 1.20349 1.06067   3
   2 -13   5 2.92034 0.74951   1
   2  13   5 4.27165 0.50575   2
   2  13   5 4.24456 0.47866   2
   2  13   5 4.34394 0.52378   2
   2  13   5 5.71660 0.83993   2
   2  13   5 4.90386 0.55086   2
   2  13   5 4.13622 0.80378   2
   2  13   5 3.91944 0.78566   2
   2  13   5 4.97605 0.49669   2
   3 -13   5 1.25106 1.01711   4
   3 -13   5 2.14252 0.57001   1
   3 -13   5 2.04423 1.02211   1
   3  13   5 1.44102 0.56854   3
   3  13   5 4.03474 0.85401   1
   3  13   5 1.52922 0.53914   3
   3  13   5 2.70145 0.37473   1
   4 -13   5 2.25882 0.98084   3
   4 -13   5 1.60807 0.61209   1
   4  13   5 1.79531 0.45129   2
   4  13   5 1.09880 0.49055   2
   4  13   5 1.95487 0.35012   4
   4  13   5 1.65794 0.25507   2
   5 -13   5 0.14349 0.39472   1
   5  13   5 0.25693 0.23239   2
   5  13   5 0.30680 0.18594   4
   5 -14  -5 0.61796 0.61796   3
   5 -14  -5 0.41837 0.36124   3
   5  14  -5 0.24377 0.24377   1
   5  14  -5 0.38675 0.21089   4
   4 -14  -5 -0.5192 1.11537   1
   4 -14  -5 0.49032 0.43264   1
   4 -14  -5 0.45193 0.27882   1
   4  14  -5 0.39499 0.30615   2
   4  14  -5 0.46836 0.20717   1
   3 -14  -5 0.04049 0.18206   4
   3 -14  -5 -0.1800 0.29370   1
   3 -14  -5 0.03034 0.19221   4
   3 -14  -5 0.17996 0.45466   1
   3 -14  -5 -0.0473 0.17996   1
   3  14  -5 1.05628 0.40366   1
   3  14  -5 0.37791 0.12878   1
   3  14  -5 0.34354 0.12026   1
   2 -14  -5 0.81956 0.30357   3
   2 -14  -5 -0.6697 1.25210   1
   2 -14  -5 1.09672 0.28146   1
   2 -14  -5 1.28121 1.00939   1
   2 -14  -5 0.47560 0.44525   3
   2 -14  -5 1.17441 0.51443   1
   2 -14  -5 0.53629 0.68802   3
   2 -14  -5 0.55649 0.64752   3
   2  14  -5 0.63525 0.26804   3
   2  14  -5 1.13022 0.26013   2
   2  14  -5 1.08542 0.69068   2
   2  14  -5 0.95298 0.25808   3
   1 -14  -5 0.17149 0.21186   1
   1 -14  -5 0.16137 0.26224   1
   1 -14  -5 0.14124 0.65560   1
   1  14  -5 0.03006 0.31078   1
   1  14  -5 0.19043 0.51116   1
   1  14  -5 0.25055 0.21054   1
   1  14  -5 0.13030 0.23054   1
   1  14  -5 1.06064 0.59947   2
   1  14  -5 0.20048 0.19043   1
   0 -14   5 0.44525 0.30310   2
   0  14  -5 0.08106 0.33418   1
   1 -14   5 0.20200 0.50007   2
   2 -14   5 0.60179 0.28555   3
   2 -14   5 0.95892 0.41650   1
   2 -14   5 0.35696 0.85674   3
   2 -14   5 1.14293 0.78452   1
   2 -14   5 0.98797 0.48432   1
   2 -14   5 1.36571 0.55213   1
   2  14   5 1.61232 0.57323   2
   2  14   5 0.87781 0.54636   2
   2  14   5 1.95266 0.55535   2
   2  14   5 1.30774 0.25975   2
   3 -14   5 0.72806 0.52149   1
   3 -14   5 -0.1279 0.21643   1
   3 -14   5 -0.0788 0.25581   1
   3 -14   5 0.21643 0.51162   1
   3 -14   5 -0.2459 0.27545   1
   3  14   5 0.87977 0.36224   1
   3  14   5 0.26742 0.24146   1
   4 -14   5 1.47847 1.01706   1
   4 -14   5 2.13733 0.73631   2
   4  14   5 2.37058 0.56264   1
   4  14   5 2.19534 0.30441   1
   4  14   5 1.91618 0.47406   2
   5 -14   5 0.25299 0.25299   3
   5 -14   5 0.28217 0.24323   3
   5  14   5 0.62933 0.14807   4
   5  14   5 -0.0462 0.13879   4
   5 -15  -5 0.73642 0.33799   1
   5 -15  -5 1.88362 0.71940   3
   5  15  -5 1.62760 0.27708   4
   4 -15  -5 0.20335 0.33552   2
   4 -15  -5 0.87440 0.46769   2
   4 -15  -5 -0.9991 1.20091   1
   4  15  -5 1.57754 0.36190   1
   4  15  -5 0.73634 0.32274   2
   3 -15  -5 -0.0563 0.27209   1
   3 -15  -5 -0.0281 0.14070   1
   3 -15  -5 0.01873 0.15012   1
   3  15  -5 -0.0170 0.06818   1
   3  15  -5 0.12772 0.30662   1
   3  15  -5 -0.0852 0.08518   1
   3  15  -5 -0.0425 0.08518   1
   2 -15  -5 0.49601 0.41018   1
   2 -15  -5 1.11601 0.48644   1
   2 -15  -5 0.76315 0.26704   1
   2 -15  -5 0.47566 0.32381   3
   2 -15  -5 0.27326 0.63757   3
   2 -15  -5 0.25295 0.88037   3
   2 -15  -5 0.46551 0.87032   3
   2 -15  -5 0.41486 1.38639   3
   2  15  -5 0.86009 0.78920   1
   1 -15  -5 3.36781 0.57479   3
   1 -15  -5 3.19637 1.07887   3
   1 -15  -5 3.76104 0.62515   3
   1  15  -5 4.18684 0.55429   3
   1  15  -5 3.68678 1.05196   3
   1  15  -5 6.31644 1.09689   2
   0 -15   5 1.17341 0.62714   3
   0  15  -5 1.51726 0.62714   3
   1 -15   5 3.97112 1.12001   3
   1  15   5 4.32487 0.55550   3
   1  15   5 4.84066 0.64474   3
   1  15   5 6.12651 1.00732   2
   1  15   5 5.16801 0.61500   3
   2 -15   5 1.23247 0.32741   1
   2 -15   5 1.23105 0.52045   3
   2 -15   5 0.30600 0.80578   3
   2  15   5 1.01466 0.61079   3
   2  15   5 1.69134 0.29955   1
   2  15   5 1.87637 0.33472   1
   2  15   5 0.85704 0.66988   3
   2  15   5 1.00488 0.66010   3
   2  15   5 1.77944 0.29071   1
   3 -15   5 -0.1478 0.45326   1
   3 -15   5 0.20297 0.86259   4
   3 -15   5 0.36461 0.37439   1
   3  15   5 0.47098 0.26552   1
   3  15   5 -0.1027 0.24833   1
   4 -15   5 -0.0691 0.11844   3
   4 -15   5 -0.0493 0.08883   3
   4  15   5 0.08366 0.02789   1
   4  15   5 0.03721 0.04644   1
   4  15   5 0.03721 0.06510   1
   5 -15   5 2.05956 0.45150   2
   5  15   5 2.05786 0.31355   3
   5 -16  -5 -0.2826 0.42389   3
   5  16  -5 0.50090 0.19769   4
   4 -16  -5 0.04786 0.12455   1
   4 -16  -5 0.03834 0.13416   1
   4 -16  -5 -0.1054 0.55565   1
   4  16  -5 -0.0190 0.18119   1
   4  16  -5 0.07634 0.13355   1
   3 -16  -5 0.57713 0.50262   1
   3 -16  -5 0.04053 0.30380   4
   3 -16  -5 0.26060 0.26060   1
   3  16  -5 1.29242 0.22959   1
   3  16  -5 0.64621 0.18703   1
   2 -16  -5 0.68378 0.28101   1
   2 -16  -5 0.58071 0.83363   1
   2 -16  -5 0.32384 0.52626   3
   2 -16  -5 0.40485 0.44535   3
   2 -16  -5 0.52453 0.91790   1
   2  16  -5 0.52183 0.21738   1
   2  16  -5 0.24857 0.88506   3
   1 -16  -5 6.64472 0.82682   3
   1  16  -5 6.59556 0.85201   3
   1  16  -5 4.13978 1.09261   3
   1  16  -5 6.65569 0.72170   3
   1  16  -5 5.44283 0.73176   3
   0  16   5 0.24232 0.27027   2
   0  16  -5 0.45621 0.37244   2
   1 -16   5 -0.0285 0.36996   1
   1  16   5 0.00000 0.08162   1
   1  16   5 0.15412 0.12693   2
   1  16   5 0.09974 0.26286   2
   2 -16   5 1.46861 1.03005   3
   2 -16   5 2.55984 0.53032   3
   2 -16   5 3.12885 0.65063   1
   2  16   5 2.92138 0.35716   4
   2  16   5 2.07061 0.69024   3
   2  16   5 2.71149 0.50281   3
   2  16   5 3.72438 0.88143   1
   2  16   5 2.88892 0.43388   3
   2  16   5 1.85372 0.82820   3
   3 -16   5 0.87607 0.51947   2
   3 -16   5 0.80475 0.62134   2
   3  16   5 1.78640 0.47867   1
   3  16   5 1.59838 0.24786   1
   3  16   5 1.87188 0.31628   1
   4 -16   5 0.19701 0.14771   3
   4 -16   5 0.07884 0.14771   3
   4  16   5 0.09314 0.10248   1
   4  16   5 0.02793 0.04652   1
   4  16   5 0.20487 0.08380   1
   4 -17  -5 1.67735 0.74337   3
   4 -17  -5 -0.2096 0.23823   3
   4  17  -5 0.64554 0.24082   4
   4  17  -5 0.48174 0.37572   4
   3 -17  -5 3.75174 0.63920   1
   3 -17  -5 3.24226 0.67627   1
   3 -17  -5 5.32655 1.39882   1
   3  17  -5 3.08084 0.58465   4
   3  17  -5 3.07642 0.52709   3
   2 -17  -5 0.14172 0.85013   3
   2 -17  -5 0.42323 0.27603   1
   2 -17  -5 0.39564 0.25757   1
   2 -17  -5 0.57043 0.46919   1
   2  17  -5 -0.0770 0.28251   1
   2  17  -5 0.07967 0.71658   3
   2  17  -5 0.25683 0.18831   1
   2  17  -5 0.30818 0.16263   1
   1 -17  -5 2.74705 0.54007   4
   1  17  -5 2.70756 0.45124   3
   1  17  -5 2.25632 0.89253   3
   1  17  -5 1.72480 0.42117   3
   1  17  -5 2.12595 0.38103   3
   0  17   5 0.14642 0.15560   1
   0  17  -5 -0.2118 0.33155   1
   1 -17   5 4.75154 1.19041   3
   1  17   5 7.63890 0.94369   3
   1  17   5 7.69848 1.33109   3
   1  17   5 8.50847 0.80484   1
   2 -17   5 -0.3235 1.02748   1
   2 -17   5 0.78013 0.47571   1
   2  17   5 0.96036 0.28048   1
   2  17   5 0.58645 0.23794   1
   2  17   5 0.63743 0.19548   1
   3 -17   5 1.49954 0.69365   2
   3 -17   5 1.38729 1.20373   2
   3  17   5 1.45454 0.34394   3
   3  17   5 1.70923 0.32509   2
   3  17   5 1.61178 0.54051   3
   4 -17   5 0.34379 0.50096   3
   4 -17   5 -0.3143 0.46174   3
   4  17   5 0.50041 0.20386   4
   4  17   5 0.46342 0.12978   4
   4 -18  -5 0.24638 0.15161   3
   4 -18  -5 0.03793 0.04733   3
   4  18  -5 -0.0192 0.01918   4
   4  18  -5 -0.0192 0.04800   4
   4  18  -5 0.00964 0.02882   4
   3 -18  -5 -0.2316 0.36135   1
   3 -18  -5 -0.0278 0.18532   1
   3 -18  -5 0.10196 0.13894   1
   3  18  -5 0.07873 0.12253   1
   3  18  -5 0.16624 0.10497   1
   2 -18  -5 0.00909 0.04524   1
   2 -18  -5 0.03625 0.08148   1
   2 -18  -5 -0.0181 0.04524   1
   2 -18  -5 0.02716 0.13581   1
   2  18  -5 -0.0169 0.02543   1
   2  18  -5 0.00851 0.04235   1
   1  18  -5 1.27408 0.83272   3
   1  18  -5 1.58514 0.41128   3
   0  18   5 0.07135 0.04452   1
   0  18  -5 0.06328 0.04515   1
   1 -18   5 0.08311 0.09238   1
   1  18   5 -0.0777 0.09506   1
   1  18   5 0.11230 0.11230   1
   2 -18   5 0.00951 0.06635   1
   2  18   5 -0.0252 0.04197   1
   2  18   5 0.03363 0.04197   1
   2  18   5 0.01677 0.03363   1
   3 -18   5 -1.0609 1.06086   1
   3 -18   5 0.23607 0.53369   2
   3  18   5 0.49223 0.34451   2
   3  18   5 0.82234 0.31495   1
   3  18   5 1.06735 0.22746   1
   4 -18   5 0.30458 0.37224   1
   4 -18   5 0.33033 0.44746   3
   4  18   5 0.47931 0.12907   4
   4  18   5 -0.2120 0.24890   4
   4 -19  -5 0.47095 0.64989   3
   4  19  -5 0.28528 0.14264   4
   4  19  -5 0.16880 0.24669   1
   3 -19  -5 1.27710 0.41553   2
   3 -19  -5 1.77428 1.15794   1
   3  19  -5 1.22779 0.46921   2
   3  19  -5 1.11805 0.25954   2
   2 -19  -5 3.59867 0.51030   1
   2 -19  -5 2.74279 0.53644   3
   2 -19  -5 4.22535 0.68926   1
   2 -19  -5 4.99515 1.10105   1
   2  19  -5 2.92046 0.42862   3
   1 -19  -5 0.38921 0.26536   1
   1  19  -5 0.50038 0.71613   1
   0  19   5 0.67132 0.41073   3
   1  19   5 3.16025 0.51679   1
   1  19   5 2.35536 0.38974   1
   1  19   5 2.93147 0.46597   1
   2  19   5 0.33491 0.20096   1
   2  19   5 0.20761 0.27671   3
   2  19   5 0.61951 0.30980   1
   2  19   5 0.14822 0.17786   3
   3 -19   5 1.16680 1.05799   1
   3 -19   5 0.64267 0.58049   2
   3  19   5 0.87969 0.29654   4
   3  19   5 1.50968 0.23504   1
   4 -19   5 0.19888 0.26904   1
   4 -19   5 0.36170 0.40694   3
   4  19   5 0.32861 0.24011   1
   4  19   5 0.30338 0.11372   1
   4 -20  -5 0.04617 0.51909   1
   4 -20  -5 -0.0094 0.14032   3
   4  20  -5 0.09301 0.12412   1
   4  20  -5 -0.0955 0.13376   4
   3 -20  -5 -0.1230 0.12305   1
   3 -20  -5 0.15143 0.06627   1
   3  20  -5 -0.0096 0.03818   1
   3  20  -5 0.01904 0.02861   1
   2 -20  -5 0.01778 0.10690   1
   2 -20  -5 -0.2851 0.37423   1
   2 -20  -5 -0.0534 0.15150   1
   2  20  -5 -0.0859 0.08594   1
   2  20  -5 -0.0429 0.06879   1
   1 -20  -5 0.07831 0.06094   1
   0  20   5 0.07683 0.05979   1
   1  20   5 0.46778 0.35827   3
   1  20   5 0.21891 0.26873   3
   1  20   5 0.04971 0.32842   3
   2  20   5 1.62094 0.42215   1
   2  20   5 1.97551 0.36304   1
   2  20   5 1.46054 0.34610   1
   2  20   5 1.90802 0.39683   1
   3 -20   5 0.55897 0.50618   2
   3 -20   5 0.39024 0.78037   2
   3  20   5 1.09989 0.22185   1
   3  20   5 1.22004 0.24957   1
   4 -20   5 0.17207 0.19659   1
   4  20   5 0.26499 0.22082   1
   3 -21  -5 0.22606 0.33904   3
   3 -21  -5 0.15067 0.16947   3
   3  21  -5 -0.0289 0.07711   4
   3  21  -5 -0.1060 0.10600   4
   2 -21  -5 5.43082 1.39800   1
   2 -21  -5 4.22014 0.84003   3
   2  21  -5 5.17343 0.58569   1
   1 -21  -5 0.11094 0.34284   3
   0  21   5 0.55927 0.34715   3
   1  21   5 0.33440 0.17559   1
   1  21   5 0.05973 0.20915   3
   1  21   5 0.49321 0.24241   1
   2  21   5 2.96902 0.44142   1
   2  21   5 2.65711 0.46564   2
   2  21   5 3.55761 0.47607   1
   3 -21   5 -0.1373 0.61795   4
   3  21   5 0.63051 0.23521   4
   3  21   5 0.68028 0.20223   4
   3 -22  -5 0.22206 0.23255   1
   3 -22  -5 0.74783 0.57953   4
   3  22  -5 0.20729 0.25608   1
   2 -22  -5 0.14633 0.11890   1
   2 -22  -5 0.37494 0.32926   1
   2 -22  -5 0.62191 0.57623   1
   2  22  -5 -0.1221 0.12215   1
   1 -22  -5 0.17356 0.29506   1
   1 -22  -5 0.13012 0.13012   1
   0 -22  -5 0.20335 0.27108   1
   0  22   5 0.23717 0.23717   1
   1  22   5 0.08483 0.07632   1
   1  22   5 0.11877 0.10176   1
   2 -22   5 -0.8052 0.80516   1
   2  22   5 0.92599 0.28147   1
   2  22   5 0.87153 0.27236   1
   2  22   5 0.86243 0.32681   1
   3 -22   5 0.01136 0.26044   1
   3  22   5 0.02325 0.09325   1
   3  22   5 0.01169 0.08157   1
   3 -23  -5 1.42825 0.27825   4
   3 -23  -5 1.93832 0.76050   4
   3  23  -5 1.24066 0.37712   4
   2 -23  -5 0.60956 0.75170   2
   2  23  -5 1.46889 0.29962   4
   1 -23  -5 2.44873 0.46134   1
   1 -23  -5 1.77522 0.72835   2
   0 -23  -5 0.00000 0.13833   1
   0  23   5 0.00000 0.12965   1
   1  23   5 0.19978 0.36960   2
   1  23   5 0.13986 0.24967   2
   2 -23   5 -0.5486 0.69549   4
   2 -23   5 0.83267 0.17628   4
   2  23   5 0.89157 0.19307   4
   2  23   5 1.11221 0.31256   4
   2  23   5 0.91914 0.22064   4
   3 -23   5 0.84080 0.40213   1
   3 -23   5 1.17995 0.53850   4
   3  23   5 1.18304 0.27307   4
   3  23   5 1.17423 0.24986   3
   2 -24  -5 0.46381 0.27829   4
   2  24  -5 -0.0385 0.06736   4
   1 -24  -5 0.02779 0.10198   1
   1  24  -5 0.00972 0.02906   1
  -1  24   5 0.00930 0.03709   1
   0  24   5 0.24419 0.11756   1
   1  24   5 1.90982 0.30402   4
   1  24   5 2.11051 0.38706   1
   2 -24   5 0.47747 0.43847   4
   2  24   5 0.23716 0.12773   4
   2  24   5 0.06626 0.14361   1
   2 -25  -5 0.01132 0.25952   1
   2  25  -5 0.04783 0.06704   4
   1 -25  -5 1.31875 0.76837   1
   1  25  -5 2.05901 0.38675   4
   0 -25  -5 0.25421 0.34581   2
   1  25   5 1.52359 0.27318   1
   2 -25   5 0.54264 0.53292   4
   2  25   5 0.19637 0.18406   3
   2  25   5 0.19778 0.13533   4
   1 -26  -5 1.00567 0.19204   4
   1  26  -5 0.53711 0.26855   1
   1 -26   5 0.50438 0.50438   4
   1  26   5 0.70721 0.21764   4
   0  27   5 0.26461 0.15871   1
   0  27  -5 0.41431 0.20723   1
   4   0  -6 4.47917 0.71349   3
   4   0  -6 5.66913 0.80856   1
   4   0  -6 5.82887 1.17521   1
   4   0  -6 4.49895 0.79282   3
   4   0  -6 4.27102 0.68377   3
   4   0  -6 4.46922 1.08018   3
  -2   0   6 0.35387 0.19210   1
   2   0  -6 0.64550 0.56611   2
  -2   0   6 0.58593 0.21845   2
   2   0  -6 0.57597 0.25820   2
   2   0  -6 1.14207 0.39726   2
   2   0  -6 0.50644 0.26816   2
   2   0  -6 0.36401 0.08094   1
   2   0  -6 0.33369 0.25275   1
   0   0  -6 35.7373 2.95465   4
   0   0   6 32.9873 3.09196   4
   0   0  -6 35.3755 3.05516   4
   0   0   6 33.4158 2.92451   4
   0   0   6 34.0088 2.94457   4
   0   0  -6 33.4963 3.34659   4
   0   0   6 34.6319 2.78378   4
   0   0  -6 34.9635 2.78378   4
   0   0  -6 33.8581 2.98479   4
   0   0   6 33.0013 2.81110   4
   2   0   6 0.17044 0.09020   3
   2   0   6 -0.1574 0.17699   1
   2   0   6 0.17044 0.23057   3
   2   0   6 0.05007 0.28064   3
   2   0   6 0.13032 0.10025   3
   2   0   6 0.75731 0.39346   1
   2   0   6 0.06013 0.31081   3
   4   0   6 3.22840 0.45709   1
   4   0   6 2.69508 0.67613   1
   5  -1  -6 0.03855 0.06743   1
   5  -1  -6 -0.0289 0.06743   1
   5   1  -6 0.02878 0.05755   1
   5   1  -6 0.06718 0.04793   1
   4  -1  -6 0.16998 0.31173   1
   4  -1  -6 0.23612 0.31173   1
   4  -1  -6 0.37786 0.25507   1
   4   1  -6 0.26177 0.27115   1
   4   1  -6 0.12155 0.44879   1
   4   1  -6 0.26177 0.41147   1
   4   1  -6 0.10890 0.29691   3
   4   1  -6 0.05936 0.13858   3
   3  -1  -6 0.37694 0.42532   4
   3  -1  -6 0.15000 0.48010   1
   3  -1  -6 0.06000 0.71016   1
   3   1  -6 -0.1241 0.66807   2
   3   1  -6 0.45805 0.36261   2
   3   1  -6 0.37713 0.41584   4
   2  -1  -6 2.77424 0.50628   1
   2  -1  -6 3.07800 0.48597   1
   2  -1  -6 3.67539 0.34429   1
   2  -1  -6 3.30073 0.56701   1
  -2  -1   6 2.83927 0.44463   1
   2  -1  -6 3.43235 0.51633   1
   2  -1  -6 3.03748 0.51633   1
   2  -1  -6 4.90506 0.72634   2
  -2  -1   6 2.32400 0.46480   1
   2  -1  -6 3.21978 0.31393   1
   2  -1  -6 3.74100 0.91537   2
   2   1  -6 4.02499 0.94181   2
   2   1  -6 3.93579 0.56513   2
  -2   1   6 2.73371 0.45560   1
   2   1  -6 3.59708 0.31328   1
   2   1  -6 3.14242 0.62646   1
   2   1  -6 4.44135 0.58491   2
   2   1  -6 3.70777 0.31722   2
   2   1  -6 3.34451 0.42436   1
   2   1  -6 3.34451 0.40419   1
   1  -1  -6 0.97692 0.41867   1
   1  -1  -6 0.95703 0.15949   1
   1  -1  -6 0.68555 0.53201   4
   1  -1  -6 1.14641 0.40867   1
  -1  -1   6 1.17820 0.31679   1
  -1  -1   6 1.02963 0.43567   1
   1  -1  -6 0.65475 0.26601   4
   1  -1  -6 1.55508 0.35887   1
   1  -1  -6 0.97692 0.14949   1
   1  -1  -6 0.82871 0.27627   4
   1   1  -6 1.03956 0.53457   1
   1   1  -6 0.88116 0.26734   1
   1   1  -6 1.01970 0.15840   1
  -1   1   6 0.47064 0.36833   4
   1   1  -6 0.75852 0.26652   4
   1   1  -6 1.03956 0.40587   1
  -1   1   6 0.91713 0.30908   1
   1   1  -6 0.84003 0.40005   4
   1   1  -6 0.84154 0.14846   1
   0  -1  -6 39.6149 3.30792   4
   0  -1  -6 45.0780 3.38816   4
   0  -1  -6 39.1739 3.07736   4
   0  -1   6 37.8149 3.31944   4
   0  -1   6 37.8137 3.44794   4
   0  -1   6 36.8133 3.20020   1
   0  -1   6 35.5164 3.36763   1
   0  -1   6 35.7570 3.10610   1
   0  -1  -6 41.3891 3.25785   4
   0   1  -6 37.7513 3.20509   4
   0   1   6 37.7730 3.36568   4
   0   1  -6 37.8103 3.31868   4
   0   1   6 40.0860 3.25785   4
   0   1   6 39.0135 3.32792   4
   0   1  -6 35.2655 3.78588   1
   0   1  -6 38.7768 3.25062   4
   0   1  -6 37.8343 3.43759   4
   0   1   6 38.3318 3.07736   4
  -1  -1  -6 1.51304 0.36833   4
  -1  -1  -6 1.55278 0.51759   4
   1  -1   6 1.12110 0.38411   1
   1  -1   6 1.17502 0.19080   4
   1  -1   6 1.03801 0.32185   1
   1  -1   6 1.76757 0.39167   4
  -1  -1  -6 1.00416 0.17784   1
   1  -1   6 1.07955 0.36329   1
   1  -1   6 1.01729 0.17649   1
  -1  -1  -6 0.88907 0.48115   1
   1   1   6 1.39352 0.38819   4
  -1   1  -6 1.33570 0.18072   4
  -1   1  -6 1.53657 0.49211   4
  -1   1  -6 1.32573 0.32136   4
   1   1   6 1.67229 0.38819   4
  -1   1  -6 1.43613 0.44194   4
   1   1   6 1.31395 0.38819   4
   1   1   6 1.08778 0.16734   1
   1   1   6 1.40351 0.18910   4
   2  -1   6 -0.0098 0.03928   1
   2  -1   6 -0.0098 0.03928   1
   2  -1   6 -0.0098 0.05888   1
   2  -1   6 0.05888 0.06872   1
   2  -1   6 0.00000 0.05888   1
   2  -1   6 -0.0098 0.01959   1
   2   1   6 0.00988 0.06898   1
   2   1   6 0.00988 0.01966   1
   2   1   6 0.00988 0.01966   1
   2   1   6 0.00988 0.04921   1
   2   1   6 0.00988 0.02955   1
   2   1   6 0.00988 0.03943   1
   2   1   6 0.00000 0.04921   1
   3  -1   6 -0.0951 0.09506   1
   3  -1   6 -0.0570 0.28517   1
   3  -1   6 0.08552 0.12356   1
   3  -1   6 0.00000 0.03804   1
   3  -1   6 -0.0190 0.04748   1
   3  -1   6 0.22816 0.14254   1
   3  -1   6 -0.2661 0.26610   1
   3  -1   6 -0.0761 0.12356   1
   3  -1   6 -0.0855 0.08552   1
   3  -1   6 0.11403 0.20909   1
   3  -1   6 0.10459 0.25666   1
   3   1   6 0.06628 0.09467   2
   3   1   6 -0.2840 0.28402   2
   3   1   6 0.05678 0.15146   2
   3   1   6 0.02972 0.09909   3
   3   1   6 -0.2366 0.23663   2
   3   1   6 -0.0663 0.08518   2
   4  -1   6 0.59379 0.36390   1
   4  -1   6 0.86191 0.39262   1
   4  -1   6 1.72393 0.29695   1
   4  -1   6 0.60340 0.18195   1
   4  -1   6 2.02077 0.74702   1
   4  -1   6 0.90024 0.31606   1
   4   1   6 0.78618 0.25576   1
   5  -2  -6 3.22936 0.69053   2
   5  -2  -6 2.78249 0.58897   2
   5   2  -6 3.82185 0.72800   1
   5   2  -6 2.18066 0.41387   2
   4  -2  -6 1.93808 0.58641   3
   4  -2  -6 2.49436 0.92944   1
   4  -2  -6 1.76920 0.46717   3
   4  -2  -6 2.51329 0.56908   1
   4   2  -6 1.86812 0.75123   3
   4   2  -6 2.22113 0.51112   1
   4   2  -6 2.11529 0.36575   3
   4   2  -6 2.13651 0.91568   3
   4   2  -6 2.17461 0.48325   1
   3  -2  -6 4.27984 0.91016   2
   3  -2  -6 3.17482 0.62094   1
   3  -2  -6 4.02809 1.22971   2
   3  -2  -6 2.76424 0.70111   1
   3   2  -6 5.02847 1.09110   2
   3   2  -6 3.98486 0.74954   2
   2  -2  -6 3.35565 0.30233   4
   2  -2  -6 2.47539 0.26377   1
   2  -2  -6 2.08991 0.37541   1
   2  -2  -6 4.21673 0.95702   2
   2  -2  -6 3.39930 0.48846   2
   2  -2  -6 4.17683 0.70774   2
  -2  -2   6 2.18178 0.39392   1
   2  -2  -6 3.24645 0.47686   1
   2  -2  -6 3.50889 0.50835   2
   2  -2  -6 2.24205 0.47686   1
   2   2  -6 3.09080 0.60608   1
   2   2  -6 2.71714 0.27275   1
   2   2  -6 3.20195 0.54539   1
   2   2  -6 2.49485 0.35350   1
  -2   2   6 2.44496 0.42608   1
   2   2  -6 2.48482 0.26262   1
   2   2  -6 2.10092 0.41408   1
   2   2  -6 2.93933 0.84843   1
   2   2  -6 2.10092 0.37376   1
   1  -2  -6 22.1476 2.06794   1
   1  -2  -6 19.4281 1.81080   2
   1  -2  -6 16.5932 1.72992   3
   1  -2  -6 18.9373 1.59685   3
   1  -2  -6 23.1367 1.81813   1
   1  -2  -6 20.3295 1.76823   1
  -1  -2   6 18.6164 1.77543   2
   1  -2  -6 19.4219 1.58981   3
  -1  -2   6 19.4268 1.83311   2
   1  -2  -6 18.8963 1.75045   3
   1   2  -6 17.1899 1.86776   2
   1   2  -6 20.0449 1.68771   1
  -1   2   6 18.6200 1.83229   3
   1   2  -6 19.4236 1.83568   2
   1   2  -6 17.9801 1.72416   2
   1   2  -6 19.9363 1.54951   1
   1   2  -6 17.6620 1.60094   2
   1   2  -6 19.3451 2.13459   2
  -1   2   6 17.7397 1.72992   3
   0  -2   6 71.4870 6.49501   1
   0  -2  -6 77.1368 6.24747   1
   0  -2  -6 78.3341 6.18956   4
   0  -2  -6 79.5540 6.26950   4
   0  -2   6 73.0066 6.41180   1
   0  -2   6 78.0424 6.29017   3
   0  -2  -6 79.4840 6.21955   4
   0  -2   6 75.3590 6.17240   1
   0  -2   6 69.9777 5.95377   1
   0   2  -6 75.2757 6.47424   1
   0   2  -6 78.0417 6.29550   3
   0   2   6 75.4960 6.23703   1
   0   2   6 77.8625 6.55247   1
   0   2   6 78.0296 6.48317   4
   0   2   6 78.0239 6.37102   4
   0   2  -6 73.2356 6.17240   1
   0   2  -6 74.9946 7.24444   1
   0   2  -6 67.5212 6.50545   1
   1  -2   6 4.63038 0.70123   1
  -1  -2  -6 4.68791 0.80569   1
   1  -2   6 4.87409 0.44315   4
   1  -2   6 6.09261 0.67477   4
  -1  -2  -6 3.76708 0.68015   1
   1  -2   6 3.70219 0.42277   1
  -1  -2  -6 4.78369 0.60789   4
   1  -2   6 4.78760 0.75535   4
   1  -2   6 4.79674 0.73017   4
  -1  -2  -6 4.26932 0.43947   1
   1   2   6 5.43470 0.63467   4
   1   2   6 4.81983 0.41652   4
  -1   2  -6 5.28693 0.62436   4
  -1   2  -6 5.33734 0.84588   4
  -1   2  -6 4.46539 0.43311   1
   1   2   6 4.98844 0.61488   4
  -1   2  -6 4.39319 0.75285   1
   1   2   6 4.17517 0.42898   1
   1   2   6 4.76117 0.64877   1
   2  -2   6 6.22881 0.88139   1
   2  -2   6 6.16034 0.53864   1
   2  -2   6 7.44334 0.89122   1
   2  -2   6 6.85567 0.92059   1
   2  -2   6 4.46593 0.78454   3
   2   2   6 5.97791 0.53176   1
   2   2   6 5.96813 0.89618   1
   2   2   6 4.71870 0.71980   3
   2   2   6 6.01732 0.71896   1
   2   2   6 5.01853 0.69984   3
   3  -2   6 1.62857 0.35749   3
   3  -2   6 1.85746 0.58103   1
   3  -2   6 1.99084 0.30480   1
   3  -2   6 1.66693 0.21909   1
   3  -2   6 1.30691 0.63844   3
   3  -2   6 1.62857 0.68519   3
   3  -2   6 1.79086 0.30480   1
   3  -2   6 1.95272 0.47631   1
   3  -2   6 1.57630 0.33924   3
   3   2   6 1.60155 0.55365   4
   3   2   6 1.64301 0.28329   2
   3   2   6 1.59174 0.17790   4
   3   2   6 1.77524 0.42489   2
   3   2   6 1.45330 0.66244   4
   3   2   6 1.61147 0.28669   4
   3   2   6 2.07737 0.47215   2
   3   2   6 1.68080 0.27382   2
   4  -2   6 1.20435 0.65694   4
   4  -2   6 2.07024 0.35832   4
   4  -2   6 2.45721 0.65336   3
   4  -2   6 2.13993 0.31848   4
   4  -2   6 1.91100 0.57726   4
   4   2   6 2.16265 0.39503   4
   5  -2   6 1.29413 0.32888   2
   5  -2   6 1.50629 0.44549   2
   5   2   6 1.57278 0.33637   3
   5  -3  -6 0.87906 0.51201   1
   5  -3  -6 0.75348 0.39602   1
   5   3  -6 0.19210 0.23257   2
   5   3  -6 2.05706 0.48792   1
   4  -3  -6 0.00955 0.05708   1
   4  -3  -6 -0.0095 0.04753   1
   4  -3  -6 0.05708 0.04753   1
   4  -3  -6 -0.0571 0.09516   1
   4   3  -6 -0.0369 0.03694   1
   4   3  -6 0.03694 0.05537   1
   4   3  -6 0.00000 0.02768   1
   4   3  -6 0.04611 0.09231   1
   4   3  -6 0.02768 0.04611   1
   3  -3  -6 -0.0486 0.70960   2
   3  -3  -6 -0.1166 0.50544   2
   3  -3  -6 -0.0098 0.27212   2
   3  -3  -6 0.00000 0.33777   1
   3  -3  -6 0.15036 0.40109   1
   3  -3  -6 0.25063 0.15036   1
   3   3  -6 0.06963 0.52708   1
   3   3  -6 -0.1508 0.62225   2
   3   3  -6 0.12928 0.35800   1
   3   3  -6 -0.0566 0.40541   2
   3   3  -6 0.22873 0.25855   1
   2  -3  -6 6.00245 0.90884   2
   2  -3  -6 5.70281 0.72912   2
   2  -3  -6 6.33205 0.50932   2
   2  -3  -6 6.31211 1.18855   2
   2  -3  -6 5.63298 0.68915   2
   2  -3  -6 5.19349 0.65919   2
   2  -3  -6 5.47309 0.70908   2
   2  -3  -6 5.88264 0.47937   2
  -2   3   6 4.88181 0.65087   1
   2   3  -6 5.25289 0.46324   2
   2   3  -6 4.88295 0.55579   3
   2   3  -6 6.09059 1.07427   2
   2   3  -6 4.98677 0.68992   2
   2   3  -6 4.25096 0.56546   1
   2   3  -6 3.79660 0.68660   1
   2   3  -6 5.45990 0.85737   2
   2   3  -6 4.70531 0.46449   1
  -1  -3   6 1.79554 0.50276   2
   1  -3  -6 4.40499 0.66078   1
  -1  -3   6 1.93922 0.45151   2
   1  -3  -6 3.19361 0.43051   1
   1   3  -6 1.96999 0.26677   2
  -1   3   6 4.26491 0.63075   1
   1   3  -6 2.48535 0.53252   1
   1   3  -6 2.22657 0.38986   2
   1   3  -6 2.24373 0.40430   3
   1   3  -6 2.24391 0.26399   4
   1   3  -6 1.91874 0.54383   2
   1   3  -6 2.61356 0.66084   1
   0  -3   6 1.86630 0.49489   3
   0  -3  -6 2.23593 0.57893   4
   0  -3   6 2.02209 0.48809   3
   0  -3   6 1.86580 0.24209   3
   0  -3  -6 2.29591 0.50904   4
   0  -3  -6 2.12619 0.42924   4
   0  -3  -6 1.69272 0.24182   1
   0  -3   6 1.92248 0.52796   3
   0  -3   6 1.81228 0.26926   1
   0   3   6 1.83983 0.24182   1
   0   3  -6 1.89260 0.44822   3
   0   3  -6 2.05197 0.60759   3
   0   3  -6 1.79161 0.24858   1
   0   3   6 1.51397 0.50462   1
   0   3  -6 2.33083 0.57771   3
   0   3   6 1.59813 0.43101   1
   0   3  -6 2.16158 0.37848   3
   0   3   6 1.87398 0.40741   4
  -1  -3  -6 0.28680 0.30664   4
   1  -3   6 0.51419 0.32263   4
  -1  -3  -6 -0.0792 0.33630   4
  -1  -3  -6 0.15671 0.09402   1
  -1  -3  -6 0.03134 0.24036   1
   1   3   6 0.08365 0.27170   1
   1   3   6 0.21755 0.23740   4
   1   3   6 0.14633 0.24036   1
   1   3   6 0.04182 0.22987   1
   1   3   6 0.14633 0.08365   1
   1   3   6 0.16099 0.14090   4
   1   3   6 0.15671 0.08365   1
   2  -3   6 0.33235 0.33235   1
   2  -3   6 0.28343 0.33235   1
   2  -3   6 0.33235 0.24431   1
   2  -3   6 0.30304 0.11725   1
   2   3   6 0.59009 0.36390   2
   2   3   6 0.45238 0.25568   2
   2   3   6 0.15976 0.08984   1
   2   3   6 0.28518 0.33440   2
   3  -3   6 0.72022 0.27011   3
   3  -3   6 1.03131 0.15278   1
   3  -3   6 0.74652 0.35416   2
   3  -3   6 0.27011 0.60022   3
   3  -3   6 1.14587 0.43927   1
   3  -3   6 0.95487 0.26733   1
   3  -3   6 0.62018 0.22004   3
   3  -3   6 0.95487 0.57298   1
   3  -3   6 0.95487 0.41063   1
   3  -3   6 1.23189 0.42021   1
   3   3   6 0.92228 0.27291   2
   3   3   6 0.51294 0.47346   4
   3   3   6 0.65107 0.16772   4
   3   3   6 1.34575 0.32001   2
   3   3   6 0.71024 0.10855   4
   3   3   6 0.99761 0.22590   2
   3   3   6 0.88461 0.32001   2
   3   3   6 0.74598 0.16992   4
   3   3   6 0.71024 0.12824   4
   4  -3   6 1.18075 0.26350   3
   4  -3   6 1.17996 0.52118   4
   4  -3   6 1.74441 0.45552   1
   4   3   6 0.88723 0.18729   4
   4   3   6 1.34055 0.29066   1
   4   3   6 1.02528 0.36480   4
   5  -3   6 3.19259 0.58404   3
   5  -3   6 3.23145 0.57428   3
   5  -4  -6 3.01814 0.72636   2
   5  -4  -6 2.92609 0.73663   2
   4  -4  -6 0.46749 0.75372   1
   4  -4  -6 0.89679 0.37208   1
   4  -4  -6 0.66788 0.45792   1
   4  -4  -6 0.40538 0.41530   3
   4   4  -6 0.78800 0.69637   1
   4   4  -6 0.49473 0.25651   1
   4   4  -6 0.38473 0.28607   3
   4   4  -6 0.33545 0.59194   3
   4   4  -6 0.42148 0.21993   1
   3  -4  -6 5.29915 1.14411   1
   3  -4  -6 6.66089 1.03380   2
   3  -4  -6 7.06079 1.36532   2
   3  -4  -6 6.09192 1.37495   1
   3  -4  -6 5.17865 0.60221   1
   3  -4  -6 6.30001 0.80949   2
   3  -4  -6 5.85113 0.77274   1
   3   4  -6 7.66929 1.25479   2
   3   4  -6 6.26606 1.06859   3
   3   4  -6 6.79838 1.24540   2
   3   4  -6 5.36009 0.79413   1
   3   4  -6 6.25896 0.56365   4
   3   4  -6 6.10454 0.68491   1
   3   4  -6 5.09206 0.94298   1
   2  -4  -6 1.05032 0.44018   2
  -2  -4   6 0.52462 0.26231   1
   2  -4  -6 0.87022 0.30011   2
   2  -4  -6 1.52050 0.46014   2
   2  -4  -6 1.30036 0.19004   2
   2  -4  -6 2.08057 0.77018   2
   2  -4  -6 1.06036 0.17007   2
   2  -4  -6 1.37039 0.36011   2
   2   4  -6 0.72506 0.13721   2
   2   4  -6 0.72506 0.48013   2
   2   4  -6 0.78394 0.12738   2
   2   4  -6 0.66589 0.22193   1
   2   4  -6 0.94071 0.64673   2
   2   4  -6 1.33258 0.41153   2
   2   4  -6 0.72506 0.22537   2
   1  -4  -6 3.93249 0.63204   1
   1  -4  -6 3.79201 0.64200   1
  -1  -4   6 2.28254 0.50154   2
   1  -4  -6 3.80207 0.86277   1
   1  -4  -6 4.83541 0.67219   1
  -1  -4   6 1.94476 0.59363   2
   1  -4  -6 2.12520 0.27722   3
  -1   4   6 2.58717 0.52355   3
   1   4  -6 3.10876 0.70067   3
   1   4  -6 2.33367 0.45041   2
  -1   4   6 3.85229 0.57186   1
   1   4  -6 3.05936 0.46388   3
   1   4  -6 2.23131 0.27639   2
   1   4  -6 2.92198 0.31133   4
  -1   4   6 2.74113 0.53385   3
  -1   4   6 2.23807 0.27722   3
   0  -4   6 37.3471 3.39065   3
   0  -4  -6 40.6465 3.41044   4
   0  -4   6 38.0052 3.40065   3
   0  -4  -6 40.9258 3.49026   4
   0  -4  -6 38.5524 3.43045   4
   0  -4   6 39.7703 3.09146   3
   0  -4  -6 40.2676 3.20108   4
   0  -4   6 35.8913 3.58399   2
   0  -4   6 38.0152 3.19119   3
   0   4   6 37.1682 3.21801   3
   0   4  -6 40.7277 3.46047   3
   0   4  -6 42.2735 3.78957   3
   0   4   6 38.5424 3.45035   4
   0   4  -6 41.5754 3.39065   3
   0   4  -6 41.0967 3.51029   3
   0   4   6 37.1681 3.53733   3
   0   4   6 37.1821 3.40957   4
   0   4  -6 40.7177 3.19119   3
  -1  -4  -6 0.88605 0.44826   1
   1  -4   6 0.16299 0.44831   1
  -1  -4  -6 0.89007 0.16182   4
  -1  -4  -6 0.69847 0.38573   1
   1  -4   6 0.62141 0.41765   1
   1  -4   6 0.50942 0.36676   1
   1  -4   6 1.73719 0.26260   4
  -1  -4  -6 1.13532 0.35540   4
   1  -4   6 0.88881 0.35348   4
  -1   4  -6 0.48897 0.46864   1
  -1   4  -6 1.31300 0.39390   4
   1   4   6 0.72974 0.16678   1
   1   4   6 0.88837 0.15313   4
   1   4   6 0.82353 0.31274   1
   1   4   6 1.18463 0.34550   4
  -1   4  -6 0.86595 0.18333   1
   1   4   6 1.07610 0.35540   4
   1   4   6 0.89593 0.33220   4
   1   4   6 1.17483 0.31589   4
  -1   4  -6 0.23432 0.46864   1
   2  -4   6 4.56680 0.73185   1
   2  -4   6 4.32288 0.72206   1
   2  -4   6 4.67417 0.73185   1
   3  -4   6 0.99594 0.41180   1
   3  -4   6 0.67990 0.49797   1
   3  -4   6 0.09023 0.36104   3
   3  -4   6 0.50426 0.37819   4
   3  -4   6 0.57462 0.18193   1
   3  -4   6 0.67040 0.49797   1
   3  -4   6 0.17051 0.27080   4
   3  -4   6 0.51708 0.13410   1
   3  -4   6 0.54590 0.33515   1
   3   4   6 0.45276 0.21651   4
   3   4   6 0.27554 0.08856   4
   3   4   6 0.33468 0.21651   4
   3   4   6 0.50192 0.20674   4
   3   4   6 0.43312 0.08856   4
   3   4   6 0.39372 0.13782   4
   3   4   6 1.12284 0.42105   2
   3   4   6 0.41337 0.13782   4
   3   4   6 0.65505 0.37431   2
   3   4   6 0.76730 0.24328   2
   4  -4   6 0.17546 0.03902   2
   4  -4   6 0.15600 0.09751   2
   4  -4   6 0.33156 0.09751   2
   4  -4   6 0.43875 0.09751   2
   4   4   6 0.03734 0.08394   1
   5  -4   6 1.84240 0.45821   3
   5  -4   6 0.99276 0.61512   1
   5   4   6 1.34111 0.25867   4
   6   4   6 -0.0471 0.15079   4
   5  -5  -6 1.36486 0.44527   1
   5  -5  -6 1.14222 0.66791   1
   5   5  -6 2.96765 1.13924   1
   5   5  -6 1.03390 0.24890   1
   4  -5  -6 0.77893 0.47932   3
   4  -5  -6 0.77893 0.55926   3
   4  -5  -6 -0.6405 0.64050   1
   4   5  -6 0.66054 1.16327   3
   4   5  -6 0.57174 0.26620   3
   4   5  -6 0.85451 0.36366   1
   4   5  -6 0.61120 0.51261   3
   4   5  -6 0.91816 0.60913   1
   3  -5  -6 -0.0098 0.01952   2
   3  -5  -6 0.03914 0.05866   2
   3  -5  -6 0.05866 0.03914   2
   3  -5  -6 -0.0293 0.04885   2
   3  -5  -6 -0.0293 0.06847   2
   3  -5  -6 0.05866 0.05866   2
   3  -5  -6 -0.0391 0.08799   2
   3   5  -6 0.00000 0.03851   1
   3   5  -6 -0.0093 0.06510   2
   3   5  -6 0.00000 0.01921   1
   3   5  -6 0.11154 0.08366   2
   3   5  -6 -0.0464 0.09299   2
   3   5  -6 -0.0186 0.02789   2
   3   5  -6 0.06510 0.06510   2
   2  -5  -6 2.42352 0.59086   2
   2  -5  -6 2.27962 0.31695   1
   2  -5  -6 3.07445 0.60091   2
   2  -5  -6 3.09444 0.96143   2
   2   5  -6 2.48068 0.55455   2
   2   5  -6 3.10323 0.82689   2
   2   5  -6 2.08459 0.39274   1
   2   5  -6 2.45150 0.28210   2
   2   5  -6 2.28157 0.58506   4
  -1  -5   6 0.48909 0.35662   1
   1  -5  -6 1.04460 0.39172   2
  -1  -5   6 0.04078 0.44841   1
   1  -5  -6 1.54685 0.40180   2
   1   5  -6 0.71154 0.47432   3
   1   5  -6 0.52379 0.13838   3
  -1   5   6 0.70315 0.34155   2
   1   5  -6 0.46875 0.13247   1
   1   5  -6 0.42797 0.51965   1
   1   5  -6 0.36685 0.42797   1
   1   5  -6 0.18337 0.23438   1
   1   5  -6 0.43819 0.25472   1
   0  -5   6 0.20596 0.12353   2
   0  -5   6 0.31982 0.49979   3
   0  -5  -6 -0.0897 0.33895   4
   0  -5  -6 0.29906 0.33895   4
   0  -5   6 0.05144 0.39126   2
   0  -5   6 0.12353 0.11331   2
   0  -5   6 0.13386 0.39126   2
   0   5  -6 0.24717 0.33982   2
   0   5  -6 0.16475 0.11331   2
   0   5  -6 0.16475 0.50457   2
   0   5  -6 0.09265 0.27806   2
   0   5   6 0.19960 0.30468   2
   0   5   6 0.16809 0.28371   2
   0   5  -6 0.29987 0.45978   3
   0   5   6 0.23112 0.10507   2
   0   5   6 0.09453 0.25220   2
   1  -5   6 5.78053 0.52549   1
   1  -5   6 5.22408 0.70267   2
   1  -5   6 4.18535 0.78408   2
   1  -5   6 4.48066 0.83505   2
  -1  -5  -6 5.56971 0.97675   1
   1  -5   6 6.11403 0.90947   1
  -1   5  -6 6.38692 1.07126   1
  -1   5  -6 4.66401 0.49899   2
   1   5   6 5.76762 0.74612   4
   1   5   6 5.43463 0.74817   1
  -1   5  -6 5.36668 0.93689   2
   1   5   6 5.03980 0.49875   1
   1   5   6 5.09170 0.77934   1
   1   5   6 5.76096 0.70356   4
   1   5   6 4.39555 0.65468   1
  -1   5  -6 5.66199 0.73321   2
   2  -5   6 0.68788 0.19219   3
   2  -5   6 0.64739 0.51588   3
   2  -5   6 0.55637 0.44516   3
   2  -5   6 0.83834 0.46786   1
   2   5   6 0.46830 0.42842   1
   2   5   6 0.78207 0.31279   2
   2   5   6 1.32939 0.40074   2
   2   5   6 0.69653 0.14920   2
   3  -5   6 1.02802 0.54769   1
   3  -5   6 0.92239 0.18253   1
   3  -5   6 1.08565 0.22098   1
   3  -5   6 0.99920 0.46115   1
   3  -5   6 0.80703 0.26898   1
   3  -5   6 1.03765 0.43233   1
   3  -5   6 1.35472 0.47079   1
   3  -5   6 0.98956 0.30743   1
   3  -5   6 0.96075 0.39388   1
   3  -5   6 1.28746 0.71095   1
   3   5   6 0.84599 0.26027   2
   3   5   6 0.69206 0.43023   4
   3   5   6 0.83667 0.22316   2
   3   5   6 0.86465 0.17662   2
   3   5   6 0.66806 0.43234   4
   3   5   6 1.14347 0.15807   2
   3   5   6 1.00406 0.46487   2
   3   5   6 0.76235 0.16729   2
   3   5   6 1.10636 0.47410   2
   3   5   6 0.91109 0.26959   2
   4  -5   6 0.06870 0.16682   2
   4  -5   6 0.23551 0.27468   2
   4  -5   6 0.19625 0.12755   2
   4  -5   6 -0.2355 0.39249   2
   4  -5   6 0.17656 0.19625   2
   4   5   6 0.41749 0.39897   1
   4   5   6 0.24123 0.24123   1
   4   5   6 -0.0463 0.12061   1
   4   5   6 0.19488 0.25053   1
   4   5   6 -0.0743 0.07427   1
   5  -5   6 0.17565 0.09761   3
   5  -5   6 0.12689 0.10741   3
   5   5   6 0.01906 0.04771   4
   6  -5   6 0.02877 0.03840   3
   6   5   6 0.05636 0.03761   4
   5  -6  -6 0.03096 0.50582   2
   5  -6  -6 0.92000 0.53261   1
   5   6  -6 0.23648 0.24680   2
   4  -6  -6 1.77058 0.59339   1
   4  -6  -6 1.00021 0.53016   2
   4  -6  -6 0.77015 0.84018   2
   4  -6  -6 1.00021 0.19003   2
   4   6  -6 0.66998 0.29561   3
   4   6  -6 1.71334 0.68535   1
   4   6  -6 2.29947 0.72145   1
   3  -6  -6 9.85777 1.57765   1
   3  -6  -6 8.23991 0.93458   1
   3  -6  -6 8.13942 1.76855   1
   3  -6  -6 9.62665 1.01491   1
   3  -6  -6 9.45580 0.94455   1
   3  -6  -6 9.88791 0.81392   1
   3  -6  -6 9.63673 1.07518   1
   3  -6  -6 9.69701 1.11540   1
   3  -6  -6 9.35531 1.45710   1
   3   6  -6 9.59345 0.98898   1
   3   6  -6 10.1489 1.56803   1
   3   6  -6 7.07145 1.39453   1
   3   6  -6 10.1297 0.82734   1
   3   6  -6 8.25834 1.19671   1
   3   6  -6 10.1991 1.36682   2
   2  -6  -6 13.4797 1.47323   2
   2  -6  -6 12.2870 1.15255   2
   2   6  -6 14.4480 1.35994   2
   2   6  -6 15.7597 1.72640   2
   2   6  -6 12.4612 1.48532   2
   2   6  -6 12.4709 1.09950   2
  -1  -6   6 2.53026 0.62233   1
   1  -6  -6 5.50820 0.73380   2
  -1  -6   6 2.54050 0.68364   1
   1  -6  -6 4.21484 0.45570   1
   1  -6  -6 4.64384 0.79409   2
   1  -6  -6 4.33949 0.75513   3
   1  -6  -6 3.93521 0.74562   1
   1   6  -6 5.90260 0.91115   3
   1   6  -6 3.94850 0.41826   1
  -1   6   6 3.95588 0.72495   1
   1   6  -6 4.37743 0.80217   3
   1   6  -6 3.60156 0.76520   1
  -1   6   6 3.13776 0.61099   1
   1   6  -6 5.69458 0.84181   3
   0  -6  -6 2.28259 0.59809   4
   0  -6  -6 1.89386 0.52831   4
   0  -6   6 1.91427 0.48103   3
   0  -6  -6 2.21280 0.53820   4
   0  -6   6 1.50513 0.58196   3
   0  -6  -6 1.99354 0.27905   4
   0  -6   6 1.74387 0.48103   3
   0  -6   6 1.87416 0.27062   3
   0   6   6 1.41787 0.40959   1
   0   6  -6 2.71598 0.50114   3
   0   6  -6 2.86638 0.64137   3
   0   6  -6 2.05450 0.41086   3
   0   6   6 1.81407 0.44852   4
   0   6  -6 3.05678 0.63142   3
   0   6   6 1.58481 0.44852   4
   0   6  -6 2.02445 0.28057   3
   0   6   6 1.58481 0.23926   4
  -1  -6  -6 4.59435 0.71976   4
   1  -6   6 4.48561 0.71404   1
  -1  -6  -6 4.22232 0.78337   4
   1  -6   6 5.05882 0.64362   1
   1  -6   6 2.47670 0.66247   3
   1  -6   6 3.14929 0.71349   3
   1  -6   6 3.64880 0.42805   3
   1   6   6 3.96513 0.62120   1
  -1   6  -6 3.00668 0.83576   3
   1   6   6 3.43707 0.66253   1
   1   6   6 2.69167 0.54872   1
   1   6   6 4.17220 0.39336   1
  -1   6  -6 3.55699 0.66247   3
   1   6   6 3.82016 0.63148   1
   2  -6   6 9.72405 1.18874   1
   2  -6   6 11.3220 1.25696   1
   2  -6   6 8.99330 0.98408   1
   2  -6   6 9.71428 1.31540   1
   2   6   6 13.0960 0.97076   2
   2   6   6 11.1545 1.13581   2
   2   6   6 12.3292 1.23290   2
   3  -6   6 3.17248 0.64612   1
   3  -6   6 2.96036 0.60753   1
   3  -6   6 3.38470 0.64612   1
   3  -6   6 3.51962 0.64612   1
   3  -6   6 3.87644 0.39531   1
   3  -6   6 2.63996 0.51384   4
   3  -6   6 3.24967 0.46283   1
   3  -6   6 2.82128 0.98746   4
   3   6   6 2.61049 0.37288   4
   3   6   6 2.90482 0.38273   4
   3   6   6 2.88523 0.31402   4
   3   6   6 3.36116 0.58176   2
   3   6   6 3.37033 0.76645   2
   3   6   6 2.93640 0.42476   2
   3   6   6 2.75766 0.72618   4
   3   6   6 3.13025 0.39707   2
   3   6   6 2.90781 0.51257   4
   3   6   6 2.31606 0.39257   4
   4  -6   6 3.59262 0.79279   4
   4  -6   6 0.49172 1.02360   4
   4  -6   6 1.97694 0.74256   4
   4  -6   6 2.76973 0.50179   4
   4  -6   6 3.27141 0.64220   4
   4   6   6 3.60414 0.38299   3
   4   6   6 3.79094 1.05146   3
   4   6   6 4.53915 0.79345   1
   4   6   6 3.43718 0.49105   3
   5  -6   6 0.97707 0.40057   3
   5   6   6 0.65696 0.53319   4
   5   6   6 0.55219 0.18088   4
   5  -7  -6 0.17421 0.11614   1
   5  -7  -6 0.20335 0.11614   1
   5   7  -6 -0.0096 0.06725   1
   4  -7  -6 0.27053 0.47091   2
   4  -7  -6 0.48086 0.76144   2
   4  -7  -6 1.05342 0.55543   1
   4  -7  -6 0.69129 0.20038   2
   4   7  -6 2.32582 0.93033   1
   4   7  -6 1.28818 0.33102   1
   4   7  -6 0.45308 0.84709   3
   4   7  -6 0.50228 0.27574   3
   3  -7  -6 0.06031 0.20111   1
   3  -7  -6 0.17095 0.13071   1
   3  -7  -6 0.26500 0.36315   2
   3  -7  -6 0.16087 0.23127   1
   3  -7  -6 -0.0294 0.45145   2
   3  -7  -6 -0.7949 0.79490   2
   3  -7  -6 -0.0490 0.37289   2
   3  -7  -6 0.04024 0.62340   1
   3  -7  -6 0.12062 0.15078   1
   3   7  -6 0.30248 0.12835   2
   3   7  -6 1.03570 0.44912   2
   3   7  -6 0.05921 0.20733   1
   3   7  -6 -0.4216 0.42164   2
   3   7  -6 1.08158 0.69663   2
   3   7  -6 0.31168 0.14664   2
   3   7  -6 0.66914 0.63245   2
   3   7  -6 0.16782 0.19743   1
   2  -7  -6 3.01190 0.76834   1
   2  -7  -6 4.23943 1.18263   2
   2  -7  -6 3.14697 0.39086   2
   2  -7  -6 4.73051 0.83188   2
   2   7  -6 3.54362 0.72593   2
   2   7  -6 4.26945 0.69729   2
   2   7  -6 2.88046 0.39142   1
   2   7  -6 3.52446 0.79281   2
  -1  -7   6 3.34572 0.40700   3
   1   7  -6 2.49189 0.32763   3
   0  -7  -6 0.24136 0.45124   1
   0  -7  -6 0.62726 0.54358   3
   0  -7  -6 0.94712 0.51841   4
   0  -7   6 0.73359 0.41195   3
   0  -7   6 0.31657 0.46968   1
   0  -7   6 0.64307 0.19091   3
   0  -7   6 0.16335 0.38795   1
   0  -7  -6 0.69792 0.18940   4
   0   7  -6 0.40844 0.28584   1
   0   7  -6 1.60779 0.56274   3
   0   7  -6 -0.2210 0.56274   3
   0   7  -6 0.82400 0.18082   3
   0   7   6 0.27283 0.33577   1
   0   7   6 0.24136 0.37777   1
   0   7   6 0.84742 0.43871   4
   0   7   6 0.63801 0.25921   4
   0   7   6 0.51418 0.15736   1
   1  -7   6 2.92730 0.67320   3
   1  -7   6 3.90651 0.61202   3
   1  -7   6 4.18193 0.45896   3
  -1  -7  -6 4.49641 0.78888   3
   1  -7   6 5.33025 0.81154   1
   1  -7   6 2.63152 0.75474   3
  -1   7  -6 3.36590 0.79556   3
  -1   7  -6 3.52909 0.68343   3
   1   7   6 3.37036 0.58754   1
   1   7   6 3.43219 0.61845   1
   1   7   6 4.42737 0.62124   3
   1   7   6 4.71331 0.69027   3
   1   7   6 4.38674 0.41919   3
   2   7   6 5.92364 0.78854   2
   2   7   6 6.19285 0.58656   2
   2   7   6 6.05819 0.89435   2
   2   7   6 6.52939 0.88471   2
   3  -7   6 5.13922 0.70682   4
   3  -7   6 5.72123 0.87121   1
   3  -7   6 6.73771 0.71633   1
   3  -7   6 4.56376 1.15102   4
   3  -7   6 6.46670 0.82285   1
   3  -7   6 6.45699 0.97773   1
   3  -7   6 6.35046 0.57116   1
   3  -7   6 7.70584 0.97773   1
   3   7   6 5.85076 0.87120   2
   3   7   6 7.23551 1.05462   2
   3   7   6 5.43238 0.64719   3
   3   7   6 5.29507 0.85305   3
   3   7   6 5.13819 0.60795   3
   3   7   6 5.98828 0.66947   2
   3   7   6 5.05970 0.60795   3
   3   7   6 5.28523 0.51972   3
   3   7   6 5.43268 0.58736   1
   4  -7   6 -0.0496 0.09930   3
   4  -7   6 0.32769 0.21842   3
   4  -7   6 -0.3575 0.35747   3
   4  -7   6 0.15886 0.23835   3
   4   7   6 0.50467 0.14681   1
   4   7   6 0.09177 0.10097   1
   4   7   6 0.04584 0.06425   1
   4   7   6 -0.2386 0.23857   1
   5  -7   6 1.26153 0.49868   3
   5  -7   6 -0.3422 0.55744   3
   5   7   6 0.65108 0.55391   4
   5   7   6 0.77815 0.20874   4
   5   8  -6 0.03859 0.07718   1
   5   8  -6 -0.0192 0.23144   1
   4  -8  -6 0.11490 0.18196   1
   4  -8  -6 -0.0096 0.08618   1
   4  -8  -6 -0.0191 0.37353   1
   4  -8  -6 -0.2107 0.21068   1
   4  -8  -6 -0.1724 0.32568   1
   4   8  -6 0.13316 0.39956   1
   4   8  -6 0.10652 0.08880   1
   4   8  -6 0.09771 0.31967   1
   4   8  -6 0.11543 0.14206   1
   3  -8  -6 1.11667 1.19720   1
   3  -8  -6 1.82093 0.31192   1
   3  -8  -6 2.35403 0.39234   1
   3  -8  -6 1.65998 0.86521   1
   3  -8  -6 3.22126 0.59904   2
   3  -8  -6 2.19308 0.42251   1
   3  -8  -6 2.52391 0.52053   2
   3  -8  -6 3.54536 0.69725   2
   3  -8  -6 3.89891 0.74641   2
   3   8  -6 2.36537 0.41576   4
   3   8  -6 2.36357 0.30116   2
   3   8  -6 2.06049 0.40417   1
   3   8  -6 2.45833 0.96518   2
   3   8  -6 2.36453 0.85355   3
   2  -8  -6 17.4386 1.93095   2
   2  -8  -6 16.9483 1.57077   2
   2  -8  -6 19.4095 2.49124   2
   2  -8  -6 14.8058 1.90316   1
   2   8  -6 17.4852 1.96587   2
   2   8  -6 19.8103 2.09822   2
   2   8  -6 17.7783 1.47440   2
   2   8  -6 19.9994 1.72962   2
   1  -8  -6 3.44540 0.67478   4
   1  -8  -6 4.88834 0.84487   2
   1  -8  -6 3.74170 0.46269   2
   1  -8  -6 3.66129 0.78454   2
   1   8  -6 3.68002 0.42540   2
   1   8  -6 4.03615 0.74194   2
   1   8  -6 5.25301 0.90021   2
   1   8  -6 2.94989 0.80362   1
  -1   8   6 2.97627 0.64519   1
   1   8  -6 5.52995 0.92006   2
   0  -8  -6 0.72261 0.41892   1
   0  -8  -6 0.68070 0.19896   1
   0  -8   6 0.79428 0.52952   1
   0  -8  -6 0.55506 0.57597   1
   0  -8  -6 1.24664 0.57840   4
   0  -8   6 1.06765 0.52372   3
   0  -8  -6 0.64929 0.30369   1
   0   8   6 0.55506 0.41892   1
   0   8   6 0.65979 0.16755   1
   0   8   6 0.25138 0.29318   1
   1  -8   6 0.98886 0.49944   1
   2  -8   6 15.0802 1.48175   1
   2  -8   6 15.5578 1.67662   1
   2  -8   6 14.7097 1.29645   1
   2  -8   6 16.7568 1.76443   1
   2   8   6 14.4233 1.63699   3
   2   8   6 14.6628 1.48433   2
   2   8   6 13.7437 1.49626   1
   2   8   6 14.4102 1.27378   2
   3  -8   6 -0.0583 0.17491   1
   3  -8   6 -0.1555 0.29161   1
   3  -8   6 -0.1264 0.22356   1
   3  -8   6 0.07780 0.14575   1
   3  -8   6 -0.0875 0.14575   1
   3  -8   6 -0.2625 0.33051   1
   3  -8   6 0.05830 0.08745   1
   3  -8   6 0.05830 0.26246   1
   3  -8   6 0.02019 0.21246   4
   3   8   6 0.20951 0.14574   2
   3   8   6 0.10024 0.08196   2
   3   8   6 0.24597 0.23683   2
   3   8   6 -0.0182 0.12755   2
   3   8   6 0.02939 0.28420   3
   3   8   6 0.14574 0.06378   2
   3   8   6 0.12755 0.05464   2
   3   8   6 -0.0182 0.08196   2
   4  -8   6 0.10106 1.24298   1
   4  -8   6 0.80487 0.46707   3
   4  -8   6 0.22230 0.35367   1
   4  -8   6 1.53030 0.53654   3
   4   8   6 0.79441 0.18264   1
   4   8   6 0.55893 0.28433   3
   4   8   6 0.62747 0.54909   3
   4   8   6 -0.8767 0.87666   1
   5  -8   6 0.02247 0.27020   1
   5  -8   6 0.33270 0.38157   3
   5   8   6 0.19863 0.25535   4
   5  -9  -6 1.12878 0.46307   3
   5   9  -6 0.77360 0.53180   1
   5   9  -6 0.48472 0.27270   4
   4  -9  -6 0.85221 0.67980   1
   4  -9  -6 1.01500 0.54582   1
   4  -9  -6 0.68941 0.23934   1
   4  -9  -6 0.22105 0.80398   2
   4  -9  -6 0.38183 0.48232   2
   4   9  -6 0.77662 0.22945   1
   4   9  -6 0.51209 0.25605   3
   4   9  -6 1.56209 1.06786   1
   4   9  -6 2.26806 0.69721   1
   3  -9  -6 1.33555 1.16868   2
   3  -9  -6 0.56383 0.20137   1
   3  -9  -6 0.32216 0.47324   1
   3  -9  -6 0.33226 0.67461   1
   3  -9  -6 0.02010 0.60412   1
   3  -9  -6 0.65441 0.40275   1
   3  -9  -6 0.21147 0.60412   1
   3  -9  -6 0.50344 0.30206   1
   3  -9  -6 0.54363 0.27187   1
   3   9  -6 1.41213 0.58839   2
   3   9  -6 1.22209 0.21729   2
   3   9  -6 0.94142 0.27159   2
   3   9  -6 0.05913 0.70971   3
   3   9  -6 0.76884 0.29573   3
   2  -9  -6 2.20282 0.34678   1
   2  -9  -6 1.86627 0.65264   1
   2  -9  -6 2.91318 0.79817   2
   2  -9  -6 1.64194 1.21363   1
   2   9  -6 2.60855 0.67317   2
   1  -9  -6 0.35175 0.17089   2
   1  -9  -6 0.09352 0.39495   1
   1  -9  -6 -0.0201 0.37192   2
   1  -9  -6 0.24950 0.36377   1
   1   9  -6 0.36145 0.15628   2
   1   9  -6 0.65450 0.54702   2
   1   9  -6 0.18230 0.37486   1
   0  -9   6 1.36639 0.24931   2
   0  -9   6 1.01755 0.65121   1
   0  -9  -6 0.77194 0.52164   1
   0  -9  -6 0.77194 0.53200   1
   0  -9  -6 1.75574 0.27928   2
   0  -9   6 0.79371 0.47831   1
   0  -9   6 1.74535 0.52863   2
   0  -9  -6 1.24880 0.51777   2
   0   9  -6 2.05459 0.29923   2
   0   9   6 1.18925 0.21912   1
   0   9  -6 1.21098 0.63090   1
   0   9   6 1.48637 0.45890   2
   0   9   6 1.04317 0.31298   1
   0   9  -6 2.73278 0.65828   2
   0   9  -6 1.24674 0.41888   2
   0   9   6 1.08492 0.41731   1
   0   9   6 1.04317 0.40685   1
   1  -9   6 -0.0596 0.07952   2
   1  -9   6 -0.2185 0.21853   2
   1  -9   6 0.04084 0.26533   4
   1   9   6 0.05083 0.20353   1
   1   9   6 -0.0689 0.20674   2
   1   9   6 0.06891 0.05904   2
   2  -9   6 10.1129 1.26774   1
   2  -9   6 8.23074 1.46280   1
   2  -9   6 11.9853 0.93623   1
   2   9   6 8.14793 1.14789   2
   2   9   6 9.65332 1.09146   2
   2   9   6 9.18295 0.86562   2
   2   9   6 8.44899 1.12902   2
   3  -9   6 -0.0878 0.13665   1
   3  -9   6 0.06832 0.19518   1
   3  -9   6 0.00000 0.07811   1
   3  -9   6 0.00979 0.08780   1
   3  -9   6 0.06832 0.03906   1
   3  -9   6 0.04875 0.09759   1
   3  -9   6 -0.0098 0.10738   1
   3   9   6 0.09962 0.08145   2
   3   9   6 0.14484 0.13576   2
   3   9   6 -0.0452 0.13576   2
   3   9   6 -0.0091 0.04522   2
   3   9   6 0.11769 0.09054   2
   3   9   6 0.03623 0.03623   2
   3   9   6 0.01807 0.03623   2
   3   9   6 0.07247 0.04522   2
   3   9   6 0.08145 0.03623   2
   4  -9   6 0.19329 0.28483   1
   4  -9   6 -0.2187 0.39767   3
   4  -9   6 0.28483 0.45781   1
   4   9   6 0.59125 0.34563   1
   4   9   6 0.74591 0.20009   1
   4   9   6 0.52757 0.23650   1
   4   9   6 0.70038 0.16369   1
   5  -9   6 0.27397 0.18592   3
   5   9   6 0.14129 0.12248   4
   5  10  -6 0.15380 0.19765   2
   4 -10  -6 0.61253 0.67004   1
   4 -10  -6 1.10073 0.52641   1
   4  10  -6 1.90761 0.30765   1
   4  10  -6 2.42626 0.37801   1
   3 -10  -6 7.82140 1.89492   4
   3 -10  -6 9.01074 1.09865   4
   3 -10  -6 8.52687 0.97764   4
   3 -10  -6 10.1701 1.35922   1
   3 -10  -6 9.53446 1.11478   1
   3 -10  -6 9.08969 1.41689   4
   3 -10  -6 9.11154 0.84661   4
   3 -10  -6 7.83140 0.97764   4
   3 -10  -6 8.29505 1.53207   4
   3  10  -6 7.10056 1.44969   3
   3  10  -6 8.56015 0.85794   3
   3  10  -6 9.08125 0.79742   3
   3  10  -6 8.82634 0.94678   3
   3  10  -6 9.10704 1.16285   3
   3  10  -6 9.08842 0.91949   3
   2 -10  -6 9.84778 1.27198   2
   2 -10  -6 9.25762 1.94680   1
   2 -10  -6 11.1794 0.97384   2
   2 -10  -6 11.4775 1.34155   2
   2 -10  -6 8.06112 1.13568   1
   2 -10  -6 9.79505 0.94304   1
   2  10  -6 9.50525 1.01737   1
   2  10  -6 9.81170 1.17546   4
   2  10  -6 9.14619 0.99735   1
   2  10  -6 9.47523 0.89761   1
   2  10  -6 9.31566 0.91762   1
   2  10  -6 8.26838 1.44626   1
   1 -10  -6 0.04012 0.15032   2
   1 -10  -6 0.08024 0.13031   2
   1  10  -6 0.39518 0.16389   2
   0 -10  -6 -0.1494 0.24898   2
   0 -10   6 -0.0493 0.27608   2
   0 -10   6 0.02030 0.27468   1
   0 -10  -6 0.09961 0.09961   2
   0 -10  -6 -0.2291 0.22910   2
   0  10   6 0.02069 0.07258   1
   0  10   6 -0.1295 0.19922   2
   0  10  -6 -0.2663 0.30576   2
   0  10  -6 -0.0296 0.29587   2
   0  10   6 0.03109 0.15545   1
   0  10  -6 0.02030 0.10173   1
   1 -10   6 0.24661 0.14794   2
   1 -10   6 0.03949 0.04928   2
   1  10   6 0.07832 0.09784   2
   1  10   6 0.07832 0.08803   2
   1  10   6 0.01953 0.03916   2
   2 -10   6 10.8207 1.40611   3
   2 -10   6 13.8593 1.49222   1
   2 -10   6 13.0010 1.12163   1
   2 -10   6 12.3280 1.62879   1
   2 -10   6 10.6374 1.25321   3
   2 -10   6 12.9327 1.28746   1
   2  10   6 11.8362 1.23092   1
   2  10   6 12.2965 1.03245   2
   2  10   6 12.1021 1.40811   1
   2  10   6 11.3636 1.11268   1
   2  10   6 11.6097 1.10291   1
   2  10   6 10.9599 1.27033   1
   2  10   6 12.7336 1.10691   2
   2  10   6 12.3523 1.32084   2
   3 -10   6 3.38930 0.61716   1
   3 -10   6 3.18548 0.61880   4
   3 -10   6 3.37947 0.72484   1
   3 -10   6 2.26232 0.45649   4
   3 -10   6 3.46771 0.64654   1
   3 -10   6 2.82026 1.00437   4
   3 -10   6 3.66363 1.07749   1
   3 -10   6 3.40895 0.58778   1
   3 -10   6 3.43833 0.95015   1
   3  10   6 3.32300 0.54036   2
   3  10   6 2.97822 0.57802   3
   3  10   6 3.66527 0.51335   2
   3  10   6 3.37702 0.43223   2
   3  10   6 1.92999 0.85228   3
   3  10   6 3.50312 0.38725   2
   3  10   6 3.81828 0.83755   2
   3  10   6 3.27921 0.39157   4
   3  10   6 3.81828 0.42329   2
   4 -10   6 0.14360 0.38966   1
   4 -10   6 0.13331 0.48203   1
   4 -10   6 0.88486 0.59656   3
   4  10   6 0.61719 0.32676   1
   4  10   6 0.87139 0.20877   1
   4  10   6 1.71547 0.51741   1
   4  10   6 0.68074 0.18154   1
   5 -10   6 0.10391 0.55433   1
   5  10   6 0.37544 0.20645   4
   5  10   6 0.62887 0.30973   4
   5 -11  -6 -0.0096 0.12470   3
   5  11  -6 0.02255 0.12431   2
   4 -11  -6 0.24883 0.34454   1
   4 -11  -6 -0.2105 0.46895   1
   4 -11  -6 0.35414 0.20102   1
   4 -11  -6 0.44025 0.37324   1
   4  11  -6 0.30749 0.38664   1
   4  11  -6 -0.0175 0.13176   1
   4  11  -6 -0.2196 0.21962   1
   3 -11  -6 0.41731 0.27169   1
   3 -11  -6 -0.1650 0.51437   1
   3 -11  -6 0.76668 0.73758   1
   3 -11  -6 0.40758 0.56284   1
   3 -11  -6 0.38821 0.33000   1
   3 -11  -6 0.33000 0.26205   1
   3 -11  -6 0.38821 0.63079   1
   3 -11  -6 0.80552 0.38821   1
   3  11  -6 0.50059 0.21456   1
   3  11  -6 1.29617 0.66144   1
   2  11  -6 8.87479 0.99833   2
   2  11  -6 6.33777 0.66861   2
   2  11  -6 5.83406 0.65024   2
   2  11  -6 7.83981 0.73274   2
   2  11  -6 5.79740 1.07154   2
   2  11  -6 7.22623 0.65024   2
   1 -11  -6 0.34937 0.18489   1
   1 -11  -6 0.71853 0.50891   2
   1 -11  -6 0.24662 0.41100   1
   1  11  -6 0.19170 0.47430   1
   1  11  -6 0.41863 0.17119   2
   1  11  -6 0.10091 0.43391   1
   0 -11   6 0.28265 0.40936   2
   1 -11   6 -0.0195 0.35256   2
   1 -11   6 0.28399 0.12731   2
   1 -11   6 -0.3232 0.39176   2
   1  11   6 -0.0097 0.19283   2
   1  11   6 0.04011 0.11026   1
   1  11   6 0.31817 0.25066   2
   2 -11   6 1.71316 0.32680   3
   2 -11   6 0.37725 0.67289   3
   2 -11   6 3.20719 0.87731   1
   2 -11   6 1.93014 0.52636   1
   2 -11   6 1.71143 0.42281   3
   2  11   6 1.84880 0.31276   2
   2  11   6 1.66978 0.27498   4
   2  11   6 1.63047 0.55991   4
   2  11   6 1.77517 0.59784   2
   2  11   6 1.70497 0.29697   4
   2  11   6 1.57155 0.33400   4
   2  11   6 1.70917 0.56323   4
   2  11   6 1.75681 0.29431   2
   3 -11   6 2.57541 0.41283   1
   3 -11   6 2.19379 0.54840   4
   3 -11   6 1.74686 0.96487   4
   3 -11   6 1.82816 0.98514   4
   3 -11   6 1.96019 0.54840   4
   3 -11   6 2.16333 0.49766   4
   3 -11   6 1.80789 0.96487   4
   3 -11   6 2.41814 0.57996   1
   3  11   6 1.68519 0.72500   3
   3  11   6 1.74406 0.84265   3
   3  11   6 1.93020 0.31351   3
   3  11   6 2.40775 0.32104   1
   3  11   6 2.23833 0.34778   1
   3  11   6 2.04774 0.38211   3
   3  11   6 2.97854 0.45477   1
   3  11   6 2.92504 0.55290   1
   3  11   6 2.31856 0.49940   1
   4 -11   6 1.59225 0.74442   1
   4 -11   6 2.02648 0.46524   1
   4  11   6 2.82414 0.38138   1
   4  11   6 2.43365 0.39049   1
   4  11   6 2.18266 0.31317   2
   4  11   6 1.06767 0.67585   3
   5 -11   6 0.46503 0.39699   3
   5  11   6 0.46799 0.25031   4
   5  11   6 0.58890 0.32712   4
   5 -12  -6 2.05719 0.52718   2
   5  12  -6 1.38529 0.39920   1
   4  12  -6 0.37452 0.12814   3
   4  12  -6 0.37452 0.31539   3
   4  12  -6 0.61112 0.29572   3
   3  12  -6 20.3015 2.61584   1
   3  12  -6 20.5745 1.84078   1
   3  12  -6 24.4323 2.14027   1
   2 -12  -6 0.69793 0.53079   2
   2 -12  -6 0.20648 0.45220   2
   2 -12  -6 0.49155 0.57013   2
   2 -12  -6 0.47183 0.19662   2
   2 -12  -6 0.63896 0.27521   2
   2 -12  -6 -0.1474 0.81596   2
   2 -12  -6 1.04206 0.32441   2
   2 -12  -6 0.27521 0.15728   2
   2  12  -6 0.10892 0.16339   2
   2  12  -6 0.12714 0.39044   2
   2  12  -6 0.07950 0.15890   1
   2  12  -6 0.03975 0.11915   1
   2  12  -6 0.18160 0.35410   2
   2  12  -6 0.00000 0.11244   1
   1 -12  -6 4.05130 0.90908   2
   1 -12  -6 3.29244 0.54869   1
   1 -12  -6 3.10947 0.72146   1
   1  12  -6 5.48636 0.96759   2
   1  12  -6 4.57512 0.48851   2
   1  12  -6 3.79534 0.82671   2
   0  12   6 0.02940 0.04896   2
   0  12   6 -0.1079 0.14698   2
   0  12  -6 -0.0386 0.17338   2
   0  12  -6 -0.0289 0.05779   2
   1 -12   6 1.65210 0.73429   4
   1 -12   6 1.78467 0.69347   4
   1 -12   6 2.01924 0.35691   4
   1  12   6 2.15154 0.32872   1
   1  12   6 2.57448 0.58899   2
   1  12   6 2.39063 0.53783   1
   2 -12   6 -0.1266 0.21415   1
   2 -12   6 -0.1558 0.35047   1
   2 -12   6 0.31151 0.20448   1
   2 -12   6 -0.0194 0.63278   1
   2 -12   6 0.27254 0.27254   1
   2 -12   6 0.15294 0.38752   3
   2 -12   6 -0.2433 0.49646   1
   2  12   6 0.11791 0.12777   3
   2  12   6 0.10815 0.15724   3
   2  12   6 0.04909 0.19658   3
   2  12   6 0.00986 0.17686   3
   2  12   6 0.01962 0.33421   3
   2  12   6 -0.0455 0.33681   2
   2  12   6 -0.3550 0.35498   2
   2  12   6 0.11791 0.13763   3
   3 -12   6 0.44369 0.33529   1
   3 -12   6 0.44369 0.70994   1
   3 -12   6 0.10167 0.75225   4
   3 -12   6 0.20333 0.38627   4
   3 -12   6 0.22362 0.46764   4
   3  12   6 0.46749 0.49394   1
   3  12   6 0.33513 0.36159   1
   3  12   6 0.11757 0.16663   3
   3  12   6 0.19602 0.15679   3
   3  12   6 0.15679 0.16663   3
   3  12   6 0.21558 0.24497   3
   3  12   6 0.01956 0.18619   3
   3  12   6 -0.2382 0.30868   1
   3  12   6 -0.1764 0.57330   1
   4 -12   6 -0.0496 0.15893   3
   4 -12   6 -0.1291 0.12913   3
   4  12   6 -0.1459 0.18242   1
   4  12   6 0.05471 0.06386   1
   4  12   6 0.13677 0.11856   1
   5 -12   6 1.40758 0.44965   3
   5  12   6 0.92144 0.24198   4
   5  12   6 0.88417 0.52606   4
   5  12   6 0.86743 0.24514   3
   5 -13  -6 0.86655 0.72375   3
   5 -13  -6 0.60941 0.30470   3
   5  13  -6 0.43369 0.19277   4
   4 -13  -6 0.09584 0.19168   1
   4 -13  -6 0.16294 0.11497   1
   4 -13  -6 0.11497 0.33540   1
   4  13  -6 0.14284 0.15180   1
   3 -13  -6 1.13357 0.59058   1
   3 -13  -6 1.69558 0.31435   1
   3 -13  -6 1.74316 0.67628   1
   3 -13  -6 0.22865 0.49532   1
   3 -13  -6 1.77173 0.51433   1
   3 -13  -6 1.19071 0.29534   1
   3 -13  -6 1.13357 0.28578   1
   3  13  -6 -0.1825 0.48663   1
   2 -13  -6 0.17575 0.03909   2
   2 -13  -6 0.12697 0.03909   2
   2 -13  -6 0.08788 0.04879   2
   2 -13  -6 -0.0879 0.15626   2
   2 -13  -6 0.04879 0.09768   2
   2 -13  -6 0.18555 0.05858   2
   2 -13  -6 0.09768 0.09768   2
   2 -13  -6 0.13677 0.08788   2
   2  13  -6 0.01800 0.06314   2
   2  13  -6 0.06314 0.03609   2
   2  13  -6 0.00000 0.02758   1
   2  13  -6 0.00000 0.02758   1
   2  13  -6 -0.0180 0.07219   2
   2  13  -6 -0.0180 0.02705   2
   1 -13  -6 3.06998 0.43023   2
   1 -13  -6 2.43448 0.45956   2
   1 -13  -6 2.50294 0.83104   2
   1  13  -6 2.23843 0.39009   2
   1  13  -6 2.17340 0.70593   2
   1  13  -6 2.17214 0.38217   3
   0  13  -6 -0.0476 0.16202   2
   0  13  -6 -0.1049 0.21919   2
   0  13  -6 -0.0286 0.07628   2
   1 -13   6 0.42473 0.37641   2
   1 -13   6 0.03058 0.20391   3
   1 -13   6 0.05789 0.29925   2
   1 -13   6 0.02035 0.10195   3
   1  13   6 -0.1218 0.12176   2
   1  13   6 0.00000 0.06750   1
   1  13   6 0.04678 0.18733   2
   1  13   6 0.29040 0.21542   2
   2 -13   6 0.57304 0.21365   1
   2 -13   6 0.35701 0.29582   3
   2 -13   6 0.29582 0.73450   3
   2 -13   6 0.36349 0.42241   3
   2 -13   6 0.14285 0.66307   3
   2 -13   6 0.34689 0.36725   3
   2  13   6 0.07873 0.48192   3
   2  13   6 0.18685 0.17698   3
   2  13   6 0.38785 0.17135   2
   2  13   6 0.48701 0.44195   2
   2  13   6 0.23608 0.21635   3
   2  13   6 0.18685 0.46229   3
   2  13   6 0.53215 0.20745   2
   2  13   6 0.58625 0.21650   2
   3 -13   6 2.89958 0.61047   4
   3 -13   6 3.86614 0.80090   1
   3 -13   6 5.53728 1.31506   1
   3 -13   6 2.20778 1.34300   4
   3  13   6 3.21611 0.47754   4
   3  13   6 1.68626 0.98036   3
   3  13   6 3.00000 0.70590   3
   3  13   6 2.59808 0.44116   3
   3  13   6 3.35199 0.39278   1
   4 -13   6 0.00996 0.09925   3
   4 -13   6 0.13897 0.05953   3
   4  13   6 -0.0092 0.02762   1
   4  13   6 0.00000 0.05525   1
   4  13   6 -0.0092 0.02762   1
   5 -13   6 0.52724 0.33204   3
   5 -13   6 0.78122 0.26367   3
   5  13   6 0.78755 0.26868   4
   5  13   6 0.44772 0.19184   1
   5  13   6 0.49370 0.25320   4
   5 -14  -6 1.80163 0.75862   3
   5 -14  -6 2.28519 0.41726   3
   4 -14  -6 1.56317 0.49868   1
   4 -14  -6 1.47689 0.93021   1
   4 -14  -6 1.03574 0.30686   1
   4  14  -6 0.59624 0.43727   2
   4  14  -6 0.94400 0.34776   2
   3 -14  -6 2.12305 0.46505   4
   3 -14  -6 3.14984 0.55641   1
   3 -14  -6 2.29167 0.92420   1
   3 -14  -6 2.13150 0.86230   4
   3 -14  -6 2.15962 0.91474   1
   3 -14  -6 2.13077 0.52017   4
   3  14  -6 2.16652 0.97145   1
   3  14  -6 2.69955 0.36970   1
   3  14  -6 2.13172 0.39152   4
   3  14  -6 2.07694 0.43521   3
   2 -14  -6 2.53923 0.53099   1
   2 -14  -6 4.04533 1.15853   1
   2 -14  -6 2.13364 0.82065   1
   2 -14  -6 3.20531 0.61786   1
   2 -14  -6 2.29779 0.43444   1
   2 -14  -6 2.67432 0.92689   1
   2 -14  -6 3.27290 1.48683   1
   2 -14  -6 3.33082 0.44412   1
   2  14  -6 2.64901 0.40406   2
   2  14  -6 0.70941 0.82614   2
   2  14  -6 1.72406 0.70941   2
   1 -14  -6 4.08128 0.54160   2
   1 -14  -6 7.02135 1.31525   2
   1 -14  -6 4.98066 0.58031   2
   1  14  -6 6.10838 1.05794   2
   1  14  -6 3.18930 0.87250   1
   1  14  -6 3.54029 0.57171   1
   0 -14   6 1.51919 0.68869   1
   0  14  -6 1.85343 0.63809   1
   1 -14   6 1.91592 0.78464   3
   1 -14   6 2.49673 0.45856   3
   1 -14   6 1.35534 0.89678   3
   1 -14   6 3.62517 0.63299   2
   1  14   6 2.71479 0.46572   3
   1  14   6 3.02677 0.71511   3
   1  14   6 2.93273 0.41612   3
   2 -14   6 1.34089 0.54626   3
   2 -14   6 0.64278 0.44895   3
   2 -14   6 1.26509 0.31633   3
   2 -14   6 1.48107 1.07451   1
   2 -14   6 0.51015 0.85697   3
   2 -14   6 1.33652 0.46932   3
   2  14   6 1.97624 0.35772   1
   2  14   6 1.22047 0.29530   3
   2  14   6 1.30903 0.65950   3
   2  14   6 1.24999 0.28542   3
   2  14   6 1.24012 0.60036   3
   2  14   6 1.10239 0.26578   3
   2  14   6 1.61861 0.59022   1
   3 -14   6 0.70395 0.83285   1
   3 -14   6 -0.6842 0.82301   1
   3 -14   6 0.58500 0.29748   1
   3 -14   6 0.10181 0.36649   4
   3  14   6 0.01958 0.18635   3
   3  14   6 -0.1038 0.37215   1
   3  14   6 0.18635 0.21576   3
   3  14   6 0.43274 0.16441   1
   3  14   6 -0.1298 0.51929   1
   4 -14   6 0.52128 0.46814   1
   4  14   6 1.04951 0.31583   1
   4  14   6 0.68728 0.23217   1
   4  14   6 0.39739 0.36760   2
   4  14   6 0.48677 0.19870   2
   5 -14   6 0.39627 0.50112   3
   5  14   6 0.20857 0.25029   1
   5 -15  -6 0.07555 0.07555   3
   5 -15  -6 -0.0283 0.03777   3
   5  15  -6 0.00963 0.02880   4
   4 -15  -6 0.92938 0.41202   1
   4 -15  -6 1.30305 0.29708   1
   4 -15  -6 0.85278 0.86229   1
   4  15  -6 0.68500 0.23781   4
   4  15  -6 0.27613 0.42947   2
   3 -15  -6 0.11208 0.16812   1
   3 -15  -6 -0.2335 0.29894   1
   3 -15  -6 0.02019 0.36412   4
   3 -15  -6 0.28967 0.17749   1
   3  15  -6 -0.0256 0.11109   1
   3  15  -6 0.00993 0.11875   3
   3  15  -6 0.11109 0.08546   1
   2 -15  -6 3.30159 1.12902   1
   2 -15  -6 1.33451 0.86946   3
   2 -15  -6 3.51980 0.69260   1
   2 -15  -6 3.57671 0.50284   1
   2 -15  -6 3.50076 0.61666   1
   2 -15  -6 1.85006 1.29405   3
   2 -15  -6 5.62595 1.40413   1
   2  15  -6 2.34298 0.44981   4
   2  15  -6 3.75743 0.49511   1
   2  15  -6 2.64351 0.40669   1
   2  15  -6 2.28843 0.46767   3
   2  15  -6 1.25359 1.08453   3
   1 -15  -6 0.25837 0.19138   2
   1 -15  -6 0.15945 0.22923   3
   1 -15  -6 0.41145 0.67932   2
   1  15  -6 -0.0731 0.14611   2
   1  15  -6 -0.0366 0.15528   2
   1  15  -6 0.18267 0.45667   2
   0 -15   6 0.23284 0.51625   3
   0  15  -6 0.99209 0.57708   3
   1 -15   6 1.03910 0.40751   3
   1 -15   6 0.29541 0.84556   3
   1  15   6 1.33412 0.66711   2
   2 -15   6 0.12240 0.65292   3
   2 -15   6 0.02036 0.32646   3
   2 -15   6 -0.1253 0.23143   1
   2 -15   6 0.32786 0.23143   1
   2 -15   6 0.25068 0.35677   1
   2  15   6 0.28968 0.17557   1
   2  15   6 0.28088 0.19309   1
   2  15   6 0.07885 0.48266   3
   2  15   6 0.13793 0.19701   3
   2  15   6 0.48277 0.38627   1
   2  15   6 0.07885 0.14771   3
   2  15   6 0.21942 0.14924   1
   2  15   6 -0.0263 0.39499   1
   3 -15   6 2.24801 0.71618   1
   3 -15   6 2.41713 1.12395   1
   3 -15   6 1.93519 0.54995   4
   3  15   6 1.93922 0.36081   3
   3  15   6 2.14371 0.43049   1
   3  15   6 1.91371 0.37290   3
   4 -15   6 2.23044 0.68955   1
   4 -15   6 1.76710 0.50646   1
   4  15   6 2.28240 0.35344   2
   4  15   6 2.41107 0.43756   1
   4  15   6 2.29285 0.31926   3
   4  15   6 2.19154 0.62614   2
   5 -15   6 0.06379 0.47255   1
   5  15   6 0.34509 0.20958   4
   5 -16  -6 0.00000 0.55790   1
   5  16  -6 0.16360 0.22295   4
   4 -16  -6 4.48835 1.33695   3
   4 -16  -6 2.22410 0.54075   2
   4 -16  -6 2.71390 0.45909   2
   4  16  -6 2.63894 0.48752   2
   4  16  -6 2.85091 0.50867   2
   3 -16  -6 1.94722 1.10345   1
   3 -16  -6 1.77106 0.46365   1
   3 -16  -6 1.27961 0.41723   1
   3 -16  -6 0.74872 0.76902   4
   3  16  -6 1.17175 0.25938   2
   3  16  -6 0.57455 0.31699   3
   3  16  -6 1.06991 0.43594   3
   2 -16  -6 2.60856 1.03412   1
   2 -16  -6 1.22341 1.22341   3
   2 -16  -6 2.37906 0.47972   3
   2 -16  -6 2.38443 1.70719   3
   2 -16  -6 2.49680 0.68013   1
   2 -16  -6 1.68852 0.48529   3
   2  16  -6 2.38014 0.32987   3
   2  16  -6 2.04134 0.39834   3
   2  16  -6 1.49368 0.98586   3
   1 -16  -6 0.97932 0.32021   1
   1  16  -6 0.55195 0.25086   3
   1  16  -6 0.80838 0.65396   2
   1  16  -6 0.83562 0.29063   2
   1  16  -6 0.48169 0.28096   3
   0  16   6 5.81157 0.73024   3
   0  16  -6 3.59323 0.96159   3
   1  16   6 0.54081 0.06310   1
   1  16   6 0.50474 0.08109   1
   1  16   6 0.60392 0.07215   1
   1  16   6 0.74812 0.12621   1
   2 -16   6 1.42825 0.56109   3
   2 -16   6 1.35682 0.41823   3
   2 -16   6 1.02015 1.16301   3
   2 -16   6 0.71418 0.97943   3
   2  16   6 1.47750 0.26779   4
   2  16   6 1.65612 0.75040   1
   2  16   6 1.42942 0.65063   3
   2  16   6 0.67031 0.73933   3
   2  16   6 1.37018 0.34499   3
   2  16   6 2.15647 0.36227   1
   3 -16   6 0.01022 0.54017   2
   3 -16   6 0.07136 0.42803   2
   3 -16   6 0.34655 0.69300   2
   3  16   6 0.52528 0.20671   1
   3  16   6 0.31422 0.22586   3
   3  16   6 1.31756 0.43061   1
   4 -16   6 1.22439 0.50354   3
   4  16   6 1.26203 0.36191   4
   4  16   6 1.09037 0.25473   4
   4 -17  -6 0.07602 0.09497   3
   4 -17  -6 0.00000 0.02017   1
   4  17  -6 0.00000 0.02130   1
   4  17  -6 0.00970 0.01930   4
   4  17  -6 0.01930 0.02901   4
   3 -17  -6 1.03428 0.43405   1
   3 -17  -6 0.98176 0.37453   4
   3 -17  -6 2.15164 1.15432   1
   3  17  -6 0.58498 0.30741   3
   3  17  -6 1.54875 0.40670   1
   2 -17  -6 1.69355 0.48521   1
   2 -17  -6 2.20622 0.79641   1
   2 -17  -6 2.06894 0.37529   1
   2 -17  -6 1.58373 0.61340   1
   2  17  -6 0.96666 0.27900   3
   2  17  -6 1.42497 0.42564   3
   2  17  -6 0.96666 0.96666   3
   2  17  -6 1.30554 0.26911   3
   1 -17  -6 0.07361 0.03680   1
   1  17  -6 0.01777 0.08012   1
   1  17  -6 0.06235 0.03564   1
   1  17  -6 0.02671 0.03564   1
   1  17  -6 0.03564 0.02671   1
   1 -17   6 0.69222 0.75328   3
   1  17   6 1.68967 0.35204   1
   1  17   6 0.84488 0.24637   1
   1  17   6 0.98568 0.31682   1
   1  17   6 1.44330 0.77444   1
   1  17   6 0.46667 0.24817   3
   2 -17   6 0.51007 0.51007   3
   2 -17   6 1.20565 1.21525   1
   2  17   6 1.27510 0.31456   1
   2  17   6 0.90763 0.25650   3
   2  17   6 0.73000 0.84846   3
   2  17   6 1.05408 0.27200   1
   3 -17   6 -0.0898 0.19953   1
   3 -17   6 0.08976 0.43899   1
   3 -17   6 0.26938 0.19953   1
   3  17   6 0.23451 0.12161   1
   3  17   6 0.08685 0.13023   1
   3  17   6 0.04338 0.08685   1
   4 -17   6 2.06686 0.54500   3
   4 -17   6 1.98963 0.40239   1
   4  17   6 2.11362 0.38763   4
   4  17   6 2.06249 0.27500   4
   4  17   6 2.90741 0.33227   4
   4 -18  -6 1.15176 0.80243   3
   4 -18  -6 0.83550 0.22972   4
   4  18  -6 0.84964 0.23657   4
   4  18  -6 0.83472 0.29388   3
   3 -18  -6 0.68842 0.44551   4
   3 -18  -6 1.90494 0.87850   1
   3 -18  -6 1.28532 0.45311   1
   3  18  -6 1.21571 0.31946   1
   3  18  -6 0.91396 0.28394   1
   2 -18  -6 0.43483 0.32356   3
   2 -18  -6 0.79348 0.91069   1
   2 -18  -6 0.28309 0.46516   3
   2 -18  -6 0.20225 0.44498   3
   2  18  -6 0.55853 0.37895   3
   2  18  -6 0.14956 0.24930   3
   1 -18  -6 3.24414 0.50325   1
   1  18  -6 2.14836 0.40032   4
   1  18  -6 1.34592 0.93416   3
   0  18   6 6.86493 0.83015   3
   1 -18   6 0.31553 0.27480   3
   1  18   6 0.46838 0.30050   3
   1  18   6 0.32785 0.17877   3
   1  18   6 0.68886 0.28414   1
   2 -18   6 2.36623 0.62212   3
   2  18   6 2.49291 0.42113   1
   2  18   6 1.68831 0.31591   3
   2  18   6 2.59403 0.38742   1
   2  18   6 2.39966 0.44248   4
   3 -18   6 0.01037 0.56859   2
   3 -18   6 0.11376 0.43419   2
   3  18   6 -0.0443 0.31009   1
   3  18   6 0.20380 0.22148   1
   3  18   6 0.21269 0.11519   1
   4 -18   6 0.22594 0.22594   3
   4  18   6 0.28454 0.09178   4
   4  18   6 0.50473 0.19276   4
   4 -19  -6 0.05468 0.15330   1
   4  19  -6 0.22135 0.18284   4
   4  19  -6 0.06780 0.13574   1
   3 -19  -6 0.28008 0.28008   1
   3 -19  -6 -0.5694 0.73751   1
   3  19  -6 0.12986 0.12056   1
   3  19  -6 0.09717 0.26238   1
   2 -19  -6 0.24978 0.27663   1
   2 -19  -6 -0.4818 0.56213   1
   2 -19  -6 0.24978 0.16951   1
   2 -19  -6 0.13380 0.35691   1
   2  19  -6 -0.0513 0.08551   1
   2  19  -6 0.08551 0.13680   1
   1 -19  -6 -0.1057 0.19372   1
   0  19   6 1.43877 0.41601   1
   1  19   6 0.04227 0.04227   1
   1  19   6 0.02538 0.03387   1
   1  19   6 0.05924 0.03387   1
   2 -19   6 0.47932 0.49968   3
   2  19   6 0.91720 0.42075   1
   2  19   6 0.87335 0.31837   3
   2  19   6 1.72493 0.34495   1
   2  19   6 1.24536 0.25245   1
   3 -19   6 1.32916 1.00182   4
   3 -19   6 0.84039 0.47266   2
   3  19   6 1.02471 0.43004   1
   3  19   6 1.00590 0.27882   2
   3  19   6 1.67427 0.30193   1
   3  19   6 1.16191 0.23787   1
   4 -19   6 0.04771 0.16691   1
   4 -19   6 0.01196 0.10724   1
   4  19   6 0.01309 0.13047   1
   4 -20  -6 0.33899 0.21036   1
   4 -20  -6 0.51441 0.64292   1
   4  20  -6 0.52510 0.21333   1
   3 -20  -6 6.80202 1.19813   1
   3 -20  -6 5.20774 0.70047   2
   3 -20  -6 4.15200 0.59895   2
   3  20  -6 4.04377 0.58220   2
   3  20  -6 5.31744 0.71636   4
   2 -20  -6 0.66707 0.27577   1
   2 -20  -6 1.04062 0.57812   1
   2 -20  -6 1.28079 0.72042   1
   2  20  -6 0.58331 0.20896   1
   2  20  -6 0.74869 0.26991   1
   1 -20  -6 3.22416 0.65819   3
   0  20   6 0.03410 0.03410   1
   1  20   6 -0.1005 0.12564   1
   1  20   6 0.06964 0.14915   3
   1  20   6 -0.0335 0.15917   1
   2  20   6 0.33622 0.39553   3
   2  20   6 0.34720 0.19194   3
   2  20   6 0.23734 0.20768   3
   2  20   6 0.57867 0.28084   1
   3 -20   6 1.68159 0.45480   4
   3 -20   6 2.30296 0.99826   4
   3  20   6 2.09055 0.34077   4
   3  20   6 2.09969 0.32230   4
   3  20   6 2.02607 0.37754   4
   4 -20   6 0.14634 0.10739   3
   4  20   6 0.07798 0.11138   2
   3 -21  -6 1.06863 0.65622   3
   3 -21  -6 0.18441 0.24599   1
   3  21  -6 0.25728 0.19018   2
   3  21  -6 0.38709 0.30002   4
   2 -21  -6 0.91434 0.81570   1
   2 -21  -6 2.41132 0.66330   1
   2 -21  -6 1.53286 0.31371   1
   2  21  -6 1.76243 0.33445   1
   1 -21  -6 0.79379 0.79379   1
   1 -21  -6 0.22160 0.28203   3
   0  21   6 0.77755 0.33808   1
   1  21   6 3.01524 0.53733   3
   1  21   6 3.38561 0.47325   3
   1  21   6 3.01524 0.51746   3
   2  21   6 0.58663 0.24510   1
   2  21   6 0.41434 0.18833   4
   2  21   6 0.50777 0.19259   1
   3 -21   6 1.65404 0.86637   4
   3 -21   6 0.74746 0.48372   1
   3  21   6 1.40951 0.26491   1
   3  21   6 1.47308 0.28618   1
   3 -22  -6 1.42753 0.76704   1
   3 -22  -6 0.84162 0.41547   1
   3 -22  -6 1.53700 0.31527   3
   3  22  -6 1.53949 0.41985   4
   2 -22  -6 3.01425 0.41466   2
   2 -22  -6 3.84362 0.91729   1
   2 -22  -6 3.43995 0.63297   1
   2  22  -6 3.48166 0.48777   1
   1 -22  -6 1.59898 0.71259   1
   1 -22  -6 1.97267 0.44315   1
   0 -22  -6 1.00238 0.39928   1
   0  22   6 0.86332 0.30418   3
   1  22   6 1.40084 0.33312   1
   1  22   6 1.01931 0.23044   3
   2 -22   6 1.22454 0.70112   1
   2  22   6 0.54040 0.20148   1
   2  22   6 0.71441 0.29307   1
   2  22   6 0.33058 0.18026   2
   2  22   6 0.30054 0.31059   2
   3 -22   6 0.42156 0.23532   4
   3 -22   6 0.32467 0.47544   1
   3  22   6 0.35978 0.20389   1
   3  22   6 0.43598 0.17257   4
   3 -23  -6 0.12920 0.32291   4
   3  23  -6 0.10953 0.20337   1
   2 -23  -6 0.21332 0.60939   2
   2  23  -6 0.51467 0.30107   4
   1 -23  -6 -0.0178 0.13365   1
   1 -23  -6 0.13365 0.07134   1
   0 -23  -6 0.89585 0.39139   1
   0  23   6 0.78174 0.39087   2
   1  23   6 -0.0089 0.05333   1
   1  23   6 0.03559 0.10666   1
   2 -23   6 1.24945 0.96415   4
   2  23   6 1.30730 0.30170   4
   3 -23   6 0.21796 0.21796   4
   3  23   6 0.21769 0.09979   3
   2 -24  -6 3.66042 0.86485   4
   2  24  -6 3.78131 0.45457   4
   1 -24  -6 0.04621 0.09252   1
   1  24  -6 0.00000 0.05146   1
   1  24  -6 0.02925 0.06829   4
  -1  24   6 -0.0832 0.10180   1
   0 -24  -6 -0.0548 0.17353   1
   0  24   6 0.11874 0.20092   1
   1  24   6 0.30320 0.14151   2
   1  24   6 0.09093 0.14151   2
   1  24   6 0.71524 0.31181   4
   2 -24   6 2.25662 0.85195   1
   2  24   6 2.25586 0.32225   3
   2  24   6 2.25801 0.33316   4
   2  24   6 2.25673 0.31200   4
   2  25  -6 1.27097 0.22145   4
   1 -25  -6 0.08252 0.21096   4
   1 -25  -6 0.15594 0.09173   4
   1  25  -6 0.03514 0.10542   1
   0 -25  -6 0.98683 0.32891   1
   2 -25   6 1.32991 0.55024   4
   2  25   6 1.32154 0.23256   4
   1  26  -6 1.13112 0.26860   1
   0 -26  -6 0.22552 0.24803   1
   0  26  -6 0.41861 0.22826   1
   1 -26   6 0.14572 0.12633   4
   1 -26   6 0.17487 0.31095   4
   5   0  -7 0.57971 0.42711   2
   3   0  -7 1.16775 0.83268   2
   3   0  -7 0.59933 0.54933   1
   3   0  -7 0.63920 0.14978   1
   3   0  -7 0.87896 0.65924   1
   3   0  -7 0.76905 0.36960   1
   1   0  -7 44.2883 3.43137   1
   1   0  -7 39.2794 3.65768   4
   1   0  -7 46.6823 3.62087   1
   1   0  -7 38.9948 3.48494   4
  -1   0   7 44.9965 3.72063   1
   1   0  -7 43.7796 3.66079   1
   1   0  -7 40.5493 4.24695   4
   1   0  -7 41.2143 3.75416   4
  -1   0   7 41.2053 3.64789   4
   1   0   7 9.19688 0.97069   4
   1   0   7 9.10684 1.08081   4
  -1   0  -7 10.0775 1.03072   4
  -1   0  -7 8.11043 0.83867   1
   1   0   7 10.2177 1.00070   4
  -1   0  -7 9.46711 1.16092   4
   1   0   7 10.5278 0.83066   4
   1   0   7 8.30261 0.99105   4
  -1   0  -7 9.19688 1.09085   4
   3   0   7 10.5466 1.05271   4
   3   0   7 12.3273 1.07685   1
   3   0   7 10.1692 1.07254   4
   3   0   7 9.84149 1.26120   4
   3   0   7 11.3921 0.91625   1
   3   0   7 10.8159 1.16184   1
   3   0   7 10.1097 1.44001   4
   5   0   7 0.34817 0.20314   3
   5  -1  -7 2.02471 0.48210   1
   5  -1  -7 2.23679 0.88702   1
   5   1  -7 1.43329 0.47136   1
   4  -1  -7 0.50293 0.41591   3
   4  -1  -7 0.51839 0.40532   1
   4   1  -7 0.01977 0.39613   3
   4   1  -7 0.57856 0.60655   1
   4   1  -7 0.71850 0.37329   1
   4   1  -7 0.73722 0.36393   1
   4   1  -7 0.00993 0.79227   3
   4   1  -7 0.27723 0.20800   3
   3  -1  -7 3.48031 0.42002   1
   3  -1  -7 3.61032 0.66007   1
   3  -1  -7 3.88599 1.17354   2
   3  -1  -7 3.81875 0.90415   2
   3  -1  -7 4.84794 0.85610   2
   3  -1  -7 5.08838 0.95230   2
   3   1  -7 3.75619 0.39231   2
   3   1  -7 5.24542 0.94250   2
   3   1  -7 3.75532 0.62587   4
   3   1  -7 3.54095 0.70817   1
   3   1  -7 3.95075 0.86629   2
   3   1  -7 3.75718 1.12017   3
   2  -1  -7 0.00000 0.06057   1
   2  -1  -7 0.00000 0.10099   1
   2  -1  -7 0.02975 0.03971   2
   2  -1  -7 0.00000 0.03029   1
  -2  -1   7 0.01969 0.03948   2
   2  -1  -7 0.00995 0.00995   2
   2   1  -7 0.02958 0.04927   2
   2   1  -7 -0.0493 0.04927   2
   2   1  -7 0.00990 0.00990   2
   2   1  -7 -0.0197 0.01969   2
   2   1  -7 0.11833 0.04927   2
  -2   1   7 0.00995 0.02975   2
   2   1  -7 -0.0296 0.02958   2
   2   1  -7 0.00000 0.01010   1
   2   1  -7 0.15781 0.09865   2
   1  -1  -7 -0.0100 0.18982   1
  -1  -1   7 0.01019 0.17269   4
   1  -1  -7 -0.0100 0.22980   1
   1  -1  -7 0.08990 0.10994   1
   1  -1  -7 0.08990 0.07998   1
  -1  -1   7 -0.1093 0.22844   1
   1  -1  -7 0.04069 0.05078   4
   1  -1  -7 0.07998 0.29976   1
   1  -1  -7 -0.0899 0.09992   1
   1   1  -7 0.11915 0.22844   1
  -1   1   7 -0.0499 0.16987   1
   1   1  -7 0.09933 0.06954   1
   1   1  -7 0.05073 0.05073   4
   1   1  -7 -0.0398 0.21848   1
  -1   1   7 0.03049 0.06098   4
   1   1  -7 0.10929 0.28802   1
   1   1  -7 0.19865 0.13908   1
   1   1  -7 0.03046 0.12185   4
  -1   1   7 0.04069 0.17285   4
   0  -1   7 13.4190 1.47208   4
   0  -1   7 12.6230 1.40137   1
   0  -1   7 13.1508 1.40753   3
   0  -1   7 13.0352 1.19537   1
   0  -1  -7 18.7024 1.55439   4
   0  -1   7 12.3551 1.17470   1
   0   1  -7 13.2187 1.56219   4
   0   1  -7 12.9218 1.56634   1
   0   1  -7 13.1534 1.17827   2
   0   1  -7 14.7208 1.48213   4
   0   1   7 16.0349 1.35382   4
   0   1   7 17.7196 1.35382   4
   0   1  -7 14.5207 1.32191   4
   1  -1   7 27.3089 2.06977   4
  -1  -1  -7 22.1870 2.32851   1
  -1  -1  -7 25.9504 2.24310   4
   1  -1   7 27.2988 2.26065   4
   1  -1   7 21.3849 2.32286   1
   1  -1   7 26.0730 2.10998   4
  -1  -1  -7 23.2128 2.10276   1
   1  -1   7 25.7816 2.25057   4
  -1  -1  -7 25.5739 2.43805   4
   1   1   7 25.5969 2.20797   4
   1   1   7 23.2436 2.32851   1
   1   1   7 25.8706 2.09360   4
  -1   1  -7 22.6584 2.08853   1
   1   1   7 24.7514 2.28745   1
  -1   1  -7 28.8863 2.42140   4
  -1   1  -7 23.1474 2.33308   1
   1   1   7 25.4079 2.10276   1
  -1   1  -7 26.1936 2.26065   4
   2  -1   7 2.47263 0.27146   1
   2  -1   7 1.72676 0.49194   3
   2  -1   7 2.36553 0.59389   2
   2  -1   7 2.73446 0.61091   1
   2   1   7 2.27241 0.28025   3
   2   1   7 2.63618 0.50583   1
   2   1   7 2.26237 0.47053   3
   2   1   7 2.69453 0.48641   1
   3  -1   7 1.45811 0.40715   1
   3  -1   7 2.06404 0.53023   1
   3  -1   7 1.41072 0.33136   1
   3  -1   7 2.87833 0.66281   1
   3  -1   7 1.27824 0.53973   1
   3   1   7 0.35668 0.20811   4
   3   1   7 0.18823 0.43599   4
   3   1   7 0.62422 0.39634   4
   3   1   7 0.81062 0.14134   1
   3   1   7 0.62713 0.18330   4
   3   1   7 0.71636 0.19798   1
   3   1   7 0.78235 0.47130   1
   4  -1   7 1.92353 0.47126   2
   4  -1   7 0.93410 0.24840   4
   4  -1   7 0.86452 0.46710   4
   4   1   7 1.11850 0.57410   4
   4   1   7 1.29382 0.24735   1
   4   1   7 1.07899 0.66326   4
   4   1   7 1.36043 0.26634   1
   4   1   7 1.36997 0.65645   1
   5  -2  -7 0.67579 0.33784   1
   5   2  -7 0.24983 0.40357   1
   4  -2  -7 0.38794 0.35956   1
   4  -2  -7 0.31229 0.28391   1
   4  -2  -7 0.25553 0.37854   1
   4  -2  -7 0.19877 0.35956   1
   4   2  -7 0.15826 0.16818   3
   4   2  -7 0.12859 0.38577   3
   4   2  -7 -0.1855 0.82557   1
   4   2  -7 0.30611 0.46382   1
   4   2  -7 0.81626 0.35244   1
   4   2  -7 0.31542 0.29680   1
   3  -2  -7 1.05319 0.85025   2
   3  -2  -7 0.91790 0.47344   2
   3  -2  -7 0.67638 0.32855   2
   3  -2  -7 0.83096 0.38650   2
   3  -2  -7 0.31043 0.42049   1
   3  -2  -7 0.71495 0.57006   2
   3  -2  -7 0.41045 0.16018   1
   3   2  -7 0.80448 0.52053   2
   3   2  -7 0.28882 0.45815   1
   3   2  -7 0.59761 0.12947   1
   3   2  -7 0.40830 0.33867   1
   3   2  -7 0.92752 0.32183   2
   3   2  -7 1.24935 0.80448   2
   3   2  -7 1.09793 0.61518   2
   2  -2  -7 -0.0100 0.05964   2
   2  -2  -7 0.02982 0.05964   2
   2  -2  -7 0.00000 0.01015   1
   2  -2  -7 -0.0100 0.12926   2
   2  -2  -7 0.03980 0.04967   2
   2  -2  -7 -0.0100 0.01985   2
   2  -2  -7 -0.0100 0.04967   2
  -2  -2   7 0.04908 0.03933   2
   2   2  -7 -0.0099 0.02947   2
   2   2  -7 -0.0196 0.01961   2
   2   2  -7 0.00986 0.03933   2
   2   2  -7 -0.0196 0.06880   2
   2   2  -7 0.00000 0.02007   1
   2   2  -7 -0.0393 0.11788   2
   2   2  -7 0.00986 0.05894   2
   1  -2  -7 14.1942 1.68054   1
   1  -2  -7 14.2842 1.37039   1
   1  -2  -7 13.5140 1.41043   1
  -1  -2   7 12.4853 1.33992   4
   1  -2  -7 15.3345 1.40039   1
   1  -2  -7 13.2739 1.15036   1
  -1  -2   7 13.5389 1.40642   1
  -1   2   7 12.2442 1.42491   3
   1   2  -7 11.7747 1.26885   4
   1   2  -7 12.7811 1.15180   4
  -1   2   7 12.7755 1.29784   3
   1   2  -7 15.1632 1.27767   1
   1   2  -7 15.6881 1.46583   1
   0  -2   7 3.86450 0.36950   4
   0  -2  -7 3.72206 0.62034   4
   0  -2   7 3.33543 0.66707   1
   0  -2   7 3.63483 0.41938   4
   0  -2   7 3.88443 0.60909   4
   0  -2  -7 3.19640 0.57076   1
   0  -2   7 4.51356 0.70895   4
   0  -2  -7 3.31048 0.73680   1
   0  -2  -7 3.32090 0.37360   1
   0   2  -7 3.44697 0.54421   4
   0   2  -7 3.97428 0.35949   4
   0   2   7 2.79167 0.66414   1
   0   2   7 2.93688 0.36319   1
   0   2   7 3.11333 0.58117   1
   0   2  -7 6.66046 0.87873   4
   0   2   7 3.10302 0.52923   1
  -1  -2  -7 0.19524 0.12329   2
   1  -2   7 0.17260 0.12178   2
  -1  -2  -7 0.36767 0.39747   4
   1  -2   7 -0.2516 0.25163   4
   1  -2   7 0.52346 0.29192   4
  -1  -2  -7 0.44711 0.44711   4
  -1  -2  -7 0.07195 0.27751   2
   1  -2   7 0.35231 0.32212   4
   1  -2   7 -0.1712 0.34231   4
   1   2   7 0.30833 0.29802   2
  -1   2  -7 0.12178 0.40608   2
   1   2   7 0.20555 0.33915   2
  -1   2  -7 0.09134 0.10152   2
  -1   2  -7 0.24367 0.24367   2
   1   2   7 0.22607 0.12329   2
   1   2   7 0.03082 0.27751   2
  -1   2  -7 -0.0806 0.34231   4
   1   2   7 0.09247 0.26720   2
   2  -2   7 3.79460 0.60988   1
   2  -2   7 5.24661 0.71629   1
   2  -2   7 2.76857 0.64862   1
   3  -2   7 4.71193 0.68133   4
   3  -2   7 4.80348 0.55057   1
   3  -2   7 4.71529 0.93530   3
   3  -2   7 4.50190 0.92838   4
   3  -2   7 4.35221 0.44917   4
   3  -2   7 4.98383 0.88290   1
   3  -2   7 4.49189 0.63881   4
   3  -2   7 4.45204 0.80852   4
   3  -2   7 4.87947 0.56010   1
   3  -2   7 3.84307 0.56902   4
   3   2   7 4.15193 0.76113   4
   3   2   7 4.89899 0.48895   2
   3   2   7 4.51763 0.48439   4
   3   2   7 3.99367 0.52395   4
   3   2   7 4.23096 0.57333   4
   3   2   7 3.53904 0.91939   4
   3   2   7 4.69382 0.42500   4
   3   2   7 4.69382 0.84022   4
   4  -2   7 2.84403 0.41598   2
   4  -2   7 4.64331 1.02544   2
   4  -2   7 2.85373 0.60946   2
   4   2   7 2.43071 0.36562   4
   4   2   7 3.12375 0.56799   1
   4   2   7 2.99120 0.38806   1
   4   2   7 2.63347 0.43889   2
   6  -2   7 -0.0573 0.14323   3
   5  -3  -7 -0.0290 0.29001   1
   5  -3  -7 -0.1933 0.41567   1
   5   3  -7 0.10196 0.18347   2
   4  -3  -7 5.27855 0.78802   1
   4  -3  -7 3.55454 1.04546   3
   4  -3  -7 7.24379 0.93991   1
   4   3  -7 5.00414 0.66021   3
   4   3  -7 8.24705 1.47433   1
   4   3  -7 7.69424 0.86615   1
   4   3  -7 5.83281 1.14260   1
   4   3  -7 5.51957 1.48358   1
   4   3  -7 4.90150 0.82025   3
   3  -3  -7 0.22311 0.16493   2
   3  -3  -7 -0.0097 0.04845   2
   3  -3  -7 0.07765 0.04845   2
   3  -3  -7 0.11637 0.11637   2
   3  -3  -7 0.05819 0.02909   2
   3  -3  -7 0.00973 0.09701   2
   3  -3  -7 0.21338 0.10674   2
   3   3  -7 0.00944 0.03764   2
   3   3  -7 0.09406 0.13171   2
   3   3  -7 -0.0659 0.06585   2
   3   3  -7 0.06585 0.07529   2
   3   3  -7 0.00944 0.05642   2
   3   3  -7 -0.0188 0.08463   2
   2  -3  -7 10.9487 1.16558   2
   2  -3  -7 9.38482 0.88264   1
   2  -3  -7 8.68475 1.10592   1
   2  -3  -7 8.25865 1.56246   1
   2  -3  -7 10.6797 1.24533   2
   2  -3  -7 11.0483 0.88668   2
   2   3  -7 10.2385 1.10497   2
   2   3  -7 10.7861 1.22238   2
   2   3  -7 9.73382 0.99450   1
   2   3  -7 9.61321 0.97435   1
   2   3  -7 9.36212 1.48672   1
   2   3  -7 9.24161 0.86392   1
   2   3  -7 11.2360 0.85072   2
  -1  -3   7 8.76636 1.19589   4
   1  -3  -7 10.0273 1.15200   1
   1  -3  -7 11.6800 1.10186   1
   1  -3  -7 10.0072 0.84141   1
   1  -3  -7 8.01304 0.83597   3
   1  -3  -7 9.59650 1.41244   1
   1  -3  -7 9.80691 1.21209   1
  -1  -3   7 8.85765 1.04381   4
  -1   3   7 9.18947 1.06267   1
   1   3  -7 10.3358 0.97921   1
  -1   3   7 8.77763 1.02965   3
   1   3  -7 9.18172 0.81484   4
   1   3  -7 10.2666 0.83079   1
   1   3  -7 12.6403 1.34510   1
   1   3  -7 11.3546 1.18686   1
   1   3  -7 7.60097 0.95262   4
   0  -3  -7 3.29619 0.59934   4
   0  -3  -7 3.93551 0.66928   4
   0  -3   7 3.30174 0.58853   3
   0  -3   7 2.85289 0.38902   3
   0  -3  -7 3.45599 0.62930   4
   0  -3   7 2.84289 0.31918   3
   0  -3  -7 2.96656 0.32963   4
   0  -3   7 2.29097 0.53183   2
   0  -3   7 2.43419 0.62386   2
   0   3  -7 3.14215 0.65837   3
   0   3   7 3.38606 0.59934   4
   0   3   7 3.47603 0.54935   4
   0   3   7 2.90664 0.48943   4
   0   3  -7 3.76060 0.58853   3
   0   3  -7 3.34167 0.63835   3
   0   3  -7 2.76304 0.51869   3
   0   3   7 2.77680 0.30969   4
   0   3  -7 2.67758 0.31209   3
   1  -3   7 9.19918 1.20698   2
  -1  -3  -7 10.0143 1.12074   2
   1  -3   7 11.5866 1.18786   4
   1  -3   7 10.4365 1.03454   2
  -1  -3  -7 11.4260 1.28826   4
   1  -3   7 10.4061 1.17657   2
   1  -3   7 10.8417 0.89594   4
   1   3   7 10.5315 1.08634   4
   1   3   7 9.30488 1.11042   2
  -1   3  -7 9.14841 0.89252   2
  -1   3  -7 9.51354 1.12580   2
   1   3   7 10.4359 0.90478   2
  -1   3  -7 9.62514 1.36925   2
   1   3   7 11.0000 1.09005   4
   1   3   7 11.2675 1.02066   4
  -1   3  -7 8.76304 1.24747   2
   2  -3   7 6.22830 0.97721   4
   2  -3   7 6.19508 0.66486   3
   2  -3   7 6.82441 1.04397   1
   2  -3   7 6.73744 0.95699   1
   2   3   7 8.98165 1.02287   1
   2   3   7 7.59831 0.64296   1
   2   3   7 8.16339 0.85724   1
   3  -3   7 0.00000 0.18090   1
   3  -3   7 -0.0381 0.17135   1
   3  -3   7 0.01004 0.12006   4
   3  -3   7 0.05712 0.19045   1
   3  -3   7 0.04756 0.09523   1
   3  -3   7 0.34279 0.30468   1
   3  -3   7 0.01004 0.19013   4
   3  -3   7 -0.0762 0.12378   1
   3  -3   7 0.03001 0.06003   4
   3   3   7 -0.1781 0.17811   2
   3   3   7 0.06564 0.07505   2
   3   3   7 0.02959 0.03948   4
   3   3   7 0.13128 0.06564   2
   3   3   7 -0.1032 0.19692   2
   3   3   7 -0.0187 0.06564   2
   3   3   7 0.19692 0.26247   2
   3   3   7 0.06564 0.13128   2
   4  -3   7 -0.0876 0.20442   2
   4  -3   7 -0.2920 0.29199   2
   4  -3   7 0.25304 0.27246   2
   4  -3   7 -0.0973 0.11676   2
   4  -3   7 0.61317 0.17513   2
   4   3   7 -0.0848 0.13194   1
   4   3   7 0.06597 0.18846   1
   4   3   7 -0.0283 0.09423   1
   5  -3   7 -0.0584 0.27246   3
   6  -3   7 0.44290 0.39991   1
   5  -4  -7 0.11307 0.35961   2
   5  -4  -7 1.69323 0.52245   1
   5   4  -7 0.08195 0.21504   2
   4  -4  -7 0.11418 0.09518   1
   4  -4  -7 0.07619 0.08564   1
   4  -4  -7 0.06664 0.13328   1
   4   4  -7 0.01826 0.03662   1
   4   4  -7 0.04570 0.05488   1
   4   4  -7 0.00000 0.08232   1
   4   4  -7 0.08232 0.15556   1
   4   4  -7 0.03662 0.07324   1
   4   4  -7 -0.0366 0.20126   1
   3  -4  -7 0.42833 0.56453   2
   3  -4  -7 -0.6911 0.80795   2
   3  -4  -7 0.65222 0.38938   2
   3  -4  -7 0.37113 0.65192   1
   3  -4  -7 1.02206 0.58406   2
   3  -4  -7 0.68141 0.33099   2
   3  -4  -7 0.55487 0.19469   2
   3   4  -7 0.78489 0.47652   2
   3   4  -7 0.47652 0.19627   2
   3   4  -7 0.42984 0.13085   2
   3   4  -7 0.35731 0.30773   1
   3   4  -7 1.41100 0.78489   2
   3   4  -7 0.79426 0.43922   2
   3   4  -7 0.77561 0.30837   2
   3   4  -7 -0.2149 0.50454   2
   2  -4  -7 1.72620 0.80820   2
   2  -4  -7 1.76614 0.25943   2
   2  -4  -7 0.90527 0.41698   1
   2  -4  -7 1.50671 0.55879   2
   2   4  -7 1.98311 0.47632   2
   2   4  -7 0.69288 0.25100   1
   2   4  -7 1.95395 0.71931   2
   2   4  -7 1.44837 0.20418   2
   2   4  -7 1.20539 0.44717   2
   2   4  -7 1.06926 0.16528   2
   1  -4  -7 0.47139 0.53154   1
   1  -4  -7 -0.0401 0.19053   1
   1  -4  -7 0.19426 0.38853   3
   1  -4  -7 0.30088 0.27080   1
   1  -4  -7 0.81230 0.40117   1
  -1  -4   7 0.03031 0.24255   1
  -1  -4   7 0.20769 0.31640   3
   1   4  -7 0.27682 0.32632   3
   1   4  -7 0.07075 0.06061   1
   1   4  -7 0.16166 0.43452   1
   1   4  -7 0.00000 0.15145   1
   1   4  -7 0.19197 0.16166   1
   1   4  -7 0.24717 0.09889   3
  -1   4   7 -0.0602 0.27080   1
   1   4  -7 0.02017 0.36377   1
  -1   4   7 0.08185 0.28627   3
   0  -4  -7 0.87797 0.44894   4
   0  -4  -7 0.29095 0.45733   2
   0  -4   7 1.65670 0.45910   3
   0  -4  -7 1.42668 0.24939   4
   0  -4   7 1.88625 0.49904   3
   0  -4  -7 1.31700 0.38910   4
   0  -4   7 3.34344 0.58884   3
   0  -4   7 1.17768 0.22955   3
   0   4   7 1.39676 0.22947   4
   0   4   7 1.16729 0.33926   4
   0   4  -7 2.31542 0.37921   3
   0   4   7 0.48850 0.40531   2
   0   4   7 2.27473 0.41902   4
  -1  -4  -7 5.11361 0.67256   4
   1  -4   7 3.78699 0.70055   2
   1  -4   7 5.99754 0.49061   1
   1  -4   7 4.41552 0.66085   1
  -1  -4  -7 5.15320 0.93964   4
   1  -4   7 5.27663 0.77092   1
   1  -4   7 4.46564 0.72091   1
  -1   4  -7 4.07122 0.47722   2
   1   4   7 4.71795 0.45499   4
  -1   4  -7 5.41684 0.95120   1
   1   4   7 4.48053 0.71215   4
   1   4   7 4.43113 0.68248   4
   1   4   7 3.63335 0.63634   2
  -1   4  -7 4.78602 0.68083   1
   1   4   7 4.49046 0.66274   4
   2  -4   7 6.28685 0.94640   1
   2  -4   7 3.78770 0.65788   3
   2   4   7 4.54624 0.73989   2
   2   4   7 4.65336 0.74955   2
   2   4   7 3.78859 0.63803   3
   2   4   7 3.60908 0.41872   3
   3  -4   7 0.89295 0.29094   4
   3  -4   7 0.45146 0.27092   4
   3  -4   7 1.00335 0.45864   1
   3  -4   7 0.82271 0.34116   4
   3  -4   7 0.94150 0.43230   3
   3  -4   7 0.70235 0.60201   4
   3  -4   7 1.13716 0.57337   1
   3  -4   7 0.94117 0.59075   4
   3   4   7 0.86659 0.51207   4
   3   4   7 0.67950 0.50219   4
   3   4   7 1.01777 0.22412   2
   3   4   7 1.02704 0.24276   2
   3   4   7 0.93554 0.21662   4
   3   4   7 0.81740 0.15755   4
   3   4   7 0.88625 0.18709   4
   3   4   7 0.88625 0.34464   4
   4  -4   7 4.94602 1.10668   2
   4  -4   7 5.50422 1.01856   2
   4  -4   7 5.32797 0.63660   2
   4   4   7 5.01929 0.55354   1
   4   4   7 5.98568 0.76933   1
   4   4   7 5.77930 0.64736   1
   4   4   7 5.06625 0.95698   1
   5  -4   7 0.13187 0.32979   1
   5  -5  -7 0.09281 0.45393   2
   5   5  -7 2.59522 1.02846   1
   4  -5  -7 2.86057 0.31467   1
   4  -5  -7 4.11926 0.69611   1
   4  -5  -7 3.46132 0.61978   1
   4  -5  -7 2.85690 0.92973   2
   4   5  -7 2.91508 0.47221   1
   4   5  -7 3.04224 0.52668   1
   4   5  -7 4.80393 0.91719   1
   3  -5  -7 5.44688 1.25928   2
   3  -5  -7 1.95232 0.44904   2
   3  -5  -7 2.88935 0.35141   2
   3  -5  -7 2.94801 0.72231   2
   3  -5  -7 3.16273 0.61500   2
   3  -5  -7 2.80153 0.24400   2
   3  -5  -7 2.91873 0.24400   2
   3   5  -7 2.77520 0.77040   2
   3   5  -7 2.37608 0.42695   2
   3   5  -7 2.35746 0.28777   2
   3   5  -7 0.84460 0.54761   2
   3   5  -7 1.75418 0.82607   2
   3   5  -7 1.61499 0.36197   2
   3   5  -7 2.74726 0.65896   2
   2  -5  -7 21.7849 2.50709   2
   2  -5  -7 19.2578 1.96776   2
   2  -5  -7 18.3579 2.04888   1
   2  -5  -7 20.1269 1.69804   2
   2   5  -7 18.7267 2.02791   4
   2   5  -7 19.2071 1.62155   2
   2   5  -7 20.1048 1.87249   2
   2   5  -7 20.4426 2.26817   2
  -1  -5   7 1.02931 0.19796   3
   0  -5   7 4.74836 0.73970   3
   0  -5   7 5.59806 0.74973   3
   0  -5  -7 4.52658 0.64807   4
   0  -5   7 3.83414 0.82375   2
   0  -5  -7 4.80581 0.87739   4
   0  -5  -7 4.37121 0.44838   4
   0  -5   7 4.09855 0.45763   2
   0  -5   7 4.30197 0.44753   2
   0  -5  -7 4.89552 0.76768   4
   0   5   7 4.26231 0.70689   2
   0   5  -7 5.18815 0.78974   3
   0   5  -7 5.37806 0.84970   3
   0   5   7 4.23113 0.68614   2
   0   5   7 3.97117 0.43661   2
   0   5  -7 5.89797 0.83967   3
   0   5   7 4.07513 0.66528   2
   0   5  -7 4.41847 0.67974   3
   0   5  -7 4.07815 0.44753   2
   1  -5   7 0.78718 0.31883   1
  -1  -5  -7 0.23713 0.28647   4
   1  -5   7 -0.0798 0.20929   1
  -1  -5  -7 -0.1284 0.22722   4
   1  -5   7 -0.1793 0.23917   1
   1  -5   7 -0.1494 0.29894   1
   1   5   7 0.14814 0.21731   4
   1   5   7 0.36555 0.25685   4
   1   5   7 0.16796 0.19759   4
  -1   5  -7 0.30894 0.26906   1
   1   5   7 0.19759 0.07908   4
   1   5   7 0.08191 0.19440   1
   1   5   7 0.11260 0.22508   1
   2  -5   7 7.84873 0.98474   1
   2  -5   7 6.71923 0.95578   1
   2  -5   7 8.18670 1.15846   1
   2   5   7 7.12684 0.87381   2
   2   5   7 7.81619 0.94179   2
   2   5   7 7.07824 0.66023   2
   2   5   7 6.73844 0.85443   2
   3  -5   7 0.20152 0.10557   1
   3  -5   7 0.14387 0.26859   1
   3  -5   7 -0.2207 0.22067   1
   3  -5   7 0.23982 0.27822   1
   3  -5   7 0.21104 0.28784   1
   3  -5   7 0.21104 0.35502   1
   3  -5   7 -0.1919 0.43171   1
   3  -5   7 -0.0959 0.14387   1
   3  -5   7 0.18227 0.15350   1
   3   5   7 -0.2320 0.25059   2
   3   5   7 0.00986 0.06885   4
   3   5   7 0.01963 0.10820   4
   3   5   7 -0.2506 0.25059   2
   3   5   7 -0.0835 0.19492   2
   3   5   7 0.17630 0.12064   2
   3   5   7 0.10212 0.12064   2
   3   5   7 0.21344 0.15778   2
   3   5   7 0.65886 0.36192   2
   4  -5   7 0.20707 0.23664   2
   4  -5   7 -0.3450 0.34502   2
   4  -5   7 -0.1183 0.17740   2
   4  -5   7 -0.0395 0.37459   2
   4  -5   7 0.09018 0.20047   1
   4   5   7 0.02950 0.36399   4
   4   5   7 -0.0467 0.15890   1
   4   5   7 0.03937 0.11800   4
   4   5   7 0.25236 0.23361   1
   5  -5   7 0.04877 0.17569   3
   5   5   7 0.02115 0.14838   2
   5  -6  -7 0.72515 0.41437   2
   5   6  -7 0.22865 0.27026   2
   4  -6  -7 0.41051 0.42008   1
   4  -6  -7 0.60145 0.15273   1
   4  -6  -7 1.13605 0.72555   1
   4  -6  -7 0.72555 0.47735   1
   4   6  -7 0.33351 0.43259   1
   4   6  -7 1.14463 0.83825   1
   3  -6  -7 1.48705 1.08590   2
   3  -6  -7 0.81202 0.18586   2
   3  -6  -7 1.00759 0.18586   2
   3  -6  -7 0.72390 0.38153   2
   3  -6  -7 1.07609 0.27388   2
   3  -6  -7 1.27176 0.35219   2
   3  -6  -7 0.69456 0.41087   2
   3  -6  -7 0.81202 0.57720   2
   3  -6  -7 1.21307 0.67503   2
   3   6  -7 0.97727 0.69143   2
   3   6  -7 1.72400 0.31349   2
   2  -6  -7 0.11987 0.10995   2
   2  -6  -7 -0.1199 0.49961   2
   2  -6  -7 0.38967 0.29977   2
   2  -6  -7 -0.0800 0.29977   2
   2   6  -7 -0.0766 0.07663   2
   2   6  -7 0.16276 0.29680   2
   2   6  -7 0.23928 0.26799   2
   2   6  -7 0.09573 0.38293   2
   1  -6  -7 4.85961 0.76310   2
  -1  -6   7 2.65946 0.55613   1
   1  -6  -7 3.54429 0.64255   2
  -1  -6   7 1.48644 0.60675   1
   1  -6  -7 3.71500 0.69281   2
   1  -6  -7 3.93587 0.71285   2
   1  -6  -7 3.85560 0.42168   2
   1   6  -7 2.68979 0.65726   1
   1   6  -7 4.87802 0.76338   3
  -1   6   7 2.35081 0.58776   1
   1   6  -7 5.21506 0.88242   3
  -1   6   7 3.24306 0.55221   2
   1   6  -7 3.28175 0.36687   3
   0  -6  -7 0.81736 0.17937   4
   0  -6  -7 0.94694 0.46852   4
   0  -6   7 0.64958 0.55825   1
   0  -6   7 0.60906 0.40604   1
   0  -6  -7 0.65495 0.45745   1
   0  -6   7 -0.1002 0.36067   3
   0   6   7 0.56131 0.14557   1
   0   6   7 0.78747 0.32894   4
   0   6  -7 1.83339 0.56105   3
   0   6  -7 1.90353 0.56105   3
   0   6  -7 0.67129 0.33062   3
   0   6   7 0.83726 0.32894   4
   0   6   7 0.60291 0.37424   1
  -1  -6  -7 8.52007 1.13537   4
   1  -6   7 7.97010 0.82385   1
   1  -6   7 4.91929 0.99812   3
   1  -6   7 7.00728 1.00834   3
   1  -6   7 7.23565 0.69482   1
   1  -6   7 6.96651 0.96757   3
  -1   6  -7 5.71370 1.12030   3
   1   6   7 5.80613 0.88771   1
   1   6   7 8.84587 0.87869   4
  -1   6  -7 7.47390 0.98265   1
   1   6   7 7.16753 0.85888   4
   1   6   7 7.18723 0.66152   4
   1   6   7 7.02046 0.86735   1
   2  -6   7 5.65918 0.97537   1
   2  -6   7 6.71176 0.99465   1
   2  -6   7 5.10871 0.59805   3
   2  -6   7 6.45109 0.86911   1
   2   6   7 6.02237 0.75158   2
   2   6   7 5.80075 0.87684   2
   2   6   7 5.77185 0.81904   2
   2   6   7 5.31893 0.53962   2
   3  -6   7 4.00913 0.50113   1
   3  -6   7 4.13441 0.82884   1
   3  -6   7 3.36636 0.59466   4
   3  -6   7 2.52977 1.01795   4
   3  -6   7 3.58223 0.42024   3
   3  -6   7 2.89261 0.58455   4
   3  -6   7 4.33673 0.82884   1
   3  -6   7 3.57555 0.69359   4
   3  -6   7 3.87418 0.76136   1
   3   6   7 3.41808 0.42236   4
   3   6   7 3.61484 0.82989   2
   3   6   7 3.56224 0.36190   4
   3   6   7 3.36892 0.56965   4
   3   6   7 4.44483 0.71927   2
   3   6   7 3.42783 0.45182   4
   3   6   7 3.98373 0.67321   2
   3   6   7 3.54313 0.45715   4
   4  -6   7 2.51996 0.62506   3
   4  -6   7 1.94288 0.43289   1
   4  -6   7 1.63076 0.90596   1
   4  -6   7 2.19451 0.52346   1
   4   6   7 2.06336 0.63864   3
   4   6   7 2.20375 0.32300   3
   4   6   7 0.90395 0.95303   3
   4   6   7 2.29750 0.38133   1
   4   6   7 2.32549 0.60460   1
   5  -6   7 0.31279 0.13688   3
   5  -6   7 0.27367 0.19552   3
   5   6   7 0.12356 0.20908   4
   6  -7  -7 0.04618 0.41578   1
   5  -7  -7 0.47405 0.23222   1
   5  -7  -7 -0.1645 0.16449   1
   5   7  -7 0.17378 0.27036   1
   5   7  -7 -0.1159 0.13523   1
   4  -7  -7 1.89333 0.51086   2
   4  -7  -7 -0.2770 0.71636   1
   4  -7  -7 2.39741 0.58261   1
   4  -7  -7 1.63287 0.29050   2
   4   7  -7 3.71339 0.85006   1
   4   7  -7 1.70580 0.39443   3
   3  -7  -7 9.18957 0.78827   3
   3  -7  -7 8.40880 1.54715   1
   3  -7  -7 9.21939 1.10707   2
   3  -7  -7 8.08733 0.91420   1
   3  -7  -7 8.04712 0.89415   1
   3  -7  -7 9.18953 1.12364   1
   3  -7  -7 9.36641 1.44022   2
   3  -7  -7 9.27816 1.05813   2
   3  -7  -7 8.19778 1.53707   1
   3  -7  -7 9.47412 1.88108   2
   3   7  -7 12.0908 1.36476   2
   2  -7  -7 9.21696 1.65763   2
   2  -7  -7 7.01003 1.14839   2
   2  -7  -7 5.52198 1.01051   1
   2  -7  -7 6.74049 0.69905   2
   2   7  -7 6.81071 1.05291   2
   2   7  -7 7.12375 0.63559   2
   2   7  -7 6.54516 0.93911   2
   2   7  -7 6.68740 1.20467   2
   1  -7  -7 19.0018 2.06891   2
   1  -7  -7 18.6750 2.10963   3
   1  -7  -7 19.1525 1.95840   2
   1  -7  -7 21.0707 1.75752   2
   1  -7  -7 18.4119 2.06761   1
  -1  -7   7 15.2122 2.10099   1
   1   7  -7 24.9246 2.21459   2
   1   7  -7 23.5405 1.72032   2
   0  -7   7 1.56370 0.64980   1
   0  -7  -7 3.92730 0.78746   4
   0  -7  -7 3.10601 0.39470   1
   0  -7  -7 3.00213 0.62331   1
   0  -7   7 2.49786 0.61935   1
   0  -7   7 2.42677 0.60927   1
   0  -7  -7 4.23624 0.72767   4
   0  -7   7 2.86340 0.37572   1
   0   7  -7 3.63500 0.38154   3
   0   7   7 3.03328 0.58173   1
   0   7   7 2.76320 0.58173   1
   0   7  -7 3.09694 0.76153   1
   0   7  -7 4.10699 0.82341   3
   0   7  -7 2.67050 0.50772   1
   0   7   7 2.71121 0.51942   1
   0   7   7 2.79436 0.34281   1
   1  -7   7 2.92575 0.74422   4
   1  -7   7 2.49760 0.37722   4
   1  -7   7 1.23351 0.61170   4
   1  -7   7 2.35485 0.65239   4
  -1  -7  -7 2.01290 0.70149   1
   1  -7   7 2.83402 0.47917   4
   1   7   7 2.34841 0.49815   1
   1   7   7 3.10079 0.53884   1
  -1   7  -7 1.61074 0.51987   4
   1   7   7 3.56328 0.56266   2
   1   7   7 2.92794 0.34570   1
   2  -7   7 7.30748 1.11160   1
   2  -7   7 6.88213 0.65726   1
   2  -7   7 7.19142 1.18887   1
   2  -7   7 7.91646 0.93756   1
   2   7   7 5.99246 0.84373   3
   2   7   7 5.99287 0.96631   3
   2   7   7 6.18901 0.61122   2
   2   7   7 6.95303 0.99328   2
   3  -7   7 10.3619 1.14273   1
   3  -7   7 9.62439 0.95941   4
   3  -7   7 12.3665 1.28794   1
   3  -7   7 9.52339 1.18156   4
   3  -7   7 9.99654 1.66937   3
   3  -7   7 10.7493 1.33642   1
   3  -7   7 9.52339 1.08056   4
   3  -7   7 10.4491 1.29766   1
   3   7   7 10.2906 1.13626   2
   3   7   7 9.99904 0.99801   3
   3   7   7 10.3181 1.28287   2
   3   7   7 9.80337 1.40326   4
   3   7   7 9.98496 0.94193   4
   3   7   7 9.99214 1.00109   4
   3   7   7 9.99241 1.04207   4
   3   7   7 10.1348 0.84305   2
   4  -7   7 -0.5464 0.55637   3
   4  -7   7 0.39506 0.28359   1
   4  -7   7 0.33429 0.50652   1
   4  -7   7 0.51658 1.02310   1
   4   7   7 0.54972 0.53987   3
   4   7   7 0.03929 0.95213   3
   4   7   7 0.61845 0.18649   3
   4   7   7 0.58901 0.20618   3
   5  -7   7 -0.1467 0.20553   3
   5   7   7 0.15153 0.16103   4
   5  -8  -7 0.31359 0.34494   2
   5  -8  -7 0.38633 0.39592   4
   5   8  -7 1.78271 0.54257   1
   5   8  -7 0.93975 0.22284   1
   4  -8  -7 1.09850 0.57316   1
   4   8  -7 2.37385 1.11139   1
   3  -8  -7 4.99058 0.59805   2
   3  -8  -7 4.89252 1.54918   2
   3  -8  -7 4.84355 1.07848   2
   3  -8  -7 3.64926 0.70821   1
   3  -8  -7 3.64737 0.45593   1
   3  -8  -7 5.04939 0.79416   2
   3  -8  -7 5.92203 1.12756   2
   3  -8  -7 3.71599 0.78443   2
   3  -8  -7 5.04939 0.54908   2
   3   8  -7 3.64945 0.50605   3
   3   8  -7 2.82306 0.96732   1
   3   8  -7 3.54355 0.52317   1
   2  -8  -7 4.52621 0.71782   2
   2  -8  -7 3.07068 0.59822   2
   2  -8  -7 5.35374 1.06673   2
   2  -8  -7 3.18028 0.37881   2
   1  -8  -7 1.27507 0.25096   2
   1  -8  -7 2.28910 0.63255   2
   1  -8  -7 1.14455 0.44181   2
   1  -8  -7 1.79714 0.53214   2
   1   8  -7 0.34364 0.55579   1
   0  -8   7 -0.0997 0.42852   2
   0  -8  -7 0.15546 0.40429   1
   0  -8   7 0.62784 0.38864   2
   0  -8   7 0.23363 0.40633   1
   0  -8  -7 0.36280 0.18655   1
   0  -8  -7 0.29022 0.42498   1
   0  -8  -7 0.13476 0.43538   1
   0  -8   7 0.40633 0.16251   1
   0   8  -7 0.17270 0.16251   1
   0   8   7 0.41469 0.36280   1
   0   8   7 0.56829 0.30910   4
   0   8  -7 0.45006 0.49010   4
   0   8  -7 0.28437 0.26409   1
   0   8   7 0.47849 0.29910   4
   0   8   7 0.47849 0.12960   4
   0   8  -7 0.58795 0.48829   2
   1  -8   7 16.1978 1.92781   4
   1  -8   7 20.3654 1.89534   1
   1  -8   7 20.1580 1.58937   1
  -1   8  -7 16.5753 1.89722   4
   1   8   7 18.9573 1.60839   1
   1   8   7 20.7509 1.85246   2
   1   8   7 18.1986 1.80068   1
   1   8   7 17.0959 1.81073   1
   2  -8   7 3.55199 0.49356   1
   2  -8   7 2.58275 0.66094   3
   2  -8   7 2.75564 0.83382   3
   2  -8   7 3.91002 0.84198   1
   2   8   7 3.38602 0.63374   2
   2   8   7 4.35066 0.71883   2
   2   8   7 4.37903 0.43508   2
   2   8   7 4.74788 0.71883   2
   3  -8   7 3.10398 0.54367   4
   3  -8   7 3.35790 1.15829   1
   3  -8   7 4.00031 0.67160   1
   3  -8   7 3.10503 0.42659   2
   3  -8   7 3.29952 0.79813   1
   3  -8   7 3.79597 0.55484   1
   3  -8   7 3.72782 0.87594   1
   3  -8   7 3.75701 0.73975   1
   3   8   7 3.57043 0.74689   2
   3   8   7 3.32448 0.54653   2
   3   8   7 2.28508 0.84344   3
   3   8   7 3.13326 0.36435   2
   3   8   7 3.16972 0.38253   2
   3   8   7 3.36094 0.61030   2
   3   8   7 3.10752 0.44120   4
   3   8   7 3.22435 0.40985   2
   4  -8   7 0.02982 0.09944   3
   4  -8   7 -0.1094 0.10942   3
   4  -8   7 -0.0100 0.04967   3
   4   8   7 0.03690 0.07381   1
   4   8   7 -0.0092 0.04606   1
   4   8   7 0.01840 0.03690   1
   5  -8   7 0.37205 0.32314   3
   5   8   7 0.17926 0.30193   4
   5   8   7 0.23586 0.14150   4
   5  -9  -7 0.21006 0.33606   2
   4  -9  -7 -0.0286 0.12414   1
   4  -9  -7 0.05743 0.28723   1
   4  -9  -7 -0.0382 0.17184   1
   4  -9  -7 0.89764 0.40107   1
   4   9  -7 -0.3274 0.53971   1
   4   9  -7 0.35395 0.27434   1
   4   9  -7 0.06195 0.15044   1
   3  -9  -7 5.80111 1.04848   1
   3  -9  -7 5.83050 0.83293   1
   3  -9  -7 4.99073 0.59366   4
   3  -9  -7 5.73250 1.23465   1
   3  -9  -7 6.90837 0.92110   1
   3  -9  -7 4.62850 0.67421   4
   3  -9  -7 3.36073 0.98608   4
   3  -9  -7 5.30271 0.67421   4
   3  -9  -7 5.34298 1.74072   4
   3   9  -7 5.89904 0.61616   2
   3   9  -7 5.52841 1.23404   3
   3   9  -7 6.94113 0.66152   2
   2  -9  -7 0.46734 0.18889   2
   2  -9  -7 0.89478 0.56677   2
   2  -9  -7 0.31472 0.97451   1
   2  -9  -7 0.76553 0.61643   2
   2   9  -7 0.36968 0.50947   1
   2   9  -7 1.70232 0.51161   2
   2   9  -7 1.18138 0.62330   2
   1  -9  -7 8.46044 1.28311   2
   1  -9  -7 8.02938 1.04250   2
   1  -9  -7 9.54306 0.82199   2
   1   9  -7 6.97400 0.74476   2
   1   9  -7 8.93758 1.25743   2
   1   9  -7 7.00311 1.18971   2
   1   9  -7 6.87737 1.13169   2
   0  -9  -7 2.85905 0.73715   2
   0  -9   7 0.91436 0.53851   1
   0  -9  -7 2.66980 0.81689   2
   0  -9  -7 1.83808 0.55755   1
   0  -9  -7 2.23142 0.36862   2
   0  -9   7 0.76200 0.59945   1
   0  -9   7 2.82336 0.36529   2
   0   9  -7 4.88654 0.92792   2
   0   9   7 3.01843 0.63752   2
   0   9  -7 1.22937 0.42671   1
   0   9  -7 2.43827 0.71077   2
   0   9   7 2.35104 0.56788   2
   0   9   7 2.24142 0.30887   2
   0   9  -7 3.51432 0.37509   2
   1  -9   7 2.91807 0.90808   4
   1  -9   7 5.11167 0.90808   4
   1  -9   7 5.44837 0.58161   4
   1   9   7 6.34396 0.80404   2
   2  -9   7 2.06441 0.38770   1
   2  -9   7 2.62651 0.73662   1
   2  -9   7 1.43444 0.44584   1
   2  -9   7 0.53956 0.71264   3
   2   9   7 1.07650 0.21530   2
   2   9   7 0.76312 0.19569   1
   2   9   7 0.90795 0.43060   2
   2   9   7 1.29180 0.23398   2
   2   9   7 1.11396 0.43060   2
   2   9   7 1.02035 0.39313   2
   2   9   7 1.00157 0.24337   2
   3  -9   7 11.5276 1.26402   3
   3  -9   7 11.5217 1.95984   4
   3  -9   7 11.7006 1.29141   1
   3  -9   7 11.3386 1.12473   4
   3  -9   7 12.9040 1.55548   1
   3  -9   7 12.4833 1.50661   1
   3  -9   7 11.5072 1.37373   4
   3   9   7 11.6769 1.18672   2
   3   9   7 11.5329 1.12788   4
   3   9   7 11.5237 1.14770   3
   3   9   7 11.7675 1.48567   2
   3   9   7 11.5183 0.99758   3
   3   9   7 11.5332 1.34997   4
   3   9   7 11.4537 1.14536   3
   3   9   7 12.1208 1.05088   2
   3   9   7 13.0810 1.44942   2
   4  -9   7 0.52736 0.58704   3
   4  -9   7 0.40789 0.44771   3
   4  -9   7 0.45769 0.34821   3
   4   9   7 0.38614 0.22069   1
   4   9   7 0.00000 0.15632   1
   4   9   7 0.48731 0.22982   1
   4   9   7 0.18625 0.49994   3
   5  -9   7 0.76408 0.41142   3
   5   9   7 0.99634 0.54512   4
   5  10  -7 0.24260 0.16501   4
   4 -10  -7 1.09680 0.28169   2
   4 -10  -7 1.52755 0.42960   1
   4 -10  -7 2.01442 0.76383   1
   4 -10  -7 1.89989 0.59193   1
   4  10  -7 0.71996 0.13810   3
   4  10  -7 0.50292 0.37472   3
   4  10  -7 0.71996 0.35503   3
   3 -10  -7 3.09225 1.59149   4
   3 -10  -7 4.11836 1.07092   1
   3 -10  -7 3.73867 0.89573   1
   3 -10  -7 2.59870 0.39282   4
   3 -10  -7 3.34362 0.51205   4
   3 -10  -7 3.15267 0.54387   4
   3 -10  -7 2.71954 0.92669   4
   3 -10  -7 3.39784 0.52569   1
   3  10  -7 2.00497 0.34565   3
   3  10  -7 2.07412 0.30623   3
   3  10  -7 2.94326 1.07659   3
   3  10  -7 2.27167 0.42471   3
   3  10  -7 2.66665 0.51358   3
   2 -10  -7 1.16225 0.83887   1
   2 -10  -7 2.08983 0.48533   2
   2 -10  -7 2.34745 0.35657   2
   2 -10  -7 2.28794 0.39621   2
   2 -10  -7 1.53622 0.41431   1
   2 -10  -7 1.50580 1.24304   1
   2 -10  -7 1.54625 0.69735   1
   2 -10  -7 2.49598 0.84189   2
   2  10  -7 1.59567 0.36903   1
   2  10  -7 2.06397 0.32247   2
   2  10  -7 1.88487 0.33912   1
   2  10  -7 2.15612 0.35011   2
   2  10  -7 1.45601 0.80779   1
   2  10  -7 1.73532 0.69815   1
   1 -10  -7 5.56647 0.83943   2
   1 -10  -7 5.30664 0.58963   2
   1 -10  -7 6.53581 1.04934   2
   1  10  -7 4.11943 0.88774   2
   1  10  -7 4.93245 0.88904   2
   1  10  -7 4.37805 0.52573   2
   0 -10   7 -0.0586 0.54725   2
   0 -10  -7 1.13182 0.24817   2
   0 -10  -7 1.05245 0.45671   2
   0  10  -7 0.08132 0.15235   1
   0  10   7 1.58853 0.39716   2
   0  10   7 0.14367 0.12309   1
   0  10  -7 0.47883 0.53745   2
   1 -10   7 5.24314 0.60762   2
   1 -10   7 5.34115 1.00938   2
   1  10   7 4.91230 0.73784   2
   1  10   7 4.73683 0.78462   3
   1  10   7 5.66953 0.54367   2
   2 -10   7 8.72380 1.31969   1
   2 -10   7 9.12171 0.80546   1
   2 -10   7 7.48311 0.91095   4
   2 -10   7 7.45924 1.35901   3
   2 -10   7 5.76689 0.89661   3
   2 -10   7 6.67372 1.04940   3
   2  10   7 8.04950 1.00970   2
   2  10   7 7.46619 0.72067   4
   2  10   7 7.48066 0.76652   1
   2  10   7 7.81796 1.07455   2
   2  10   7 7.59561 0.71321   2
   2  10   7 7.53076 0.79664   2
   2  10   7 7.47868 0.96309   4
   3 -10   7 4.67883 1.08122   2
   3 -10   7 2.81051 1.09581   4
   3 -10   7 4.46357 0.56553   3
   3 -10   7 4.46196 0.76550   4
   3 -10   7 4.61987 0.75683   2
   3 -10   7 5.61265 1.00264   2
   3 -10   7 4.38324 0.72036   4
   3  10   7 3.86189 0.74495   3
   3  10   7 4.88061 0.59434   1
   3  10   7 4.99767 0.46824   1
   3  10   7 4.45941 0.90667   3
   3  10   7 5.52002 0.93649   1
   3  10   7 4.46078 0.53334   3
   3  10   7 4.61045 0.51332   1
   3  10   7 4.84457 0.54032   1
   3  10   7 4.42127 0.74001   3
   4 -10   7 0.98762 0.72776   1
   4 -10   7 1.92084 0.40801   3
   4 -10   7 1.85116 0.54737   3
   4  10   7 1.56794 0.27435   3
   4  10   7 1.96573 0.33068   1
   4  10   7 2.15857 0.41332   1
   4  10   7 1.65531 0.62193   2
   5 -10   7 0.01179 0.23509   1
   5  10   7 -0.0655 0.27144   4
   5 -11  -7 1.52221 0.47872   3
   4 -11  -7 3.50449 0.66847   1
   4 -11  -7 2.40807 0.43327   2
   4 -11  -7 2.95058 0.90716   1
   4  11  -7 2.69098 0.29572   3
   4  11  -7 2.67947 0.49717   3
   4  11  -7 2.71481 0.45983   1
   3 -11  -7 2.84306 0.96788   4
   3 -11  -7 1.18965 1.70377   4
   3 -11  -7 3.35718 0.56459   4
   3 -11  -7 3.34707 0.57470   4
   3 -11  -7 3.01447 0.47388   4
   3 -11  -7 4.27930 1.03356   1
   3 -11  -7 3.29671 0.97789   4
   3 -11  -7 2.88341 0.63517   4
   3 -11  -7 2.84306 1.03836   4
   3  11  -7 3.63724 1.20260   3
   3  11  -7 3.12282 0.57315   3
   3  11  -7 3.65394 0.38323   1
   3  11  -7 3.63896 0.40642   4
   3  11  -7 3.47859 0.54352   3
   2 -11  -7 14.3024 1.49831   2
   2 -11  -7 13.7198 2.37243   1
   2 -11  -7 14.2924 1.80887   3
   2 -11  -7 17.8904 2.54309   2
   2 -11  -7 12.1449 1.66581   1
   2 -11  -7 15.1896 1.38985   2
   2 -11  -7 14.1640 1.80707   1
   2  11  -7 16.6896 1.68993   2
   2  11  -7 15.0271 1.30628   2
   2  11  -7 14.2497 1.85198   1
   2  11  -7 17.4204 1.56211   2
   2  11  -7 14.3023 1.44502   4
   2  11  -7 14.6434 1.26972   2
   1 -11  -7 3.02845 0.91351   2
   1 -11  -7 2.83493 0.41805   1
   1 -11  -7 2.80435 0.66283   1
   1  11  -7 1.85422 0.66511   1
   1  11  -7 2.61000 0.40311   1
   1  11  -7 2.98553 0.76526   2
   0  11  -7 22.9589 1.81819   2
   0  11  -7 23.8679 2.22435   2
   0  11   7 18.5310 1.87042   1
   0  11   7 22.3838 2.15309   4
   1 -11   7 8.33211 0.84730   4
   1 -11   7 10.4574 1.41187   2
   1 -11   7 8.64625 1.33393   2
   1  11   7 7.89215 1.00771   1
   1  11   7 8.33261 1.08975   1
   1  11   7 8.33738 0.80682   3
   2 -11   7 0.17334 0.30588   4
   2 -11   7 0.44673 0.65071   1
   2 -11   7 0.22809 0.18840   4
   2 -11   7 0.53410 0.32048   1
   2 -11   7 0.07138 0.59130   4
   2 -11   7 0.23311 0.37873   1
   2  11   7 0.40348 0.13750   2
   2  11   7 -0.0550 0.39428   2
   2  11   7 0.27509 0.33929   2
   2  11   7 0.52268 0.19259   2
   2  11   7 0.40348 0.34839   2
   2  11   7 0.33009 0.14669   2
   2  11   7 0.49508 0.14669   2
   3 -11   7 2.39729 0.57905   4
   3 -11   7 3.36403 1.30223   2
   3 -11   7 2.47849 0.68063   4
   3 -11   7 2.66139 0.57905   4
   3 -11   7 3.69938 0.77936   2
   3 -11   7 3.03847 0.45380   2
   3 -11   7 2.53953 1.07678   4
   3  11   7 2.73471 0.40182   3
   3  11   7 2.20537 0.43132   3
   3  11   7 3.70153 0.56194   1
   3  11   7 2.65625 0.44105   3
   3  11   7 3.97807 0.68675   1
   3  11   7 3.45182 0.88304   1
   3  11   7 3.05038 0.36565   1
   3  11   7 2.23476 0.78418   3
   3  11   7 3.11283 0.38355   1
   4 -11   7 0.02985 0.08954   3
   4 -11   7 -0.0895 0.08954   3
   4  11   7 0.05520 0.03683   1
   4  11   7 -0.0276 0.03683   1
   4  11   7 -0.0184 0.04597   1
   4  11   7 -0.0828 0.11040   1
   5 -11   7 0.30994 0.61989   1
   5 -11   7 1.45952 0.38203   3
   5  11   7 0.88542 0.23297   4
   5  11   7 0.50621 0.44729   1
   5 -12  -7 0.05721 0.14303   3
   5  12  -7 0.00000 0.10940   1
   4 -12  -7 -0.0669 0.15296   1
   4 -12  -7 0.00000 0.35378   1
   4 -12  -7 0.04038 0.17154   2
   4  12  -7 0.79271 0.40971   1
   4  12  -7 -0.0534 0.16027   1
   4  12  -7 -0.0445 0.15143   1
   4  12  -7 -0.0178 0.05342   1
   3 -12  -7 1.56998 0.88072   1
   3 -12  -7 0.39349 0.23206   4
   3 -12  -7 -0.3063 0.52649   1
   3 -12  -7 0.77539 0.77539   1
   3 -12  -7 0.22194 0.38336   4
   3 -12  -7 1.01477 0.74667   1
   3 -12  -7 0.61263 0.30631   1
   3 -12  -7 0.53610 0.32552   1
   3  12  -7 0.63308 0.28135   1
   3  12  -7 0.01974 0.15822   3
   3  12  -7 0.61553 0.79131   1
   3  12  -7 0.59789 0.28135   1
   3  12  -7 0.59789 0.35173   1
   2 -12  -7 0.64586 0.69638   1
   2 -12  -7 0.75465 0.73508   2
   2 -12  -7 0.40372 0.23213   1
   2 -12  -7 0.57531 0.30279   1
   2 -12  -7 1.38198 0.91156   2
   2 -12  -7 0.56518 0.42386   1
   2 -12  -7 0.13120 0.40372   1
   2 -12  -7 -0.7743 1.19578   2
   2  12  -7 0.37784 0.15910   1
   2  12  -7 0.56686 0.64636   1
   2  12  -7 0.78897 0.22669   2
   2  12  -7 0.87967 0.30839   2
   2  12  -7 0.56686 0.21874   1
   2  12  -7 0.48726 0.21874   1
   2  12  -7 1.82293 0.67108   2
   2  12  -7 0.54691 0.31819   1
   2  12  -7 0.01985 0.64636   1
   1  12  -7 3.50425 0.44852   2
   1  12  -7 2.56044 0.66345   2
   0  12  -7 2.97371 0.44662   1
   0  12  -7 3.11380 0.86213   3
   1 -12   7 0.09675 0.22252   2
   1 -12   7 0.21282 0.29026   2
   1  12   7 0.14168 0.06615   2
   1  12   7 0.34962 0.14168   2
   1  12   7 0.39681 0.17002   2
   2 -12   7 1.86467 0.83526   1
   2 -12   7 1.20357 0.35696   4
   2 -12   7 0.88733 0.41814   4
   2 -12   7 0.26519 0.75474   4
   2 -12   7 1.77728 0.55363   1
   2  12   7 2.15279 0.35424   2
   2  12   7 1.83481 0.51779   2
   2  12   7 2.04373 0.57227   2
   2  12   7 2.02560 0.37237   2
   2  12   7 1.29889 0.27252   2
   2  12   7 2.37073 0.29976   2
   2  12   7 2.01649 0.29976   2
   2  12   7 1.26349 0.58534   4
   3 -12   7 0.47548 0.69351   2
   3 -12   7 -0.6539 0.82229   2
   3 -12   7 -0.7232 0.72322   2
   3 -12   7 0.20336 0.34574   4
   3 -12   7 0.19316 0.38633   4
   3 -12   7 0.34670 0.47548   2
   3  12   7 0.27391 0.22083   1
   3  12   7 0.13728 0.66661   3
   3  12   7 -0.1325 0.33567   1
   3  12   7 0.19608 0.17641   3
   3  12   7 0.03924 0.20591   3
   3  12   7 0.22548 0.15684   3
   3  12   7 0.03924 0.34309   3
   4 -12   7 5.13331 0.68644   3
   4 -12   7 5.26264 0.96495   3
   4  12   7 4.58100 0.91620   2
   4  12   7 4.87930 0.65733   1
   4  12   7 5.25886 0.58332   1
   4  12   7 4.70341 0.50921   1
   5 -12   7 -0.1175 0.16647   3
   5 -12   7 0.43085 0.22520   3
   5  12   7 0.15774 0.12061   4
   5  12   7 0.10209 0.20409   4
   5 -13  -7 0.11396 0.15198   3
   5  13  -7 -0.0193 0.14503   4
   4 -13  -7 6.77179 0.79848   2
   4 -13  -7 7.92428 1.05995   3
   4 -13  -7 5.64990 1.35436   2
   4 -13  -7 9.77595 1.63574   1
   4  13  -7 7.92755 0.82330   4
   4  13  -7 7.20294 0.68177   2
   4  13  -7 7.64755 0.84976   2
   3 -13  -7 0.13125 0.61584   4
   3 -13  -7 1.40307 0.96698   1
   3 -13  -7 1.07120 0.81531   1
   3 -13  -7 0.56541 0.39375   4
   3 -13  -7 0.04041 0.39375   4
   3 -13  -7 1.05228 0.41717   1
   3  13  -7 0.50468 0.31666   3
   3  13  -7 0.49485 0.35627   3
   3  13  -7 0.04943 0.45524   3
   3  13  -7 -0.1651 0.82560   1
   2 -13  -7 1.44361 0.72687   4
   2 -13  -7 3.10682 1.19790   1
   2 -13  -7 2.41280 0.52495   4
   2 -13  -7 2.29169 0.42399   4
   2 -13  -7 2.58094 0.76943   1
   2 -13  -7 2.27143 0.44424   4
   2 -13  -7 1.14073 1.62538   4
   2 -13  -7 2.36226 0.59563   4
   2  13  -7 2.48754 0.43723   3
   2  13  -7 2.05915 0.82568   3
   2  13  -7 2.27797 0.39792   3
   2  13  -7 1.85021 0.85551   3
   2  13  -7 2.44709 0.47744   3
   2  13  -7 2.15863 0.38794   3
   1 -13  -7 1.51638 0.35218   1
   1 -13  -7 1.89862 0.36996   2
   1 -13  -7 2.06416 0.83739   2
   1  13  -7 1.51698 0.44207   1
   1  13  -7 1.73058 0.34244   2
   1  13  -7 1.88792 0.74958   2
   0  13  -7 1.51082 0.64892   1
   1 -13   7 0.46161 0.67327   2
   1 -13   7 -0.0577 0.59629   2
   1 -13   7 0.23453 0.21418   3
   1  13   7 0.27714 0.16831   4
   1  13   7 0.72739 0.27043   2
   1  13   7 0.80204 0.40102   2
   1  13   7 0.29700 0.17814   4
   1  13   7 0.23762 0.40582   4
   2 -13   7 7.28461 1.13247   3
   2 -13   7 5.98881 1.32630   3
   2 -13   7 8.82156 1.46543   1
   2 -13   7 6.56016 0.95901   3
   2 -13   7 7.14175 0.82638   3
   2 -13   7 7.98693 1.13543   1
   2  13   7 6.72861 0.75741   3
   2  13   7 7.89922 1.16607   3
   2  13   7 7.96736 0.80160   3
   2  13   7 7.80079 1.13129   3
   2  13   7 7.96606 0.81121   3
   2  13   7 7.56476 0.79678   3
   2  13   7 7.96469 1.06013   3
   2  13   7 7.96820 0.78316   1
   3 -13   7 2.46934 0.72690   2
   3 -13   7 2.51919 1.14508   2
   3 -13   7 2.30838 1.00358   3
   3 -13   7 1.81129 0.55964   4
   3  13   7 2.22606 0.62755   3
   3  13   7 2.30862 0.30721   4
   3  13   7 0.27453 0.86294   3
   3  13   7 3.07385 0.45537   1
   3  13   7 2.30573 0.36503   3
   3  13   7 1.71604 0.79428   3
   4 -13   7 0.17889 0.28828   3
   4 -13   7 -0.1094 0.21868   3
   4  13   7 0.26053 0.20471   1
   4  13   7 0.13031 0.12098   1
   4  13   7 0.45600 0.12098   1
   4  13   7 -0.0931 0.34436   1
   5 -13   7 -0.0783 0.07831   3
   5 -13   7 -0.0489 0.04887   3
   5  13   7 0.01843 0.03696   4
   5  13   7 0.05539 0.05539   4
   5 -14  -7 0.48706 0.28519   1
   5 -14  -7 1.25769 0.63364   3
   5  14  -7 0.41554 0.26710   1
   4 -14  -7 0.10531 0.21052   1
   4 -14  -7 0.18182 0.42114   1
   4 -14  -7 0.09571 0.14351   1
   4  14  -7 -0.0927 0.14829   1
   4  14  -7 -0.0185 0.17609   1
   3 -14  -7 -0.2816 0.41309   1
   3 -14  -7 0.03030 0.21219   4
   3 -14  -7 0.36611 0.22533   1
   3 -14  -7 0.75105 0.54445   1
   3 -14  -7 0.20650 0.44125   1
   3  14  -7 0.19821 0.45675   1
   3  14  -7 -0.0690 0.16372   1
   3  14  -7 0.11203 0.11203   1
   3  14  -7 -0.0517 0.10338   1
   2 -14  -7 10.0544 1.53502   1
   2 -14  -7 6.88129 0.76033   3
   2 -14  -7 6.64449 0.77750   4
   2 -14  -7 4.63501 0.77750   4
   2 -14  -7 8.79766 1.65974   1
   2 -14  -7 6.87840 2.00656   4
   2 -14  -7 6.94603 1.31436   1
   2 -14  -7 6.13956 1.04004   4
   2  14  -7 6.87998 1.32381   4
   2  14  -7 6.27186 0.79648   3
   2  14  -7 6.88473 0.68755   4
   2  14  -7 6.74979 0.75664   3
   2  14  -7 6.41127 1.16476   3
   1 -14  -7 2.31268 0.41436   2
   1 -14  -7 0.93577 1.09674   3
   1 -14  -7 2.06663 0.40928   3
   1  14  -7 2.05783 0.40156   3
   1  14  -7 1.00379 0.71269   3
   1  14  -7 2.40563 0.81720   2
   0  14  -7 0.21897 0.24882   1
   0  14  -7 0.73361 0.45143   2
   1 -14   7 1.82465 0.85624   3
   1 -14   7 3.78957 0.71771   2
   1  14   7 3.25897 0.49532   3
   1  14   7 2.83311 0.44574   3
   1  14   7 2.93207 0.43590   3
   1  14   7 3.55132 0.77717   3
   1  14   7 3.31849 0.52503   3
   2 -14   7 1.68568 0.65609   3
   2 -14   7 0.22446 0.89794   3
   2 -14   7 1.29589 0.48976   3
   2 -14   7 2.81979 1.23061   1
   2 -14   7 1.33673 0.60204   3
   2 -14   7 1.45914 0.37758   3
   2  14   7 1.78033 0.62315   1
   2  14   7 1.68310 0.57945   3
   2  14   7 1.68103 0.31342   3
   2  14   7 1.68324 0.34449   3
   2  14   7 2.01177 0.32939   1
   2  14   7 1.86042 0.69431   1
   2  14   7 2.16312 0.38278   1
   3 -14   7 2.56604 0.56003   1
   3 -14   7 4.09342 0.77059   2
   3 -14   7 3.13209 1.14906   2
   3 -14   7 5.70479 1.00079   2
   3  14   7 3.12671 0.65543   3
   3  14   7 3.66213 0.46969   1
   3  14   7 3.54042 0.41751   1
   3  14   7 2.68794 0.47085   3
   4 -14   7 3.32078 0.91644   2
   4  14   7 5.00918 0.49349   1
   4  14   7 4.40399 0.80076   1
   4  14   7 5.53994 0.63312   1
   4  14   7 4.43191 0.53076   1
   5 -14   7 0.33143 0.34331   3
   5  14   7 0.27387 0.21617   1
   5 -15  -7 1.79064 0.84815   4
   5  15  -7 1.82929 0.28553   4
   4 -15  -7 3.22139 1.11838   1
   4 -15  -7 2.22727 0.52573   1
   4 -15  -7 3.68019 0.44931   1
   4  15  -7 2.64358 0.30538   1
   4  15  -7 2.76765 0.49626   1
   4  15  -7 2.21991 0.48533   4
   3 -15  -7 4.15891 1.18161   1
   3 -15  -7 2.50284 0.54895   1
   3 -15  -7 2.21436 0.87456   1
   3 -15  -7 2.18646 0.48380   1
   3  15  -7 1.26878 0.39651   3
   3  15  -7 1.31618 0.42045   4
   2 -15  -7 2.39482 0.80143   1
   2 -15  -7 1.45440 1.79784   4
   2 -15  -7 2.15131 1.18167   4
   2 -15  -7 2.47029 0.55629   1
   2 -15  -7 3.48858 0.67886   1
   2 -15  -7 3.10196 0.47146   1
   2 -15  -7 1.57556 0.43431   4
   2  15  -7 2.31158 0.44834   3
   2  15  -7 2.64557 0.92597   1
   2  15  -7 2.34146 0.46833   3
   2  15  -7 1.75360 1.01632   3
   2  15  -7 2.70732 0.33507   1
   1 -15  -7 10.3945 1.14710   3
   1 -15  -7 11.0787 1.20746   3
   1  15  -7 11.8310 1.25543   3
   1  15  -7 10.3145 1.08468   3
   1  15  -7 10.9572 1.62696   3
   1  15  -7 11.9214 1.16507   3
   1  15  -7 10.6560 1.66716   3
   0 -15   7 2.43096 0.78790   3
   0  15  -7 2.23887 0.74964   3
   1 -15   7 8.57029 1.57958   3
  -1  15  -7 7.94859 1.30441   3
   1  15   7 8.71283 0.80287   3
   1  15   7 8.86157 0.96145   3
   1  15   7 7.48372 0.83259   3
   1  15   7 8.55424 1.36791   3
   2 -15   7 2.37768 0.62244   3
   2 -15   7 3.19127 0.68658   1
   2 -15   7 0.46942 1.01028   3
   2 -15   7 2.88783 0.52039   3
   2  15   7 3.12178 0.41335   3
   2  15   7 2.96482 0.84712   3
   2  15   7 3.25611 0.45515   1
   2  15   7 3.01402 0.81758   3
   2  15   7 2.46251 0.40380   3
   2  15   7 2.93527 0.49252   3
   2  15   7 1.96011 0.70919   3
   3 -15   7 -0.2812 0.57256   3
   3 -15   7 0.49216 0.30134   3
   3 -15   7 -0.2611 0.26114   3
   3  15   7 -0.1474 0.15606   1
   3  15   7 0.02944 0.13743   3
   3  15   7 0.38162 0.27749   1
   3  15   7 -0.0173 0.11274   1
   4 -15   7 0.26777 0.31730   3
   4 -15   7 0.07938 0.19834   3
   4  15   7 0.05575 0.08362   1
   4  15   7 -0.0929 0.15801   1
   4  15   7 -0.1859 0.18588   1
   4  15   7 0.14869 0.10226   1
   5 -15   7 0.49760 0.25369   3
   5  16  -7 0.16359 0.08657   4
   4 -16  -7 0.00000 0.17838   1
   4 -16  -7 -0.4949 0.55198   3
   4  16  -7 0.14556 0.13592   1
   4  16  -7 0.08646 0.08646   2
   4  16  -7 -0.2039 0.23300   1
   3 -16  -7 0.10169 0.22183   1
   3 -16  -7 0.03699 0.12014   1
   3 -16  -7 0.02772 0.13858   1
   3 -16  -7 0.27726 0.32342   1
   3  16  -7 0.02588 0.10353   1
   3  16  -7 0.06042 0.07765   1
   3  16  -7 0.06042 0.06042   1
   2 -16  -7 0.20204 1.06066   4
   2 -16  -7 0.90770 0.52799   1
   2 -16  -7 0.09089 0.35352   4
   2 -16  -7 0.40331 0.30503   4
   2 -16  -7 0.48163 0.78729   1
   2 -16  -7 -0.2872 1.52832   1
   2  16  -7 0.25926 0.82770   3
   2  16  -7 0.40321 0.23669   2
   2  16  -7 0.43444 0.22589   1
   1  16  -7 10.2287 1.06512   3
   1  16  -7 9.63592 1.02490   3
   1  16  -7 10.0076 1.60765   3
   0 -16   7 0.21277 0.81044   3
   0  16  -7 1.24681 0.65136   2
   0  16   7 0.59977 0.28986   3
   1 -16   7 -0.4254 0.68064   1
   1  16   7 0.63474 0.35707   3
   1  16   7 0.18843 0.24792   3
   1  16   7 0.00000 0.53731   1
   1  16   7 0.53555 0.23808   3
   1  16   7 0.77901 0.23281   1
   2 -16   7 0.00968 0.03863   1
   2 -16   7 0.03863 0.07726   1
   2 -16   7 0.09652 0.06758   1
   2 -16   7 0.02895 0.11579   1
   2  16   7 0.00865 0.07754   1
   2  16   7 0.04305 0.03449   1
   2  16   7 -0.0258 0.02585   1
   2  16   7 -0.0086 0.02585   1
   2  16   7 0.00865 0.02585   1
   3 -16   7 4.93285 0.83220   3
   3 -16   7 5.00294 0.92241   3
   3 -16   7 4.14996 1.35943   2
   3 -16   7 6.86788 0.89234   3
   3  16   7 4.87067 0.88375   3
   3  16   7 5.19162 0.53916   1
   3  16   7 4.88052 0.67759   3
   4 -16   7 0.29698 0.29698   3
   4 -16   7 0.04463 0.42370   1
   4  16   7 0.24013 0.12525   4
   4  16   7 0.55467 0.26806   4
   4  16   7 0.21143 0.20082   2
   4 -17  -7 0.09287 1.03216   1
   4 -17  -7 0.28610 0.17753   4
   4  17  -7 0.18103 0.22632   2
   4  17  -7 0.28752 0.19900   4
   3 -17  -7 6.31208 1.69552   1
   3 -17  -7 6.54241 0.79249   1
   3 -17  -7 5.09571 1.10573   1
   3 -17  -7 5.36293 0.74636   1
   3  17  -7 4.34872 0.69504   3
   3  17  -7 5.27681 0.62232   1
   2 -17  -7 2.28600 0.53736   1
   2 -17  -7 2.15856 0.65575   1
   2 -17  -7 2.17674 0.40982   1
   2 -17  -7 1.85888 1.13150   4
   2  17  -7 1.49691 1.01793   3
   2  17  -7 1.79631 0.39920   3
   2  17  -7 2.10701 0.37844   1
   1 -17  -7 -0.1096 0.13699   1
   1  17  -7 -0.1600 0.32014   1
   1  17  -7 -0.0889 0.10668   1
   1  17  -7 0.03015 0.11061   3
   0  17  -7 1.70170 0.86096   3
   0  17   7 3.63001 0.55079   1
   1 -17   7 9.77684 1.69056   3
   1  17   7 10.7178 1.06989   3
   1  17   7 10.6688 1.20086   3
   1  17   7 10.5695 1.04208   3
   2 -17   7 1.16673 0.39529   1
   2  17   7 0.93640 0.63847   1
   2  17   7 0.91941 0.23833   1
   2  17   7 0.69807 0.17881   1
   2  17   7 0.70661 0.23833   1
   2  17   7 0.41426 0.26634   3
   3 -17   7 1.94027 0.62950   2
   3 -17   7 1.49648 0.77401   2
   3 -17   7 2.45105 0.92041   3
   3  17   7 2.63848 0.37820   1
   3  17   7 2.63848 0.37820   1
   3  17   7 2.66486 0.45733   1
   3  17   7 2.63848 0.48371   1
   4 -17   7 0.03416 0.15951   1
   4 -17   7 -0.2568 0.28643   3
   4  17   7 -0.0644 0.13783   4
   4  17   7 -0.0276 0.07357   4
   4  17   7 0.06435 0.10114   4
   4 -18  -7 0.39494 0.29156   3
   4 -18  -7 0.02114 0.07417   1
   4  18  -7 -0.0291 0.11624   4
   4  18  -7 0.03878 0.06784   4
   3 -18  -7 2.30152 0.88736   1
   3 -18  -7 0.67787 0.49571   4
   3 -18  -7 1.33099 0.41591   1
   3  18  -7 0.69654 0.27855   2
   3  18  -7 1.00493 0.43784   2
   3  18  -7 1.14766 0.24402   1
   2 -18  -7 0.82621 0.53886   1
   2 -18  -7 0.35127 0.26809   3
   2 -18  -7 -0.0269 0.61065   1
   2 -18  -7 0.35139 0.42953   3
   2  18  -7 0.27959 0.23972   3
   2  18  -7 0.63463 0.31736   1
   2  18  -7 0.48890 0.24010   1
   1 -18  -7 6.48462 0.74336   3
   1  18  -7 2.67493 1.17653   3
   1  18  -7 5.81233 0.70396   3
   0  18   7 3.62380 0.55550   1
   1  18   7 0.09449 0.06012   1
   1  18   7 0.00861 0.04289   1
   1  18   7 0.03437 0.04289   1
   2 -18   7 1.27530 0.60193   3
   2  18   7 1.67437 0.30444   1
   2  18   7 1.47986 0.28756   1
   2  18   7 2.02962 0.38053   1
   3 -18   7 1.77033 0.76475   2
   3 -18   7 1.89612 1.13136   2
   3 -18   7 2.60843 0.54472   2
   3  18   7 2.94378 0.38712   1
   3  18   7 2.44207 0.61300   2
   3  18   7 2.98875 0.35109   1
   3  18   7 1.98736 0.40532   2
   4 -18   7 1.39398 0.43345   1
   4  18   7 1.68666 0.19614   4
   4  18   7 1.33252 0.31212   1
   4 -19  -7 1.44239 0.29961   1
   4 -19  -7 1.90579 0.70064   3
   4  19  -7 1.78832 0.29972   4
   4  19  -7 1.48098 0.31325   2
   3 -19  -7 1.94524 0.43021   1
   3 -19  -7 2.88052 0.51436   1
   3 -19  -7 -0.4302 1.15029   1
   3  19  -7 1.87063 0.37984   1
   3  19  -7 1.20645 0.35064   2
   2 -19  -7 6.14982 1.57528   1
   2 -19  -7 5.78488 0.69417   1
   2 -19  -7 5.55702 0.94971   3
   2 -19  -7 6.45236 1.04126   1
   2  19  -7 7.54862 0.76958   1
   2  19  -7 5.72641 0.72704   4
   2  19  -7 6.57158 0.66576   1
   1 -19  -7 0.28946 0.39469   1
   1 -19  -7 0.49121 0.18424   1
   0  19   7 2.36629 0.44041   1
   1  19   7 2.36469 0.40732   3
   1  19   7 2.52069 0.43136   1
   1  19   7 2.59680 0.50755   1
   2 -19   7 -0.0777 0.66013   1
   2 -19   7 0.70385 0.52019   3
   2  19   7 1.23726 0.33900   1
   2  19   7 1.30510 0.29658   1
   2  19   7 0.90874 0.49390   3
   2  19   7 1.05637 0.30852   3
   3 -19   7 0.54410 0.37340   2
   3 -19   7 0.80940 0.46694   4
   3 -19   7 1.01495 0.70644   4
   3  19   7 0.91026 0.42295   1
   3  19   7 0.85511 0.25740   1
   3  19   7 1.09416 0.22070   1
   3  19   7 1.26884 0.32177   1
   4 -19   7 0.01220 0.15804   1
   4 -19   7 0.10905 0.22903   4
   4  19   7 -0.0454 0.08169   4
   4 -20  -7 -0.0556 0.06495   3
   4 -20  -7 0.03125 0.26047   2
   4  20  -7 -0.0097 0.06751   4
   3 -20  -7 0.37600 0.28200   1
   3 -20  -7 0.36657 0.22562   1
   3 -20  -7 1.29713 0.73313   1
   3  20  -7 0.03244 0.11902   2
   3  20  -7 0.34088 0.19482   1
   2 -20  -7 3.04053 0.71129   1
   2 -20  -7 4.94315 1.24466   1
   2 -20  -7 3.00504 0.40897   1
   2  20  -7 1.50469 0.45137   1
   1 -20  -7 0.97859 0.37241   1
   1 -20  -7 1.27308 0.75342   1
   0  20   7 0.01004 0.19011   3
   1  20   7 1.04150 0.26042   1
   1  20   7 1.96539 0.39480   1
   1  20   7 0.54674 0.35788   3
   2  20   7 5.00584 0.58486   1
   2  20   7 4.90265 0.71393   1
   2  20   7 4.59301 0.58486   1
   2  20   7 4.96287 0.60211   1
   3 -20   7 0.09919 0.31735   4
   3 -20   7 -0.1289 0.17847   4
   3 -20   7 -0.1487 0.14873   4
   3  20   7 0.04095 0.11260   2
   3  20   7 0.03069 0.14329   2
   3  20   7 -0.0275 0.10995   4
   4 -20   7 0.34505 0.17893   1
   3 -21  -7 2.21109 0.90491   3
   3 -21  -7 0.83599 0.30965   1
   3 -21  -7 1.26875 0.27990   3
   3  21  -7 0.67731 0.19518   1
   3  21  -7 0.78059 0.29847   1
   2 -21  -7 3.03120 0.93973   3
   2 -21  -7 3.64762 0.49510   3
   2 -21  -7 3.99617 1.19346   3
   2 -21  -7 4.12398 0.79064   1
   2  21  -7 5.33692 0.61975   1
   1 -21  -7 1.19789 0.94617   3
   1 -21  -7 1.28608 0.41429   1
   0  21   7 0.37245 0.24544   1
   1  21   7 1.49395 0.31232   1
   1  21   7 1.89058 0.39673   1
   1  21   7 1.12253 0.27007   1
   2  21   7 4.30797 0.60625   4
   2  21   7 4.42463 0.56858   1
   2  21   7 4.97548 0.63970   1
   2  21   7 5.78398 0.58641   1
   3 -21   7 0.44468 0.27666   4
   3 -21   7 0.55343 0.26685   4
   3 -21   7 0.56334 0.50396   4
   3  21   7 0.69171 0.20020   4
   3  21   7 0.38468 0.19228   4
   3 -22  -7 0.44421 0.23134   3
   3 -22  -7 0.12510 0.35609   3
   3  22  -7 0.14533 0.14533   4
   3  22  -7 0.04034 0.13451   1
   2 -22  -7 1.38418 0.24252   4
   2 -22  -7 1.36095 0.91047   2
   2 -22  -7 1.92841 0.59974   1
   2  22  -7 1.31998 0.41182   2
   1 -22  -7 1.16863 0.30521   1
   1 -22  -7 0.80236 0.73255   1
   0 -22  -7 0.06005 0.25026   3
   0  22   7 -0.2561 0.25609   1
   1  22   7 1.07823 0.35361   1
   1  22   7 0.87506 0.25256   4
   1  22   7 0.28869 0.26882   2
   2 -22   7 0.44653 0.18853   4
   2 -22   7 0.56568 0.60530   4
   2  22   7 0.17108 0.21135   2
   2  22   7 0.63201 0.23814   1
   2  22   7 0.12071 0.29179   2
   3 -22   7 1.17249 0.27326   4
   3 -22   7 0.57157 0.69066   1
   3  22   7 1.17206 0.20564   3
   3  22   7 1.08097 0.23606   1
   3 -23  -7 2.90034 0.62411   3
   3 -23  -7 2.37996 0.40630   1
   3  23  -7 2.80712 0.31715   4
   2 -23  -7 -0.0648 0.26839   4
   2 -23  -7 0.18512 0.18512   4
   2  23  -7 -0.0098 0.11705   4
   1 -23  -7 1.35599 0.38615   1
   1  23  -7 1.32581 0.28064   1
   0 -23  -7 0.16031 0.37078   2
   0  23   7 0.12021 0.23047   2
   1  23   7 1.21782 0.30674   1
   2 -23   7 1.11296 0.69827   4
   2  23   7 1.25469 0.26365   4
   2  23   7 1.37288 0.26365   4
   2  23   7 1.15465 0.20912   4
   3  23   7 0.84285 0.14346   4
   2 -24  -7 0.01055 0.08417   3
   2 -24  -7 0.01831 0.14676   4
   2  24  -7 0.03890 0.04855   4
   2  24  -7 -0.0389 0.03890   4
   2  24  -7 0.08745 0.04855   4
   1 -24  -7 0.67182 0.27610   4
   1  24  -7 0.45087 0.21560   4
  -1  24   7 0.37474 0.24309   2
   0 -24  -7 1.32112 0.41282   1
   0  24   7 0.22180 0.24203   2
   1  24   7 1.23995 0.26440   4
   1  24   7 1.73235 0.34643   4
   2 -24   7 0.49180 0.47207   4
   2  24   7 0.58613 0.18941   4
   2  24   7 0.41481 0.20741   4
   2 -25  -7 1.03698 0.31114   2
   2  25  -7 1.04020 0.27447   4
   1 -25  -7 0.44676 0.31909   4
   1 -25  -7 0.33805 0.16902   2
   1  25  -7 0.36113 0.17562   4
  -1  25   7 0.07449 0.21279   1
   0 -25  -7 0.17287 0.17287   4
   0  25  -7 0.33355 0.13736   4
   0  25   7 0.01046 0.10428   1
   1 -25   7 1.63379 0.30780   1
   1  25   7 1.70657 0.35005   1
   2 -25   7 0.13354 0.26709   1
   1 -26  -7 0.05417 0.06323   4
   1  26  -7 0.04265 0.11383   4
   0 -26  -7 0.00000 0.08116   1
   0  26  -7 0.00979 0.03907   4
   0  26   7 0.04503 0.02703   4
   1 -26   7 -0.1172 0.25402   4
   1 -26   7 0.08468 0.12095   4
   1  26   7 -0.0537 0.10743   4
  -1  26  -7 -0.1172 0.15631   4
   4   0  -8 14.2399 1.47925   1
   4   0  -8 12.7231 1.94729   1
   4   0  -8 12.2176 1.42310   1
   2   0  -8 4.21867 0.38351   2
   2   0  -8 3.47807 0.36188   1
   2   0  -8 3.81989 0.64330   1
   2   0  -8 3.76957 0.59309   1
   2   0  -8 4.66117 1.04241   2
   2   0  -8 2.62363 0.49256   1
   0   0   8 35.2182 3.24059   2
   0   0   8 34.5558 2.94508   2
   0   0   8 34.0973 3.32205   2
   0   0  -8 35.0348 3.36284   2
   0   0  -8 38.8562 3.64823   2
   0   0   8 36.9506 3.03677   2
   0   0  -8 37.8473 3.25071   2
   0   0   8 36.3391 3.23037   2
   0   0  -8 39.4459 3.27708   4
   0   0  -8 39.0640 3.00574   4
   2   0   8 86.5389 7.52032   4
   2   0   8 93.2180 7.18835   1
   2   0   8 93.4772 7.60104   1
   2   0   8 88.8705 7.72581   1
   4   0   8 1.63482 0.32700   2
   4   0   8 2.23105 0.59623   2
   4   0   8 2.45223 0.96162   2
   6   0   8 0.02933 0.30868   1
   5  -1  -8 3.28429 0.73416   1
   5   1  -8 4.15674 0.81010   1
   4  -1  -8 1.07214 0.43263   1
   4  -1  -8 0.82762 0.43263   1
   4  -1  -8 0.07951 0.58606   3
   4   1  -8 1.86273 0.47495   1
   4   1  -8 1.12694 0.39115   1
   4   1  -8 1.85339 0.67058   1
   3  -1  -8 0.10997 0.78955   1
   3  -1  -8 0.59505 0.30710   2
   3  -1  -8 0.62383 0.53748   2
   3  -1  -8 0.67187 0.50869   2
   3  -1  -8 0.16992 0.27979   1
   3   1  -8 0.41798 0.52240   2
   3   1  -8 0.62692 0.52240   2
   3   1  -8 0.81690 0.29450   2
   3   1  -8 0.26591 0.45590   2
   2  -1  -8 23.3695 1.83482   2
   2  -1  -8 23.2215 2.57467   2
   2  -1  -8 22.6099 2.04203   2
   2  -1  -8 18.1125 2.12550   1
   2   1  -8 19.6604 1.98808   1
   2   1  -8 24.2690 2.02816   2
   2   1  -8 21.7705 1.81254   2
   2   1  -8 21.9077 2.43965   2
   2   1  -8 21.4962 2.15553   2
   2   1  -8 23.9554 1.82237   2
   1  -1  -8 7.78518 1.24196   4
   1  -1  -8 10.0353 0.87042   1
   1  -1  -8 9.18489 1.37072   1
  -1  -1   8 9.86779 1.23471   1
  -1  -1   8 9.31017 1.05553   1
   1  -1  -8 9.88531 1.18064   1
   1   1  -8 10.2461 1.22472   1
  -1   1   8 9.11809 1.20165   4
   1   1  -8 11.3315 1.19486   1
   1   1  -8 9.18100 1.35568   4
   1   1  -8 11.1025 0.87624   1
  -1   1   8 8.94641 1.06025   4
   0  -1   8 12.4127 1.25037   2
   0  -1  -8 12.7697 1.49460   4
   0  -1   8 11.6503 1.03695   2
   0  -1   8 11.0809 1.02675   2
   0  -1   8 10.1253 1.43341   2
   0  -1  -8 12.1285 1.05237   2
   0  -1  -8 12.0467 1.41007   2
   0  -1  -8 13.2110 1.42447   4
   0  -1   8 12.5913 1.23302   4
   0  -1  -8 13.1709 1.22384   4
   0   1  -8 11.6705 1.04704   2
   0   1  -8 10.9691 1.36224   2
   0   1   8 11.6175 1.28739   2
   0   1   8 11.8117 1.04223   2
   0   1  -8 12.4849 1.24844   4
   0   1   8 13.0205 1.27394   4
   0   1  -8 13.1326 1.42358   4
   0   1  -8 12.6815 1.34334   4
   0   1   8 12.4821 1.35873   4
  -1  -1  -8 0.45915 0.26953   1
   1  -1   8 0.52940 0.34956   1
  -1  -1  -8 0.09124 0.47668   2
   1  -1   8 0.47940 0.29967   1
   1  -1   8 0.42951 0.36960   1
   1  -1   8 0.55935 0.13986   1
   1  -1   8 0.70914 0.31960   1
   1   1   8 0.50901 0.27943   1
   1   1   8 -0.0599 0.28945   1
   1   1   8 0.48909 0.13977   1
   1   1   8 0.80847 0.31938   1
  -1   1  -8 0.56937 0.27963   1
   1   1   8 0.41920 0.31938   1
  -1   1  -8 0.36960 0.43953   1
   2  -1   8 8.84333 1.20450   3
   2  -1   8 11.1858 1.13105   1
   2  -1   8 10.1793 1.15018   1
   2  -1   8 9.88228 0.86740   2
   2   1   8 9.88318 0.88027   2
   2   1   8 7.99681 1.07088   3
   2   1   8 11.3193 1.09540   1
   2   1   8 9.27781 1.08092   3
   3  -1   8 9.04630 1.31514   4
   3  -1   8 11.4573 1.15575   4
   3  -1   8 10.6006 1.23539   4
   3  -1   8 12.3997 1.10574   1
   3  -1   8 12.3335 1.00184   1
   3  -1   8 12.4185 1.44597   1
   3  -1   8 11.4773 1.48443   4
   3  -1   8 11.1684 1.23539   4
   3   1   8 11.1646 1.23943   4
   3   1   8 13.1426 0.99655   1
   3   1   8 12.1267 1.24284   3
   3   1   8 12.1248 1.08750   2
   3   1   8 12.1255 1.35251   2
   3   1   8 12.8607 1.40072   1
   3   1   8 13.1991 1.16572   1
   3   1   8 11.9479 1.14027   4
   4  -1   8 16.9921 2.18743   4
   4  -1   8 20.3453 1.90498   2
   4  -1   8 24.9771 2.14668   2
   4   1   8 21.5176 1.87525   2
   4   1   8 22.3404 2.30577   2
   5  -2  -8 7.91947 1.14102   1
   4  -2  -8 7.50593 0.94410   1
   4  -2  -8 7.31709 0.91578   1
   4   2  -8 4.43506 0.72271   3
   4   2  -8 5.09828 0.68309   3
   4   2  -8 7.18554 1.17596   1
   3  -2  -8 12.0353 1.28058   1
   3  -2  -8 12.0552 1.92081   1
   3  -2  -8 10.2045 1.45067   1
   3  -2  -8 11.2149 1.76075   1
   3  -2  -8 12.5154 1.94088   1
   3  -2  -8 15.0501 1.51368   2
   3  -2  -8 11.5750 1.29061   1
   3  -2  -8 11.4550 1.07044   1
   3   2  -8 12.4121 1.22424   1
   3   2  -8 13.6843 1.82269   2
   3   2  -8 11.4068 1.83147   1
   3   2  -8 12.0537 1.04513   1
   3   2  -8 11.6057 1.64238   1
   3   2  -8 9.65486 1.41344   1
   2  -2  -8 5.03880 0.48466   1
   2  -2  -8 4.32188 0.70689   1
   2  -2  -8 4.90753 1.17140   1
   2  -2  -8 6.00421 0.87046   2
   2   2  -8 3.84397 0.44165   1
   2   2  -8 5.34942 0.47175   1
   2   2  -8 5.01820 0.80296   1
   2   2  -8 4.07481 0.82300   1
   2   2  -8 5.48996 1.15421   1
   1  -2  -8 3.49408 0.60074   1
  -1  -2   8 0.66330 0.56280   4
  -1  -2   8 1.33658 0.44224   4
   1  -2  -8 3.92460 0.59070   1
   1  -2  -8 2.65312 0.28028   1
   1  -2  -8 4.34508 0.86104   1
   1  -2  -8 2.58302 0.44057   1
   1   2  -8 1.99988 0.69344   4
   1   2  -8 2.27433 0.57600   1
  -1   2   8 2.90338 0.48053   1
  -1   2   8 1.95224 0.52598   3
   1   2  -8 1.30644 0.55272   4
   1   2  -8 1.55775 0.26129   4
   0  -2   8 0.27005 0.39003   1
   0  -2  -8 0.61062 0.37043   4
   0  -2   8 0.22314 0.18254   2
   0  -2  -8 0.34041 0.14018   4
   0  -2  -8 0.67077 0.30034   4
   0  -2   8 0.42002 0.37007   1
   0  -2   8 0.37007 0.38000   1
   0  -2  -8 0.39041 0.39041   4
   0   2  -8 0.30005 0.47008   1
   0   2  -8 0.37007 0.23002   1
   0   2  -8 0.32001 0.30005   1
   0   2   8 0.34041 0.29030   4
   0   2   8 0.54053 0.28026   4
   0   2   8 0.34041 0.12009   4
   0   2   8 0.34041 0.39041   4
   0   2  -8 0.02025 0.49705   2
  -1  -2  -8 22.6840 2.40655   2
   1  -2   8 26.3626 2.03858   1
   1  -2   8 23.8048 2.30171   2
   1  -2   8 21.9876 2.34211   2
  -1  -2  -8 24.5524 2.30500   2
   1  -2   8 25.8057 2.09823   1
   1  -2   8 26.1936 2.28725   1
  -1   2  -8 23.9259 2.50363   2
   1   2   8 20.7039 2.29481   2
  -1   2  -8 25.9648 2.25743   1
   1   2   8 24.6234 2.07146   2
   1   2   8 27.3866 2.09973   1
   1   2   8 22.9683 2.25417   2
   1   2   8 25.5855 2.21922   1
   2  -2   8 24.8173 1.92454   1
   2  -2   8 18.8332 2.02019   1
   2  -2   8 25.6311 1.98197   1
   2   2   8 18.1970 1.68308   1
   2   2   8 17.4809 1.82482   4
   2   2   8 18.9088 1.87545   1
   3  -2   8 4.18491 0.76902   4
   3  -2   8 4.49395 0.90069   1
   3  -2   8 4.23051 0.45194   3
   3  -2   8 4.04505 0.54931   4
   3  -2   8 3.86532 0.63918   4
   3  -2   8 4.23078 0.55388   3
   3  -2   8 3.59563 0.58929   4
   3  -2   8 4.54140 0.72999   1
   3  -2   8 4.22953 0.96618   4
   3  -2   8 5.98245 0.95756   1
   3   2   8 4.22486 0.48199   4
   3   2   8 4.06627 0.64308   4
   3   2   8 4.46384 0.54389   1
   3   2   8 4.65141 0.55330   1
   3   2   8 4.99843 0.43139   1
   3   2   8 4.22210 0.52655   4
   3   2   8 5.36416 0.82525   1
   4  -2   8 0.69058 0.42803   2
   4  -2   8 0.39875 0.26265   2
   4  -2   8 0.28207 0.21396   2
   4  -2   8 0.46686 0.35993   2
   4   2   8 0.38095 0.49519   1
   4   2   8 0.40951 0.19047   1
   4   2   8 0.39995 0.22859   1
   4   2   8 0.26660 0.17137   1
   4   2   8 -0.1142 0.31427   1
   5  -3  -8 0.16457 0.22263   1
   4  -3  -8 1.55334 0.48300   1
   4  -3  -8 1.07973 0.45460   1
   4   3  -8 1.82182 0.82808   1
   4   3  -8 0.86490 0.32202   1
   4   3  -8 0.81894 0.46923   1
   4   3  -8 0.19783 0.22749   3
   3  -3  -8 3.10742 0.55183   2
   3  -3  -8 2.54598 0.54211   2
   3  -3  -8 2.09266 0.38045   1
   3  -3  -8 2.69115 0.88090   2
   3  -3  -8 2.45878 0.76477   2
   3  -3  -8 4.19165 1.24881   2
   3  -3  -8 3.16548 0.53240   2
   3  -3  -8 2.99119 0.80351   2
   3   3  -8 2.25291 0.38482   2
   3   3  -8 2.20592 0.60072   2
   3   3  -8 6.27051 1.21096   2
   3   3  -8 4.31797 0.60072   2
   2  -3  -8 10.1724 1.28888   2
   2  -3  -8 11.2631 1.33850   2
   2  -3  -8 9.73741 1.79161   1
   2  -3  -8 11.0746 1.06084   2
   2   3  -8 12.5298 1.36849   2
   2   3  -8 16.5576 1.73726   2
   2   3  -8 13.2481 1.02883   2
   1  -3  -8 26.0199 2.06396   1
   1  -3  -8 23.4931 2.42544   3
   1  -3  -8 24.0862 2.22425   1
  -1  -3   8 23.6659 2.35967   4
   1  -3  -8 27.4827 2.78534   1
  -1  -3   8 21.3160 2.24585   4
   1  -3  -8 26.9516 2.36455   1
   1   3  -8 25.9080 2.04250   3
   1   3  -8 27.6035 2.33002   3
   1   3  -8 21.8273 2.35618   4
   1   3  -8 23.8853 2.61754   3
  -1   3   8 24.3567 2.30445   1
  -1   3   8 22.8031 2.26307   3
   0  -3   8 0.56763 0.15200   2
   0  -3   8 0.23313 0.37507   2
   0  -3  -8 0.93943 0.18987   4
   0  -3  -8 1.32920 0.33984   4
   0  -3   8 0.78915 0.45950   1
   0  -3   8 0.42570 0.22297   2
   0  -3   8 0.45610 0.37507   2
   0  -3  -8 1.48909 0.49974   4
   0  -3  -8 1.42914 0.46977   4
   0   3  -8 0.55747 0.15200   2
   0   3  -8 0.71921 0.45950   1
   0   3   8 1.02935 0.35979   4
   0   3  -8 0.99886 0.29969   1
   0   3  -8 0.44604 0.43587   2
   0   3   8 0.75959 0.31979   4
   0   3   8 0.85953 0.15990   4
   0   3  -8 0.41553 0.47644   2
   0   3   8 0.89943 0.37974   4
   1  -3   8 4.30617 0.64344   1
  -1  -3  -8 4.60593 0.84376   1
   1  -3   8 5.84059 0.76219   1
   1  -3   8 4.52393 0.45537   1
   1  -3   8 3.80135 0.69299   1
  -1  -3  -8 3.52284 0.60917   2
   1   3   8 3.70548 0.64791   1
   1   3   8 3.94090 0.63526   1
   1   3   8 3.10654 0.61925   2
   1   3   8 4.05998 0.64522   1
   1   3   8 4.27834 0.42686   1
  -1   3  -8 6.81072 0.96019   1
   2  -3   8 0.39729 0.44690   3
   2  -3   8 0.31223 0.17122   3
   2  -3   8 -0.2201 0.44973   1
   2  -3   8 0.82287 0.45923   1
   2   3   8 0.30943 0.11972   3
   2   3   8 0.30943 0.32935   3
   2   3   8 0.77939 0.41378   1
   3  -3   8 30.8789 2.52170   1
   3  -3   8 24.6611 2.68338   4
   3  -3   8 26.8038 2.48312   4
   3  -3   8 27.4734 2.20287   3
   3  -3   8 25.9227 2.73350   4
   3  -3   8 27.4706 2.31070   3
   3  -3   8 26.0329 2.59330   4
   3  -3   8 28.3000 2.43608   1
   3  -3   8 26.3232 2.83353   4
   3  -3   8 23.9102 2.67334   4
   3   3   8 25.4854 2.61667   4
   3   3   8 29.4863 2.45957   2
   3   3   8 26.3345 2.38956   4
   3   3   8 25.2384 2.67590   4
   3   3   8 26.6110 2.39947   4
   3   3   8 27.1344 2.58706   4
   3   3   8 29.0000 2.32862   2
   3   3   8 27.4601 2.15890   1
   4  -3   8 2.90645 0.49942   1
   4  -3   8 4.55130 0.86131   2
   4  -3   8 3.63559 0.52938   1
   4  -3   8 2.43698 1.07869   1
   4  -3   8 3.83536 0.80899   1
   4   3   8 4.52057 0.50661   4
   4   3   8 4.54255 0.87248   1
   4   3   8 4.65631 0.71124   1
   4   3   8 5.47191 0.55952   1
   5  -4  -8 2.18811 0.52277   1
   5   4  -8 1.50124 0.30023   2
   4  -4  -8 0.23734 0.55068   1
   4  -4  -8 0.11964 0.06983   2
   4  -4  -8 0.72164 0.40830   1
   4  -4  -8 0.36077 0.27534   1
   4   4  -8 0.40220 0.50268   1
   4   4  -8 0.35645 0.94136   1
   4   4  -8 0.16804 0.20760   3
   4   4  -8 0.63983 0.51185   1
   3  -4  -8 23.3068 2.25451   1
   3  -4  -8 24.2987 2.06414   1
   3  -4  -8 24.3689 3.38684   1
   3  -4  -8 22.1645 2.06414   1
   3  -4  -8 27.9581 2.57432   2
   3  -4  -8 26.2677 2.39941   2
   3  -4  -8 23.9882 3.13627   1
   3  -4  -8 26.5494 2.44804   2
   3  -4  -8 25.4547 2.17734   3
   3   4  -8 21.8364 2.62035   1
   3   4  -8 23.3750 2.42182   1
   3   4  -8 26.9033 2.08027   2
   3   4  -8 29.0395 2.87318   2
   3   4  -8 26.1477 3.09700   2
   2  -4  -8 0.34490 0.40574   1
   2  -4  -8 0.18252 0.15210   1
   2  -4  -8 0.87408 0.72513   2
   2  -4  -8 0.67541 0.38737   2
   2   4  -8 0.12033 0.40123   1
   2   4  -8 1.80401 0.44377   2
   2   4  -8 2.77834 0.71384   2
   1  -4  -8 9.31218 1.08258   2
  -1  -4   8 7.06695 1.15442   1
   1  -4  -8 8.35479 0.96794   3
   1  -4  -8 7.25440 1.13095   3
   1  -4  -8 10.1642 1.46345   2
   1  -4  -8 9.20050 0.77437   3
   1  -4  -8 10.9059 1.00234   2
  -1  -4   8 6.69551 0.93360   1
  -1   4   8 8.13066 1.09017   3
   1   4  -8 8.31169 1.09420   1
   1   4  -8 8.23133 1.24473   1
   1   4  -8 9.06455 1.07406   1
   1   4  -8 8.09077 0.76293   1
  -1   4   8 7.09139 0.93738   3
   0  -4   8 4.43540 0.68930   1
   0  -4   8 3.26301 0.79039   2
   0  -4  -8 4.26229 0.41923   4
   0  -4  -8 4.32227 0.78860   4
   0  -4  -8 3.73913 0.67799   2
   0  -4   8 3.96212 0.41542   2
   0  -4   8 3.53653 0.45598   2
   0  -4  -8 5.27057 0.86840   4
   0  -4   8 3.99591 0.69932   1
   0   4   8 3.14326 0.65738   2
   0   4  -8 3.76960 0.78022   2
   0   4  -8 4.92489 0.81916   1
   0   4   8 3.74933 0.41091   2
   0   4  -8 4.41546 0.64932   1
   0   4  -8 4.35554 0.66936   1
   0   4  -8 3.67843 0.41542   2
   0   4   8 4.05273 0.70870   4
   0   4   8 3.88287 0.70880   2
   1  -4   8 52.0073 3.96264   1
   1  -4   8 49.2966 3.91340   1
  -1  -4  -8 50.7364 4.27012   1
   1  -4   8 46.0415 4.35160   3
  -1  -4  -8 49.2701 4.38908   1
   1  -4   8 51.4159 4.23860   1
   1   4   8 41.4196 4.33649   2
  -1   4  -8 44.5605 4.33125   3
  -1   4  -8 51.6130 4.40620   1
   1   4   8 46.0499 4.30610   2
   1   4   8 50.9147 4.22063   1
   1   4   8 48.6344 3.98900   1
   1   4   8 52.8467 3.95310   1
   2  -4   8 2.77430 0.73659   1
   2   4   8 2.10683 0.47139   1
   2   4   8 2.30890 0.59645   1
   2   4   8 1.78936 0.25977   1
   3  -4   8 10.6267 1.32829   1
   3  -4   8 10.0819 1.29014   1
   3  -4   8 11.3148 1.07983   1
   3  -4   8 11.1905 1.10859   1
   3  -4   8 11.1809 1.30921   1
   3  -4   8 10.3782 1.15632   1
   3  -4   8 9.74570 1.44530   4
   3  -4   8 10.4546 1.58633   1
   3  -4   8 10.2827 0.98426   1
   3   4   8 10.3731 1.10910   2
   3   4   8 12.3581 1.04385   2
   3   4   8 12.2463 1.06245   2
   3   4   8 12.4700 1.15566   2
   3   4   8 11.2118 1.23026   2
   3   4   8 11.4541 1.33272   2
   3   4   8 12.4513 1.44462   2
   4  -4   8 0.02002 0.45140   1
   4  -4   8 0.90643 0.48276   2
   4  -4   8 0.33502 0.71925   2
   4  -4   8 -0.0591 0.21672   2
   4   4   8 0.27399 0.17002   1
   4   4   8 0.33067 0.36848   1
   4   4   8 0.32129 0.17002   1
   5  -4   8 0.01125 0.22430   1
   5  -5  -8 0.07752 0.08713   1
   5   5  -8 -0.0097 0.02897   1
   4  -5  -8 1.61704 0.51360   1
   4  -5  -8 1.92140 0.77999   1
   4  -5  -8 0.99871 0.17972   2
   4  -5  -8 0.52936 0.74906   2
   4  -5  -8 2.39703 0.57075   1
   4   5  -8 1.51590 1.13467   1
   4   5  -8 1.57035 0.55368   1
   4   5  -8 1.01495 0.26609   3
   3  -5  -8 1.82189 0.28252   2
   3  -5  -8 2.95199 1.25685   2
   3  -5  -8 2.78644 0.73069   2
   3  -5  -8 2.15308 0.40918   2
   3  -5  -8 1.98754 0.52605   2
   3  -5  -8 1.83167 0.32152   2
   3  -5  -8 2.22130 0.46761   2
   3  -5  -8 1.47404 0.24070   1
   3  -5  -8 2.12386 0.81835   2
   3   5  -8 1.64685 0.24894   4
   3   5  -8 0.48558 0.65407   1
   3   5  -8 2.76243 0.49132   2
   3   5  -8 4.61641 1.07535   2
   3   5  -8 1.66858 0.33372   2
   2  -5  -8 0.01019 0.36565   1
   2  -5  -8 0.15911 0.27841   2
   2  -5  -8 0.38784 0.13926   2
   2  -5  -8 0.43762 0.33817   2
   2   5  -8 0.05008 0.11032   1
   2   5  -8 -0.3161 0.35449   2
   2   5  -8 0.16288 0.29702   2
   2   5  -8 0.08025 0.47123   1
   1  -5  -8 16.1441 1.93528   2
   1  -5  -8 12.3738 1.51415   2
   1  -5  -8 14.8605 1.39375   2
   1  -5  -8 12.9654 1.55428   2
   1   5  -8 13.5260 1.12051   3
  -1   5   8 10.4491 1.34964   1
   1   5  -8 14.3987 1.62631   3
  -1   5   8 10.8995 1.42077   4
   0  -5  -8 5.54556 0.91762   4
   0  -5   8 4.23837 0.47660   4
   0  -5   8 3.81252 0.46643   4
   0  -5  -8 4.87725 0.47872   4
   0  -5   8 4.26878 0.78071   4
   0  -5   8 4.59848 0.76970   1
   0  -5   8 3.93416 0.79088   4
   0  -5  -8 4.40647 0.67793   2
   0  -5  -8 5.49563 0.81788   4
   0   5  -8 5.74813 0.87971   1
   0   5   8 4.14961 0.71904   2
   0   5  -8 4.96839 0.47981   1
   0   5   8 3.79014 0.68824   2
   0   5  -8 4.79843 0.85975   1
   0   5   8 4.61123 0.45704   4
   0   5  -8 5.19832 0.81974   1
   0   5   8 4.88726 0.68822   4
   0   5  -8 4.30936 0.64889   4
  -1  -5  -8 0.28294 0.39416   2
   1  -5   8 1.71882 0.25537   1
   1   5   8 0.51540 0.37398   2
   1   5   8 0.73783 0.36385   2
   2  -5   8 5.93565 1.07208   3
   2  -5   8 6.23138 0.67958   1
   2  -5   8 7.35128 1.17732   1
   2  -5   8 6.53766 0.96676   1
   2   5   8 8.42546 1.02793   2
   2   5   8 8.71369 0.90304   2
   3  -5   8 22.9766 1.94912   2
   3  -5   8 25.0919 2.01659   1
   3  -5   8 24.4677 2.19902   1
   3  -5   8 20.4615 2.21317   4
   3  -5   8 22.3929 2.15283   4
   3  -5   8 22.4433 2.38421   4
   3  -5   8 23.0177 2.19902   1
   3  -5   8 22.9778 2.33789   4
   3  -5   8 22.9757 2.61363   2
   3  -5   8 22.2824 2.34395   4
   3   5   8 23.5521 1.82599   2
   3   5   8 23.9970 2.18746   2
   3   5   8 21.3783 2.05711   4
   3   5   8 20.5023 2.23433   4
   3   5   8 22.0870 2.23433   4
   3   5   8 20.7976 2.35241   4
   3   5   8 22.9216 2.04590   4
   3   5   8 22.9877 1.95222   3
   3   5   8 24.8682 2.09477   2
   4  -5   8 13.2817 1.64532   2
   4  -5   8 12.8852 1.41735   2
   4  -5   8 13.1132 1.79406   2
   4  -5   8 11.3392 1.30143   1
   4   5   8 13.3471 1.37518   1
   4   5   8 15.4005 1.31868   1
   4   5   8 12.7815 1.19822   2
   4   5   8 13.7427 1.81792   1
   5  -5   8 3.98437 0.73242   3
   5  -5   8 3.29104 0.60547   3
   5  -6  -8 1.20038 0.53241   1
   5  -6  -8 0.71810 0.56193   2
   5   6  -8 0.50562 0.28446   2
   4  -6  -8 7.43736 0.90468   1
   4  -6  -8 6.76775 0.64218   2
   4  -6  -8 4.70116 1.19034   2
   4  -6  -8 6.79454 0.89815   2
   4   6  -8 8.88983 1.74915   1
   4   6  -8 5.34180 0.78996   3
   3  -6  -8 15.5256 2.17751   2
   3  -6  -8 14.7884 1.28422   1
   3  -6  -8 14.2868 2.39787   1
   3  -6  -8 17.1270 1.61119   2
   3  -6  -8 13.4440 1.40458   1
   3  -6  -8 15.2694 1.54174   1
   3  -6  -8 14.2066 1.48489   1
   3  -6  -8 15.2701 1.59519   1
   3  -6  -8 16.6485 1.77711   2
   3   6  -8 16.3900 2.00841   2
   3   6  -8 14.2325 1.50447   1
   3   6  -8 11.3128 1.89046   1
   3   6  -8 15.1983 1.29126   1
   2  -6  -8 19.6002 1.99986   2
   2  -6  -8 21.6497 1.67153   2
   2  -6  -8 16.1833 1.95250   3
   2   6  -8 16.1862 1.99683   3
   2   6  -8 18.6872 1.56840   2
   1  -6  -8 5.40599 0.80242   2
   1  -6  -8 6.21837 0.95283   2
  -1  -6   8 2.54734 0.84571   1
   1  -6  -8 4.89451 0.89267   2
   1  -6  -8 5.14522 0.54155   2
   1  -6  -8 4.58354 0.86258   2
   1   6  -8 4.92866 0.49290   2
  -1   6   8 3.16715 0.71753   1
   1   6  -8 6.59452 1.02514   2
   1   6  -8 3.67492 0.84571   1
   1   6  -8 8.22103 1.08427   2
   0  -6   8 0.05068 0.24353   4
   0  -6  -8 0.34890 0.32900   4
   0  -6   8 0.15974 0.24958   1
   0  -6   8 0.16976 0.33952   1
   0  -6   8 0.56917 0.11978   1
   0  -6  -8 0.17940 0.31900   4
   0   6  -8 0.41934 0.21963   1
   0   6   8 0.09243 0.17467   1
   0   6  -8 0.44928 0.31948   1
   0   6   8 0.16950 0.07980   4
   0   6   8 0.32900 0.25920   4
   0   6  -8 0.20972 0.19970   1
   0   6   8 0.22930 0.22930   4
   0   6  -8 0.36946 0.31948   1
   1  -6   8 3.44004 0.79383   3
   1  -6   8 4.25098 0.65631   1
   1  -6   8 4.51547 0.51915   1
   1  -6   8 4.25098 0.76399   1
   1   6   8 6.32647 0.52393   2
   1   6   8 5.02170 0.70182   2
   1   6   8 5.61474 0.73146   2
   1   6   8 5.83229 0.72165   2
  -1   6  -8 2.92092 0.68194   3
   2  -6   8 49.3099 4.02535   1
   2  -6   8 46.9291 4.04614   4
   2  -6   8 51.6676 4.47574   1
   2  -6   8 51.8497 4.31279   1
   2   6   8 46.9260 4.04818   4
   2   6   8 47.3370 4.00774   2
   2   6   8 46.1731 4.32752   4
   2   6   8 52.1483 4.54339   2
   3  -6   8 0.11093 0.80654   4
   3  -6   8 1.63157 0.46338   1
   3  -6   8 0.84678 0.27222   4
   3  -6   8 1.28401 0.53098   1
   3  -6   8 0.16129 0.62503   4
   3  -6   8 1.06195 0.22206   1
   3  -6   8 0.52421 0.32257   4
   3  -6   8 1.15850 0.52129   1
   3  -6   8 0.89791 0.32829   1
   3   6   8 0.40302 0.45223   4
   3   6   8 0.91233 0.23959   2
   3   6   8 0.91233 0.46994   2
   3   6   8 1.22559 0.24883   2
   3   6   8 1.15192 0.62661   2
   3   6   8 0.85524 0.20649   4
   3   6   8 0.44236 0.38340   4
   3   6   8 0.93997 0.18431   2
   4  -6   8 -0.1688 0.54598   3
   4  -6   8 0.51621 0.26806   3
   4  -6   8 0.98284 0.37720   3
   4  -6   8 -0.5559 0.75450   3
   4   6   8 0.60133 0.64836   1
   4   6   8 0.12781 0.50136   4
   4   6   8 0.61075 0.47917   1
   4   6   8 0.47187 0.19664   4
   4   6   8 0.28510 0.18678   4
   5  -6   8 0.22870 0.54880   1
   5  -6   8 0.89639 0.57239   3
   5   6   8 1.12906 0.54084   4
   5  -7  -8 -0.0387 0.12567   1
   5  -7  -8 0.05799 0.17396   1
   5   7  -8 -0.0485 0.04851   1
   3  -7  -8 2.51326 0.44986   4
   3  -7  -8 1.31503 1.30496   1
   3  -7  -8 2.94359 0.90953   4
   3  -7  -8 2.32747 0.50852   4
   3  -7  -8 1.80691 0.28103   1
   3  -7  -8 1.65638 0.58220   1
   3   7  -8 0.08898 0.76147   1
   3   7  -8 1.84286 0.79821   2
   3   7  -8 1.58237 0.36596   1
   2  -7  -8 34.1394 2.77455   2
   2  -7  -8 34.8356 3.16237   2
   2  -7  -8 30.2312 3.13255   2
   2  -7  -8 33.9107 3.82860   2
   2   7  -8 29.3118 3.13851   2
   2   7  -8 32.5445 3.39301   2
   2   7  -8 32.0450 2.89347   2
   2   7  -8 31.4512 2.61070   2
   1  -7  -8 -0.1905 0.24068   2
   1  -7  -8 -0.0902 0.10027   2
   1  -7  -8 0.10027 0.24068   2
   1  -7  -8 0.15036 0.29076   2
   1   7  -8 0.84068 0.36171   2
   1   7  -8 0.19551 0.09776   2
   0  -7  -8 -0.0199 0.17937   4
   0  -7   8 0.11918 0.15894   2
   0  -7  -8 -0.1196 0.17937   4
   0  -7   8 0.02979 0.05959   2
   0  -7  -8 0.02989 0.17937   4
   0  -7   8 -0.0994 0.16891   2
   0  -7   8 -0.1589 0.16891   2
   0  -7  -8 -0.0498 0.05979   4
   0   7  -8 0.02026 0.10149   4
   0   7   8 -0.0598 0.09968   4
   0   7   8 0.04979 0.04979   4
   0   7  -8 0.01018 0.14211   4
   0   7   8 -0.0598 0.13958   4
   0   7  -8 -0.0100 0.20867   2
   0   7   8 0.03989 0.12958   4
   0   7  -8 0.02979 0.20867   2
   0   7  -8 0.00000 0.05974   1
   1  -7   8 10.4835 1.24298   4
   1  -7   8 7.27432 1.24298   4
   1  -7   8 10.2696 0.97809   4
  -1   7  -8 7.90597 1.17165   4
   1   7   8 10.8167 1.06768   4
   1   7   8 7.74031 1.08849   1
   1   7   8 9.36298 0.84656   1
   1   7   8 9.59479 1.11871   1
   2  -7   8 21.8158 1.99718   1
   2  -7   8 24.2164 2.40055   1
   2  -7   8 24.4179 2.23730   1
   2  -7   8 21.6248 1.91978   3
   2   7   8 21.6563 1.87085   4
   2   7   8 23.4709 2.20099   2
   2   7   8 21.2783 2.03971   4
   2   7   8 20.4367 2.06940   4
   3  -7   8 0.87391 0.51469   1
   3  -7   8 0.90314 0.86427   1
   3  -7   8 0.31317 0.21216   4
   3  -7   8 0.72725 0.64640   4
   3  -7   8 0.74741 0.35349   4
   3  -7   8 0.55552 0.59595   4
   3  -7   8 0.52523 0.43435   4
   3  -7   8 0.35349 0.33333   4
   3   7   8 0.37318 0.39289   4
   3   7   8 0.78804 0.18327   2
   3   7   8 0.59908 0.46165   4
   3   7   8 1.00789 0.62306   2
   3   7   8 0.56963 0.46165   4
   3   7   8 1.31946 0.21075   2
   4  -7   8 5.42498 0.88920   3
   4  -7   8 4.94925 0.70851   1
   4  -7   8 4.99024 0.94468   1
   4   7   8 5.42337 0.88922   2
   4   7   8 5.39210 0.62855   4
   4   7   8 4.93045 0.55003   4
   5  -7   8 0.09792 0.16647   3
   5  -7   8 0.13710 0.26438   3
   5   7   8 0.11339 0.17009   4
   5  -8  -8 0.17357 0.24110   4
   5  -8  -8 -0.1543 0.40509   4
   5   8  -8 0.04345 0.19535   2
   4  -8  -8 1.33416 0.28591   1
   4  -8  -8 1.66768 0.86720   1
   4  -8  -8 2.09660 0.58129   1
   4  -8  -8 2.67789 0.64801   1
   4   8  -8 1.28167 0.35854   1
   3  -8  -8 1.35059 0.30344   3
   3  -8  -8 1.01463 0.65298   1
   3  -8  -8 2.03561 0.51872   3
   3  -8  -8 0.93432 0.35158   1
   3  -8  -8 2.02589 0.81234   3
   3  -8  -8 1.50717 1.37013   3
   3  -8  -8 0.92425 0.64290   1
   3  -8  -8 1.22337 0.28380   3
   3  -8  -8 0.99458 0.22098   1
   3   8  -8 1.70450 0.92059   2
   3   8  -8 0.87032 0.21755   3
   3   8  -8 2.21494 0.60160   2
   3   8  -8 0.86040 0.31646   3
   3   8  -8 0.39563 0.79126   3
   2  -8  -8 30.9971 3.41486   1
   2  -8  -8 34.9118 3.41574   2
   2  -8  -8 35.8154 4.16043   2
   2  -8  -8 34.3955 3.03835   2
   2   8  -8 36.9960 3.12975   2
   2   8  -8 35.3330 2.84009   2
   2   8  -8 33.1936 3.44734   2
   2   8  -8 41.0879 3.69024   2
   1  -8  -8 2.05302 0.71103   2
   1   8  -8 4.25067 0.47444   2
   1   8  -8 5.55775 1.00697   2
   0  -8  -8 -0.0797 0.12949   2
   0  -8  -8 0.01028 0.06147   1
   0  -8   8 0.10849 0.15773   2
   0  -8   8 0.01018 0.18267   1
   0  -8  -8 -0.0100 0.12949   2
   0  -8   8 0.01018 0.04063   1
   0  -8  -8 0.01028 0.13321   1
   0   8  -8 0.01968 0.03946   2
   0   8  -8 -0.0099 0.09860   2
   0   8  -8 -0.1183 0.17741   2
   0   8   8 -0.0597 0.09962   2
   0   8  -8 0.11827 0.18730   2
   0   8   8 -0.0498 0.08962   2
   0   8   8 0.12949 0.10961   2
   0   8   8 -0.0399 0.03987   2
   1  -8   8 0.02927 0.05855   1
   1  -8   8 0.01948 0.07813   1
   1  -8   8 0.01948 0.13668   1
   1  -8   8 0.02927 0.13668   1
   1   8   8 0.00000 0.09977   1
   1   8   8 0.00985 0.02944   2
   1   8   8 -0.0098 0.07859   2
   2  -8   8 33.2293 2.89870   3
   2  -8   8 30.1947 3.35495   3
   2  -8   8 35.1865 3.10863   1
   2  -8   8 36.7456 3.24340   1
   2  -8   8 33.1739 2.80514   3
   2  -8   8 29.6152 3.21259   3
   2   8   8 33.5573 2.79251   2
   2   8   8 33.2401 2.79371   1
   2   8   8 31.2903 3.18923   4
   2   8   8 31.8530 2.99174   4
   2   8   8 33.2475 3.03049   1
   2   8   8 36.2747 3.09337   2
   2   8   8 33.2458 2.74917   3
   3  -8   8 0.37441 0.87020   4
   3  -8   8 0.35411 0.33391   4
   3  -8   8 1.15289 0.54714   1
   3  -8   8 0.78166 0.40053   1
   3  -8   8 0.80116 0.21492   1
   3  -8   8 1.21150 0.63505   1
   3  -8   8 0.78166 0.41033   1
   3  -8   8 1.89545 0.65465   1
   3   8   8 0.44164 0.17662   4
   3   8   8 0.16687 0.62810   4
   3   8   8 0.68357 0.20963   2
   3   8   8 0.60157 0.36460   2
   3   8   8 0.42205 0.42205   4
   3   8   8 0.59243 0.17316   2
   3   8   8 0.58328 0.20963   2
   4  -8   8 -0.0199 0.33837   3
   4  -8   8 -0.0199 0.35823   3
   4  -8   8 0.51743 0.24873   3
   4   8   8 0.13069 0.28002   1
   4   8   8 0.02943 0.14717   3
   4   8   8 0.19604 0.18668   1
   5  -8   8 0.53737 0.43227   1
   5  -8   8 -0.5586 0.55863   3
   5   8   8 0.60605 0.39390   4
   4  -9  -8 0.98148 0.40978   1
   3  -9  -8 0.61428 1.20901   1
   3  -9  -8 0.32176 0.57526   1
   3  -9  -8 0.84822 0.50700   1
   3  -9  -8 0.54602 0.24372   1
   3  -9  -8 0.44851 0.54602   1
   3  -9  -8 0.50700 0.18523   1
   3  -9  -8 0.58504 0.26328   1
   3  -9  -8 0.78006 0.24372   1
   3   9  -8 0.31777 0.18161   2
   3   9  -8 -0.1544 0.76268   2
   3   9  -8 0.14836 0.73211   3
   3   9  -8 0.17804 0.25723   3
   3   9  -8 1.03509 0.50848   2
   2  -9  -8 10.7537 1.38333   1
   2  -9  -8 12.7126 1.69640   1
   2  -9  -8 11.8038 1.58529   1
   2  -9  -8 17.0539 2.31739   2
   2  -9  -8 12.9443 1.17315   2
   2  -9  -8 10.3397 1.23191   1
   2  -9  -8 11.9149 1.24194   1
   2   9  -8 13.1321 1.05575   2
   2   9  -8 12.9429 1.29030   3
   2   9  -8 12.1228 1.17834   1
   2   9  -8 13.1136 1.40773   2
   2   9  -8 12.9350 1.29149   4
   2   9  -8 14.7991 1.75032   2
   2   9  -8 12.8276 1.13611   1
   2   9  -8 12.9363 1.60513   2
   1  -9  -8 1.00338 0.58196   3
   1  -9  -8 1.13897 0.26979   2
   1  -9  -8 0.37909 0.44054   1
   1   9  -8 0.97861 0.55488   1
   1   9  -8 1.31304 0.71882   2
   1   9  -8 1.07347 0.24919   2
   1   9  -8 1.72518 0.64220   2
   0  -9  -8 1.37804 0.54102   1
   0  -9  -8 1.88767 0.32787   2
   0  -9  -8 1.53001 0.59614   2
   0  -9   8 1.16769 0.63971   1
   0   9  -8 1.40123 0.63971   1
   0   9   8 1.80814 0.49678   2
   0   9  -8 1.29969 0.69043   1
   0   9  -8 1.96496 0.30310   2
   0   9   8 1.39841 0.25515   1
   1  -9   8 1.32588 0.59153   4
   1  -9   8 1.15247 0.30600   4
   1   9   8 1.42284 0.45809   2
   1   9   8 1.35325 0.23055   1
   1   9   8 1.04246 0.45105   1
   2  -9   8 12.5914 1.56302   1
   2  -9   8 10.0359 1.16033   4
   2  -9   8 10.8808 1.35370   4
   2  -9   8 14.9360 1.73674   1
   2  -9   8 10.7688 1.11959   4
   2  -9   8 12.1089 1.20609   1
   2  -9   8 12.5720 1.27365   1
   2   9   8 12.0334 1.30162   3
   2   9   8 11.9389 1.05312   4
   2   9   8 12.0292 1.07572   4
   2   9   8 11.7224 1.07286   4
   2   9   8 11.2401 1.19094   4
   2   9   8 12.9750 1.37856   2
   2   9   8 10.0984 1.07286   4
   2   9   8 11.0531 1.24998   4
   3  -9   8 8.18400 0.83410   2
   3  -9   8 7.62060 0.99311   4
   3  -9   8 8.18114 1.03255   3
   3  -9   8 4.35747 1.33770   4
   3  -9   8 10.1466 1.39348   2
   3  -9   8 6.84034 1.13501   4
   3  -9   8 8.18400 1.04021   2
   3   9   8 8.16208 1.34398   3
   3   9   8 8.18252 0.89173   4
   3   9   8 8.23750 0.83465   1
   3   9   8 8.03455 0.78486   3
   3   9   8 9.26271 0.84375   1
   3   9   8 8.44617 0.79834   1
   3   9   8 9.15378 1.04332   1
   3   9   8 8.09332 0.99759   3
   4  -9   8 1.83050 0.43932   1
   4  -9   8 2.23066 0.56768   3
   4  -9   8 2.47969 0.65728   3
   4   9   8 2.16149 0.36335   1
   4   9   8 1.76543 0.33351   3
   4   9   8 2.18943 0.35400   1
   4   9   8 2.43166 0.63352   1
   5  -9   8 1.51997 0.45108   3
   5  -9   8 1.56895 0.44125   3
   5   9   8 0.81827 0.68193   1
   5  10  -8 0.22764 0.33004   2
   4 -10  -8 2.43023 0.41938   1
   4 -10  -8 3.49765 0.82910   1
   4 -10  -8 2.14430 0.51459   1
   4  10  -8 2.27509 0.46211   1
   3 -10  -8 27.0387 2.82869   2
   3 -10  -8 29.0278 2.68289   1
   3 -10  -8 23.8274 3.71453   2
   3 -10  -8 27.0533 2.54456   2
   3 -10  -8 26.9984 2.39581   2
   3 -10  -8 27.6815 2.84757   1
   3 -10  -8 26.6763 3.82530   2
   3 -10  -8 27.0464 2.68308   2
   3  10  -8 26.5719 2.38740   3
   3  10  -8 24.7043 3.07815   3
   3  10  -8 29.8204 2.25098   1
   3  10  -8 27.0760 2.63771   3
   3  10  -8 26.4967 2.57540   3
   2 -10  -8 0.40451 0.48350   2
   2 -10  -8 0.67096 0.49340   2
   2 -10  -8 -0.0197 0.12827   2
   2 -10  -8 0.18746 0.73014   2
   2 -10  -8 0.16776 0.13817   2
   2 -10  -8 -0.3848 0.38482   2
   2 -10  -8 -0.1382 0.23685   2
   2 -10  -8 0.20726 0.15787   2
   2  10  -8 0.19293 0.31233   2
   2  10  -8 0.09974 0.14956   1
   2  10  -8 0.21126 0.44085   2
   2  10  -8 0.25714 0.12862   2
   2  10  -8 0.31233 0.18371   2
   2  10  -8 0.42252 0.40419   2
   2  10  -8 -0.0643 0.15616   2
   2  10  -8 0.11940 0.44085   2
   1 -10  -8 3.80196 0.91567   2
   1  10  -8 6.71523 1.01485   2
   1  10  -8 5.50125 0.94844   2
   1  10  -8 4.84679 0.53116   2
   0  10   8 0.59342 0.16815   2
   0  10   8 0.38539 0.37532   1
   0  10  -8 1.05605 0.67821   2
   1 -10   8 8.03217 0.76351   4
   1 -10   8 7.63036 1.20373   4
   1  10   8 7.12923 0.71891   1
   1  10   8 7.01936 1.05844   1
   1  10   8 7.49860 0.92864   1
   2 -10   8 12.4493 1.44670   4
   2 -10   8 16.4329 1.93444   1
   2 -10   8 11.1759 1.38548   4
   2 -10   8 15.3426 1.85412   4
   2 -10   8 12.0112 1.28360   4
   2 -10   8 14.5174 1.56891   4
   2  10   8 14.8137 1.30735   4
   2  10   8 15.3151 1.57279   4
   2  10   8 14.2830 1.21891   4
   2  10   8 11.6780 1.22877   4
   2  10   8 13.5654 1.24839   4
   2  10   8 14.5385 1.44500   4
   2  10   8 14.0470 1.36631   4
   2  10   8 13.9291 1.55317   4
   3 -10   8 8.80815 0.98520   2
   3 -10   8 8.20709 1.45819   2
   3 -10   8 6.66673 1.58294   4
   3 -10   8 7.91479 0.81183   4
   3 -10   8 7.60029 0.97417   4
   3 -10   8 7.68141 1.28868   4
   3 -10   8 8.48301 1.11328   2
   3  10   8 8.16971 0.76498   3
   3  10   8 8.14030 0.86306   3
   3  10   8 7.22824 0.99056   3
   3  10   8 8.85823 0.77501   1
   3  10   8 7.64015 1.21614   3
   3  10   8 8.05205 1.03965   3
   3  10   8 7.34590 0.85322   3
   3  10   8 7.92456 0.81407   3
   4 -10   8 -0.0598 0.29892   3
   4 -10   8 0.35868 0.32880   3
   4 -10   8 -0.2292 0.22916   3
   4  10   8 0.18641 0.36347   1
   4  10   8 0.62449 0.18641   1
   4  10   8 0.09806 0.13730   2
   4  10   8 0.41938 0.23296   1
   5 -10   8 0.40214 0.32372   3
   5 -10   8 0.15552 0.40681   1
   5  10   8 0.59742 0.19608   4
   5  10   8 -0.4108 0.43879   4
   5  11  -8 0.15559 0.11667   4
   4 -11  -8 2.58456 0.88700   1
   4 -11  -8 1.65949 0.50549   1
   4 -11  -8 1.78347 0.36237   1
   4  11  -8 3.00784 0.63367   1
   3 -11  -8 9.56100 1.75845   1
   3 -11  -8 6.53600 0.82908   1
   3 -11  -8 5.33978 1.24930   4
   3 -11  -8 7.57190 2.18129   1
   3 -11  -8 6.18605 0.75562   4
   3 -11  -8 7.92747 1.51826   1
   3 -11  -8 8.18684 1.33560   1
   3 -11  -8 7.25480 0.84558   1
   3 -11  -8 6.87041 0.95132   1
   3  11  -8 6.89835 0.66671   1
   3  11  -8 6.32661 0.88119   3
   3  11  -8 6.27705 1.70289   3
   3  11  -8 6.76495 0.65780   1
   3  11  -8 6.31668 0.76231   3
   2 -11  -8 4.66528 1.67952   2
   2 -11  -8 4.86172 1.05088   2
   2 -11  -8 3.89156 0.55448   1
   2 -11  -8 3.99239 0.59483   1
   2 -11  -8 4.80271 1.27678   2
   2 -11  -8 4.84202 0.71701   2
   2 -11  -8 5.40189 1.05088   2
   2 -11  -8 3.18580 0.62506   1
   2  11  -8 3.97573 0.59789   1
   2  11  -8 4.40421 1.03626   1
   2  11  -8 4.27468 0.50813   1
   2  11  -8 4.19492 0.50813   1
   2  11  -8 5.16128 0.93920   2
   2  11  -8 4.19492 0.56801   1
   1 -11  -8 13.7636 1.25391   2
   1 -11  -8 13.0527 1.47109   2
   1 -11  -8 13.8919 1.69819   2
   1  11  -8 11.6139 1.68217   1
   1  11  -8 13.0049 1.65605   4
   1  11  -8 13.4452 1.15482   2
   0  11  -8 4.65914 0.55797   3
   0  11  -8 5.04029 1.08483   2
   1 -11   8 0.87162 0.22276   2
   1 -11   8 0.42843 0.70389   4
   1  11   8 0.53667 0.43738   1
   1  11   8 0.68489 0.19026   2
   1  11   8 0.62783 0.32346   2
   2 -11   8 0.47918 0.23448   4
   2 -11   8 0.56068 0.68309   4
   2 -11   8 0.67851 0.45558   1
   2 -11   8 0.32620 0.39758   4
   2 -11   8 1.09520 0.67851   1
   2 -11   8 0.63000 0.34893   1
   2  11   8 0.39331 0.53089   4
   2  11   8 0.21628 0.46215   4
   2  11   8 0.47191 0.17693   4
   2  11   8 0.53089 0.21628   4
   2  11   8 0.39331 0.20652   4
   2  11   8 0.54075 0.24577   4
   2  11   8 0.39331 0.43266   4
   2  11   8 0.50140 0.21628   4
   3 -11   8 19.4393 1.91028   2
   3 -11   8 15.4718 1.65586   4
   3 -11   8 16.0407 1.99111   4
   3 -11   8 15.3397 1.66605   4
   3 -11   8 15.0045 1.78792   4
   3 -11   8 15.0654 2.30608   4
   3  11   8 16.6029 1.58866   3
   3  11   8 15.2201 1.64758   3
   3  11   8 14.4650 1.96138   3
   3  11   8 16.6520 1.61817   3
   3  11   8 15.8086 1.50042   3
   3  11   8 17.0737 1.72598   3
   3  11   8 17.0690 1.44063   3
   4 -11   8 0.58793 0.31885   3
   4 -11   8 -0.1793 0.54805   3
   4  11   8 -0.4582 0.45825   1
   4  11   8 0.38339 0.15900   1
   4  11   8 0.05891 0.21604   2
   5 -11   8 1.27818 0.46979   3
   5 -11   8 0.60623 0.41226   1
   5  11   8 1.27513 0.46262   4
   5  11   8 1.80281 0.26948   4
   5 -12  -8 1.15807 0.53967   1
   5  12  -8 1.57600 0.35581   1
   4 -12  -8 -0.1718 0.17184   1
   4 -12  -8 0.45835 0.42971   1
   4 -12  -8 0.24829 0.24829   1
   4  12  -8 0.87481 0.33373   1
   4  12  -8 0.04936 0.12847   3
   3 -12  -8 10.2313 1.68552   4
   3 -12  -8 11.2564 1.24755   1
   3 -12  -8 9.47767 1.66367   4
   3 -12  -8 9.42721 1.76440   4
   3 -12  -8 9.28602 2.59118   4
   3 -12  -8 10.2419 2.11931   4
   3 -12  -8 10.2136 1.16963   4
   3 -12  -8 10.5422 1.19988   1
   3  12  -8 9.31069 0.96074   3
   3  12  -8 9.78609 1.82254   3
   3  12  -8 11.9662 0.94006   1
   3  12  -8 9.64739 1.17873   3
   3  12  -8 11.2722 0.97522   1
   3  12  -8 10.2142 1.05161   3
   3  12  -8 10.7626 1.08943   1
   2 -12  -8 -0.0684 0.17577   2
   2 -12  -8 0.03909 0.14648   2
   2 -12  -8 0.07819 0.03909   2
   2 -12  -8 0.05859 0.07819   2
   2 -12  -8 -0.1465 0.24416   2
   2 -12  -8 0.08789 0.10749   2
   2 -12  -8 0.07819 0.06839   2
   2 -12  -8 0.00000 0.05887   1
   2  12  -8 -0.0091 0.04529   2
   2  12  -8 -0.0272 0.11787   2
   2  12  -8 0.00910 0.02719   2
   2  12  -8 0.06348 0.05439   2
   2  12  -8 0.01810 0.03629   2
   2  12  -8 0.05439 0.12697   2
   2  12  -8 -0.0272 0.03629   2
   2  12  -8 0.09977 0.11787   2
   1 -12  -8 0.82193 0.24460   2
   1 -12  -8 0.56752 0.10768   2
   1 -12  -8 0.56752 0.09786   2
   1  12  -8 0.04646 0.15815   2
   1  12  -8 0.04646 0.15815   2
   0  12  -8 0.38072 0.22845   2
   0  12  -8 0.88516 0.60907   2
   1 -12   8 7.47652 0.84663   4
   1 -12   8 8.20068 1.08123   4
   1 -12   8 7.03791 1.28513   4
   1 -12   8 10.5692 1.31993   2
   1  12   8 8.43956 0.87066   4
   1  12   8 8.46923 1.01903   4
   1  12   8 9.14200 1.21692   4
   1  12   8 7.62824 0.78164   4
   2 -12   8 0.58248 0.37858   1
   2 -12   8 0.32036 0.54363   1
   2 -12   8 0.41744 0.28150   1
   2 -12   8 0.28150 0.21354   1
   2 -12   8 0.41744 0.37858   1
   2 -12   8 -0.0389 0.53389   1
   2  12   8 0.28115 0.37174   2
   2  12   8 0.16317 0.15417   2
   2  12   8 0.28115 0.39903   2
   2  12   8 0.28115 0.15417   2
   2  12   8 0.18137 0.12698   2
   2  12   8 0.19046 0.12698   2
   2  12   8 0.18137 0.17227   2
   2  12   8 0.07873 0.35408   3
   3 -12   8 0.64075 0.58984   1
   3 -12   8 0.54913 0.57974   1
   3 -12   8 0.25422 0.96617   1
   3 -12   8 0.98520 0.44778   2
   3  12   8 0.83330 0.42550   1
   3  12   8 0.71932 0.80689   3
   3  12   8 0.56881 0.22558   3
   3  12   8 0.40206 0.22558   3
   3  12   8 0.62763 0.23541   3
   3  12   8 0.71932 0.22359   3
   4 -12   8 1.65387 0.60772   3
   4 -12   8 1.55423 0.41844   3
   4 -12   8 1.30340 0.58163   1
   4  12   8 1.16525 0.30617   2
   4  12   8 1.55115 0.30838   1
   4  12   8 1.40228 0.27645   2
   4  12   8 1.86890 0.45788   1
   5 -12   8 0.02941 0.08824   3
   5 -12   8 -0.0882 0.10792   3
   5  12   8 0.04620 0.04620   4
   5  12   8 -0.0555 0.08321   4
   5 -13  -8 0.02842 0.05684   3
   5  13  -8 0.00974 0.02911   4
   4 -13  -8 1.12772 0.54478   1
   4 -13  -8 0.37271 0.26755   1
   4 -13  -8 -0.1625 0.16249   1
   4  13  -8 0.16537 0.19303   1
   4  13  -8 0.02998 0.08994   2
   3 -13  -8 0.16038 0.15092   1
   3 -13  -8 0.33960 0.39618   1
   3 -13  -8 0.16975 0.14146   1
   3 -13  -8 0.08487 0.12263   1
   3 -13  -8 -0.0849 0.35842   1
   3  13  -8 0.09576 0.07830   1
   3  13  -8 -0.1044 0.36550   1
   3  13  -8 0.00994 0.12884   3
   3  13  -8 0.01978 0.12884   3
   2 -13  -8 0.56133 0.68715   1
   2 -13  -8 0.69686 0.35814   1
   2 -13  -8 -0.1839 1.33566   1
   2 -13  -8 0.78394 0.75491   1
   2 -13  -8 0.22186 0.95816   4
   2 -13  -8 0.53230 0.41619   1
   2 -13  -8 0.91947 0.29037   1
   2 -13  -8 0.66783 0.25164   1
   2  13  -8 1.91543 0.60540   2
   2  13  -8 3.20743 0.85834   2
   1  13  -8 3.54371 0.53522   2
   1  13  -8 3.22991 0.90437   2
   1  13  -8 2.32190 0.83433   1
   1  13  -8 2.90498 0.47247   1
   1 -13   8 0.73843 0.58499   2
   1 -13   8 -0.1247 0.17258   2
   1 -13   8 0.56585 0.37403   2
   1 -13   8 0.77682 0.65214   2
   1  13   8 0.39927 0.13924   2
   1  13   8 0.15838 0.14845   4
   1  13   8 0.49213 0.20424   2
   1  13   8 0.28788 0.38996   2
   2 -13   8 4.98904 1.02022   4
   2 -13   8 4.52995 1.23452   4
   2 -13   8 4.93808 0.69376   4
   2 -13   8 5.71315 1.23395   1
   2  13   8 5.31921 1.03403   3
   2  13   8 6.79837 0.63035   2
   2  13   8 5.75390 0.60335   2
   2  13   8 5.57380 0.93645   2
   2  13   8 6.10507 0.67533   2
   2  13   8 4.94955 0.66911   3
   2  13   8 5.39370 0.61228   2
   2  13   8 5.77187 0.96345   2
   3 -13   8 0.70248 1.13005   1
   3 -13   8 3.70576 0.82128   2
   3 -13   8 2.84440 0.61091   2
   3 -13   8 2.71420 0.68103   2
   3  13   8 3.44206 0.61627   1
   3  13   8 3.12514 0.44893   1
   3  13   8 3.04593 0.39613   1
   3  13   8 3.01070 0.47533   1
   3  13   8 2.92266 0.37856   1
   3  13   8 1.54007 1.00057   3
   4 -13   8 0.83840 0.56621   1
   4 -13   8 1.29583 0.72962   1
   4 -13   8 0.41374 0.42466   1
   4  13   8 1.45741 0.28029   4
   4  13   8 0.96708 0.59825   2
   4  13   8 1.29610 0.22932   2
   4  13   8 1.33601 0.37883   2
   5 -13   8 0.60769 0.31363   3
   5 -13   8 0.34045 0.26482   1
   5  13   8 0.15092 0.35658   1
   5  13   8 0.60444 0.19763   4
   5 -14  -8 1.68702 0.49757   1
   5  14  -8 2.32442 0.38738   4
   4 -14  -8 5.20857 1.27106   1
   4 -14  -8 2.68365 0.98228   2
   4 -14  -8 4.31295 0.63743   2
   4 -14  -8 3.45333 0.55697   2
   4  14  -8 4.44114 0.54919   1
   4  14  -8 4.35584 0.40719   1
   3 -14  -8 4.59818 0.63549   1
   3 -14  -8 5.48594 0.73833   1
   3 -14  -8 6.52341 1.55138   1
   3  14  -8 2.98553 0.60500   3
   3  14  -8 3.22361 1.38860   3
   3  14  -8 3.48752 0.44131   1
   3  14  -8 3.10452 0.54551   3
   2 -14  -8 11.2129 2.12213   4
   2 -14  -8 9.14028 1.20058   4
   2 -14  -8 11.6981 2.09578   1
   2 -14  -8 12.4031 1.16222   1
   2 -14  -8 11.2133 1.40040   4
   2 -14  -8 13.0127 2.01953   1
   2 -14  -8 11.5266 1.16222   1
   2  14  -8 10.3327 1.70553   3
   2  14  -8 8.64720 1.74534   3
   2  14  -8 10.9380 1.08345   3
   2  14  -8 11.9335 1.01902   1
   2  14  -8 11.1936 1.11569   3
   1 -14  -8 -0.3071 0.39343   2
   1 -14  -8 0.14391 0.11513   2
   1 -14  -8 0.10560 0.24952   2
   1 -14  -8 0.23036 0.12476   2
   1  14  -8 -0.0734 0.26601   2
   1  14  -8 0.10094 0.08253   2
   1  14  -8 -0.0734 0.22929   2
   1  14  -8 0.05502 0.09174   2
   0  14  -8 2.98071 0.52719   3
   0  14  -8 3.64988 0.90235   3
   1 -14   8 2.59960 0.60214   2
   1 -14   8 1.48850 0.85639   3
   1  14   8 3.03096 0.42251   2
   1  14   8 1.89184 0.35657   3
   1  14   8 1.80262 0.66367   3
   1  14   8 1.72344 0.34663   3
   1  14   8 2.36044 0.40417   2
   2 -14   8 6.55138 1.21439   3
   2 -14   8 5.64315 1.42862   3
   2 -14   8 7.21467 1.23476   3
   2 -14   8 7.24243 1.66140   3
   2 -14   8 9.77770 0.93310   1
   2  14   8 7.27123 1.25690   3
   2  14   8 6.85229 0.81720   3
   2  14   8 6.73418 1.16175   3
   2  14   8 7.62810 0.74504   1
   2  14   8 6.98027 0.82697   3
   2  14   8 7.46840 1.02895   1
   2  14   8 8.06272 0.82494   1
   2  14   8 7.27073 0.76537   3
   3 -14   8 0.59445 0.55412   3
   3 -14   8 0.48358 0.32239   3
   3 -14   8 0.78586 0.48358   3
   3  14   8 0.81494 0.26289   1
   3  14   8 0.28454 0.23553   3
   3  14   8 1.25300 0.43815   1
   3  14   8 0.49070 0.19275   1
   4 -14   8 0.95524 0.35820   3
   4 -14   8 0.57707 0.41788   3
   4  14   8 0.10134 0.15196   2
   4  14   8 -0.1768 0.28855   1
   4  14   8 0.49326 0.48393   1
   4  14   8 0.38504 0.21285   2
   5 -14   8 0.14685 0.13713   3
   5  14   8 0.04572 0.06409   4
   5 -15  -8 0.52507 0.74283   1
   5  15  -8 0.59483 0.26232   4
   4 -15  -8 -0.0286 0.34323   1
   4 -15  -8 0.01019 0.11180   2
   4  15  -8 0.00000 0.11878   1
   4  15  -8 -0.0193 0.04832   1
   3 -15  -8 1.56544 1.04018   4
   3 -15  -8 2.48447 0.56558   4
   3 -15  -8 2.92018 0.59326   1
   3 -15  -8 3.56905 1.21442   1
   3  15  -8 2.54117 0.45852   3
   3  15  -8 2.12433 0.42686   3
   3  15  -8 2.55365 0.35487   1
   2 -15  -8 21.9777 2.39156   4
   2 -15  -8 23.1327 3.05311   1
   2 -15  -8 22.6364 3.36218   1
   2 -15  -8 19.7073 2.14935   4
   2 -15  -8 21.7255 3.00706   4
   2 -15  -8 20.9484 2.03831   4
   2 -15  -8 22.9735 2.03234   1
   2  15  -8 22.4889 1.87633   3
   2  15  -8 22.5242 2.18362   4
   2  15  -8 20.7458 1.96584   3
   2  15  -8 21.6340 2.49474   3
   2  15  -8 20.3766 2.67430   3
   1 -15  -8 3.45945 0.51177   1
   1 -15  -8 4.04708 1.04255   1
   1  15  -8 1.81918 0.35652   2
   1  15  -8 0.89496 0.98544   3
   1  15  -8 0.74407 1.05584   3
   1  15  -8 1.88318 0.39311   2
   0  15  -8 3.21375 0.50693   3
   0  15  -8 1.97688 0.81109   3
   1 -15   8 1.44745 1.10084   3
   1  15   8 2.94932 0.50977   4
   1  15   8 4.04408 0.45442   1
   1  15   8 3.48976 0.90874   1
   1  15   8 4.18948 0.48167   1
   2 -15   8 0.02037 0.29595   3
   2 -15   8 0.03061 0.25510   3
   2 -15   8 0.04855 0.20416   1
   2 -15   8 -0.2333 0.41797   1
   2 -15   8 -0.4957 0.49567   1
   2  15   8 0.06118 0.09616   1
   2  15   8 0.05242 0.11360   1
   2  15   8 0.08739 0.27961   1
   2  15   8 0.03497 0.10483   1
   2  15   8 -0.1748 0.20976   1
   3 -15   8 -0.0101 0.18109   3
   3 -15   8 0.09055 0.20129   3
   3 -15   8 0.15091 0.18109   3
   3 -15   8 0.23147 0.16101   3
   3  15   8 0.11383 0.10505   1
   3  15   8 0.00985 0.06873   3
   3  15   8 0.07879 0.08757   1
   4 -15   8 8.25929 1.05054   1
   4 -15   8 9.47756 1.17169   3
   4  15   8 10.0377 0.95372   4
   4  15   8 9.51884 0.81173   4
   4  15   8 7.89167 0.89540   2
   4 -16  -8 5.26967 0.60585   4
   3 -16  -8 0.71907 0.40568   1
   3 -16  -8 0.93111 0.47938   1
   3 -16  -8 1.28139 1.00490   1
   3  16  -8 0.71614 0.23582   1
   3  16  -8 0.69546 0.25829   3
   3  16  -8 0.51659 0.37747   3
   2 -16  -8 2.33847 0.64451   1
   2 -16  -8 2.66991 0.51559   1
   2 -16  -8 1.36251 0.45413   4
   2 -16  -8 2.80807 0.99433   1
   2 -16  -8 1.57850 1.88648   4
   2  16  -8 2.19255 0.43505   1
   2  16  -8 1.48782 1.01856   3
   2  16  -8 1.57892 0.37153   3
   2  16  -8 1.92279 0.35668   1
   2  16  -8 2.79289 0.47851   1
   1 -16  -8 0.11126 0.29676   1
   1 -16  -8 0.07424 0.12057   1
   1  16  -8 0.04505 0.09925   1
   1  16  -8 0.19841 0.31566   1
   1  16  -8 0.00000 0.09925   1
   0 -16   8 0.72990 0.83128   3
   0  16  -8 0.04057 0.66909   3
   0  16   8 1.23000 0.32124   1
   1 -16   8 0.13244 0.37835   1
   1  16   8 0.08008 0.09793   1
   1  16   8 0.21363 0.15132   1
   1  16   8 0.12463 0.08901   1
   1  16   8 -0.0979 0.28478   1
   1  16   8 0.06231 0.08901   1
   2 -16   8 8.98105 1.82680   3
   2 -16   8 8.86874 1.38793   3
   2 -16   8 9.93061 1.33678   2
   2  16   8 9.81735 1.07443   3
   2  16   8 9.89672 0.94071   3
   2  16   8 8.32906 1.29125   3
   2  16   8 9.82724 0.95608   3
   2  16   8 8.88095 0.95608   3
   3 -16   8 0.34033 0.61879   1
   3 -16   8 0.15464 0.45380   1
   3 -16   8 0.36091 0.48473   1
   3 -16   8 0.38180 0.58278   3
   3  16   8 1.51444 0.44902   1
   3  16   8 0.73086 0.21135   1
   4 -16   8 0.23819 0.20843   3
   4 -16   8 0.13895 0.16872   3
   4  16   8 0.07370 0.23015   4
   4  16   8 0.05376 0.09684   2
   4  16   8 -0.0921 0.09208   4
   4 -17  -8 0.09355 0.17677   1
   4 -17  -8 -0.0565 0.60328   3
   4  17  -8 -0.1754 0.20478   4
   3 -17  -8 -0.5616 0.56163   1
   3 -17  -8 0.72741 0.51563   1
   3 -17  -8 0.11121 0.31336   4
   3 -17  -8 0.14731 0.26701   1
   3  17  -8 0.23181 0.25855   1
   3  17  -8 0.33877 0.16044   1
   3  17  -8 0.14265 0.14265   1
   2 -17  -8 0.42392 0.65608   4
   2 -17  -8 0.45420 0.40693   4
   2 -17  -8 -0.4622 1.60413   1
   2 -17  -8 0.77943 0.27190   1
   2 -17  -8 0.45450 0.37104   4
   2  17  -8 0.82115 0.25065   1
   2  17  -8 0.12991 0.25982   3
   2  17  -8 0.29981 0.36978   3
   1 -17  -8 0.66237 0.67138   1
   1 -17  -8 0.54442 0.29032   1
   1  17  -8 0.27174 0.23147   3
   1  17  -8 -0.7648 0.76481   1
   1  17  -8 0.46241 0.86257   1
   0  17   8 0.32283 0.17037   1
   0  17  -8 0.11914 0.15582   1
   0  17  -8 -0.2016 0.31163   1
   1 -17   8 0.00000 0.15981   1
   1  17   8 0.06107 0.04357   1
   2 -17   8 0.02921 0.05841   1
   2 -17   8 -0.0584 0.07795   1
   2 -17   8 0.05841 0.08762   1
   2  17   8 0.07684 0.04266   1
   2  17   8 0.00857 0.03418   1
   2  17   8 0.10245 0.05122   1
   2  17   8 0.03418 0.03418   1
   3 -17   8 1.46411 1.10860   1
   3 -17   8 2.85511 0.71113   1
   3 -17   8 3.39009 0.80243   3
   3 -17   8 2.80276 0.66927   1
   3  17   8 3.17185 0.43816   2
   3  17   8 3.12145 0.41355   2
   3  17   8 3.89513 0.40199   1
   3  17   8 3.19952 0.55565   4
   4 -17   8 0.17426 0.33698   1
   4 -17   8 0.87161 0.39622   3
   4  17   8 0.97020 0.37521   4
   4  17   8 0.53082 0.23796   4
   4  17   8 0.96102 0.16470   4
   4 -18  -8 1.08066 0.23536   1
   4 -18  -8 2.36970 0.73055   3
   4  18  -8 1.09423 0.28656   1
   3 -18  -8 3.34740 0.64525   4
   3 -18  -8 2.92163 0.95025   4
   3 -18  -8 6.02597 1.42551   1
   3 -18  -8 3.82295 0.62023   1
   3  18  -8 3.42230 0.49942   1
   3  18  -8 3.96803 0.46250   1
   3  18  -8 3.62577 0.51798   1
   2 -18  -8 0.76971 0.27749   1
   2 -18  -8 0.47449 0.49464   4
   2 -18  -8 0.94872 0.56386   1
   2 -18  -8 0.69889 0.98840   4
   2  18  -8 0.67007 0.31006   3
   2  18  -8 0.95234 0.26844   1
   2  18  -8 0.44006 0.28999   3
   1 -18  -8 3.58244 0.97780   1
   1 -18  -8 3.92912 0.59563   1
   1  18  -8 1.88263 1.05709   3
   1  18  -8 3.09892 0.61631   1
   1  18  -8 2.74309 0.47958   3
   0  18   8 3.63166 0.53507   1
   0  18  -8 0.94272 0.99335   3
   1 -18   8 4.60325 0.75027   3
   1 -18   8 4.04347 0.82496   3
   1 -18   8 2.28138 1.20183   3
   1  18   8 4.54182 0.59659   3
   1  18   8 3.89130 0.53600   3
   1  18   8 4.15935 0.69492   3
   1  18   8 4.05012 0.82396   3
   2 -18   8 1.48630 0.56709   1
   2  18   8 1.25080 0.32330   1
   2  18   8 0.84240 0.26382   1
   2  18   8 1.10613 0.32330   1
   2  18   8 0.81688 0.25528   1
   3 -18   8 0.21283 0.64907   2
   3 -18   8 0.04259 0.48950   2
   3 -18   8 1.27094 0.36027   3
   3 -18   8 0.60659 0.50017   2
   3  18   8 1.08845 0.28358   1
   3  18   8 1.45423 0.27441   1
   3  18   8 0.72258 0.21037   1
   3  18   8 0.35734 0.47641   2
   4 -18   8 0.33456 0.47805   1
   4  18   8 1.36429 0.15464   4
   4  18   8 0.94589 0.26375   4
   4 -19  -8 1.38602 0.26043   3
   4 -19  -8 1.45115 0.66978   3
   3 -19  -8 1.72673 0.41295   1
   3 -19  -8 2.92793 0.91965   1
   3 -19  -8 1.31527 0.49576   2
   3  19  -8 1.89382 0.42519   1
   3  19  -8 2.02913 0.32856   1
   3  19  -8 1.08571 0.35845   2
   2 -19  -8 1.15541 0.66659   1
   2 -19  -8 0.49467 0.41386   4
   2 -19  -8 0.63597 0.24188   4
   2 -19  -8 0.87101 0.55996   1
   2  19  -8 0.25014 0.27022   3
   2  19  -8 0.68444 0.28958   1
   2  19  -8 0.19012 0.38023   3
   1 -19  -8 5.20127 1.07519   1
   1 -19  -8 4.88085 0.74707   3
   1  19  -8 3.33352 0.54378   3
   0  19   8 0.16361 0.16361   1
   1  19   8 -0.0423 0.17786   1
   1  19   8 0.01982 0.18869   3
   1  19   8 -0.0508 0.07619   1
   2 -19   8 0.40428 0.61141   1
   2 -19   8 0.31555 0.43396   1
   2  19   8 0.24684 0.22713   3
   2  19   8 0.34229 0.22247   1
   2  19   8 0.29627 0.42465   3
   2  19   8 0.59901 0.28238   1
   3 -19   8 2.08649 0.45641   2
   3 -19   8 2.16609 0.70868   4
   3 -19   8 1.95612 0.70636   2
   3 -19   8 1.51050 0.57599   2
   3  19   8 2.34198 0.34897   1
   3  19   8 2.10675 0.51456   1
   3  19   8 2.01015 0.34349   2
   4 -19   8 0.02956 0.04924   3
   4 -19   8 0.09858 0.08869   3
   4  19   8 0.14457 0.04514   4
   4 -20  -8 0.29552 0.12933   3
   4 -20  -8 0.62800 0.38788   3
   4  20  -8 0.21449 0.14305   4
   3 -20  -8 3.13491 0.97401   1
   3 -20  -8 3.95811 0.53340   3
   3 -20  -8 3.11466 0.60877   1
   3  20  -8 3.80862 0.42102   4
   3  20  -8 4.13173 0.57766   4
   2 -20  -8 3.12968 0.44426   3
   2 -20  -8 3.19057 0.62146   3
   2 -20  -8 3.11955 0.98938   3
   2  20  -8 3.18909 0.56547   3
   2  20  -8 2.63363 0.40057   3
   2  20  -8 1.85248 0.36049   3
   1 -20  -8 1.54880 0.85664   1
   1 -20  -8 2.29296 0.46720   1
   0  20   8 -0.0085 0.02552   1
   1  20   8 0.25836 0.28816   3
   1  20   8 0.07954 0.16895   3
   1  20   8 0.12918 0.32793   3
   2 -20   8 0.46461 0.48533   2
   2  20   8 0.96790 0.28776   1
   2  20   8 0.81964 0.32266   1
   2  20   8 0.43531 0.20778   2
   2  20   8 0.96790 0.40987   1
   3 -20   8 1.46022 0.55737   2
   3 -20   8 3.03556 0.47769   4
   3 -20   8 2.14013 0.70227   2
   3 -20   8 2.22935 0.63541   2
   3  20   8 2.24309 0.30314   4
   3  20   8 2.12762 0.41518   2
   3  20   8 1.74368 0.32180   2
   3 -21  -8 0.74273 0.34352   3
   3 -21  -8 0.50027 0.26054   1
   3 -21  -8 -0.2878 0.51989   3
   3  21  -8 0.54394 0.19340   1
   3  21  -8 0.55535 0.31889   4
   3  21  -8 1.05478 0.22463   4
   2 -21  -8 1.11945 0.45142   1
   2 -21  -8 2.14862 0.65001   1
   2 -21  -8 1.57088 0.69511   1
   2 -21  -8 1.33616 0.26180   1
   2  21  -8 0.82509 0.26485   4
   2  21  -8 1.02798 0.38076   1
   1 -21  -8 4.84460 0.70071   1
   0 -21  -8 0.05094 0.05094   1
   0  21   8 -0.0085 0.03399   1
   1  21   8 0.26846 0.28830   3
   1  21   8 1.01208 0.31215   3
   2 -21   8 0.12679 0.19018   2
   2 -21   8 0.78931 0.52955   1
   2  21   8 0.66969 0.26245   1
   2  21   8 0.45255 0.20816   1
   2  21   8 0.26245 0.13572   1
   2  21   8 -0.0724 0.20816   1
   3 -21   8 0.20793 0.38133   1
   3 -21   8 -0.1092 0.39682   4
   3 -21   8 0.83325 0.36707   4
   3 -21   8 0.57780 0.27737   1
   3  21   8 0.47461 0.32770   1
   3  21   8 0.64283 0.16293   4
   3  21   8 0.63886 0.23819   4
   3 -22  -8 1.67574 0.27624   3
   3 -22  -8 1.31665 0.54325   3
   3  22  -8 1.13179 0.25024   4
   3  22  -8 0.56058 0.25866   1
   3  22  -8 1.07805 0.30192   1
   2 -22  -8 0.39822 0.28713   1
   2 -22  -8 0.13139 0.42449   2
   2 -22  -8 0.13318 0.38989   2
   2  22  -8 0.14738 0.16710   1
   2  22  -8 0.18671 0.14738   1
   1 -22  -8 3.29935 0.54404   1
   0 -22  -8 1.43609 0.42999   1
   0  22   8 1.20389 0.36978   1
   1  22   8 1.00499 0.28839   1
   1  22   8 0.66739 0.28884   2
   2 -22   8 4.33063 1.09897   2
   2 -22   8 4.53735 0.82699   2
   2 -22   8 4.84208 0.53317   2
   2  22   8 5.60591 0.61982   4
   2  22   8 5.26657 0.58740   2
   2  22   8 5.49736 0.56804   4
   2  22   8 4.31457 0.50643   2
   3  22   8 0.43130 0.12583   4
   3 -23  -8 0.80336 0.19175   3
   3  23  -8 0.66825 0.21381   4
   2 -23  -8 1.38066 0.69957   4
   2 -23  -8 1.74887 0.40504   4
   2  23  -8 1.54905 0.30397   4
   2  23  -8 1.86275 0.32354   4
   2  23  -8 1.19610 0.26473   4
   1 -23  -8 0.68091 0.29050   1
   1  23  -8 0.18057 0.19111   2
   0 -23  -8 0.16880 0.16880   1
   0  23   8 0.50648 0.20436   1
   1  23   8 0.21904 0.15515   1
   1  23   8 0.02004 0.08037   2
   2 -23   8 1.12863 0.69283   4
   2 -23   8 1.12164 0.54047   3
   2  23   8 0.93180 0.25417   1
   2  23   8 1.45560 0.22599   4
   2  23   8 0.65650 0.27530   1
   2 -24  -8 1.88804 0.42871   4
   2  24  -8 1.13014 0.32466   4
   2  24  -8 1.46546 0.25401   4
   2  24  -8 1.10585 0.30405   1
   1 -24  -8 2.58006 0.64047   4
  -1  24   8 0.95689 0.29520   1
   1  24  -8 1.48081 0.39259   2
   0 -24  -8 2.09053 0.44732   4
   0  24   8 1.75273 0.37424   4
   1 -24   8 0.25584 0.30036   2
   1  24   8 0.02051 0.12326   1
   1  24   8 0.28763 0.19519   1
   1  24   8 0.38068 0.20848   4
   2 -24   8 1.35960 0.45738   1
   2 -24   8 1.47812 0.53842   4
   2  24   8 1.51499 0.24207   4
   2  24   8 1.21695 0.29212   1
   2 -25  -8 0.78605 0.20782   4
   1 -25  -8 0.37887 0.16234   1
   1 -25  -8 0.63441 0.32625   4
   1  25  -8 0.45582 0.24744   1
  -1  25   8 1.05129 0.27189   4
   0 -25  -8 2.62218 0.43522   1
   0  25  -8 2.84621 0.39258   4
   1 -25   8 0.05921 0.07901   4
   1  25   8 0.16163 0.16163   4
  -1  25  -8 -0.0691 0.11842   4
   1  26  -8 0.29898 0.20382   4
   0 -26   8 1.60240 0.27692   3
   0 -26  -8 0.88825 0.28814   1
   0  26  -8 1.58813 0.28360   1
   3   0  -9 0.20952 0.50869   1
   3   0  -9 0.15959 0.14958   1
   3   0  -9 0.35269 0.30498   2
   3   0  -9 0.08975 0.32919   1
   3   0  -9 0.83876 0.56236   2
   3   0  -9 0.19952 0.21943   1
   3   0  -9 0.04983 0.57853   1
   1   0  -9 274.226 27.7874   4
  -1   0   9 276.942 24.5596   4
  -1   0   9 281.121 24.5700   4
   1   0  -9 315.368 24.5009   1
   1   0  -9 327.269 23.7022   1
   1   0  -9 279.769 24.6599   4
   1   0  -9 302.179 24.4810   1
  -1   0  -9 45.0884 4.62475   2
  -1   0  -9 48.6733 4.11350   1
   1   0   9 47.0397 4.10363   1
   1   0   9 47.3350 3.81825   1
  -1   0  -9 48.6143 4.29069   1
   1   0   9 42.0254 4.23181   2
   1   0   9 48.7323 3.84777   1
   1   0   9 50.1494 4.09386   1
   3   0   9 29.6424 2.33819   1
   3   0   9 28.1601 2.64182   4
   3   0   9 29.2181 2.64933   1
   3   0   9 27.8789 2.62574   4
   3   0   9 28.1391 2.75778   4
   3   0   9 27.1329 2.57606   4
   3   0   9 31.4149 2.84737   1
   5  -1  -9 12.9923 1.54044   1
   4  -1  -9 24.5004 2.37498   1
   4   1  -9 21.0937 3.25286   3
   4   1  -9 27.3410 2.37141   1
   3  -1  -9 31.6353 3.03571   1
   3  -1  -9 29.6282 4.14414   1
   3  -1  -9 32.8936 4.19413   1
   3  -1  -9 38.0562 3.76472   1
   3  -1  -9 29.4484 3.68478   1
   3  -1  -9 32.4343 2.81605   1
   3   1  -9 31.6746 2.80979   1
   3   1  -9 32.2525 4.10504   1
   3   1  -9 30.6782 3.63671   1
   3   1  -9 36.8558 4.26445   1
   2  -1  -9 81.6726 8.28796   1
   2  -1  -9 82.2570 7.00356   2
   2  -1  -9 85.3468 6.67986   2
   2   1  -9 82.0803 6.62914   2
   2   1  -9 78.7368 7.62395   1
   2   1  -9 87.8237 6.96005   2
   2   1  -9 80.0109 8.23583   1
   1  -1  -9 0.92081 0.46040   1
   1  -1  -9 1.79151 0.67063   1
   1  -1  -9 1.37117 0.23020   1
   1  -1  -9 0.77390 0.29147   4
  -1  -1   9 1.13587 0.35870   2
  -1  -1   9 0.67166 0.44110   4
   1  -1  -9 1.20100 0.47044   1
   1   1  -9 1.16576 0.45835   2
   1   1  -9 1.70386 0.66763   2
  -1   1   9 1.05091 0.42035   1
   1   1  -9 1.92304 0.25906   2
   1   1  -9 1.27540 0.46834   2
  -1   1   9 0.90072 0.35027   1
   1   1  -9 1.51457 0.32882   2
   0  -1  -9 16.5305 1.66405   1
   0  -1  -9 17.7435 1.87461   1
   0  -1   9 14.5427 1.67410   2
   0  -1   9 15.2183 1.36151   2
   0  -1  -9 16.6207 1.58391   1
   0  -1   9 13.8064 1.61360   2
   0  -1  -9 18.6958 1.39336   1
   0  -1   9 15.0671 1.37153   2
   0  -1   9 16.0453 1.62372   2
   0  -1  -9 14.9201 1.75113   2
   0   1  -9 16.0554 1.75482   2
   0   1   9 15.2136 1.55883   2
   0   1  -9 16.6577 1.37900   1
   0   1  -9 15.6319 1.55311   2
   0   1   9 16.7109 1.37335   1
   0   1   9 15.3452 1.38673   2
   0   1   9 15.5780 1.57903   2
   0   1   9 17.5430 1.72418   1
   0   1  -9 16.3580 1.83545   2
   0   1  -9 16.2370 1.76484   2
  -1  -1  -9 124.365 11.0323   1
   1  -1   9 125.086 10.8292   1
   1  -1   9 132.923 10.4075   1
   1  -1   9 132.099 10.1132   1
   1  -1   9 134.120 10.8097   1
  -1  -1  -9 133.760 10.9041   1
   1   1   9 129.487 10.4600   1
   1   1   9 116.245 11.1597   2
   1   1   9 137.026 10.8548   1
  -1   1  -9 129.873 10.8292   1
   1   1   9 119.844 11.0993   2
  -1   1  -9 130.344 10.9960   1
   1   1   9 133.059 10.1739   1
   2  -1   9 48.3530 4.03336   1
   2  -1   9 47.2805 4.13779   1
   2  -1   9 43.4939 3.74864   1
   2  -1   9 44.6991 3.81508   1
   2   1   9 41.1407 4.04946   1
   2   1   9 48.5646 3.84026   1
   2   1   9 46.6730 3.75473   1
   2   1   9 46.5779 4.01141   1
   3   1   9 10.6795 1.22209   1
   3   1   9 10.3786 1.07169   1
   3   1   9 9.38212 1.39136   1
   3   1   9 13.4151 1.09988   1
   3   1   9 9.60767 1.17513   1
   3   1   9 13.1800 1.16570   1
   3   1   9 12.2682 1.00587   1
   3   1   9 13.4245 1.47594   1
   4  -1   9 13.8782 1.63621   2
   4  -1   9 12.5245 1.29527   2
   4  -1   9 11.8135 1.14922   2
   4  -1   9 11.8135 1.12978   2
   4  -1   9 10.9793 1.56421   1
   4   1   9 11.8059 1.11800   2
   4   1   9 9.96022 1.49652   4
   5  -1   9 0.68753 0.58107   3
   5  -1   9 0.61011 0.20340   3
   5   1   9 1.22309 0.55856   3
   5  -2  -9 10.7679 1.37633   1
   4  -2  -9 0.92340 0.43344   1
   4   2  -9 1.77575 0.65664   1
   3  -2  -9 2.55896 0.56981   1
   3  -2  -9 2.49900 0.46984   1
   3  -2  -9 4.96510 1.15465   2
   3  -2  -9 4.13755 0.94298   2
   3  -2  -9 2.34900 0.36988   1
   3  -2  -9 2.68575 1.25011   3
   3  -2  -9 3.51211 0.62544   2
   3   2  -9 4.08247 1.13136   2
   3   2  -9 2.58731 0.54731   1
   3   2  -9 1.84096 0.35825   1
   3   2  -9 2.20919 0.33839   1
   3   2  -9 3.90325 0.55627   2
   2  -2  -9 36.4630 4.25302   1
   2  -2  -9 38.2369 3.56772   1
   2   2  -9 40.9269 3.18769   2
   2   2  -9 36.7546 3.80081   1
   2   2  -9 37.8478 4.18186   1
   2   2  -9 45.4614 3.45904   2
   1  -2  -9 27.0693 2.43147   3
   1  -2  -9 24.4462 2.31043   3
   1  -2  -9 29.7672 2.80346   1
   1  -2  -9 25.8990 2.50211   3
   1  -2  -9 27.3418 2.12878   3
  -1  -2   9 21.8976 2.29604   4
  -1  -2   9 21.6469 2.38625   4
  -1   2   9 24.7489 2.43147   3
   1   2  -9 22.9403 2.25591   4
   1   2  -9 21.5667 2.42638   4
   1   2  -9 26.3393 2.72719   4
   1   2  -9 26.6500 2.41632   4
  -1   2   9 23.2658 2.31043   3
   1   2  -9 27.3920 2.10556   4
   0  -2   9 4.13902 0.70670   2
   0  -2   9 4.59190 0.50796   1
   0  -2   9 4.07836 0.74700   2
   0  -2   9 4.21343 0.72717   1
   0  -2  -9 4.51364 0.91072   1
   0  -2   9 4.54215 0.44821   1
   0  -2  -9 4.51364 0.76064   1
   0  -2  -9 4.24339 0.81063   1
   0  -2  -9 4.05743 0.64914   2
   0  -2  -9 4.23346 0.46038   1
   0   2  -9 4.86087 0.86654   1
   0   2  -9 4.76126 0.62755   1
   0   2  -9 5.74740 0.86654   1
   0   2  -9 4.61178 0.44821   1
   0   2   9 3.87479 0.68974   2
   0   2   9 3.83420 0.67967   2
   0   2  -9 4.90074 0.74705   1
   0   2   9 3.14446 0.69991   2
   0   2   9 4.06750 0.44636   2
   1  -2   9 19.4230 1.84747   1
   1  -2   9 17.1010 1.86643   3
   1  -2   9 19.4133 1.56401   1
   1  -2   9 14.3062 1.85641   3
   1  -2   9 19.4427 1.64225   1
  -1  -2  -9 18.7685 2.03704   1
  -1  -2  -9 18.3531 1.81952   1
   1   2   9 16.6530 1.85597   2
  -1   2  -9 16.5360 1.80591   3
   1   2   9 20.9834 1.58216   1
   1   2   9 17.3691 1.82571   2
  -1   2  -9 17.3936 2.08847   3
   1   2   9 21.7943 1.80960   1
   1   2   9 19.6188 1.68105   1
   2  -2   9 36.7690 3.36760   1
   2  -2   9 36.7595 2.97870   1
   2  -2   9 36.8259 3.22534   1
   2  -2   9 36.3326 3.08309   1
   2   2   9 35.1985 2.98712   1
   2   2   9 33.8667 3.09180   1
   2   2   9 36.4638 3.21547   1
   3  -2   9 11.9721 1.36908   4
   3  -2   9 13.5110 1.27916   4
   3  -2   9 12.5016 1.41910   4
   3  -2   9 13.8753 1.58005   4
   3  -2   9 13.8610 1.57224   4
   3  -2   9 11.8422 1.48896   4
   3  -2   9 13.8807 1.30913   4
   3  -2   9 13.6509 1.19917   4
   3   2   9 13.8539 1.42599   4
   3   2   9 13.9972 1.11569   1
   3   2   9 13.8975 1.22817   3
   3   2   9 12.8537 1.37642   4
   3   2   9 13.8694 1.22802   4
   3   2   9 13.8588 1.58278   4
   4  -2   9 5.09487 0.68063   1
   4  -2   9 5.19497 1.03094   1
   4  -2   9 6.14301 0.96015   2
   4  -2   9 3.86373 1.19119   1
   4  -2   9 6.12346 0.72498   2
   4  -2   9 4.68453 0.94088   1
   4   2   9 6.37125 0.84437   2
   4   2   9 5.82242 0.98490   4
   4   2   9 6.73584 0.66208   2
   4   2   9 5.92024 0.60453   2
   5   2   9 2.75803 0.82739   1
   5  -3  -9 0.01935 0.12601   1
   4  -3  -9 10.7988 1.25517   3
   4   3  -9 8.73188 0.98997   3
   3  -3  -9 8.27992 1.23669   2
   3  -3  -9 8.84026 0.92754   2
   3  -3  -9 9.11084 1.31392   2
   3  -3  -9 9.10115 1.51686   2
   3  -3  -9 5.69267 0.66033   1
   3  -3  -9 8.72436 0.94682   2
   3  -3  -9 6.38300 1.00042   1
   3  -3  -9 7.51348 0.71030   1
   3   3  -9 6.85715 0.67576   1
   3   3  -9 6.33042 0.76517   1
   3   3  -9 8.85834 1.54674   2
   2  -3  -9 14.7773 1.44021   2
   2  -3  -9 14.7478 1.11467   2
   2  -3  -9 14.4024 1.94337   2
   2  -3  -9 14.0276 1.43042   2
   2   3  -9 11.6615 1.40378   1
   2   3  -9 9.32528 1.46392   1
   2   3  -9 11.7322 1.74468   4
   2   3  -9 11.5312 1.11301   1
   1  -3  -9 6.89005 1.37198   1
   1   3  -9 9.64626 0.82290   2
   0  -3   9 25.3280 2.37607   4
   0  -3   9 25.2977 2.38621   4
   0  -3  -9 26.3334 2.34851   1
   0  -3  -9 26.6333 2.41848   1
   0  -3  -9 28.5721 2.51842   1
   0  -3   9 25.4291 2.15365   4
   0  -3  -9 26.8032 2.14862   1
   0  -3   9 21.3039 2.43672   4
   0  -3   9 24.0844 2.09301   4
   0   3   9 25.4386 2.35786   2
   0   3  -9 27.5462 2.44284   1
   0   3  -9 25.0247 2.34574   4
   0   3  -9 26.6029 2.11513   1
   0   3  -9 26.4042 2.60171   1
   0   3  -9 24.3270 2.53783   4
   0   3   9 25.8558 2.14963   4
   0   3   9 25.3775 2.34766   2
   0   3   9 23.9852 2.42902   2
  -1  -3  -9 7.17386 0.91815   2
   1   3   9 7.69851 0.80723   2
   1   3   9 6.40701 0.95853   2
   1   3   9 7.75903 0.68608   2
   1   3   9 8.64618 0.96837   1
   1   3   9 5.87223 0.92827   2
   2  -3   9 16.6028 1.74570   1
   2  -3   9 15.2236 1.39947   3
   2  -3   9 14.7906 1.54046   3
   2  -3   9 15.3695 1.63178   1
   2   3   9 16.0847 1.54180   1
   2   3   9 15.3519 1.57045   1
   2   3   9 16.1133 1.32290   1
   3  -3   9 7.54292 1.02177   4
   3  -3   9 9.12602 1.07754   1
   3  -3   9 8.58252 1.20150   1
   3  -3   9 10.8997 1.26827   1
   3  -3   9 8.04848 0.83917   1
   3  -3   9 7.73322 1.15199   4
   3  -3   9 7.50283 0.98167   4
   3  -3   9 8.39178 0.75337   1
   3  -3   9 7.89592 0.84873   1
   3  -3   9 7.05208 1.27216   4
   3   3   9 8.35794 0.72920   2
   3   3   9 7.73211 0.79690   4
   3   3   9 8.86273 0.84135   2
   3   3   9 7.74152 1.00569   4
   3   3   9 8.42330 0.97226   2
   3   3   9 7.75958 0.87273   3
   3   3   9 7.75271 0.81767   4
   3   3   9 8.10549 1.14987   2
   4  -3   9 7.04063 1.35092   2
   4  -3   9 8.07602 1.33123   2
   4  -3   9 7.86890 0.81848   2
   4  -3   9 7.29701 1.12411   2
   4  -3   9 7.49423 0.85785   2
   4  -3   9 7.58295 0.97625   2
   4   3   9 8.04937 0.78392   2
   4   3   9 8.13548 1.08981   2
   4   3   9 8.08763 0.97513   2
   5  -3   9 2.32545 0.67137   3
   5   3   9 1.39732 0.47858   3
   5  -4  -9 3.69336 0.70769   1
   5   4  -9 1.62662 0.37779   2
   4  -4  -9 10.2210 1.16726   4
   4  -4  -9 7.88037 0.76804   2
   4  -4  -9 7.85045 2.11473   2
   4  -4  -9 9.66601 1.68578   2
   4   4  -9 8.34025 0.93989   3
   3  -4  -9 3.33533 0.55270   2
   3  -4  -9 2.99591 0.69809   2
   3  -4  -9 2.22031 0.29089   2
   3  -4  -9 1.92942 0.39748   2
   3  -4  -9 1.19253 0.19392   2
   3  -4  -9 2.21058 0.46536   2
   3  -4  -9 2.11362 0.41693   2
   3   4  -9 1.24877 0.38204   2
   3   4  -9 1.28607 0.62444   2
   3   4  -9 0.30754 0.48459   2
   2  -4  -9 62.1852 6.25703   2
   2  -4  -9 67.6515 5.44647   2
   2  -4  -9 64.9332 5.02151   2
   2  -4  -9 58.0830 5.34772   2
   2   4  -9 56.1949 6.19597   1
   2   4  -9 57.8579 5.68295   3
   2   4  -9 60.1875 4.85678   2
   2   4  -9 58.3675 5.15369   2
   1  -4  -9 1.99309 0.27045   2
   1  -4  -9 1.60249 0.41059   2
   1  -4  -9 2.45381 0.83134   2
   1  -4  -9 0.93407 0.50767   3
   1  -4  -9 2.08320 0.57093   2
  -1  -4   9 0.36150 0.58239   1
   1   4  -9 0.86361 0.35143   1
   1   4  -9 2.40834 0.57246   2
   1   4  -9 1.66807 0.25663   2
   1   4  -9 1.74708 0.63166   2
   1   4  -9 2.38864 0.68107   2
  -1   4   9 1.08632 0.49748   3
   0  -4   9 6.67420 1.01989   1
   0  -4   9 6.92173 0.94073   1
   0  -4   9 6.37712 0.70304   1
   0  -4   9 9.01118 0.71297   1
   0   4  -9 8.59530 0.91103   1
   1  -4   9 26.5170 2.44773   1
   1  -4   9 27.4008 2.16606   1
  -1  -4  -9 26.3256 2.43806   1
   1  -4   9 26.3422 2.19519   1
   1  -4   9 24.0232 2.53415   3
   1   4   9 28.2010 2.26043   1
   1   4   9 26.3355 2.38875   1
   1   4   9 23.3864 2.45167   3
   1   4   9 28.0727 2.19132   1
  -1   4  -9 23.8712 2.47324   3
   2  -4   9 1.76600 0.53172   1
   2  -4   9 1.86096 0.58867   1
   2  -4   9 1.55715 0.27533   1
   2  -4   9 1.06948 0.69615   3
   2   4   9 1.65598 0.46633   1
   2   4   9 1.63689 0.28553   1
   2   4   9 1.44353 0.46793   3
   3  -4   9 1.55628 0.74294   4
   3  -4   9 1.32535 0.66268   4
   3  -4   9 2.11803 0.41213   1
   3  -4   9 2.53016 0.41213   1
   3  -4   9 1.75699 0.57234   4
   3  -4   9 2.02219 0.30667   1
   3  -4   9 1.76707 0.38149   4
   3  -4   9 1.70684 0.89361   4
   3  -4   9 1.53614 0.67275   4
   3  -4   9 1.54621 0.43175   4
   3   4   9 1.90955 0.34469   2
   3   4   9 2.16108 0.74525   2
   3   4   9 2.07727 0.60546   2
   3   4   9 1.89757 0.29715   4
   3   4   9 1.51949 0.48347   4
   3   4   9 1.79572 0.52296   4
   3   4   9 1.61817 0.29602   4
   3   4   9 1.89439 0.29602   4
   3   4   9 1.89222 0.37844   4
   4  -4   9 24.9265 2.41443   3
   4  -4   9 23.1813 2.59829   1
   4  -4   9 28.0633 2.59260   3
   4  -4   9 28.6472 2.38476   3
   4  -4   9 28.8549 2.83995   3
   4  -4   9 24.1557 2.68961   1
   4   4   9 25.4381 2.67819   1
   4   4   9 27.2490 2.28747   1
   5  -4   9 2.90906 0.58406   1
   5  -4   9 4.09502 0.72146   3
   5  -5  -9 1.88004 0.45550   1
   5   5  -9 1.14309 0.28580   2
   4  -5  -9 34.0228 2.91685   2
   4  -5  -9 26.1614 4.11551   2
   4  -5  -9 36.6400 3.24650   2
   4   5  -9 32.4340 3.20385   3
   4   5  -9 34.4907 3.97513   3
   3  -5  -9 39.5614 3.86698   1
   3  -5  -9 49.5732 4.11331   2
   3  -5  -9 46.8645 3.61657   1
   3  -5  -9 38.2590 4.08735   1
   3  -5  -9 45.2517 4.94894   1
   3  -5  -9 42.3965 3.86698   1
   3  -5  -9 40.8036 4.19759   1
   3  -5  -9 44.6706 5.74038   1
   3   5  -9 40.3695 4.26294   1
   3   5  -9 47.1687 4.50979   4
   3   5  -9 47.1433 5.53403   3
   3   5  -9 42.7488 4.14400   1
   3   5  -9 47.0111 3.68268   1
   2  -5  -9 52.3119 4.73135   2
   2  -5  -9 55.5683 4.77096   2
   2  -5  -9 55.1922 4.38494   2
   2  -5  -9 54.8557 5.57269   2
   2   5  -9 45.7253 4.42016   1
   2   5  -9 50.4889 5.04596   4
   2   5  -9 54.2445 5.22368   2
   2   5  -9 56.9563 4.53861   2
   1  -5  -9 56.8170 5.34823   2
   1  -5  -9 61.9849 6.18948   2
   1   5  -9 56.4407 5.32012   2
   1   5  -9 64.3522 5.29069   2
   1   5  -9 58.9241 4.89803   2
   1   5  -9 64.0872 5.91895   2
   0  -5   9 23.8069 2.07762   4
   0  -5   9 19.6211 2.49321   4
   0  -5  -9 27.4915 2.43389   1
   0  -5  -9 26.7034 2.60349   1
   0  -5   9 25.7224 2.10403   1
   0  -5  -9 26.0251 2.35415   1
   0  -5   9 24.1822 2.41223   4
   0  -5  -9 26.9528 2.13473   1
   0  -5   9 24.7049 2.38057   1
   0   5   9 24.5089 2.34414   1
   0   5  -9 26.7299 2.10403   1
   0   5   9 24.9279 2.11471   1
   0   5  -9 24.3098 2.32132   1
   0   5   9 24.1586 2.42501   3
   0   5   9 25.5562 2.31423   1
   0   5  -9 28.1227 2.60777   1
   1  -5   9 78.1940 6.11481   1
   1  -5   9 81.4404 5.97911   1
   1  -5   9 79.5604 6.46367   1
   1  -5   9 70.9837 6.76323   3
   1   5   9 79.2301 6.10452   1
   1   5   9 68.2394 6.65454   3
  -1   5  -9 71.0346 6.74296   3
   1   5   9 78.9638 6.50881   1
   1   5   9 78.7075 6.21293   1
   2  -5   9 64.1970 5.34419   1
   2  -5   9 60.8213 4.80222   1
   2  -5   9 59.1381 4.82120   1
   2  -5   9 61.0970 5.18252   1
   2   5   9 55.9048 4.84017   1
   2   5   9 56.0379 4.80221   1
   2   5   9 55.8762 5.04944   1
   3  -5   9 19.5760 1.95664   1
   3  -5   9 19.4507 2.04336   1
   3  -5   9 19.2090 2.05276   4
   3  -5   9 16.4821 2.22373   4
   3  -5   9 21.4748 1.69637   1
   3  -5   9 17.5387 1.98231   4
   3  -5   9 18.3839 1.68042   4
   3  -5   9 18.4946 1.82132   4
   3  -5   9 21.3302 1.99522   1
   3  -5   9 16.8444 1.86149   4
   3   5   9 17.6060 2.03945   4
   3   5   9 19.4864 1.52893   2
   3   5   9 18.3252 1.92116   4
   3   5   9 18.4533 2.04923   4
   3   5   9 19.2547 1.69137   4
   3   5   9 18.7489 1.73398   4
   3   5   9 19.5975 1.75125   2
   3   5   9 18.7883 1.83251   4
   3   5   9 18.8868 1.88183   4
   4  -5   9 13.6521 1.41773   3
   4  -5   9 9.74582 1.14017   3
   4  -5   9 11.7882 1.30874   3
   4  -5   9 10.6481 1.44747   3
   4   5   9 10.7647 1.19814   1
   4   5   9 9.10050 1.01748   1
   4   5   9 11.0309 1.38834   1
   4   5   9 12.7997 1.14110   1
   5  -5   9 1.67743 0.46426   3
   5  -5   9 1.23659 0.77440   1
   5   5   9 1.41558 0.49763   2
   5  -6  -9 4.24031 0.76434   2
   5   6  -9 4.45336 0.61024   2
   4  -6  -9 11.8417 1.30201   1
   4  -6  -9 9.52321 0.97029   2
   4   6  -9 12.5269 2.03210   1
   4   6  -9 9.80974 1.08890   3
   3  -6  -9 8.04933 0.92223   1
   3  -6  -9 9.90191 1.58858   3
   3  -6  -9 9.24225 1.08261   1
   3  -6  -9 8.63081 0.92223   1
   3  -6  -9 9.14200 1.19291   1
   3  -6  -9 8.30000 0.78187   1
   3  -6  -9 8.82125 1.32322   1
   3  -6  -9 8.97157 2.02485   1
   3   6  -9 11.0768 1.62188   2
   3   6  -9 9.09538 0.82239   1
   3   6  -9 7.36155 1.47622   1
   3   6  -9 7.95596 0.95119   1
   2  -6  -9 8.07138 1.27760   2
   2  -6  -9 7.54647 1.16862   2
   2  -6  -9 7.00180 1.63413   2
   2  -6  -9 7.04144 0.80216   2
   2   6  -9 8.45343 0.75566   2
   2   6  -9 11.0792 1.41677   2
   2   6  -9 8.33065 1.19005   2
   1  -6  -9 50.8916 5.45190   1
   1  -6  -9 64.8780 4.99519   2
   1  -6  -9 57.2500 5.32555   2
   1  -6  -9 69.1024 6.21650   2
   1   6  -9 63.8721 5.84026   2
   1   6  -9 59.4457 5.21621   2
   1   6  -9 55.6432 4.82628   2
   0  -6   9 2.37319 0.61863   4
   0  -6  -9 3.72929 0.71793   1
   0  -6   9 2.02842 0.63898   4
   0  -6  -9 2.57257 0.71793   1
   0  -6   9 3.43006 0.63076   1
   0  -6   9 2.20086 0.34487   4
   0   6  -9 3.54830 0.76878   1
   0   6   9 2.75211 0.32906   1
   0   6  -9 2.62183 0.35483   1
   0   6   9 1.79286 0.49915   3
   0   6  -9 2.50146 0.49225   3
   0   6  -9 3.21315 0.61109   1
   0   6  -9 3.25260 0.84768   1
   0   6   9 3.24070 0.56841   1
   0   6   9 2.47543 0.50937   3
   1  -6   9 0.24412 0.44753   3
   1  -6   9 0.75466 0.32900   1
   1  -6   9 0.28471 0.48813   3
   1  -6   9 0.69663 0.21283   1
   1   6   9 0.57401 0.36251   3
   1   6   9 0.64441 0.17120   3
   1   6   9 0.37261 0.37261   3
   1   6   9 0.36251 0.42291   3
   2  -6   9 5.15632 0.53375   1
   2  -6   9 5.86158 0.84828   1
   2  -6   9 3.62722 0.66871   3
   2  -6   9 5.37554 1.04838   1
   2  -6   9 6.19513 0.91501   1
   2   6   9 5.03840 0.76854   2
   2   6   9 4.78219 0.47445   2
   2   6   9 3.78636 0.51541   4
   2   6   9 5.47487 0.81604   2
   3  -6   9 14.9376 2.01426   4
   3  -6   9 16.6925 1.72652   1
   3  -6   9 14.9759 1.64539   3
   3  -6   9 16.9349 1.73614   1
   3  -6   9 14.9430 1.62339   4
   3  -6   9 14.7211 1.57292   4
   3  -6   9 14.8018 1.65363   4
   3  -6   9 15.8680 1.34815   1
   3  -6   9 16.5178 1.77496   1
   3   6   9 13.8747 1.54491   4
   3   6   9 14.9177 1.41699   4
   3   6   9 15.5961 1.26279   2
   3   6   9 15.2274 1.53934   2
   3   6   9 14.9595 1.54248   4
   3   6   9 14.9800 1.80745   3
   3   6   9 16.1491 1.44716   2
   3   6   9 14.7012 1.74173   4
   3   6   9 15.4486 1.34573   2
   4  -6   9 0.05957 0.05957   3
   4  -6   9 -0.0397 0.07950   3
   4  -6   9 -0.0100 0.05957   3
   4  -6   9 -0.0695 0.06953   3
   4   6   9 0.00000 0.08573   1
   4   6   9 0.00000 0.04760   1
   4   6   9 -0.0190 0.06649   1
   4   6   9 0.01895 0.03801   1
   5  -6   9 6.21419 1.08388   3
   5  -6   9 5.60046 1.02675   1
   5   6   9 6.30657 0.88069   3
   5  -7  -9 1.14518 0.42026   2
   5  -7  -9 0.72492 0.58834   2
   5   7  -9 1.14067 0.35850   2
   4  -7  -9 2.10383 0.38065   2
   4  -7  -9 2.71490 0.70131   2
   4  -7  -9 2.97116 0.87500   2
   4   7  -9 2.97493 1.54959   3
   4   7  -9 3.25360 0.50334   1
   3  -7  -9 4.46065 1.06396   3
   3  -7  -9 3.76176 0.53169   1
   3  -7  -9 4.54848 0.86873   3
   3  -7  -9 3.89216 0.71220   1
   3  -7  -9 3.34045 1.62504   1
   3  -7  -9 4.14833 1.08344   3
   3  -7  -9 2.82889 0.43137   1
   3  -7  -9 4.13854 0.52703   3
   3   7  -9 4.00879 1.14541   3
   3   7  -9 4.01020 0.71714   1
   3   7  -9 4.37435 0.88951   2
   3   7  -9 3.92372 0.58460   3
   3   7  -9 3.48771 1.27823   3
   3   7  -9 4.00842 0.41464   3
   2  -7  -9 2.22739 0.69301   2
   2  -7  -9 3.98956 0.84146   2
   2  -7  -9 2.67284 0.98009   2
   2   7  -9 1.76096 0.32015   1
   2   7  -9 1.79903 0.69640   3
   2   7  -9 2.30562 0.84346   2
   2   7  -9 2.29621 0.66541   2
   1  -7  -9 1.13979 0.60986   2
   1  -7  -9 1.56973 0.27991   2
   1  -7  -9 0.56064 0.42812   1
   1   7  -9 1.89619 0.64824   2
   1   7  -9 0.72558 0.57080   2
   1   7  -9 1.17061 0.25153   2
   0  -7   9 4.63692 0.82184   4
   0  -7  -9 5.25827 1.01581   2
   0  -7  -9 4.49643 0.85449   3
   0  -7  -9 5.29802 0.54771   2
   0  -7  -9 6.66236 1.01581   2
   0  -7   9 3.40920 0.83202   4
   0  -7   9 6.24050 0.55035   2
   0   7   9 4.08949 0.75275   3
   0   7  -9 6.21103 1.11047   2
   0   7  -9 5.40516 0.72720   2
   0   7   9 4.05898 0.79347   3
   0   7   9 2.90949 0.66122   3
   0   7   9 4.75072 0.49847   3
   1  -7   9 11.0265 1.45591   4
   1  -7   9 12.0344 1.15045   4
   1  -7   9 8.53204 1.45591   4
   1   7   9 10.9239 0.99494   3
   1   7   9 11.8686 1.22608   3
   1   7   9 11.8484 1.18586   3
   2  -7   9 0.14335 0.29638   1
   2  -7   9 -0.0191 0.38239   1
   2  -7   9 0.14335 0.18160   1
   2  -7   9 -0.0477 0.17201   1
   2  -7   9 0.17201 0.10519   1
   2  -7   9 0.35372 0.21986   1
   2   7   9 0.25458 0.23566   2
   2   7   9 0.53743 0.28285   2
   2   7   9 0.36768 0.14138   2
   2   7   9 0.17911 0.09428   2
   2   7   9 0.28285 0.10374   2
   3  -7   9 -0.0195 0.11703   2
   3  -7   9 -0.0195 0.15608   2
   3  -7   9 -0.0487 0.08778   2
   3  -7   9 -0.0781 0.11703   2
   3  -7   9 0.00000 0.12695   1
   3  -7   9 -0.2049 0.20491   2
   3  -7   9 0.03905 0.05852   2
   3  -7   9 0.01013 0.15149   4
   3  -7   9 -0.1756 0.17555   2
   3   7   9 0.03671 0.04581   2
   3   7   9 0.02751 0.05501   2
   3   7   9 0.02751 0.04581   2
   3   7   9 -0.0458 0.11003   2
   3   7   9 -0.0092 0.13753   2
   3   7   9 -0.0917 0.12843   2
   3   7   9 0.08252 0.07342   2
   3   7   9 0.06421 0.06421   2
   3   7   9 0.02751 0.12843   2
   4  -7   9 1.08511 0.56338   1
   4  -7   9 1.19348 0.67630   3
   4  -7   9 1.50186 0.40774   3
   4  -7   9 1.33276 0.57684   3
   4   7   9 1.10417 0.30722   3
   4   7   9 1.12002 0.56953   1
   4   7   9 0.91406 0.22605   4
   5  -7   9 2.48839 0.51926   3
   5  -7   9 2.07912 0.56052   3
   5   7   9 2.84858 0.50929   3
   5  -8  -9 0.90683 0.66431   2
   5  -8  -9 1.99283 0.46399   2
   5   8  -9 1.77064 0.40950   2
   4  -8  -9 3.83242 0.51162   2
   4  -8  -9 4.25418 0.77354   2
   3  -8  -9 2.31961 0.36150   2
   3  -8  -9 3.10903 0.47757   1
   3  -8  -9 3.15782 1.31578   1
   3  -8  -9 1.26521 0.79332   2
   3  -8  -9 2.99211 0.57504   1
   3  -8  -9 2.13891 0.79332   2
   3  -8  -9 2.73871 1.01360   1
   3  -8  -9 2.59076 0.43181   2
   3   8  -9 3.93689 1.03214   2
   2  -8  -9 1.31078 0.64527   1
   2  -8  -9 1.53231 0.34596   2
   2  -8  -9 1.29065 0.41336   1
   2  -8  -9 1.32090 0.96802   1
   2  -8  -9 1.93757 0.33615   2
   2  -8  -9 1.17970 0.25204   1
   2  -8  -9 1.13935 0.64527   1
   2   8  -9 1.44140 0.76253   2
   2   8  -9 1.99928 0.63232   2
   2   8  -9 1.68317 0.78109   2
   2   8  -9 1.67384 0.28832   2
   2   8  -9 1.24934 0.28983   1
   2   8  -9 1.51573 0.27899   2
   2   8  -9 1.55295 0.32544   2
   1  -8  -9 1.41729 0.31936   2
   1  -8  -9 1.01804 0.59046   1
   1  -8  -9 1.15260 0.47524   3
   1   8  -9 1.56347 0.63309   2
   1   8  -9 1.64977 0.26853   2
   1   8  -9 1.31408 0.61384   2
   0  -8  -9 1.17202 0.47672   2
   0  -8   9 0.02026 0.43642   4
   0  -8  -9 0.61580 0.21848   2
   0  -8  -9 0.55622 0.44693   2
   0   8   9 0.44693 0.14894   2
   0   8   9 0.21320 0.33497   1
   0   8   9 0.68534 0.37739   2
   0   8  -9 0.34164 0.61503   2
   0   8  -9 0.42957 0.16597   2
   0   8  -9 0.24401 0.46854   2
   1  -8   9 2.96627 0.70537   1
   1  -8   9 3.27544 0.41549   1
   1  -8   9 1.80356 0.45850   4
   1   8   9 3.38486 0.37064   2
   1   8   9 3.32635 0.65361   2
   2  -8   9 17.1366 1.48927   4
   2  -8   9 14.9515 1.80927   4
   2  -8   9 19.8074 1.91842   1
   2  -8   9 13.9656 1.61607   4
   2  -8   9 17.1297 1.69786   4
   2  -8   9 17.0473 1.66803   4
   2  -8   9 18.7044 1.99510   1
   2   8   9 16.3212 1.49812   4
   2   8   9 15.3553 1.64592   4
   2   8   9 17.1802 1.68276   4
   2   8   9 17.0899 1.43890   4
   2   8   9 17.9362 1.65524   2
   2   8   9 17.1843 1.52520   4
   3  -8   9 9.22858 1.17386   4
   3  -8   9 11.0105 1.39106   2
   3  -8   9 9.31009 0.97627   3
   3  -8   9 9.38445 1.09716   2
   3  -8   9 11.0497 1.45954   2
   3  -8   9 9.65869 1.33220   2
   3  -8   9 10.6090 1.68485   2
   3  -8   9 9.31025 1.25077   3
   3  -8   9 10.1975 1.17547   2
   3   8   9 10.0160 1.00430   2
   3   8   9 10.7737 0.98607   2
   3   8   9 9.30650 1.08940   4
   3   8   9 9.11580 1.51276   4
   3   8   9 8.77202 1.17874   4
   3   8   9 10.6824 0.92215   2
   3   8   9 9.49551 0.87654   2
   4  -8   9 0.03160 0.67428   1
   4  -8   9 0.23177 0.63222   1
   4  -8   9 0.68712 0.32863   3
   4  -8   9 0.65725 0.46807   3
   4   8   9 0.63479 0.38838   1
   4   8   9 0.63479 0.25582   1
   4   8   9 0.64419 0.17998   1
   5  -8   9 0.13538 0.26032   3
   5  -8   9 0.03571 0.50001   1
   5   8   9 -0.1879 0.25364   4
   4  -9  -9 3.73103 0.95175   1
   4  -9  -9 4.15931 0.76148   1
   4   9  -9 3.69615 0.51904   1
   3  -9  -9 43.2873 3.88759   1
   3  -9  -9 42.3224 4.03730   2
   3  -9  -9 39.1020 4.12133   2
   3  -9  -9 39.9865 3.79959   2
   3  -9  -9 41.6251 5.52858   2
   3  -9  -9 41.7758 3.55841   2
   3  -9  -9 42.1577 4.02080   2
   3  -9  -9 42.4051 4.95408   1
   3   9  -9 47.8493 4.34087   1
   3   9  -9 41.9779 3.84874   3
   3   9  -9 39.3367 4.32449   3
   3   9  -9 42.3299 3.45192   3
   2  -9  -9 27.4239 3.07673   2
   2  -9  -9 22.4637 2.22864   2
   2  -9  -9 19.3454 2.09571   1
   2  -9  -9 22.5426 1.89332   2
   2  -9  -9 18.3580 2.23680   1
   2  -9  -9 22.3826 2.34441   4
   2   9  -9 21.2827 2.15725   1
   2   9  -9 22.3940 1.88032   3
   2   9  -9 21.7922 2.19722   1
   2   9  -9 22.3938 1.86944   3
   2   9  -9 21.2827 2.47682   1
   2   9  -9 22.3352 2.07217   1
   2   9  -9 24.4656 2.50100   2
   1  -9  -9 0.26873 0.20904   2
   1  -9  -9 0.07966 0.07966   2
   1  -9  -9 0.11939 0.15922   2
   1   9  -9 0.10460 0.24715   2
   1   9  -9 0.16162 0.19966   2
   1   9  -9 0.02851 0.19966   2
   1   9  -9 0.02851 0.06655   2
   0  -9  -9 38.2988 3.02746   2
   0  -9  -9 36.8445 3.39356   2
   0   9  -9 39.9074 2.94534   2
   0   9  -9 38.7157 3.35224   2
   0   9   9 30.0431 3.25834   1
   0   9   9 31.5306 3.03565   1
   1  -9   9 -0.3285 0.47331   1
   1  -9   9 0.58115 0.21414   4
   1   9   9 0.67236 0.46477   1
   1   9   9 0.64929 0.17975   4
   2  -9   9 15.6790 1.51705   4
   2  -9   9 12.5371 1.44507   4
   2  -9   9 12.3540 1.55694   4
   2  -9   9 15.7147 1.85976   4
   2  -9   9 15.9240 1.80037   1
   2  -9   9 14.0737 1.61798   4
   2  -9   9 15.7121 1.48470   2
   2  -9   9 16.2032 1.29975   1
   2   9   9 11.7963 1.26921   4
   2   9   9 15.3480 1.44625   4
   2   9   9 15.0528 1.49550   4
   2   9   9 15.7086 1.41289   4
   2   9   9 12.3276 1.34786   4
   2   9   9 15.0037 1.25934   4
   2   9   9 14.5314 1.30848   4
   3  -9   9 67.5609 6.06143   2
   3  -9   9 61.6508 6.20605   1
   3  -9   9 61.9521 6.13022   2
   3  -9   9 68.6630 5.80560   2
   3  -9   9 61.4441 6.40488   4
   3  -9   9 60.0455 5.85758   4
   3  -9   9 61.4745 5.47252   4
   3  -9   9 60.4914 5.97926   4
   3   9   9 64.5451 5.42874   1
   3   9   9 60.9581 5.28632   4
   3   9   9 60.0159 5.54701   4
   3   9   9 66.1547 5.20143   1
   3   9   9 60.0257 5.51756   4
   3   9   9 65.5636 5.69253   1
   3   9   9 62.6446 4.90134   1
   3   9   9 68.0461 5.58334   1
   4  -9   9 0.03989 0.12958   3
   4  -9   9 -0.1196 0.20936   3
   4  -9   9 0.03989 0.16947   3
   4  -9   9 -0.1595 0.22926   3
   4   9   9 0.12294 0.09457   1
   4   9   9 -0.0095 0.07570   1
   4   9   9 0.01888 0.20802   1
   5  -9   9 0.39266 0.31409   3
   5  -9   9 0.14436 0.57758   1
   5   9   9 0.16370 0.39752   1
   5   9   9 0.18703 0.30394   1
   5 -10  -9 -0.0287 0.08612   3
   5  10  -9 0.02928 0.04876   4
   4 -10  -9 2.82658 0.47281   2
   4 -10  -9 2.98109 0.65719   1
   4 -10  -9 2.90495 1.03819   1
   4  10  -9 2.26436 0.46478   3
   3 -10  -9 17.0332 1.74053   2
   3 -10  -9 16.7414 2.75668   2
   3 -10  -9 19.1936 2.04165   1
   3 -10  -9 16.4999 3.14905   2
   3 -10  -9 18.7988 1.81059   1
   3 -10  -9 17.9143 1.85623   2
   3 -10  -9 17.0232 1.61984   2
   3 -10  -9 17.9120 2.11305   2
   3  10  -9 16.8608 2.49089   3
   3  10  -9 17.6394 1.77343   3
   3  10  -9 17.9240 1.50726   4
   2 -10  -9 10.2521 1.39979   1
   2 -10  -9 13.0892 1.16942   2
   2 -10  -9 12.3569 1.25887   1
   2 -10  -9 16.3123 2.42715   2
   2 -10  -9 11.7727 1.68183   1
   2 -10  -9 9.88956 1.24877   1
   2 -10  -9 11.9741 2.03428   1
   2 -10  -9 12.3267 1.55091   1
   2  10  -9 11.4786 1.53715   1
   2  10  -9 12.9546 1.21769   4
   2  10  -9 16.5071 1.85142   2
   2  10  -9 13.1525 1.23738   2
   2  10  -9 12.9414 1.75757   2
   2  10  -9 12.9556 1.13726   4
   2  10  -9 12.9108 1.10208   1
   2  10  -9 12.7308 1.45829   1
   1 -10  -9 5.58696 1.20642   2
   1 -10  -9 4.98439 0.62680   3
   1 -10  -9 5.81440 0.87018   2
   1  10  -9 6.50955 1.06446   2
   1  10  -9 7.37624 1.25288   2
   1  10  -9 4.98327 0.57283   4
   0  10  -9 1.07199 0.28311   3
   0  10  -9 1.19202 0.76910   2
   1 -10   9 4.65022 0.97902   4
   1 -10   9 5.25924 0.59430   4
   1  10   9 5.17389 0.55720   4
   1  10   9 5.98143 0.92679   2
   2 -10   9 1.81310 0.99819   4
   2 -10   9 1.43620 0.44822   4
   2 -10   9 2.53181 0.50248   1
   2 -10   9 2.24189 0.55085   1
   2 -10   9 1.85821 0.79354   3
   2 -10   9 1.87472 0.37686   1
   2  10   9 1.95863 0.35861   2
   2  10   9 1.75114 0.51155   4
   2  10   9 2.60226 0.35861   2
   2  10   9 2.95174 0.64372   2
   2  10   9 2.69422 0.39542   2
   2  10   9 1.45600 0.31478   4
   3 -10   9 0.15219 0.55816   1
   3 -10   9 -0.4450 0.76144   2
   3 -10   9 0.71204 0.80102   2
   3 -10   9 0.94942 0.43518   2
   3 -10   9 0.52416 0.38568   2
   3 -10   9 0.75162 0.38568   2
   3 -10   9 0.37554 0.52773   1
   3  10   9 0.75021 0.66880   1
   3  10   9 0.71404 0.22592   1
   3  10   9 0.29445 0.45146   4
   3  10   9 0.17661 0.34347   4
   3  10   9 0.39260 0.27476   4
   3  10   9 0.56037 0.18984   1
   3  10   9 0.57841 0.21695   1
   4 -10   9 10.1899 1.32206   1
   4 -10   9 12.0386 1.32206   1
   4 -10   9 13.0961 1.39637   3
   4 -10   9 12.3734 1.50899   3
   4  10   9 12.3694 1.09194   4
   4  10   9 14.5494 1.39465   1
   4  10   9 11.6989 1.13059   2
   5 -10   9 0.09822 0.19644   3
   5 -10   9 -0.0099 0.20629   3
   5  10   9 0.20479 0.12102   4
   5  11  -9 0.29717 0.24762   1
   4 -11  -9 11.1909 1.92395   2
   4 -11  -9 12.0602 1.13249   2
   4 -11  -9 10.9089 1.27923   2
   4  11  -9 11.4841 1.25621   3
   3 -11  -9 14.0562 1.88290   2
   3 -11  -9 13.7743 1.55062   2
   3 -11  -9 14.0967 2.26446   2
   3 -11  -9 10.3005 2.69846   2
   3 -11  -9 12.7069 1.89300   2
   3 -11  -9 12.8479 1.40963   2
   3 -11  -9 14.1522 1.49805   2
   3 -11  -9 15.2886 2.32199   1
   3 -11  -9 13.4017 1.31903   2
   3  11  -9 11.0212 2.01560   3
   3  11  -9 14.0729 1.43567   3
   3  11  -9 14.5758 1.18059   1
   2 -11  -9 0.87073 0.25436   2
   2 -11  -9 0.54372 0.87604   1
   2 -11  -9 1.41860 0.45985   2
   2 -11  -9 1.06640 0.57721   2
   2 -11  -9 1.13490 0.58703   2
   2 -11  -9 0.52362 0.35242   1
   2 -11  -9 0.85110 0.32285   2
   2 -11  -9 1.96647 1.41860   2
   2  11  -9 2.01404 0.35542   2
   2  11  -9 0.99340 0.23695   2
   2  11  -9 1.99585 0.46475   2
   2  11  -9 1.34882 0.26428   2
   2  11  -9 1.73157 0.61065   2
   2  11  -9 1.48549 0.86579   2
   2  11  -9 0.99340 0.18228   2
   2  11  -9 0.76847 0.32938   1
   1 -11  -9 0.77378 0.28135   1
   1 -11  -9 0.57288 0.29143   1
   1 -11  -9 0.61300 0.48235   1
   1 -11  -9 1.59968 0.68703   2
   1  11  -9 1.07413 0.27085   2
   1  11  -9 0.93117 0.25397   3
   1  11  -9 0.80548 0.73499   1
   1  11  -9 0.48323 0.70480   1
   0  11  -9 7.29763 0.76320   2
   0  11  -9 7.81281 1.33550   2
   1 -11   9 0.00992 0.06921   4
   1 -11   9 0.07717 0.19282   2
   1  11   9 0.00993 0.10888   3
   1  11   9 0.21733 0.07564   2
   1  11   9 0.09450 0.03782   2
   2 -11   9 1.10084 0.54025   4
   2 -11   9 1.03970 1.02947   4
   2 -11   9 1.83272 0.77581   1
   2 -11   9 1.98786 0.47515   1
   2 -11   9 1.10084 0.29558   4
   2 -11   9 1.30913 0.40726   1
   2  11   9 1.36837 0.57475   2
   2  11   9 1.03305 0.26567   4
   2  11   9 1.25646 0.27396   3
   2  11   9 1.25284 0.45553   4
   2  11   9 1.19046 0.30504   4
   2  11   9 1.25646 0.22340   3
   2  11   9 0.93466 0.24593   4
   2  11   9 1.26799 0.46521   2
   3 -11   9 4.30684 0.81561   2
   3 -11   9 4.34655 0.83547   2
   3 -11   9 3.79137 0.72165   1
   3 -11   9 2.58175 1.18922   1
   3 -11   9 4.40631 0.79576   2
   3  11   9 3.87597 0.52009   3
   3  11   9 4.47860 0.48462   1
   3  11   9 3.28728 0.87335   3
   3  11   9 4.10167 0.76537   3
   3  11   9 3.36573 0.58879   3
   3  11   9 4.33500 0.52954   1
   4 -11   9 0.33929 0.29935   3
   4 -11   9 0.02167 0.41261   1
   4 -11   9 0.36921 0.48892   3
   4  11   9 0.36620 0.21597   1
   4  11   9 0.62917 0.47884   1
   4  11   9 0.30987 0.17839   1
   4  11   9 0.30987 0.27229   1
   5 -11   9 0.13661 0.27308   1
   5 -11   9 0.61893 0.26527   3
   5  11   9 0.42619 0.14823   4
   5  11   9 0.19443 0.31597   4
   5 -12  -9 0.41781 0.33228   3
   5 -12  -9 0.29438 0.15190   3
   5  12  -9 -0.0098 0.12673   4
   4 -12  -9 0.49436 0.27243   2
   4 -12  -9 1.02121 0.48672   1
   4 -12  -9 -0.1241 0.83031   1
   4  12  -9 1.92606 0.61454   1
   4  12  -9 0.19906 0.35828   2
   4  12  -9 0.46780 0.15923   2
   3 -12  -9 7.37533 0.91825   4
   3 -12  -9 5.92464 0.84635   4
   3 -12  -9 7.39695 1.72092   4
   3 -12  -9 6.27727 0.93711   4
   3 -12  -9 5.85409 1.36028   4
   3 -12  -9 3.65757 2.33762   4
   3  12  -9 7.40644 0.67842   4
   3  12  -9 6.92337 1.67866   3
   3  12  -9 7.29093 0.71518   3
   3  12  -9 6.13864 0.88407   3
   2 -12  -9 0.36011 0.22383   1
   2 -12  -9 0.10074 0.70519   4
   2 -12  -9 0.10074 0.19138   4
   2 -12  -9 0.47685 0.36977   1
   2 -12  -9 0.39895 0.21407   1
   2 -12  -9 0.02011 0.67498   4
   2 -12  -9 0.36011 0.57418   1
   2 -12  -9 0.00000 1.22682   1
   2  12  -9 0.41756 0.12711   2
   2  12  -9 1.09836 0.49924   2
   2  12  -9 0.00000 0.22942   1
   2  12  -9 0.33589 0.20878   2
   2  12  -9 0.01994 0.22977   3
   2  12  -9 0.56279 0.24511   2
   2  12  -9 0.39034 0.62635   2
   2  12  -9 0.29956 0.19968   2
   2  12  -9 0.43568 0.50834   2
   1 -12  -9 4.67119 0.82719   2
   1 -12  -9 4.26775 0.64263   1
   1 -12  -9 4.46860 0.60254   1
   1 -12  -9 4.41833 1.12471   1
   1  12  -9 4.83864 0.53760   2
   1  12  -9 4.53644 0.57320   1
   1  12  -9 4.54008 1.03137   3
   1  12  -9 4.53356 0.66842   1
   1  12  -9 5.23724 1.01041   2
   1 -12   9 0.01023 0.83630   4
   1 -12   9 0.49939 0.23052   2
   1 -12   9 0.72028 0.44178   2
   1  12   9 0.53271 0.24296   2
   1  12   9 0.40569 0.17808   4
   1  12   9 0.84100 0.51396   2
   1  12   9 1.04666 0.29902   2
   2 -12   9 2.14958 1.03108   1
   2 -12   9 1.12177 0.47936   4
   2 -12   9 1.37680 0.34678   4
   2 -12   9 1.92586 0.58364   1
   2 -12   9 2.74299 0.60306   1
   2 -12   9 1.32575 0.86685   4
   2  12   9 2.00186 0.38044   2
   2  12   9 1.65768 0.30802   2
   2  12   9 1.67576 0.29894   2
   2  12   9 2.03812 0.35327   2
   2  12   9 1.47650 0.57970   2
   2  12   9 1.71202 0.27177   2
   2  12   9 1.71202 0.52536   2
   3 -12   9 0.89122 0.61078   2
   3 -12   9 0.37684 0.46846   1
   3 -12   9 0.94123 0.61078   2
   3 -12   9 -0.0200 0.96132   2
   3 -12   9 0.65172 0.47868   1
   3  12   9 0.94522 0.23183   1
   3  12   9 0.78011 0.28795   2
   3  12   9 1.04324 0.80247   1
   3  12   9 0.95407 0.24078   1
   3  12   9 0.80247 0.29426   1
   3  12   9 0.69666 0.53967   3
   4 -12   9 1.19629 0.44991   1
   4 -12   9 0.87804 0.60359   1
   4 -12   9 0.50485 0.70234   1
   4  12   9 1.82498 0.26201   1
   4  12   9 1.55358 0.30886   1
   4  12   9 1.54429 0.25272   1
   4  12   9 2.21815 0.59894   1
   5 -12   9 0.01272 0.13952   1
   5 -12   9 -0.0196 0.08839   3
   5  12   9 0.05529 0.05529   4
   5  12   9 0.01840 0.10144   4
   5 -13  -9 1.82402 0.36858   3
   4 -13  -9 5.22473 1.36432   2
   4 -13  -9 6.98895 1.44371   3
   4 -13  -9 8.68126 0.93593   1
   4 -13  -9 7.14363 0.74491   1
   4  13  -9 6.43609 0.80452   2
   4  13  -9 6.46663 0.64160   2
   3 -13  -9 0.17836 0.38487   1
   3 -13  -9 0.21593 0.17836   1
   3 -13  -9 -0.0939 0.16894   1
   3 -13  -9 0.61964 0.52575   1
   3  13  -9 0.10476 0.10476   1
   3  13  -9 0.06114 0.51522   1
   3  13  -9 0.16590 0.27075   1
   3  13  -9 -0.1485 0.14847   1
   3  13  -9 0.19209 0.08733   1
   3  13  -9 0.05960 0.12916   3
   2 -13  -9 5.04128 0.82585   1
   2 -13  -9 4.07106 1.10843   4
   2 -13  -9 4.58919 0.61570   3
   2 -13  -9 6.23209 2.03572   1
   2 -13  -9 5.41587 1.34433   1
   2 -13  -9 3.23473 0.61466   4
   2 -13  -9 5.60783 0.66258   1
   2 -13  -9 5.54070 1.45000   1
   2  13  -9 4.50536 0.51947   3
   2  13  -9 4.58847 0.49551   4
   2  13  -9 4.12909 0.57984   3
   2  13  -9 4.57149 0.64226   3
   2  13  -9 3.87908 1.12969   3
   2  13  -9 4.58067 0.61801   3
   2  13  -9 4.58434 1.21375   3
   2  13  -9 4.89217 0.61489   1
   1 -13  -9 3.37556 1.03193   2
   1 -13  -9 2.98251 0.51211   4
   1 -13  -9 3.06290 0.53226   4
   1  13  -9 3.33524 0.89367   2
   1  13  -9 2.47691 0.46317   3
   1  13  -9 3.00443 0.83772   3
   1  13  -9 2.76889 0.58395   3
   1  13  -9 3.26159 0.42383   2
   0  13  -9 3.68245 0.56810   3
   1 -13   9 20.9002 2.12544   2
   1 -13   9 19.1411 1.97839   3
   1  13   9 19.3846 1.86129   4
   1  13   9 16.7116 1.62365   4
   1  13   9 17.4045 1.93050   4
   2 -13   9 14.7724 1.72410   4
   2 -13   9 10.7936 1.49968   4
   2 -13   9 14.8336 2.23422   4
   2 -13   9 15.1091 2.05064   4
   2  13   9 13.8111 1.60455   3
   2  13   9 16.0184 1.46602   4
   2  13   9 13.3188 1.29944   3
   2  13   9 15.1597 1.72264   3
   2  13   9 13.9587 1.29944   3
   2  13   9 15.1203 1.33873   3
   2  13   9 13.6831 1.35849   3
   3 -13   9 -0.1816 0.39360   3
   3 -13   9 0.88813 0.47439   3
   3 -13   9 0.96892 0.53493   3
   3  13   9 0.61211 0.40807   1
   3  13   9 0.21587 0.18644   3
   3  13   9 0.30409 0.20905   4
   3  13   9 0.62982 0.17743   1
   4 -13   9 3.42169 0.66843   3
   4 -13   9 3.28200 0.68834   3
   4 -13   9 2.79319 0.54865   3
   4  13   9 2.92790 0.41958   1
   4  13   9 3.24498 0.39161   1
   4  13   9 3.01180 0.66201   1
   5 -13   9 0.10397 0.32465   2
   5  13   9 0.26082 0.17388   4
   5  13   9 0.26291 0.27610   4
   5 -14  -9 2.83262 0.93259   3
   5  14  -9 2.87781 0.45496   4
   4 -14  -9 -0.4389 0.43888   1
   4 -14  -9 0.56290 0.69650   1
   4 -14  -9 0.12155 0.25326   2
   4 -14  -9 0.51515 0.26709   1
   4  14  -9 0.10483 0.13627   2
   4  14  -9 0.23058 0.30397   2
   3 -14  -9 3.52804 0.63298   1
   3 -14  -9 2.29924 0.47471   1
   3 -14  -9 1.90653 1.26097   4
   3  14  -9 1.83820 0.36768   3
   3  14  -9 1.63956 0.45708   3
   3  14  -9 1.28185 0.41731   3
   2 -14  -9 20.9421 2.60953   1
   2 -14  -9 17.4985 1.97564   4
   2 -14  -9 20.3425 2.18237   4
   2 -14  -9 20.3259 1.86847   4
   2 -14  -9 20.3208 1.99575   4
   2 -14  -9 20.3501 2.91964   4
   2 -14  -9 23.2774 3.23346   1
   2  14  -9 18.9057 2.35070   3
   2  14  -9 20.5216 1.70274   1
   2  14  -9 20.3636 2.03342   4
   2  14  -9 18.7857 1.81058   3
   2  14  -9 20.3643 1.74630   4
   2  14  -9 19.9460 2.56080   3
   1 -14  -9 5.00176 0.71307   4
   1 -14  -9 4.62003 0.69302   4
   1 -14  -9 4.62003 1.37597   4
   1  14  -9 5.72816 0.61301   3
   1  14  -9 5.61222 0.76578   3
   1  14  -9 4.46360 0.63480   3
   1  14  -9 5.75524 1.28732   3
   1  14  -9 4.25196 1.19905   3
   0  14  -9 0.33735 0.13122   2
   0  14  -9 0.34675 0.31864   2
   1 -14   9 1.08946 0.86007   2
   1 -14   9 0.86965 0.49694   2
   1  14   9 0.28722 0.52497   4
   1  14   9 0.51503 0.27728   4
   1  14   9 0.60446 0.22892   2
   1  14   9 0.31693 0.20804   4
   2 -14   9 6.19397 1.06123   3
   2 -14   9 7.55122 1.82654   3
   2 -14   9 7.92870 1.12243   3
   2 -14   9 8.79607 1.16328   3
   2 -14   9 10.1427 1.88587   2
   2  14   9 9.19564 0.89848   3
   2  14   9 7.94737 0.87650   3
   2  14   9 8.64655 0.85674   3
   2  14   9 7.32691 1.15220   3
   2  14   9 9.22014 0.83227   4
   2  14   9 7.51411 0.86662   3
   2  14   9 7.98678 1.23103   3
   3 -14   9 6.05306 0.94548   1
   3 -14   9 6.61084 1.01936   3
   3 -14   9 7.48887 1.02949   3
   3  14   9 6.08553 0.65167   3
   3  14   9 6.08594 0.96997   3
   3  14   9 6.61040 0.65481   1
   4 -14   9 3.14627 0.66298   1
   4 -14   9 4.46653 0.73774   3
   4  14   9 4.22137 0.42678   4
   4  14   9 3.29225 0.49536   2
   4  14   9 4.61102 0.76078   4
   5 -15  -9 0.60899 0.68840   1
   5  15  -9 1.79759 0.51061   1
   4 -15  -9 0.68437 0.58932   3
   4 -15  -9 -0.4277 0.75092   3
   4 -15  -9 0.22361 0.27449   2
   4  15  -9 0.40199 0.14123   2
   4  15  -9 0.63586 0.23482   1
   3 -15  -9 10.4187 1.72877   1
   3 -15  -9 9.14412 1.11777   4
   3 -15  -9 11.5466 1.19261   1
   3 -15  -9 10.2801 1.69177   1
   3  15  -9 9.16587 1.03186   2
   3  15  -9 9.36394 0.90134   1
   3  15  -9 9.11630 1.11129   3
   2 -15  -9 7.42789 2.42758   4
   2 -15  -9 8.56656 1.06968   1
   2 -15  -9 7.04737 1.75431   4
   2 -15  -9 9.69203 1.87886   1
   2 -15  -9 7.65502 0.82785   1
   2 -15  -9 7.17843 0.98804   4
   2  15  -9 5.84309 1.42081   3
   2  15  -9 7.43964 0.77974   4
   2  15  -9 6.75366 0.91047   3
   2  15  -9 7.36395 0.79044   3
   2  15  -9 7.29390 1.56081   3
   1  15  -9 3.55107 0.59336   1
   1  15  -9 3.17490 1.14899   3
   1  15  -9 3.43328 0.98091   3
   1  15  -9 2.37865 0.46364   3
   1  15  -9 2.91286 0.50398   3
   0  15  -9 3.23421 0.51409   2
   0  15  -9 3.60814 1.04694   2
   1 -15   9 -0.0190 0.06669   1
   1 -15   9 -0.0476 0.13338   1
   1  15   9 0.03612 0.05413   1
   1  15   9 0.00905 0.05413   1
   1  15   9 0.06318 0.10825   1
   1  15   9 -0.0271 0.03612   1
   2 -15   9 1.50825 1.01853   2
   2 -15   9 1.96860 0.51909   2
   2 -15   9 1.50825 0.68561   2
   2 -15   9 1.20429 0.52045   3
   2  15   9 1.58176 0.27962   1
   2  15   9 1.12320 0.31527   3
   2  15   9 0.81782 0.76850   3
   2  15   9 1.41996 0.34395   2
   2  15   9 1.54679 0.28839   1
   3 -15   9 2.05141 0.67344   1
   3 -15   9 2.50080 0.60507   3
   3 -15   9 3.22684 0.66556   3
   3  15   9 2.12083 0.40252   3
   3  15   9 2.75742 0.50542   1
   3  15   9 2.08153 0.37307   3
   4 -15   9 -0.0399 0.27886   3
   4 -15   9 1.21961 0.71814   1
   4  15   9 1.26361 0.19807   4
   4  15   9 0.81766 0.26545   2
   4  15   9 0.72211 0.44600   2
   4 -16  -9 0.08502 0.35905   3
   4 -16  -9 0.02834 0.08502   3
   4  16  -9 0.01139 0.07946   2
   3 -16  -9 1.35287 0.91873   4
   3 -16  -9 3.81231 0.59855   1
   3 -16  -9 4.81608 1.11424   1
   3 -16  -9 4.40171 0.58931   1
   3  16  -9 3.12204 0.43339   4
   3  16  -9 1.96983 0.49747   3
   3  16  -9 2.73595 0.46764   3
   2 -16  -9 11.6873 1.54282   4
   2 -16  -9 9.63018 1.27053   4
   2 -16  -9 12.3059 1.23343   4
   2 -16  -9 10.0033 2.19827   4
   2 -16  -9 12.2799 2.91324   4
   2  16  -9 12.0553 1.32063   3
   2  16  -9 12.4080 1.12645   1
   2  16  -9 13.3074 1.19626   1
   2  16  -9 12.3077 1.14508   4
   2  16  -9 10.0745 1.92082   3
   1 -16  -9 3.02705 0.49680   1
   1  16  -9 2.40870 0.50394   3
   1  16  -9 2.63018 0.97828   3
   1  16  -9 1.73341 0.42327   3
   1  16  -9 2.23735 0.44349   3
   1  16  -9 2.67514 0.42338   1
   1  16  -9 1.95521 1.32025   3
   0 -16   9 0.73197 0.59293   1
   0  16  -9 0.59293 0.62082   1
   1 -16   9 2.79266 1.29440   3
   1  16   9 3.65666 0.54005   1
   1  16   9 4.14360 0.58437   1
   2 -16   9 1.28595 0.64303   3
   2 -16   9 1.51222 0.70701   1
   2 -16   9 1.37914 0.42667   3
   2  16   9 1.65115 0.30253   1
   2  16   9 1.33084 0.82803   3
   2  16   9 1.91042 0.37173   1
   2  16   9 1.12378 0.29575   3
   2  16   9 1.31106 0.30564   3
   3 -16   9 1.68491 0.61745   1
   3 -16   9 2.44742 0.59423   3
   3 -16   9 1.54887 0.46052   1
   3  16   9 1.73360 0.34277   4
   3  16   9 1.84214 0.53658   1
   3  16   9 1.73439 0.29209   4
   4 -16   9 1.02462 0.59693   3
   4 -16   9 0.52265 0.31364   1
   4  16   9 0.69295 0.29700   1
   4  16   9 0.93537 0.33933   4
   4  16   9 1.04538 0.19261   4
   4 -17  -9 0.29400 0.94509   1
   4  17  -9 0.41380 0.25561   1
   3 -17  -9 0.23964 0.31342   1
   3 -17  -9 0.17171 0.69687   4
   3 -17  -9 0.41475 0.33182   1
   3 -17  -9 -0.4332 0.87564   1
   3  17  -9 -0.0547 0.22782   1
   3  17  -9 0.37363 0.28258   1
   3  17  -9 0.01991 0.19954   2
   2 -17  -9 1.19009 0.53455   4
   2 -17  -9 1.94003 0.94748   1
   2 -17  -9 1.33551 0.58652   1
   2  17  -9 1.25103 0.35025   3
   2  17  -9 1.67261 0.37461   1
   2  17  -9 1.07083 0.32024   3
   2  17  -9 0.66055 0.33028   3
   1 -17  -9 1.17176 0.35153   1
   1  17  -9 -0.2317 0.70397   1
   1  17  -9 0.38285 0.30230   3
   1  17  -9 0.37284 0.27208   3
   1  17  -9 0.52394 0.44339   3
   0  17  -9 0.44983 0.30296   1
   1 -17   9 12.1159 2.18072   3
   1  17   9 15.1425 1.59302   3
   1  17   9 15.1757 1.62985   4
   1  17   9 16.9069 1.50457   1
   2 -17   9 2.40575 0.76905   1
   2 -17   9 1.79445 0.41410   1
   2 -17   9 1.33110 0.60141   1
   2  17   9 1.21425 0.24281   3
   2  17   9 1.53680 0.27472   1
   2  17   9 1.19345 0.26633   3
   3 -17   9 0.81829 0.53142   1
   3 -17   9 0.89270 0.54197   1
   3 -17   9 0.51010 0.40382   1
   3  17   9 1.40222 0.30962   1
   3  17   9 1.84838 0.40971   1
   3  17   9 1.18784 0.25523   4
   3  17   9 1.14665 0.28664   2
   4 -17   9 0.33353 0.28597   2
   4 -17   9 0.91729 0.46462   2
   4  17   9 1.08573 0.24788   1
   4  17   9 1.23197 0.19620   4
   4  17   9 1.12112 0.35406   1
   4 -18  -9 1.36097 0.28307   1
   4 -18  -9 1.75372 0.62503   3
   4  18  -9 0.91909 0.30632   1
   3 -18  -9 -0.1859 0.24160   1
   3 -18  -9 0.39026 0.13934   1
   3 -18  -9 0.16721 0.12080   1
   3 -18  -9 0.09293 0.17654   1
   3  18  -9 0.08570 0.08570   1
   3  18  -9 0.02857 0.09525   1
   3  18  -9 -0.0476 0.11426   1
   2 -18  -9 0.79470 0.33927   1
   2 -18  -9 1.21430 0.82148   1
   2 -18  -9 0.63865 0.27639   4
   2 -18  -9 1.16074 0.58037   1
   2  18  -9 0.48062 0.31047   3
   2  18  -9 0.58076 0.23032   3
   2  18  -9 0.78932 0.33325   1
   1 -18  -9 9.03346 0.97321   1
   1  18  -9 8.58689 0.97759   3
   1  18  -9 9.74370 1.00979   1
   1  18  -9 7.71010 0.95747   3
   0  18  -9 0.01018 0.78104   3
   1  18   9 0.64274 0.27422   1
   1  18   9 0.44563 0.25711   1
   2 -18   9 4.32884 0.63538   1
   2 -18   9 4.82519 0.90347   1
   2  18   9 3.83663 0.51502   1
   2  18   9 3.63953 0.54028   3
   2  18   9 4.47184 0.50641   1
   3 -18   9 0.35125 0.28098   3
   3 -18   9 0.40148 0.20074   3
   3 -18   9 0.11044 0.15050   3
   3  18   9 0.07352 0.08264   1
   3  18   9 0.11940 0.21126   1
   3  18   9 0.07352 0.10107   1
   4 -18   9 1.31331 0.42956   2
   4  18   9 1.90026 0.28753   4
   4  18   9 1.90003 0.36036   4
   4 -19  -9 2.61862 0.38237   1
   4 -19  -9 4.26990 0.99104   3
   4  19  -9 3.57760 0.43760   4
   3 -19  -9 0.04048 0.17197   2
   3 -19  -9 0.89069 0.52505   1
   3 -19  -9 0.13129 0.15000   1
   3 -19  -9 -0.0938 0.24376   1
   3  19  -9 0.17660 0.12758   1
   3  19  -9 -0.1570 0.17660   1
   3  19  -9 0.10799 0.10799   1
   2 -19  -9 4.12564 0.80968   4
   2 -19  -9 4.40082 0.56012   1
   2 -19  -9 4.13590 1.16008   4
   2  19  -9 5.27697 0.67079   1
   2  19  -9 5.73307 0.65294   1
   2  19  -9 4.39149 0.57237   1
   1 -19  -9 6.60574 0.81784   4
   1  19  -9 7.50584 0.84286   1
   1  19  -9 5.14188 0.75615   3
   0  19   9 1.09195 0.32669   1
   1 -19   9 4.58354 0.88612   3
   1 -19   9 5.83614 0.78640   1
   1  19   9 5.13028 0.75335   3
   1  19   9 5.18948 0.64090   3
   2 -19   9 0.54539 0.74087   2
   2 -19   9 1.14217 0.39097   2
   2 -19   9 1.03927 0.45280   2
   2  19   9 1.64644 0.36393   1
   2  19   9 1.36047 0.32065   1
   2  19   9 1.22181 0.23493   2
   2  19   9 1.61176 0.37263   1
   3 -19   9 0.64084 0.38049   3
   3 -19   9 0.61062 0.31587   3
   3 -19   9 0.78106 0.41052   3
   3  19   9 0.93241 0.19200   4
   3  19   9 0.60913 0.42545   1
   3  19   9 0.75875 0.24683   4
   4 -19   9 0.10171 0.15243   2
   3 -20  -9 0.12106 0.18626   3
   3 -20  -9 0.07137 0.17331   1
   3 -20  -9 0.33524 0.37251   3
   3  20  -9 0.16722 0.13772   4
   3  20  -9 0.21635 0.19672   4
   3  20  -9 0.02281 0.11431   2
   2 -20  -9 9.29112 1.81587   4
   2 -20  -9 7.97969 1.19041   4
   2 -20  -9 9.51504 0.90619   4
   2  20  -9 7.69730 1.02158   2
   2  20  -9 9.51640 0.95456   4
   2  20  -9 11.0170 0.99308   1
   2  20  -9 9.51649 0.96444   4
   1 -20  -9 3.21220 0.60504   4
   1  20  -9 3.11636 0.48407   3
   0 -20  -9 1.26148 0.43465   1
   0  20   9 1.79838 0.40063   1
   1  20   9 0.41624 0.23781   1
   1  20   9 0.56919 0.22086   1
   2 -20   9 0.24177 0.71477   2
   2 -20   9 0.27330 0.55714   2
   2 -20   9 0.38896 0.28384   2
   2  20   9 0.55499 0.35677   2
   2  20   9 1.05573 0.31937   1
   2  20   9 0.94921 0.23065   1
   2  20   9 0.66404 0.19822   2
   3 -20   9 0.00000 0.15918   1
   3 -20   9 -0.1399 0.13986   4
   3  20   9 0.16330 0.10887   4
   3  20   9 0.06354 0.08165   4
   3  20   9 0.19963 0.12708   4
   3 -21  -9 0.55967 0.61241   1
   3 -21  -9 0.26394 0.36954   1
   3  21  -9 0.48911 0.36038   1
   3  21  -9 0.45050 0.25747   1
   3  21  -9 0.74886 0.25787   4
   2 -21  -9 0.39126 0.27298   1
   2 -21  -9 0.22744 0.30940   1
   2 -21  -9 0.51868 0.13644   1
   2 -21  -9 -0.1456 0.51868   1
   2  21  -9 0.07396 0.23236   2
   2  21  -9 0.02108 0.11623   2
   2  21  -9 0.11696 0.20478   1
   2  21  -9 0.20478 0.15598   1
   1 -21  -9 8.95990 1.01677   1
   0 -21  -9 0.45266 0.35012   1
   0  21   9 -0.0598 0.30746   1
   1  21   9 1.02449 0.35292   1
   2 -21   9 3.96465 0.95353   4
   2 -21   9 3.16127 0.42723   4
   2 -21   9 3.31225 0.81298   4
   2  21   9 3.62142 0.50169   1
   2  21   9 3.16252 0.52041   2
   2  21   9 3.21086 0.40141   1
   3 -21   9 0.17822 0.28528   2
   3 -21   9 0.55767 0.29876   4
   3  21   9 0.46899 0.14653   4
   3  21   9 0.56745 0.15313   4
   3  21   9 0.16487 0.31794   1
   3 -22  -9 0.14654 0.12826   3
   3 -22  -9 0.09407 0.30319   2
   3  22  -9 -0.0294 0.07835   4
   3  22  -9 -0.0685 0.06853   4
   2 -22  -9 -0.1478 0.17547   4
   2 -22  -9 -0.0831 0.17547   4
   2 -22  -9 0.07393 0.12007   4
   2  22  -9 0.08890 0.08890   4
   2  22  -9 -0.0988 0.09881   4
   2  22  -9 0.09881 0.08890   4
   1 -22  -9 2.96684 0.49595   1
   1  22  -9 1.86191 0.33284   2
   1  22  -9 2.46683 0.43702   1
   0 -22  -9 0.59962 0.34762   1
   0  22  -9 0.55103 0.23203   1
   0  22   9 0.28476 0.22957   4
  -1  22  -9 0.01992 0.06989   1
   1  22   9 -0.0089 0.04439   1
   1  22   9 0.04439 0.03557   1
   2 -22   9 0.76035 0.40019   4
   2 -22   9 0.98041 0.78031   4
   2  22   9 0.84313 0.21760   4
   2  22   9 1.06064 0.22660   4
   2  22   9 0.58482 0.24134   3
   3  22   9 2.80798 0.30770   4
   2 -23  -9 0.96105 0.43930   4
   2  23  -9 0.95565 0.23649   4
   2  23  -9 0.43217 0.25938   1
   2  23  -9 0.37049 0.32106   1
   1 -23  -9 1.63019 0.36635   1
   1 -23  -9 1.40117 0.52205   1
   1  23  -9 1.67803 0.36742   1
   0 -23  -9 3.21043 0.66217   2
   0  23   9 4.07326 0.57191   2
   1 -23   9 1.23006 0.31008   4
   1  23   9 1.46379 0.32730   4
   2 -23   9 0.41865 0.22927   4
   2 -23   9 -0.0100 0.28906   4
   2  23   9 0.11686 0.14382   4
   2  23   9 0.37753 0.15284   4
   2  23   9 0.29665 0.17078   4
   2 -24  -9 0.21765 0.21765   4
   2  24  -9 0.04477 0.14927   1
   2  24  -9 0.00000 0.14927   1
   2  24  -9 0.12767 0.10807   4
   1 -24  -9 3.66443 0.47428   4
   1 -24  -9 4.18349 0.72761   4
   1  24  -9 4.54263 0.59384   4
  -1  24   9 3.24251 0.56794   1
   1  24  -9 3.69007 0.49778   4
   0 -24  -9 -0.0726 0.08164   4
   0  24   9 0.21781 0.09075   4
   0  24  -9 0.20896 0.09949   4
   1 -24   9 0.02988 0.05976   4
   1  24   9 -0.0540 0.06308   4
  -1  24  -9 0.05976 0.06975   4
   1  24   9 0.02702 0.05404   4
   2 -24   9 0.28361 0.30947   1
   2  24   9 0.52823 0.20122   3
   1 -25  -9 0.03318 0.35397   1
   1 -25  -9 0.12173 0.16589   1
   1  25  -9 0.40423 0.19722   4
   1  25  -9 0.49305 0.16765   4
  -1  25   9 0.38087 0.18088   3
   0 -25   9 5.97577 0.62436   4
   0 -25  -9 5.40435 0.66194   1
   0  25   9 5.53454 0.64028   1
   0  25  -9 5.64884 0.58868   4
   1 -25   9 0.06947 0.06947   4
   1  25   9 0.08031 0.09822   4
  -1  25  -9 -0.0100 0.09922   4
   1  25   9 0.04716 0.11785   1
   0  26   9 0.38852 0.16290   1
   4   0 -10 40.2270 5.67735   1
   4   0 -10 48.6217 4.19269   1
   2   0 -10 36.6155 2.86668   2
   2   0 -10 33.4282 3.71206   2
   2   0 -10 32.5341 3.12908   2
   0   0  10 28.1288 2.33484   3
   0   0 -10 31.4118 2.67691   1
   0   0 -10 30.7555 2.60659   3
   0   0  10 27.5854 2.57641   3
   0   0  10 27.6458 2.37512   3
   0   0 -10 26.2770 2.90853   3
   0   0 -10 30.2423 2.39520   3
   0   0  10 27.6357 2.59650   3
   0   0 -10 30.1416 2.78769   3
   0   0  10 25.5323 2.66696   3
   2   0  10 20.1539 1.66773   1
   2   0  10 17.9774 1.95041   1
   2   0  10 21.0019 1.88444   1
   2   0  10 19.4190 1.92215   1
   4   0  10 18.8556 1.86153   1
   4   0  10 22.0826 2.03324   2
   4   0  10 20.6261 2.26789   2
   5  -1 -10 17.8609 1.85610   1
   4  -1 -10 0.27191 0.14061   1
   4   1 -10 0.74361 0.39036   1
   4   1 -10 0.08363 0.13015   1
   3  -1 -10 0.36340 0.79387   2
   3   1 -10 1.95076 0.35981   2
   2  -1 -10 3.47265 0.40968   2
   2  -1 -10 2.45180 0.64306   1
   2  -1 -10 3.42392 1.01446   2
   2   1 -10 3.35745 0.41607   2
   2   1 -10 4.85712 0.80312   2
   2   1 -10 2.51757 0.61181   1
   2   1 -10 6.86000 1.19977   2
   1  -1 -10 34.3583 3.10991   1
   1  -1 -10 31.3626 3.07492   4
   1  -1 -10 27.5540 3.16544   4
   1  -1 -10 34.4478 3.57694   1
  -1  -1  10 31.8007 3.13734   4
   1  -1 -10 35.8587 2.83175   1
   1   1 -10 35.3352 3.53851   2
   1   1 -10 33.4968 3.18268   2
   1   1 -10 38.1422 2.81694   2
   1   1 -10 38.6363 3.16285   2
   1   1 -10 34.9002 3.04428   2
  -1   1  10 28.5289 3.15536   4
   0  -1  10 18.9889 1.72263   3
   0  -1  10 19.8350 1.75284   3
   0  -1 -10 22.3606 1.74365   1
   0  -1  10 19.6336 1.96433   3
   0  -1  10 18.1931 2.05507   3
   0  -1 -10 25.9569 2.09037   1
   0  -1 -10 21.3809 1.94731   2
   0  -1 -10 22.5091 2.13996   1
   0  -1  10 20.2178 1.97443   3
   0   1  10 19.4896 1.95706   3
   0   1  10 20.1958 2.06796   3
   0   1 -10 19.2910 1.76284   3
   0   1 -10 20.4797 2.15581   3
   0   1  10 21.2247 1.95706   3
   0   1 -10 21.0741 2.09528   3
   0   1  10 21.4292 1.73371   1
   0   1 -10 19.2004 1.94422   3
   0   1  10 22.3903 1.73371   1
   0   1 -10 19.5227 2.18602   3
   1  -1  10 23.6823 2.00808   1
  -1  -1 -10 28.5045 2.23225   1
   1  -1  10 23.7884 1.95017   1
   1  -1  10 21.1133 2.22510   3
   1  -1  10 20.3841 2.27611   3
   1   1  10 25.9810 2.20315   1
  -1   1 -10 21.1408 2.24207   4
   2  -1  10 0.16017 0.09421   1
   2  -1  10 0.00000 0.29208   1
   2  -1  10 0.36739 0.31089   1
   2  -1  10 0.48041 0.26373   1
   2   1  10 0.20736 0.28281   1
   2   1  10 -0.0095 0.22627   1
   2   1  10 -0.2356 0.23563   1
   2   1  10 0.00000 0.10373   1
   3  -1  10 0.03801 0.05697   1
   3  -1  10 0.05697 0.07603   1
   3  -1  10 0.09498 0.13300   1
   3  -1  10 -0.0760 0.13300   1
   3  -1  10 0.01991 0.05984   4
   3  -1  10 -0.0190 0.10451   1
   3  -1  10 -0.0570 0.13300   1
   3   1  10 0.03774 0.08485   1
   3   1  10 0.05656 0.13205   1
   3   1  10 0.04710 0.09431   1
   3   1  10 -0.0943 0.13205   1
   3   1  10 -0.1414 0.14141   1
   3   1  10 0.00996 0.04961   4
   3   1  10 -0.0283 0.06603   1
   4  -1  10 0.65810 0.28481   2
   4  -1  10 0.09061 0.66471   1
   4  -1  10 1.38487 0.39289   2
   4  -1  10 1.20803 0.50086   2
   4   1  10 -0.1459 0.65183   2
   5  -1  10 14.8762 1.64538   3
   5   1  10 12.9147 1.56727   3
   5  -2 -10 4.25542 0.75780   1
   4  -2 -10 0.89401 0.49878   1
   4   2 -10 2.20101 0.53636   1
   4   2 -10 0.39669 0.69421   3
   4   2 -10 1.85890 0.55491   1
   4   2 -10 -0.3052 1.19304   1
   3  -2 -10 1.11871 0.16982   1
   3  -2 -10 0.85902 0.44945   1
   3  -2 -10 1.53711 0.37466   2
   3  -2 -10 1.15869 0.24967   1
   3  -2 -10 2.14237 0.75897   2
   3  -2 -10 2.29608 0.81659   2
   3  -2 -10 0.95891 1.20858   1
   3  -2 -10 1.55628 0.21133   2
   3  -2 -10 1.17862 0.42951   1
   3   2 -10 2.33604 1.05502   2
   3   2 -10 1.63902 0.25435   2
   2   2 -10 20.2207 2.07019   2
   2   2 -10 18.5260 1.67545   2
   2   2 -10 22.4835 2.42649   2
  -1  -2  10 -0.1774 0.17737   2
   1  -2 -10 0.02987 0.15937   1
   1  -2 -10 0.05975 0.20923   1
   1  -2 -10 0.08962 0.06974   1
   1  -2 -10 0.07974 0.22911   1
   1   2 -10 0.10846 0.18725   2
   1   2 -10 -0.1676 0.18725   2
  -1   2  10 -0.1594 0.15937   1
   1   2 -10 0.02003 0.06019   1
   1   2 -10 0.15769 0.21681   2
   0  -2 -10 4.37154 0.47687   1
   0  -2 -10 4.71936 0.92404   1
   0  -2 -10 3.54922 0.64710   3
   0  -2 -10 4.97767 0.92404   1
   0  -2  10 4.23530 0.72580   2
   0  -2  10 4.11691 0.53482   3
   0  -2 -10 4.77895 0.87431   1
   0  -2  10 4.25239 0.69724   1
   0  -2  10 3.48118 0.80729   3
   0  -2  10 4.99868 0.46161   1
   0   2  10 4.08505 0.45500   3
   0   2  10 3.84244 0.68757   3
   0   2  10 3.69071 0.60674   3
   0   2 -10 5.30317 0.87406   1
   0   2  10 4.37154 0.71535   1
   0   2 -10 6.40311 0.91337   1
   0   2 -10 4.51747 0.84461   1
   0   2 -10 4.91032 0.47136   1
   0   2  10 2.84136 0.65724   3
   0   2 -10 4.09677 0.68613   3
   1  -2  10 3.03318 0.37552   1
   1  -2  10 3.65905 0.54890   1
   1  -2  10 2.82126 0.67407   1
   1  -2  10 2.71313 0.66569   3
  -1   2 -10 1.88608 0.57494   3
   1   2  10 5.64171 0.74894   1
   2  -2  10 8.10037 1.19601   3
   2  -2  10 7.56780 1.24621   3
   2  -2  10 8.49046 0.81044   1
   2  -2  10 8.12913 1.08577   4
   2   2  10 9.61074 0.81115   1
   2   2  10 9.40327 1.10347   1
   2   2  10 8.15827 1.05636   1
   3  -2  10 1.95971 0.37991   4
   3  -2  10 2.87137 0.70588   1
   3  -2  10 2.22271 0.30524   1
   3  -2  10 2.14922 0.55688   3
   3  -2  10 2.27036 0.40064   1
   3  -2  10 1.80978 0.77987   4
   3  -2  10 2.14655 0.42358   4
   3  -2  10 2.10965 0.44991   4
   3   2  10 1.96245 0.33703   4
   3   2  10 2.14851 0.66257   3
   3   2  10 2.03184 0.30731   4
   3   2  10 1.81381 0.33703   4
   3   2  10 1.85348 0.50545   4
   3   2  10 1.10018 0.74336   4
   3   2  10 2.07151 0.39649   4
   4  -2  10 4.73780 0.85690   3
   4  -2  10 7.07217 1.16229   3
   4  -2  10 4.22229 0.61909   1
   4  -2  10 3.51177 0.76122   1
   4   2  10 6.31643 1.08505   2
   5  -2  10 0.32026 0.16500   3
   5   2  10 0.00962 0.10554   3
   5  -3 -10 13.7552 1.59313   1
   4  -3 -10 4.78567 0.85895   1
   4  -3 -10 3.33858 0.37866   2
   4   3 -10 4.53535 0.52442   1
   3  -3 -10 3.26982 0.56909   2
   3  -3 -10 2.43897 0.38983   1
   3  -3 -10 2.77793 0.34724   2
   3  -3 -10 4.64921 1.01280   2
   3  -3 -10 2.02918 0.28987   1
   3  -3 -10 3.08657 0.55942   2
   3  -3 -10 2.44900 0.56981   1
   3   3 -10 3.72879 1.18983   2
   3   3 -10 3.04493 0.44968   2
   2  -3 -10 6.59519 0.65761   2
   2  -3 -10 6.59519 1.05995   2
   2  -3 -10 7.12522 1.48198   2
   2   3 -10 6.61783 0.98639   2
   2   3 -10 6.01444 0.61289   2
   2   3 -10 4.87159 0.96234   1
   2   3 -10 6.28256 1.26422   2
   1   3 -10 14.1775 1.56106   2
   1   3 -10 14.5604 1.74770   2
   1   3 -10 16.3769 1.54147   2
   1   3 -10 12.4495 1.20761   2
   0  -3  10 -0.2448 0.24484   1
   0  -3 -10 -0.0896 0.30860   1
   0  -3  10 0.08090 0.10107   4
   0  -3  10 0.30370 0.30370   1
   0  -3 -10 0.02022 0.10132   3
   0  -3  10 -0.2351 0.26449   1
   0  -3  10 -0.1372 0.13716   1
   0  -3 -10 0.11940 0.18909   1
   0  -3 -10 -0.0995 0.31848   1
   0   3 -10 0.02017 0.17183   4
   0   3 -10 -0.2351 0.31342   1
   0   3  10 0.13937 0.23891   1
   0   3 -10 -0.0294 0.32325   1
   0   3  10 0.10132 0.24320   3
   0   3 -10 0.11751 0.09796   1
   0   3  10 0.03039 0.09116   3
   0   3 -10 0.01014 0.31334   4
   0   3  10 -0.0100 0.22893   1
   1  -3  10 20.8753 1.65231   1
   1  -3  10 20.6416 1.79409   3
   1  -3  10 17.9934 2.01160   3
   1  -3  10 20.4800 2.04192   3
  -1   3 -10 19.3883 1.96111   3
   1   3  10 17.1334 1.92390   3
   1   3  10 21.0869 1.77345   1
   1   3  10 20.6431 1.70533   4
   1   3  10 20.3264 1.92390   3
   2  -3  10 0.02829 0.05658   1
   2  -3  10 0.07550 0.15091   1
   2  -3  10 -0.0378 0.11316   1
   2  -3  10 0.07550 0.16037   1
   2   3  10 0.20755 0.12266   1
   2   3  10 0.08489 0.04713   1
   2   3  10 0.06606 0.11319   1
   3  -3  10 1.51492 0.41229   1
   3  -3  10 0.53115 0.63137   4
   3  -3  10 1.26263 0.54110   4
   3  -3  10 2.04223 0.65196   1
   3  -3  10 1.72582 0.38354   1
   3  -3  10 1.16252 0.34077   4
   3  -3  10 1.20252 0.32066   4
   3  -3  10 1.53405 0.26842   1
   3  -3  10 0.24055 0.75159   4
   3  -3  10 0.69148 0.71148   4
   3   3  10 2.18191 0.39329   2
   3   3  10 1.15746 0.51443   4
   3   3  10 1.98522 0.61806   2
   3   3  10 2.07886 0.29964   2
   3   3  10 1.97582 0.34651   2
   3   3  10 2.35042 0.39329   2
   3   3  10 1.43585 0.29098   1
   4  -3  10 6.71431 0.69122   3
   4  -3  10 5.75176 0.77785   1
   4  -3  10 5.31166 1.03367   1
   4  -3  10 6.29962 0.83929   3
   4  -3  10 7.32650 1.03678   3
   4   3  10 6.58499 0.67592   2
   4   3  10 6.51748 1.11040   2
   4   3  10 6.26777 0.68238   3
   5  -3  10 4.05669 0.65185   3
   5   3  10 1.00520 0.71156   1
   5  -4 -10 4.45550 0.74738   1
   4  -4 -10 4.09098 0.46900   2
   4  -4 -10 6.10320 0.91781   1
   4  -4 -10 5.17590 1.26794   1
   4   4 -10 5.82001 0.94251   1
   4   4 -10 4.32789 0.62396   3
   3  -4 -10 42.3008 3.48331   1
   3  -4 -10 42.3831 3.80231   1
   3  -4 -10 42.3829 4.11576   1
   3  -4 -10 47.0509 3.93951   2
   3  -4 -10 39.3296 3.80096   1
   3   4 -10 42.3547 4.51176   1
   3   4 -10 42.3725 3.70070   1
   3   4 -10 42.8580 4.61294   2
   3   4 -10 39.8713 4.07057   1
   3   4 -10 43.1096 5.13472   2
   2  -4 -10 13.2781 1.34747   2
   2  -4 -10 12.6486 2.12450   2
   2  -4 -10 12.9830 1.63269   2
   2   4 -10 18.2887 2.00877   2
   2   4 -10 16.4704 1.31384   2
   2   4 -10 17.9841 1.76124   2
   1  -4 -10 38.9355 3.91788   3
   1  -4 -10 41.2227 3.77563   2
   1  -4 -10 44.1493 3.46603   2
   1  -4 -10 51.0314 4.47487   2
   1   4 -10 34.2611 3.79782   1
   1   4 -10 42.4894 3.69384   2
   1   4 -10 41.7663 3.37135   2
   1   4 -10 38.6618 4.25003   1
   0  -4  10 4.19962 0.90067   4
   0  -4  10 5.77824 0.89051   4
   0  -4 -10 5.97190 1.04510   1
   0  -4  10 5.88624 0.57764   2
   0  -4 -10 6.71850 0.60711   1
   0  -4  10 5.97116 0.86000   1
   0  -4 -10 6.28050 0.94557   1
   0  -4 -10 5.36686 0.80150   3
   0   4  10 5.78288 0.57833   3
   0   4 -10 6.28387 0.57660   1
   0   4  10 5.24515 0.80150   3
   0   4 -10 5.88629 1.09002   3
   0   4 -10 5.88657 0.85068   2
   0   4 -10 5.80859 0.76911   4
   0   4  10 5.56978 0.80150   3
   0   4  10 5.32626 0.88260   3
   0   4 -10 7.14386 1.05546   1
   1  -4  10 18.2489 1.67812   1
   1  -4  10 16.5899 1.39052   1
   1  -4  10 16.5324 1.45766   1
   1  -4  10 13.8068 1.72206   3
   1   4  10 17.4250 1.53176   1
   1   4  10 16.8689 1.60986   1
   1   4  10 15.9713 1.40493   1
   1   4  10 14.5481 1.66125   3
   2  -4  10 13.7575 1.69132   1
   2  -4  10 13.4064 1.29708   4
   2  -4  10 13.4059 1.71815   4
   2  -4  10 13.9654 1.50233   1
   2   4  10 15.6722 1.51912   1
   2   4  10 18.3423 1.59455   1
   2   4  10 16.5591 1.29264   1
   3  -4  10 9.91283 1.21525   4
   3  -4  10 9.93298 0.98425   4
   3  -4  10 10.4826 1.26331   1
   3  -4  10 11.2251 1.01259   1
   3  -4  10 9.35039 1.12489   4
   3  -4  10 10.8876 1.31148   1
   3  -4  10 8.55694 1.36586   4
   3  -4  10 10.3677 1.51340   2
   3  -4  10 10.0836 1.09477   4
   3  -4  10 11.2540 1.38868   1
   3   4  10 11.1085 1.12763   2
   3   4  10 11.0433 0.97853   2
   3   4  10 10.3588 1.31837   4
   3   4  10 10.8849 0.91328   2
   3   4  10 9.07644 0.99751   4
   3   4  10 11.9287 1.01583   2
   3   4  10 10.2988 1.18053   4
   3   4  10 10.0048 1.11599   4
   4  -4  10 8.10533 1.00151   1
   4  -4  10 8.72287 1.29603   3
   4  -4  10 11.1632 1.16779   3
   4  -4  10 7.47553 1.29068   1
   4   4  10 9.10276 0.87655   2
   4   4  10 10.0275 1.36787   2
   5  -4  10 1.57979 0.87763   1
   5   4  10 3.15246 0.57147   3
   5   5 -10 3.20980 0.44156   2
   4  -5 -10 5.93485 2.26809   2
   4  -5 -10 5.99478 0.63940   2
   4   5 -10 6.39182 0.72846   1
   3  -5 -10 0.35920 0.66982   2
   3  -5 -10 0.32035 0.17468   2
   3  -5 -10 0.22020 0.19018   1
   3  -5 -10 0.12009 0.44050   1
   3  -5 -10 -0.4950 0.75716   2
   3  -5 -10 0.17020 0.13013   1
   3  -5 -10 0.35920 0.26212   2
   3  -5 -10 0.14017 0.31037   1
   3   5 -10 0.17859 0.21832   1
   3   5 -10 -0.1112 0.78809   2
   3   5 -10 0.95493 0.52852   2
   3   5 -10 0.16874 0.15879   1
   3   5 -10 0.72317 0.49142   2
   3   5 -10 -0.3523 0.62125   2
   2  -5 -10 4.41274 0.81758   2
   2  -5 -10 2.72838 0.95540   2
   2  -5 -10 3.13228 0.80770   2
   2   5 -10 2.50289 0.72328   4
   2   5 -10 4.33245 0.99326   2
   2   5 -10 2.99865 0.42565   2
   2   5 -10 3.26347 0.73782   2
   1  -5 -10 19.2203 2.22659   2
   1  -5 -10 16.9638 1.75727   2
   1  -5 -10 13.2169 1.83460   1
   1   5 -10 14.7324 1.86582   2
   1   5 -10 16.9967 1.72984   2
   1   5 -10 15.4516 1.37025   2
   0  -5 -10 0.23345 0.48716   3
   0  -5  10 0.19245 0.14185   4
   0  -5  10 0.24316 0.52676   4
   0  -5 -10 0.29433 0.17257   3
   0  -5  10 0.34447 0.40523   4
   0  -5 -10 0.50763 0.43804   1
   0  -5  10 -0.1853 0.37061   1
   0  -5 -10 0.17257 0.28415   3
   0   5 -10 0.55601 0.38039   1
   0   5 -10 0.59495 0.49741   1
   0   5  10 0.37558 0.14213   3
   0   5  10 0.39820 0.31852   1
   0   5 -10 0.49741 0.15605   1
   0   5  10 0.39820 0.30864   1
   0   5 -10 0.29376 0.25322   4
   0   5 -10 -0.0683 0.47794   1
   0   5  10 0.09132 0.32478   3
   1  -5  10 0.70880 0.39269   1
   1  -5  10 0.21441 0.26320   2
   1  -5  10 0.39269 0.37357   1
   1  -5  10 0.27778 0.13413   1
   1   5  10 0.04026 0.29167   3
   1   5  10 0.29287 0.13669   1
   1   5  10 0.59542 0.29287   1
   2  -5  10 1.51567 0.58732   1
   2  -5  10 2.34928 0.34103   1
   2  -5  10 2.98402 0.61573   1
   2  -5  10 0.16174 0.71776   4
   2   5  10 1.44270 0.50915   1
   2   5  10 3.07400 0.49979   1
   2   5  10 2.33851 0.38657   1
   2   5  10 3.48895 0.36775   1
   2   5  10 1.72560 0.58463   1
   3  -5  10 0.01010 0.17112   4
   3  -5  10 -0.1358 0.31994   2
   3  -5  10 0.07760 0.21326   2
   3  -5  10 0.20363 0.24233   2
   3  -5  10 -0.1551 0.34901   2
   3  -5  10 -0.0776 0.31994   2
   3  -5  10 0.15511 0.14538   2
   3  -5  10 -0.1648 0.16483   2
   3  -5  10 0.17446 0.47504   2
   3  -5  10 0.09695 0.08723   2
   3   5  10 0.03947 0.11831   4
   3   5  10 0.32458 0.12987   2
   3   5  10 -0.2226 0.22262   2
   3   5  10 0.22262 0.13908   2
   3   5  10 -0.1762 0.25965   2
   3   5  10 0.24113 0.14838   2
   3   5  10 0.21332 0.29677   2
   3   5  10 0.15769 0.26895   2
   3   5  10 -0.0371 0.07424   2
   4  -5  10 4.01489 1.04205   4
   4  -5  10 3.72053 0.64614   1
   4  -5  10 2.92846 0.82332   1
   4   5  10 5.73300 0.85612   1
   4   5  10 4.04006 0.76957   1
   4   5  10 3.81447 0.50264   4
   5  -5  10 3.54019 0.71980   1
   5  -5  10 4.50401 0.69365   3
   5   5  10 3.81508 0.72664   1
   5   5  10 2.97489 0.64726   1
   5  -6 -10 0.91891 0.47396   4
   5   6 -10 0.58729 0.18595   1
   4  -6 -10 7.91472 2.69164   2
   4  -6 -10 11.1567 1.11066   2
   4  -6 -10 13.0911 1.39550   1
   4   6 -10 11.7386 2.00923   3
   4   6 -10 12.1882 1.21973   4
   3  -6 -10 0.67130 0.48647   3
   3  -6 -10 0.24318 0.19459   3
   3  -6 -10 0.36966 0.47671   3
   3  -6 -10 0.80753 0.52531   3
   3  -6 -10 1.76095 1.18695   3
   3  -6 -10 1.12859 0.35024   3
   3  -6 -10 0.47671 0.14589   3
   3   6 -10 -0.2030 0.75677   2
   3   6 -10 -0.0646 0.55376   2
   3   6 -10 0.65522 0.52608   2
   3   6 -10 0.75677 0.33224   2
   3   6 -10 0.98745 0.47063   2
   3   6 -10 0.28614 0.14765   2
   3   6 -10 0.19854 0.22831   3
   2  -6 -10 16.7551 1.85297   2
   2  -6 -10 18.3221 2.43437   2
   2  -6 -10 15.1190 1.74451   2
   2  -6 -10 17.2281 1.39959   2
   2   6 -10 15.1738 1.97308   2
   2   6 -10 14.3188 1.31535   2
   2   6 -10 12.7102 1.85143   1
   2   6 -10 14.4785 1.64417   2
   1  -6 -10 0.02992 0.09977   2
   1   6 -10 0.31865 0.12552   2
   0  -6 -10 9.05053 1.14376   1
   0  -6 -10 10.5026 0.88518   1
   0  -6  10 9.09466 0.84711   1
   0  -6  10 8.56674 1.19631   4
   0  -6 -10 7.45630 1.33913   3
   0  -6 -10 8.99088 1.22327   1
   0   6  10 9.34892 0.84538   1
   0   6 -10 10.0295 0.85688   1
   0   6  10 8.01423 1.18690   3
   0   6  10 8.33894 1.07538   3
   0   6 -10 9.37703 1.27560   1
   0   6 -10 10.3800 1.19766   1
   0   6 -10 8.24224 1.39908   4
   0   6 -10 7.87726 1.06451   4
   1  -6  10 0.51826 0.33538   3
   1  -6  10 0.89053 0.22023   1
   1  -6  10 0.07115 0.47769   3
   1   6  10 0.45188 0.37160   3
   1   6  10 0.74163 0.17559   1
   1   6  10 0.78068 0.38055   1
   2  -6  10 2.72488 0.74955   4
   2  -6  10 3.04163 0.68484   4
   2  -6  10 3.84943 0.64631   1
   2  -6  10 3.43127 0.94100   1
   2  -6  10 2.66412 0.47613   4
   2  -6  10 3.21266 0.52275   1
   2  -6  10 3.01862 0.42542   4
   2  -6  10 2.91732 0.57743   4
   2   6  10 3.73771 0.51780   2
   2   6  10 3.44580 0.51780   2
   2   6  10 3.03808 0.58056   4
   2   6  10 3.07863 0.61195   2
   2   6  10 2.91938 0.38594   4
   2   6  10 2.06828 0.39587   4
   3  -6  10 4.09431 0.67571   4
   3  -6  10 4.95100 0.86790   4
   3  -6  10 4.94137 0.80681   4
   3  -6  10 5.09233 0.92500   2
   3  -6  10 3.42871 0.91767   4
   3  -6  10 4.70942 0.52438   4
   3  -6  10 3.78164 0.76644   4
   3  -6  10 4.85064 1.36143   4
   3  -6  10 4.99496 0.86660   2
   3   6  10 6.75760 0.79396   2
   3   6  10 4.69831 0.89631   4
   3   6  10 5.51129 0.75701   2
   4  -6  10 7.39310 1.34140   2
   4  -6  10 6.61890 1.05224   1
   4  -6  10 7.39507 0.88211   3
   4  -6  10 7.49129 1.19222   3
   4   6  10 7.08831 1.08290   4
   4   6  10 8.09913 1.14198   1
   4   6  10 7.18677 0.74823   4
   5  -6  10 0.49913 0.30347   3
   5  -6  10 0.17613 0.32300   3
   5   6  10 -0.2079 0.24571   3
   5  -7 -10 1.54364 0.59816   4
   5  -7 -10 0.48666 0.61357   2
   5   7 -10 0.86511 0.33276   2
   4  -7 -10 5.79157 0.61119   2
   4  -7 -10 7.70677 0.97874   1
   4   7 -10 5.86882 0.69282   3
   4   7 -10 5.01767 0.48494   3
   3  -7 -10 0.40848 0.22370   1
   3  -7 -10 -0.1070 0.69052   1
   3  -7 -10 0.34038 0.35014   1
   3  -7 -10 0.33072 0.22370   1
   3  -7 -10 0.19051 0.65181   2
   3  -7 -10 0.12030 0.56158   2
   3  -7 -10 0.09023 0.56158   2
   3  -7 -10 0.21394 0.15560   1
   3  -7 -10 0.31121 0.82671   1
   3   7 -10 -0.0276 0.22067   2
   3   7 -10 -0.7170 0.72627   2
   3   7 -10 0.23901 0.11951   2
   3   7 -10 0.78141 0.47803   2
   3   7 -10 0.38609 0.18387   2
   3   7 -10 0.14894 0.67535   3
   3   7 -10 1.04799 0.57919   2
   2  -7 -10 3.28097 0.86704   2
   2  -7 -10 1.93255 1.24812   1
   2  -7 -10 2.75875 0.40392   2
   2  -7 -10 2.75875 0.65030   2
   2  -7 -10 2.43360 0.46312   2
   2  -7 -10 1.74133 0.33217   1
   2  -7 -10 2.15407 0.39255   1
   2   7 -10 1.95016 0.36004   1
   2   7 -10 2.98576 0.54115   2
   2   7 -10 2.20026 0.40999   1
   2   7 -10 2.21662 0.27218   1
   2   7 -10 3.23771 0.91439   2
   2   7 -10 2.92979 0.39187   2
   2   7 -10 2.17026 0.93014   1
   2   7 -10 2.18019 0.66009   1
   1  -7 -10 4.98201 1.26542   2
   1  -7 -10 3.76637 0.47824   2
   1  -7 -10 4.10519 0.82706   2
   1   7 -10 3.35553 0.44102   2
   1   7 -10 3.22128 0.92993   2
   1   7 -10 4.21833 0.90117   2
   0  -7  10 0.63908 0.69992   4
   0  -7 -10 1.55992 0.30390   3
   0  -7 -10 2.11342 0.65488   1
   0   7  10 0.08108 0.38487   3
   0   7 -10 1.53171 0.52746   4
   0   7  10 1.37754 0.47612   3
   0   7 -10 1.66357 0.80136   4
   0   7  10 1.31678 0.23298   3
   0   7 -10 1.47086 0.27391   4
   1  -7  10 4.92280 0.63213   1
   1  -7  10 4.85331 0.54938   4
   1  -7  10 4.74135 0.91567   4
   1   7  10 4.85976 0.52103   3
   1   7  10 4.88695 0.78312   4
   1   7  10 5.12229 0.75957   1
   2  -7  10 22.5702 2.05181   1
   2  -7  10 22.3330 2.20776   2
   2  -7  10 21.9069 2.38448   4
   2  -7  10 26.9697 2.45262   1
   2  -7  10 24.9178 2.35718   1
   2  -7  10 19.9486 2.16128   4
   2  -7  10 23.0569 1.91827   1
   2  -7  10 21.5315 2.36423   4
   2   7  10 21.8376 2.05248   4
   2   7  10 23.7596 2.10965   2
   2   7  10 23.4126 2.08153   2
   2   7  10 22.6532 1.86587   2
   2   7  10 22.2696 2.04524   4
   2   7  10 22.0646 2.15117   4
   2   7  10 22.3231 2.14570   4
   3  -7  10 8.80960 0.85874   4
   3  -7  10 9.25417 1.27290   4
   3  -7  10 8.68840 0.99007   4
   3  -7  10 8.26410 1.12140   4
   3  -7  10 7.35479 1.02037   4
   3  -7  10 9.73675 1.16527   4
   3  -7  10 9.66834 1.75791   4
   3  -7  10 8.47620 1.07094   4
   3  -7  10 8.97123 1.37394   4
   3   7  10 8.62943 0.80686   4
   3   7  10 7.74380 1.30865   4
   3   7  10 9.39691 0.86588   4
   3   7  10 7.53723 1.04305   4
   3   7  10 8.62943 0.99380   4
   3   7  10 9.25912 0.90527   4
   3   7  10 7.47821 1.18073   4
   3   7  10 8.77698 0.94465   4
   4  -7  10 3.19906 0.60585   1
   4  -7  10 6.00094 1.05493   3
   4  -7  10 3.24160 0.60585   1
   4  -7  10 2.44450 0.83964   1
   4   7  10 3.26511 0.41305   4
   4   7  10 3.55461 0.62109   1
   4   7  10 3.15699 0.73760   4
   5  -7  10 -0.0490 0.22547   3
   5  -7  10 -0.0098 0.26471   3
   5   7  10 0.18824 0.26347   3
   5  -8 -10 0.03850 0.05770   4
   5   8 -10 0.00983 0.02938   4
   4  -8 -10 0.24727 0.37091   1
   4  -8 -10 0.12364 0.17114   1
   4   8 -10 0.23467 0.23467   1
   4   8 -10 1.02897 0.53255   1
   3  -8 -10 15.0373 1.92732   2
   3  -8 -10 14.5856 1.41541   2
   3  -8 -10 17.1278 1.65662   1
   3  -8 -10 16.7404 1.86972   1
   3  -8 -10 14.7261 1.53583   2
   3  -8 -10 15.0875 2.84078   2
   3  -8 -10 16.5466 1.59851   1
   3  -8 -10 15.7801 2.49954   2
   3   8 -10 15.6926 1.61993   3
   3   8 -10 16.4857 1.44594   3
   3   8 -10 12.0254 2.05726   3
   3   8 -10 15.2454 2.13671   3
   3   8 -10 16.3666 2.13104   3
   3   8 -10 16.3890 1.52090   3
   2  -8 -10 23.0844 2.74536   2
   2  -8 -10 18.5728 2.13149   4
   2  -8 -10 15.5870 1.86154   1
   2  -8 -10 16.3115 1.72074   1
   2  -8 -10 19.1484 1.96799   2
   2  -8 -10 15.5165 1.69056   1
   2  -8 -10 20.3193 1.59401   2
   2   8 -10 14.3659 2.10934   1
   2   8 -10 18.9885 1.48275   2
   2   8 -10 18.5703 1.62343   1
   2   8 -10 18.5725 1.88096   4
   2   8 -10 18.3148 2.17934   1
   2   8 -10 19.7948 1.68660   2
   2   8 -10 17.5250 1.79949   1
   2   8 -10 20.2211 2.17778   2
   2   8 -10 17.2950 1.67956   1
   1  -8 -10 0.29790 0.17868   2
   1  -8 -10 -0.1787 0.52628   2
   1   8 -10 0.13098 0.18131   1
   1   8 -10 -0.1332 0.43766   2
   1   8 -10 0.11087 0.46348   1
   0  -8 -10 30.7681 2.32416   2
   0  -8 -10 26.6249 2.75854   3
   0   8 -10 28.0907 2.24493   2
   0   8  10 23.9676 2.29373   3
   0   8  10 23.6441 2.53617   3
   0   8 -10 28.0036 2.67074   2
   1  -8  10 2.87514 0.72840   1
   1  -8  10 1.53773 0.41748   4
   1  -8  10 2.79852 0.38338   1
   1   8  10 3.26589 0.57977   2
   1   8  10 2.22808 0.33975   4
   1   8  10 2.53776 0.64942   4
   2  -8  10 12.6745 1.64898   1
   2  -8  10 10.5461 0.96831   1
   2  -8  10 11.8403 1.48608   1
   2  -8  10 10.1411 1.22952   4
   2  -8  10 8.08849 1.08724   4
   2  -8  10 9.63296 1.23972   4
   2  -8  10 9.81592 1.22952   4
   2  -8  10 11.1501 1.14093   1
   2   8  10 9.05384 1.00491   4
   2   8  10 8.91588 0.94581   4
   2   8  10 8.96520 1.27093   4
   2   8  10 10.0784 0.96548   4
   2   8  10 9.79272 1.11321   4
   2   8  10 10.7884 1.05180   2
   2   8  10 10.8721 0.96805   2
   2   8  10 10.4425 0.92601   3
   2   8  10 9.52669 1.16253   4
   3  -8  10 19.8245 2.02396   1
   3  -8  10 19.8761 2.57544   2
   3  -8  10 18.8530 1.80135   1
   3  -8  10 19.7132 2.13521   1
   3  -8  10 19.2780 2.21621   1
   3  -8  10 21.7044 2.19209   2
   3  -8  10 21.5963 2.24119   2
   3  -8  10 18.3673 2.00366   1
   3  -8  10 19.8390 1.93041   3
   3   8  10 19.6340 2.12367   4
   3   8  10 19.9848 2.06992   2
   3   8  10 19.8279 2.01891   4
   3   8  10 19.5161 1.98599   4
   3   8  10 19.4374 1.97623   4
   3   8  10 19.8210 1.70112   4
   3   8  10 21.6150 1.82261   2
   3   8  10 20.7998 1.71273   2
   4  -8  10 0.26837 0.63346   1
   4  -8  10 0.69764 0.48831   3
   4  -8  10 0.36509 0.36509   1
   4  -8  10 0.72753 0.34877   3
   4   8  10 0.71352 0.23781   1
   4   8  10 1.36998 0.56131   1
   4   8  10 1.08455 0.28543   1
   5  -8  10 0.16977 0.48498   1
   5  -8  10 0.72747 0.33885   3
   5   8  10 0.62476 0.47153   1
   5  -9 -10 -0.2684 0.29729   4
   5   9 -10 0.06963 0.17408   2
   4  -9 -10 7.10174 1.00913   1
   4  -9 -10 6.45970 0.70328   2
   4  -9 -10 6.66063 1.30599   2
   4   9 -10 6.08877 0.84154   3
   3  -9 -10 -0.0192 0.97330   1
   3  -9 -10 0.55890 0.16384   1
   3  -9 -10 0.79022 0.44330   1
   3  -9 -10 0.11561 0.14451   1
   3  -9 -10 0.33726 0.49143   1
   3  -9 -10 0.38549 0.17341   1
   3  -9 -10 0.26978 0.26022   1
   3  -9 -10 0.34692 0.56857   1
   3   9 -10 0.32585 0.52496   1
   3   9 -10 0.38015 0.12675   1
   3   9 -10 0.45260 0.60649   1
   3   9 -10 0.10859 0.13573   1
   2  -9 -10 8.14807 1.25659   2
   2  -9 -10 11.2404 2.09103   2
   2  -9 -10 6.59878 1.00587   1
   2  -9 -10 8.54077 1.32532   2
   2  -9 -10 7.52424 0.84494   1
   2  -9 -10 8.57021 0.82459   2
   2  -9 -10 6.39759 0.87511   1
   2   9 -10 9.14431 1.43655   2
   2   9 -10 7.81820 0.76963   1
   2   9 -10 7.81550 0.76590   1
   2   9 -10 6.75679 1.06947   1
   2   9 -10 8.14062 0.86560   2
   2   9 -10 8.52737 1.45502   2
   2   9 -10 8.97860 1.17874   2
   2   9 -10 7.49651 1.30939   1
   2   9 -10 8.12214 0.82875   2
   2   9 -10 7.78573 0.77957   1
   1  -9 -10 15.3663 1.40327   2
   1  -9 -10 14.2000 1.91117   1
   1   9 -10 16.2090 1.89754   2
   1   9 -10 14.1987 1.84996   3
   1   9 -10 16.4261 1.86913   2
   1   9 -10 14.1811 1.33951   1
   0   9 -10 0.80748 0.24029   2
   0   9 -10 0.49023 0.60566   2
   1  -9  10 4.06570 0.59098   4
   1  -9  10 5.35771 1.07553   4
   1   9  10 6.32987 0.71821   2
   1   9  10 5.53501 0.90974   2
   1   9  10 5.36650 0.54759   4
   2  -9  10 2.52427 0.40464   1
   2  -9  10 2.71697 0.90562   1
   2  -9  10 2.41825 0.56844   1
   2  -9  10 2.47604 0.52988   1
   2  -9  10 2.45681 0.51065   1
   2  -9  10 3.15051 1.05020   1
   2  -9  10 2.77476 0.54921   1
   2  -9  10 1.95326 0.46798   4
   2   9  10 2.95653 0.70220   2
   2   9  10 2.28204 0.36959   2
   2   9  10 2.43912 0.60980   2
   2   9  10 2.42068 0.41574   2
   2   9  10 2.18830 0.38502   3
   2   9  10 2.41141 0.34188   2
   2   9  10 2.01876 0.37418   4
   3  -9  10 5.29764 0.88948   2
   3  -9  10 2.60558 1.21660   1
   3  -9  10 3.76147 0.74015   1
   3  -9  10 4.36345 0.81248   3
   3  -9  10 3.09231 1.13555   1
   3  -9  10 4.36352 0.79612   3
   3   9  10 4.09732 0.54040   4
   3   9  10 5.53306 0.58431   1
   3   9  10 3.93036 0.77626   4
   3   9  10 4.36581 0.86208   3
   3   9  10 4.36287 0.52139   3
   3   9  10 4.30371 0.60920   4
   3   9  10 3.91065 0.75654   4
   3   9  10 4.36287 0.52139   3
   4  -9  10 1.65090 0.43065   3
   4  -9  10 1.84570 0.39910   3
   4  -9  10 2.31465 0.58865   3
   4  -9  10 2.61398 0.70834   3
   4   9  10 1.59600 0.28570   2
   4   9  10 2.16900 0.52092   1
   5  -9  10 -0.0393 0.09827   3
   5  -9  10 0.00986 0.05894   3
   5   9  10 0.05595 0.03733   4
   5   9  10 -0.0280 0.06531   4
   5 -10 -10 0.17765 0.44417   1
   5  10 -10 1.08045 0.29355   4
   4 -10 -10 -0.0096 0.19069   1
   4 -10 -10 0.61013 0.38138   1
   4 -10 -10 0.04762 0.10491   1
   4  10 -10 -0.1273 0.12734   1
   4  10 -10 0.38192 0.21828   1
   3 -10 -10 41.4903 3.95196   2
   3 -10 -10 39.2378 3.92180   2
   3 -10 -10 39.1373 3.86148   2
   3 -10 -10 39.6903 3.61002   2
   3 -10 -10 40.5048 5.30952   2
   3 -10 -10 43.0265 3.64772   1
   3 -10 -10 35.2859 4.73629   2
   3 -10 -10 38.7049 3.37873   2
   3  10 -10 36.5959 4.21002   3
   3  10 -10 41.2095 3.66795   3
   2 -10 -10 1.46766 0.75336   2
   2 -10 -10 0.95888 0.28374   2
   2 -10 -10 1.36000 0.33271   2
   2 -10 -10 2.00579 1.36000   2
   2 -10 -10 1.59486 0.26421   2
   2 -10 -10 1.72206 0.72402   2
   2 -10 -10 1.42850 0.44028   2
   2  10 -10 0.77974 0.18992   1
   2  10 -10 0.84986 0.33219   4
   2  10 -10 0.66984 0.75979   1
   2  10 -10 0.74976 0.24989   1
   2  10 -10 0.84607 0.36403   1
   2  10 -10 1.52957 0.83346   2
   2  10 -10 0.41985 0.76971   1
   2  10 -10 0.99837 0.51292   2
   2  10 -10 0.99837 0.25641   2
   2  10 -10 0.94334 0.29307   2
   1 -10 -10 0.81531 0.27499   2
   1 -10 -10 0.54254 0.62297   1
   1  10 -10 1.02124 0.58087   2
   1  10 -10 0.64646 0.26229   2
   1  10 -10 0.93685 0.75886   2
   1  10 -10 0.64646 0.24359   2
   0  10 -10 5.50108 1.23829   4
   0  10 -10 5.77776 0.63032   2
   1 -10  10 1.10092 0.29560   4
   1 -10  10 1.62218 0.81590   1
   1  10  10 1.35847 0.48588   4
   1  10  10 1.47013 0.26552   2
   1  10  10 1.26926 0.54536   4
   1  10  10 1.80205 0.34144   2
   2 -10  10 0.39695 0.30022   1
   2 -10  10 0.05087 0.39713   4
   2 -10  10 -0.6778 0.67784   1
   2 -10  10 -0.3969 0.56158   1
   2 -10  10 0.60033 0.32926   1
   2 -10  10 0.16292 0.22400   4
   2  10  10 0.22927 0.16505   2
   2  10  10 0.33939 0.19265   2
   2  10  10 0.64208 0.31189   2
   2  10  10 0.16740 0.34457   4
   2  10  10 0.43112 0.17425   2
   2  10  10 0.04918 0.16740   4
   2  10  10 0.26598 0.14674   2
   3 -10  10 13.0390 1.66672   1
   3 -10  10 11.9414 1.50413   1
   3 -10  10 11.4434 1.53461   1
   3 -10  10 11.6974 1.32114   1
   3 -10  10 10.2543 2.01220   1
   3  10  10 13.2616 1.22711   1
   3  10  10 13.2252 1.12709   1
   3  10  10 13.2525 1.33615   1
   3  10  10 10.6860 1.72860   4
   3  10  10 13.0610 1.19908   2
   3  10  10 11.5797 1.17857   4
   4 -10  10 1.03023 0.49318   1
   4 -10  10 0.84388 0.70140   1
   4 -10  10 0.95349 0.42744   1
   4 -10  10 2.14687 0.65907   3
   4  10  10 1.30134 0.56583   1
   4  10  10 1.38619 0.28291   1
   4  10  10 0.96060 0.23772   2
   5 -10  10 1.86732 0.47619   1
   5 -10  10 2.21250 0.43272   3
   5  10  10 2.14428 0.40849   4
   5 -11 -10 0.15226 0.35884   3
   5  11 -10 0.05249 0.20984   1
   4 -11 -10 3.63712 1.17875   2
   4 -11 -10 3.31464 0.54400   2
   4 -11 -10 3.38518 0.61454   2
   4  11 -10 3.16327 0.50727   2
   3 -11 -10 4.14603 0.65409   2
   3 -11 -10 4.22658 0.81509   2
   3 -11 -10 -0.8647 1.96704   1
   3 -11 -10 4.94128 1.26380   1
   3 -11 -10 4.61816 0.71268   1
   3 -11 -10 3.92467 1.25792   2
   3 -11 -10 4.62769 1.15933   1
   3  11 -10 4.53342 0.68949   4
   3  11 -10 4.24279 0.52788   3
   3  11 -10 3.46596 1.42418   3
   2 -11 -10 0.33132 0.24355   2
   2 -11 -10 0.22410 0.30210   2
   2 -11 -10 0.68209 0.39944   2
   2 -11 -10 0.37999 0.63331   2
   2 -11 -10 0.17533 0.12666   2
   2 -11 -10 0.04867 0.17533   2
   2 -11 -10 0.06822 0.12666   2
   2 -11 -10 0.18511 0.08767   2
   2  11 -10 0.01997 0.35020   3
   2  11 -10 0.07302 0.22802   2
   2  11 -10 0.20981 0.10038   2
   2  11 -10 0.28283 0.11859   2
   2  11 -10 0.05472 0.12774   2
   2  11 -10 0.06387 0.06387   2
   2  11 -10 0.13679 0.31925   2
   2  11 -10 0.01997 0.13008   3
   2  11 -10 -0.0274 0.08208   2
   1 -11 -10 13.0013 1.21920   2
   1 -11 -10 11.5377 1.72560   1
   1 -11 -10 10.5545 1.31430   1
   1  11 -10 12.5049 1.29324   2
   1  11 -10 12.5421 1.13515   2
   1  11 -10 15.6776 1.68410   2
   1  11 -10 12.0490 1.62819   2
   1  11 -10 12.9235 1.19095   2
   0  11 -10 2.98390 0.50750   4
   1 -11  10 0.11519 0.14398   1
   1 -11  10 0.02880 0.03843   1
   1 -11  10 0.10566 0.09602   1
   1  11  10 0.00942 0.04691   2
   1  11  10 0.04691 0.03758   2
   1  11  10 -0.0187 0.05633   2
   1  11  10 0.07517 0.08449   2
   2 -11  10 9.42632 1.02924   4
   2 -11  10 8.23404 1.10059   4
   2 -11  10 11.5154 1.22284   4
   2 -11  10 10.1295 1.35532   4
   2 -11  10 11.9580 1.68325   2
   2 -11  10 12.6683 1.76114   2
   2  11  10 10.4657 0.97473   4
   2  11  10 10.2196 0.99438   4
   2  11  10 10.8201 1.38822   4
   2  11  10 11.5191 1.27011   4
   2  11  10 11.5837 0.99472   4
   2  11  10 8.97902 0.98450   4
   2  11  10 10.5937 1.11249   4
   3 -11  10 0.32045 0.38053   2
   3 -11  10 0.18022 0.77110   2
   3 -11  10 0.06118 0.36717   1
   3 -11  10 0.06118 0.21423   1
   3 -11  10 0.35049 0.43066   2
   3  11  10 0.18983 0.18983   1
   3  11  10 0.18983 0.15366   1
   3  11  10 -0.0904 0.14459   1
   3  11  10 0.19880 0.18983   1
   3  11  10 -0.3254 0.54230   1
   3  11  10 0.11780 0.26514   4
   4 -11  10 -0.1099 0.46963   3
   4 -11  10 0.46963 0.28973   3
   4 -11  10 0.56955 0.39968   3
   4  11  10 0.15955 0.15955   2
   4  11  10 0.49765 0.18780   1
   4  11  10 0.00000 0.46768   1
   5 -11  10 0.12789 0.15740   3
   5 -11  10 -0.1279 0.16727   3
   5  11  10 0.10163 0.18473   4
   5  11  10 0.03913 0.11738   1
   5  12 -10 0.15813 0.33053   1
   5  12 -10 0.24433 0.40231   1
   4 -12 -10 -0.4012 0.66867   1
   4 -12 -10 0.02014 0.36327   2
   4 -12 -10 0.09079 0.20183   2
   4  12 -10 0.09132 0.27406   2
   3 -12 -10 -0.5656 1.69658   1
   3 -12 -10 0.58437 0.90488   1
   3 -12 -10 0.73517 0.37704   1
   3 -12 -10 0.57492 0.31105   1
   3 -12 -10 0.71636 0.86715   1
   3  12 -10 0.90820 0.26455   1
   3  12 -10 1.45499 0.25571   1
   3  12 -10 0.67894 0.91704   1
   2 -12 -10 2.67437 0.56964   1
   2 -12 -10 2.31512 0.98642   4
   2 -12 -10 2.55854 0.42486   1
   2 -12 -10 0.84548 0.85557   4
   2 -12 -10 2.78061 1.77652   1
   2 -12 -10 2.70332 0.94617   1
   2 -12 -10 2.62614 0.46340   1
   2 -12 -10 2.47414 0.46079   4
   2  12 -10 2.22403 0.34066   3
   2  12 -10 1.72309 0.29051   3
   2  12 -10 1.96356 0.40075   3
   2  12 -10 2.63073 0.44603   2
   2  12 -10 1.91352 1.04187   3
   2  12 -10 1.95351 0.41070   3
   2  12 -10 2.05370 0.96178   3
   1 -12 -10 11.0366 1.47488   4
   1 -12 -10 11.6085 1.80599   4
   1 -12 -10 13.1124 1.19995   2
   1 -12 -10 11.7189 1.29434   4
   1  12 -10 12.0977 1.19973   1
   1  12 -10 12.8740 1.76420   1
   1  12 -10 11.4122 1.73397   1
   1  12 -10 13.0991 1.16555   2
   1  12 -10 13.0123 1.31369   1
   0  12 -10 2.73978 0.40908   1
   1 -12  10 13.4528 1.51964   4
   1  12  10 14.0271 1.60361   4
   1  12  10 13.1758 1.21755   4
   1  12  10 14.1252 1.27983   4
   1  12  10 11.7800 1.37593   4
   2 -12  10 9.40954 1.08233   2
   2 -12  10 9.63381 1.50163   2
   2 -12  10 8.88935 1.57159   4
   2 -12  10 7.43314 0.86669   4
   2 -12  10 8.88885 1.17014   4
   2 -12  10 6.35228 0.91762   4
   2  12  10 8.81254 1.28001   4
   2  12  10 6.19345 1.18154   4
   2  12  10 7.09924 0.81729   4
   2  12  10 7.86735 0.80742   4
   2  12  10 8.59595 0.91577   4
   2  12  10 7.69994 0.79754   4
   2  12  10 8.88750 0.81587   4
   3 -12  10 2.17771 0.73961   1
   3 -12  10 1.93124 0.63688   1
   3 -12  10 2.64537 0.58559   3
   3 -12  10 1.92094 0.60607   1
   3  12  10 2.19921 0.40250   3
   3  12  10 2.12072 0.53013   3
   3  12  10 2.49725 0.37777   3
   3  12  10 2.02253 0.37305   3
   4 -12  10 0.15677 0.41426   1
   4 -12  10 0.83947 0.61963   3
   4 -12  10 1.02934 0.38976   3
   4  12  10 1.72892 0.53275   1
   4  12  10 1.05602 0.24298   1
   4  12  10 0.73645 0.33291   2
   5 -12  10 0.01315 0.22290   2
   5  12  10 -0.1745 0.17455   4
   5  12  10 -0.0092 0.08267   4
   5  13 -10 0.36977 0.28627   4
   5  13 -10 0.30716 0.24245   1
   4 -13 -10 0.66830 0.31505   1
   4 -13 -10 0.87830 1.06925   1
   4 -13 -10 0.17192 0.83930   2
   4 -13 -10 0.41453 0.42467   2
   4  13 -10 0.11456 0.35401   2
   3 -13 -10 2.06606 1.09380   1
   3 -13 -10 2.18760 0.46747   1
   3 -13 -10 2.31851 0.99102   1
   3 -13 -10 1.72022 0.44872   1
   3  13 -10 3.16325 0.67654   1
   3  13 -10 1.93312 0.33386   1
   3  13 -10 2.06488 0.29879   1
   3  13 -10 1.56531 0.47853   3
   2 -13 -10 6.09559 1.28582   1
   2 -13 -10 5.53365 1.54291   1
   2 -13 -10 5.46696 0.87626   1
   2 -13 -10 6.61942 2.13342   1
   2 -13 -10 4.67196 0.69476   4
   2 -13 -10 5.40983 0.70477   1
   2 -13 -10 4.28938 0.76526   4
   2  13 -10 4.16152 1.19335   3
   2  13 -10 5.29882 0.59478   1
   2  13 -10 5.10963 0.66683   1
   2  13 -10 4.48238 0.62172   3
   2  13 -10 5.27179 1.33375   1
   2  13 -10 5.14560 0.63085   1
   1 -13 -10 -0.2016 0.58534   2
   1 -13 -10 0.28791 0.21109   2
   1 -13 -10 0.23035 0.36462   2
   1 -13 -10 0.15353 0.20157   2
   1  13 -10 0.45145 0.26717   2
   1  13 -10 0.02014 0.58534   3
   1  13 -10 -0.0553 0.14740   2
   1  13 -10 0.50671 0.54359   2
   1  13 -10 0.68175 0.18428   2
   0  13 -10 -0.0376 0.13160   2
   1 -13  10 1.52183 0.89020   2
   1 -13  10 0.91890 0.50731   2
   1  13  10 0.66333 0.47906   2
   1  13  10 0.70935 0.27640   2
   1  13  10 0.98575 0.32242   2
   1  13  10 0.50496 0.20799   4
   2 -13  10 19.4390 2.05447   2
   2 -13  10 18.4523 1.97561   4
   2 -13  10 18.6466 2.31864   2
   2 -13  10 16.8410 1.73409   4
   2 -13  10 19.9380 2.39685   2
   2  13  10 18.8053 1.57605   1
   2  13  10 17.6289 1.94997   4
   2  13  10 19.6292 1.72830   1
   2  13  10 18.0622 2.02880   4
   2  13  10 17.7175 1.64471   4
   2  13  10 16.6736 1.67425   4
   3 -13  10 7.82831 1.13281   3
   3 -13  10 7.37852 1.13830   2
   3 -13  10 6.65075 1.03589   1
   3  13  10 7.73625 0.74408   1
   3  13  10 7.38142 0.83213   4
   3  13  10 8.01419 0.88750   1
   4 -13  10 0.13583 0.46418   1
   4 -13  10 -0.0400 0.32980   3
   4  13  10 0.24697 0.17493   2
   4  13  10 1.44098 0.48340   4
   4  13  10 0.25719 0.27783   2
   5  14 -10 0.32232 0.19535   4
   5  14 -10 0.23549 0.19451   4
   4 -14 -10 6.68265 0.71996   2
   4 -14 -10 5.25291 1.11544   2
   4 -14 -10 9.61781 1.64740   1
   4  14 -10 5.50153 0.78444   2
   4  14 -10 7.30678 0.63398   2
   3 -14 -10 5.55448 0.92745   4
   3 -14 -10 4.26423 1.41130   4
   3 -14 -10 5.73550 1.54989   1
   3 -14 -10 5.41343 0.80652   4
   3  14 -10 5.65502 0.60116   2
   3  14 -10 5.42535 0.79789   3
   3  14 -10 5.65489 0.56549   2
   2 -14 -10 3.78696 0.73527   4
   2 -14 -10 4.89481 1.22878   4
   2 -14 -10 5.16093 0.91016   1
   2 -14 -10 7.66629 1.67030   1
   2 -14 -10 4.72367 0.76547   4
   2 -14 -10 5.03895 2.19569   1
   2 -14 -10 4.14954 0.80578   4
   2  14 -10 5.87895 0.62356   1
   2  14 -10 8.63142 1.46085   1
   2  14 -10 5.78103 0.54333   1
   2  14 -10 7.95443 1.30940   1
   1 -14 -10 0.08034 0.17064   4
   1  14 -10 0.09822 0.23575   4
   1  14 -10 0.34944 0.15636   2
   1  14 -10 -0.0459 0.13791   2
   1  14 -10 0.26669 0.43228   2
   1  14 -10 -0.3494 0.45986   2
   0  14 -10 13.2271 1.71817   3
   0  14 -10 10.8481 1.18950   3
   1 -14  10 0.52035 0.55095   3
   1 -14  10 1.00487 0.73685   2
   1  14  10 0.22783 0.54479   4
   1  14  10 0.77558 0.29196   1
   1  14  10 1.34129 0.33763   1
   2 -14  10 11.2560 1.37626   2
   2 -14  10 7.97903 1.13257   4
   2 -14  10 6.77503 1.66313   4
   2  14  10 6.89611 1.30045   3
   2  14  10 11.0459 1.03953   3
   2  14  10 11.0555 1.53572   4
   2  14  10 10.0486 0.98511   3
   2  14  10 11.0468 0.97883   2
   3 -14  10 5.88475 1.05155   3
   3 -14  10 2.63351 0.70023   1
   3 -14  10 4.81291 0.84931   3
   3  14  10 3.71868 0.43961   3
   3  14  10 3.66966 0.55137   3
   3  14  10 4.01545 0.61846   1
   4 -14  10 2.23539 0.80251   1
   4 -14  10 1.90296 0.48146   1
   4  14  10 2.09857 0.37965   2
   4  14  10 2.66226 0.51767   4
   4 -15 -10 0.82436 0.68195   1
   4 -15 -10 -0.3031 1.08932   3
   4 -15 -10 1.07887 0.30535   1
   4  15 -10 1.34524 0.31531   1
   3 -15 -10 2.27098 0.96932   1
   3 -15 -10 1.70779 1.08933   1
   3 -15 -10 1.32118 0.47405   4
   3 -15 -10 1.48579 0.52436   4
   3  15 -10 1.59913 0.30209   1
   3  15 -10 1.23675 0.24931   3
   3  15 -10 1.48591 0.33856   4
   2 -15 -10 16.9748 2.11557   4
   2 -15 -10 15.9673 1.90397   4
   2 -15 -10 18.1480 1.77412   1
   2 -15 -10 15.5643 2.71994   4
   2 -15 -10 17.3885 3.21696   3
   2  15 -10 19.2275 1.60667   1
   2  15 -10 17.3939 2.45266   4
   2  15 -10 19.6336 1.61553   1
   2  15 -10 17.3962 1.73519   2
   2  15 -10 20.0662 1.75677   1
   1 -15 -10 8.57204 1.03381   4
   1  15 -10 7.79254 1.61713   3
   1  15 -10 8.31810 1.64744   3
   1  15 -10 6.64035 0.94001   3
   1  15 -10 9.86441 1.00189   1
   1  15 -10 9.01729 0.87444   1
   0  15 -10 3.28468 0.54909   3
   0  15 -10 0.63050 0.91519   3
   1 -15  10 0.58153 0.57130   3
   1 -15  10 0.76426 0.94574   1
   1  15  10 0.08916 0.20814   4
   1  15  10 0.50533 0.30724   4
   1  15  10 0.30724 0.54499   4
   1  15  10 0.59124 0.23457   4
   2 -15  10 5.59869 0.67261   2
   2 -15  10 4.13308 0.80622   3
   2 -15  10 6.45922 1.00897   2
   2 -15  10 1.27567 1.19398   3
   2  15  10 2.79890 0.98549   3
   2  15  10 3.93229 0.56180   3
   2  15  10 3.71550 0.54203   3
   2  15  10 4.25209 0.60236   4
   3 -15  10 -0.1212 0.22228   3
   3 -15  10 0.44467 0.29303   3
   3 -15  10 0.18184 0.23242   3
   3  15  10 0.05402 0.07208   1
   3  15  10 0.18011 0.21616   1
   3  15  10 0.04498 0.11707   1
   4 -15  10 1.32704 0.44231   1
   4 -15  10 3.07496 0.67886   3
   4  15  10 1.86959 0.30431   2
   4  15  10 1.11955 0.47833   2
   4  15  10 1.87870 0.25770   4
   4 -16 -10 0.56492 0.23533   3
   4 -16 -10 0.70610 0.41429   3
   4 -16 -10 0.38216 0.69200   2
   4  16 -10 0.38388 0.19688   4
   4  16 -10 0.40353 0.23627   4
   3 -16 -10 0.53444 0.32249   1
   3 -16 -10 0.56208 0.56208   1
   3 -16 -10 0.35309 1.00887   4
   3 -16 -10 0.21192 0.28245   4
   3  16 -10 0.34900 0.23937   3
   3  16 -10 0.50743 0.21750   1
   2 -16 -10 0.09106 0.10924   1
   2 -16 -10 0.14568 0.13655   1
   2 -16 -10 0.10020 0.21857   1
   2 -16 -10 0.18213 0.52812   1
   2  16 -10 0.03518 0.05272   1
   2  16 -10 0.22852 0.08790   1
   2  16 -10 0.01007 0.05015   3
   2  16 -10 -0.0088 0.05272   1
   1 -16 -10 3.89896 0.63006   1
   1  16 -10 2.43621 0.53579   3
   1  16 -10 4.32756 0.51394   1
   1  16 -10 3.37194 0.64914   1
   1  16 -10 3.18746 1.12150   3
   1  16 -10 3.36290 1.17203   1
   0 -16  10 2.07432 1.06765   3
   0  16  10 3.26225 0.50606   1
   0  16 -10 1.34222 0.88458   3
   0  16 -10 2.20650 0.46774   3
   1 -16  10 1.29494 0.72392   3
   1 -16  10 0.76473 0.95844   3
   1  16  10 1.14007 0.70383   3
   1  16  10 2.06401 0.41461   1
   1  16  10 1.53663 0.41635   3
   2 -16  10 0.14914 0.17897   2
   2 -16  10 0.11931 0.08948   2
   2 -16  10 -0.0597 0.13926   2
   2  16  10 0.03477 0.05211   1
   2  16  10 0.06953 0.06082   1
   2  16  10 0.07816 0.05211   1
   3 -16  10 -0.0606 0.37357   3
   3 -16  10 -0.3634 0.49468   3
   3 -16  10 0.43412 0.38359   3
   3  16  10 0.48297 0.39185   1
   3  16  10 0.41003 0.18226   1
   3  16  10 0.14783 0.15772   2
   3  16  10 0.30072 0.15493   1
   4 -16  10 0.02991 0.10975   3
   4 -16  10 0.05982 0.05982   3
   4  16  10 0.02739 0.02739   4
   4  16  10 -0.0366 0.05478   4
   4  16  10 -0.0274 0.02739   4
   4 -17 -10 0.31806 0.11221   3
   4 -17 -10 0.05611 0.03744   3
   4  17 -10 -0.0196 0.02949   4
   3 -17 -10 0.25892 0.16643   1
   3 -17 -10 -0.0555 0.08321   1
   3 -17 -10 -0.1387 0.14797   1
   3 -17 -10 0.07403 0.07403   1
   3  17 -10 -0.0094 0.04682   1
   3  17 -10 0.02811 0.04682   1
   2 -17 -10 1.34108 0.49260   4
   2 -17 -10 2.05965 0.63855   1
   2 -17 -10 1.68191 0.33281   1
   2 -17 -10 2.05063 0.92635   1
   2  17 -10 1.42749 0.37009   1
   2  17 -10 2.60828 0.46705   1
   2  17 -10 1.34523 0.37516   3
   2  17 -10 1.63017 0.29964   1
   1 -17 -10 0.08063 0.09861   1
   1  17 -10 0.08954 0.08056   1
   1  17 -10 -0.1254 0.25964   1
   1  17 -10 0.01787 0.08954   1
   1  17 -10 0.25066 0.08954   1
   0  17 -10 4.55295 1.28047   3
   0  17  10 4.91811 0.65572   1
   1 -17  10 4.41372 1.40669   3
   1 -17  10 5.16798 0.89700   3
   1  17  10 5.37896 0.68824   3
   1  17  10 5.39213 0.98393   3
   1  17  10 6.64508 0.67752   1
   2 -17  10 10.2320 1.21143   1
   2 -17  10 8.29972 1.28152   1
   2  17  10 7.88227 0.76921   3
   2  17  10 6.84581 0.82856   3
   2  17  10 6.99373 0.94700   3
   2  17  10 6.32299 0.76940   3
   2  17  10 8.02261 0.83086   1
   3 -17  10 0.02163 0.18425   1
   3 -17  10 0.21178 0.22179   3
   3 -17  10 0.27226 0.24202   3
   3  17  10 -0.0092 0.11949   1
   3  17  10 0.00000 0.11174   1
   3  17  10 0.15628 0.08270   1
   3  17  10 0.34925 0.16541   1
   4 -17  10 3.54590 0.56779   3
   4  17  10 3.56572 0.46269   4
   4  17  10 3.45881 0.45418   4
   4  17  10 3.76530 0.33573   4
   4 -18 -10 1.59768 0.64096   3
   4 -18 -10 1.22619 0.22297   3
   4  18 -10 1.07825 0.31455   2
   3 -18 -10 0.75770 0.67353   1
   3 -18 -10 0.75770 0.87930   1
   3 -18 -10 0.93541 0.37420   1
   3 -18 -10 1.10385 0.32738   1
   3  18 -10 0.64336 0.29245   1
   3  18 -10 0.53610 0.23398   1
   2 -18 -10 1.31451 0.38453   2
   2 -18 -10 2.13242 0.70487   1
   2 -18 -10 2.38220 0.65135   1
   2  18 -10 1.19407 0.41134   3
   2  18 -10 0.84281 0.35115   3
   2  18 -10 1.31334 0.27174   3
   1 -18 -10 12.4381 1.37589   4
   1  18 -10 14.3243 1.27861   1
   1  18 -10 11.7576 1.45456   3
   1  18 -10 13.5732 1.35018   1
   0  18  10 -0.0349 0.07836   1
   1  18  10 14.8324 1.62188   3
   1  18  10 14.8038 1.44956   3
   2 -18  10 3.06050 0.94486   2
   2 -18  10 3.75885 0.83185   2
   2 -18  10 4.52952 0.61671   1
   2  18  10 3.76927 0.54789   3
   2  18  10 4.31591 0.71209   1
   2  18  10 4.31591 0.59920   1
   3 -18  10 -0.2315 0.23153   3
   3 -18  10 0.11077 0.23153   3
   3 -18  10 -0.1510 0.21144   3
   3  18  10 0.00000 0.17372   1
   3  18  10 0.08244 0.08244   4
   3  18  10 0.01014 0.08091   2
   3  18  10 0.02018 0.09095   2
   4 -18  10 2.64921 0.48271   4
   4  18  10 2.66069 0.43758   4
   4 -19 -10 1.60455 0.52566   3
   4 -19 -10 1.54924 0.21210   3
   3 -19 -10 1.20499 0.32689   3
   3 -19 -10 1.23300 0.65389   3
   3 -19 -10 1.76536 0.34564   3
   3  19 -10 0.97835 0.33334   4
   3  19 -10 1.34603 0.28702   4
   2 -19 -10 8.43101 0.75754   1
   2 -19 -10 8.24381 1.48835   1
   2 -19 -10 7.63046 1.06852   4
   2  19 -10 7.96404 0.76070   1
   2  19 -10 6.30232 0.85302   3
   2  19 -10 7.58688 0.85302   3
   1 -19 -10 2.17024 0.46195   1
   1  19 -10 1.91709 0.35945   3
   1  19 -10 1.30229 0.38357   3
   1  19 -10 3.26885 0.58532   1
   0  19 -10 5.48169 0.66445   1
   0  19  10 4.24060 0.68490   3
   1 -19  10 0.94870 0.52271   3
   1 -19  10 1.07823 0.42363   1
   1  19  10 1.42618 0.33305   1
   1  19  10 1.01629 0.29039   1
   2 -19  10 2.17885 0.46097   2
   2 -19  10 2.38762 0.66774   1
   2 -19  10 2.00085 0.82758   2
   2  19  10 2.58879 0.43147   1
   2  19  10 2.21392 0.35582   2
   2  19  10 1.77909 0.57323   2
   3 -19  10 0.55819 0.36502   3
   3 -19  10 0.83390 0.40189   3
   3 -19  10 0.60283 0.38173   3
   3  19  10 0.57313 0.16370   4
   3  19  10 0.40318 0.22741   2
   3  19  10 0.66410 0.29108   4
   3 -20 -10 2.16573 0.58788   1
   3 -20 -10 3.21363 0.81078   3
   3 -20 -10 3.05257 0.45382   1
   3  20 -10 2.18050 0.39322   1
   3  20 -10 3.13379 0.36944   1
   2 -20 -10 0.71046 0.44065   1
   2 -20 -10 0.78235 0.30580   1
   2 -20 -10 0.18889 0.10788   1
   2 -20 -10 0.77342 0.38671   1
   2  20 -10 0.27813 0.15345   1
   2  20 -10 0.15345 0.11506   1
   2  20 -10 0.08630 0.13431   1
   2  20 -10 0.11506 0.12468   1
   1 -20 -10 0.33870 0.27789   1
   1  20 -10 0.90881 0.34879   1
   1  20 -10 0.45901 0.21114   1
   1  20 -10 0.20193 0.18360   1
   0 -20 -10 0.01994 0.16984   3
   0  20 -10 0.21482 0.14006   1
   0  20  10 0.27382 0.12832   1
   1 -20  10 3.63371 0.66889   1
   1  20  10 3.41625 0.63553   3
   1  20  10 3.38646 0.53622   3
   2 -20  10 -0.1415 0.23234   1
   2 -20  10 -0.0505 0.32323   1
   2 -20  10 -0.1112 0.11116   1
   2  20  10 0.17215 0.14497   1
   2  20  10 -0.0544 0.08153   1
   2  20  10 0.08153 0.19033   1
   3 -20  10 0.25874 0.44692   2
   3 -20  10 0.34109 0.31762   2
   3  20  10 0.70029 0.16802   4
   3  20  10 0.70424 0.25277   4
   3 -21 -10 0.01986 0.18899   2
   3 -21 -10 0.01077 0.09660   1
   3  21 -10 -0.0099 0.04926   4
   3  21 -10 0.09862 0.06904   4
   2 -21 -10 2.38123 0.59759   1
   2 -21 -10 1.89394 0.72633   1
   2  21 -10 1.24963 0.28761   1
   2  21 -10 1.51745 0.29756   1
   2  21 -10 1.64638 0.36700   1
   1 -21 -10 0.76166 0.27145   1
   1  21 -10 0.27595 0.18078   1
   1  21 -10 -0.0666 0.15224   1
   0 -21 -10 2.02430 0.43928   1
   0  21 -10 3.98192 0.51683   1
   0  21  10 2.39473 0.46512   1
   1 -21  10 5.21152 0.73024   1
   1  21  10 5.55756 0.73400   1
   1  21  10 5.92465 0.62040   1
   2 -21  10 0.03022 0.21163   4
   2 -21  10 0.07054 0.23174   4
   2  21  10 0.09091 0.07276   4
   2  21  10 -0.0364 0.10905   4
   2  21  10 0.14543 0.14543   4
   3 -21  10 1.62926 0.39198   2
   3 -21  10 1.87428 0.39198   2
   3  21  10 2.06240 0.29293   3
   3  21  10 1.90142 0.35804   1
   3 -22 -10 0.47998 0.22859   1
   3  22 -10 0.61684 0.12759   4
   2 -22 -10 2.38802 0.46839   3
   2 -22 -10 1.61700 0.54913   1
   2  22 -10 1.88631 0.29785   4
   2  22 -10 2.27349 0.36736   4
   2  22 -10 1.83332 0.42667   2
   2  22 -10 1.77572 0.29979   2
   1 -22 -10 4.11775 0.58311   1
   0 -22 -10 6.90751 0.89160   3
   0 -22  10 6.90380 0.91982   1
   0  22 -10 6.91015 0.87037   4
   0  22  10 7.44763 0.76676   1
   1 -22  10 2.70774 0.50332   1
   1  22  10 1.66079 0.30860   1
   1  22  10 2.96765 0.49913   1
  -1  22 -10 0.58376 0.45406   2
   2 -22  10 0.40195 0.58570   2
   2 -22  10 0.14930 0.56277   2
   2  22  10 0.46687 0.25935   1
   2  22  10 1.04569 0.27044   4
   2  22  10 0.53951 0.21793   1
   2 -23 -10 -0.0364 0.10917   3
   2 -23 -10 0.00000 0.17473   1
   2  23 -10 0.04946 0.06933   4
   2  23 -10 -0.0099 0.06933   4
   2  23 -10 -0.0297 0.06933   4
   1 -23 -10 2.93905 0.70276   4
   1 -23 -10 3.32239 0.45640   4
  -1  23  10 2.84890 0.52796   4
   1  23 -10 2.88615 0.47746   4
   1  23 -10 2.85772 0.44309   4
   0 -23 -10 0.08190 0.06373   1
   0 -23  10 0.06015 0.05009   4
   0  23  10 -0.0182 0.04547   1
   0  23 -10 0.10029 0.05009   4
   1 -23  10 0.86773 0.39441   2
  -1  23 -10 0.45082 0.29301   2
   1  23  10 0.75904 0.23278   2
   1  23  10 1.64487 0.31630   4
   2 -23  10 2.29951 0.51502   4
   2 -23  10 2.34367 0.56209   4
   2  23  10 2.27278 0.37882   1
   2  23  10 2.04331 0.33287   1
   2  23  10 2.30951 0.34144   4
   2 -24 -10 0.60301 0.36404   1
   2  24 -10 0.74048 0.18757   4
   1 -24 -10 0.45199 0.18987   4
   1 -24 -10 0.33449 0.30737   4
  -1  24  10 0.40675 0.18987   4
   1  24 -10 0.51719 0.21879   4
   1  24 -10 0.28004 0.19479   4
   0 -24 -10 5.11143 0.58983   1
   0 -24  10 4.97137 0.66995   1
   0  24  10 3.88009 0.50700   1
   0  24 -10 5.58467 0.60124   3
   1 -24  10 1.31901 0.32978   4
   1  24  10 1.79084 0.29550   4
  -1  24 -10 0.96038 0.32826   1
   1  24  10 1.30796 0.25980   3
   2 -24  10 0.27021 0.27021   1
   1 -25 -10 0.48325 0.13421   4
  -1  25  10 0.29590 0.18209   1
   1  25 -10 0.61457 0.15859   4
   1  25 -10 0.62452 0.19826   4
   0 -25  10 2.25094 0.34856   4
   0 -25 -10 2.08679 0.34615   4
   1 -25  10 0.01990 0.02991   4
  -1  25 -10 0.02991 0.02991   4
   1  25  10 0.03550 0.02660   4
   3   0 -11 3.73844 0.82755   2
   3   0 -11 4.16647 0.70389   2
   3   0 -11 2.72023 0.31883   1
   3   0 -11 2.43118 0.49823   1
   3   0 -11 2.50094 0.25906   1
   3   0 -11 3.23904 0.79985   1
   3   0 -11 2.81977 0.65764   1
   3   0 -11 3.04894 0.42847   1
   3   0 -11 3.23834 1.40494   1
   1   0 -11 0.35396 0.41294   2
   1   0 -11 0.07025 0.14049   4
   1   0 -11 -0.1180 0.37359   2
   1   0 -11 0.29094 0.54173   4
   1   0  11 -0.1719 0.35343   1
   1   0  11 0.45039 0.17018   3
   1   0  11 0.66864 0.32479   1
   1   0  11 -0.0286 0.41072   1
   3   0  11 -0.0855 0.20912   2
   3   0  11 0.07973 0.15935   4
   3   0  11 -0.1331 0.24717   2
   3   0  11 0.29476 0.44685   2
   3   0  11 -0.0855 0.27568   2
   3   0  11 0.08962 0.15935   4
   3   0  11 -0.0095 0.10461   2
   5   0  11 3.18246 0.64619   3
   5   1 -11 2.49029 0.85939   1
   4  -1 -11 3.42326 0.65656   1
   4  -1 -11 4.76451 0.68469   1
   4   1 -11 4.07515 0.80017   1
   3  -1 -11 8.88744 1.69149   2
   3   1 -11 5.53809 1.05081   2
   3   1 -11 3.31340 0.84257   2
   3   1 -11 4.59145 0.76679   2
   3   1 -11 5.10261 1.24016   2
   1  -1 -11 0.29581 0.46344   1
   1   1 -11 0.47053 0.39216   2
   0  -1  11 1.28326 0.45694   1
   0  -1 -11 0.81645 0.52415   3
   0  -1  11 0.84598 0.19134   3
   0  -1 -11 0.46368 0.64507   3
   0  -1 -11 0.94749 0.22173   3
   0  -1 -11 0.75599 0.32254   3
   0  -1  11 1.01932 0.41565   3
   0  -1  11 0.42299 0.50361   3
   0  -1  11 0.84598 0.25175   3
   0  -1 -11 0.51403 0.59472   3
   0   1  11 0.95760 0.27219   3
   0   1  11 0.85679 0.46368   3
   0   1  11 0.57460 0.48380   3
   0   1 -11 1.24435 0.47635   1
   0   1 -11 0.66474 0.53382   3
   0   1  11 0.11092 0.36288   3
   0   1  11 0.93748 0.20161   3
   0   1 -11 0.87619 0.21155   3
   0   1 -11 0.79567 0.36258   3
   0   1 -11 0.86619 0.53382   3
   1  -1  11 0.20142 0.30213   3
   1  -1  11 0.00000 0.31453   1
   1  -1  11 0.09061 0.35243   3
   1   1  11 -0.0478 0.29681   1
   1   1  11 0.12073 0.13083   3
   1   1  11 0.23147 0.31203   3
   1   1  11 0.48819 0.28721   1
   2  -1  11 1.25729 0.23453   1
   2  -1  11 1.73577 0.55359   1
   2  -1  11 0.91277 0.47148   4
   2  -1  11 0.77231 0.54160   4
   2  -1  11 0.58175 0.27085   4
   2   1  11 0.63955 0.51966   4
   2   1  11 1.96947 0.36575   1
   2   1  11 1.20443 0.22523   4
   2   1  11 0.97938 0.53961   4
   3  -1  11 0.17183 0.30554   2
   3  -1  11 0.01001 0.07990   4
   3  -1  11 -0.0477 0.17183   2
   3  -1  11 0.02994 0.12976   4
   3  -1  11 0.14319 0.20057   2
   3  -1  11 0.22921 0.34376   2
   3  -1  11 0.01992 0.12976   4
   3   1  11 0.12304 0.08516   2
   3   1  11 0.06627 0.08516   2
   3   1  11 0.02981 0.14905   4
   3   1  11 0.19880 0.35961   2
   3   1  11 -0.1514 0.15142   2
   3   1  11 -0.0758 0.29345   2
   3   1  11 0.12304 0.20819   2
   4  -1  11 0.45174 0.23572   3
   4  -1  11 1.57125 0.70707   3
   4  -1  11 0.35920 0.50293   1
   4   1  11 -0.4978 0.49777   3
   5  -1  11 4.44969 0.76421   3
   5   1  11 3.80363 0.79337   3
   4  -2 -11 0.39840 0.38841   2
   4  -2 -11 0.41827 0.42827   2
   4   2 -11 3.01977 0.66695   1
   3  -2 -11 -0.0672 0.17270   2
   3  -2 -11 0.08635 0.06720   2
   3  -2 -11 0.00000 0.05809   1
   3  -2 -11 0.05757 0.02878   2
   3  -2 -11 0.03841 0.02878   2
   3  -2 -11 -0.0096 0.01916   2
   3  -2 -11 0.11513 0.11513   2
   3  -2 -11 0.11513 0.10561   2
   3  -2 -11 -0.0384 0.05757   2
   3   2 -11 0.00945 0.02825   2
   3   2 -11 0.18842 0.11301   2
   3   2 -11 0.00945 0.10366   2
   3   2 -11 0.05651 0.04706   2
   3   2 -11 0.10366 0.08476   2
   3   2 -11 0.00945 0.06596   2
   2  -2 -11 7.79973 0.71087   2
   2   2 -11 6.47381 1.07261   2
   2   2 -11 6.45470 0.69913   2
   2   2 -11 6.72280 1.35993   2
   1  -2 -11 0.51337 0.18115   3
   1  -2 -11 0.87981 0.67218   1
   1  -2 -11 0.38251 0.61405   3
   1  -2 -11 1.16647 0.59315   1
   1   2 -11 0.11048 0.46184   1
   1   2 -11 0.61572 0.19547   2
   1   2 -11 0.32125 0.59235   1
   0  -2  11 0.75654 0.19164   3
   0  -2  11 0.18152 0.48416   3
   0  -2  11 0.89298 0.54175   3
   0  -2 -11 0.86822 0.55522   3
   0  -2 -11 0.45426 0.54509   3
   0  -2 -11 0.84797 0.54509   3
   0  -2 -11 0.52494 0.37356   3
   0  -2 -11 0.82782 0.21204   3
   0  -2  11 0.56490 0.26227   3
   0  -2  11 0.37326 0.42365   3
   0   2 -11 0.66578 0.68592   3
   0   2 -11 0.44389 0.29252   3
   0   2 -11 0.67590 0.52453   3
   0   2  11 0.61577 0.17164   3
   0   2 -11 0.98912 0.20368   1
   0   2  11 0.87824 0.29275   3
   0   2  11 0.89317 0.38705   2
   0   2 -11 1.18307 0.64002   1
   0   2  11 0.29275 0.43411   3
   0   2  11 0.34328 0.37356   3
   1  -2  11 13.4520 1.13214   1
   1  -2  11 11.0406 1.45192   3
   1  -2  11 13.4234 1.24627   1
   1  -2  11 13.0960 1.44311   3
   1   2  11 10.0202 1.41854   3
   1   2  11 13.5183 1.38158   1
   1   2  11 13.1154 1.27601   1
   1   2  11 14.3722 1.14176   1
   2  -2  11 0.01875 0.15028   1
   2  -2  11 0.07519 0.09393   1
   2  -2  11 0.01875 0.05634   1
   2  -2  11 -0.1315 0.13153   1
   2   2  11 0.07509 0.11253   1
   2   2  11 0.11253 0.09381   1
   2   2  11 -0.0375 0.06568   1
   2   2  11 0.01872 0.07509   1
   3  -2  11 0.09592 0.12468   2
   3  -2  11 -0.0575 0.25899   2
   3  -2  11 0.10554 0.16307   2
   3  -2  11 0.10554 0.08630   2
   3  -2  11 0.03000 0.19005   4
   3  -2  11 0.19184 0.30690   2
   3  -2  11 0.15345 0.08630   2
   3  -2  11 -0.0096 0.18221   2
   3   2  11 0.15074 0.11303   2
   3   2  11 -0.1037 0.10368   2
   3   2  11 0.00000 0.07573   1
   3   2  11 0.00000 0.09462   1
   3   2  11 0.14129 0.17900   2
   3   2  11 -0.1130 0.23551   2
   3   2  11 -0.0283 0.32039   2
   4  -2  11 0.79764 0.48254   3
   4  -2  11 0.36211 0.26901   1
   4  -2  11 1.30971 0.52195   3
   4   2  11 0.15078 0.50277   1
   5  -2  11 0.03883 0.09702   3
   5   2  11 0.02873 0.05746   3
   5  -3 -11 0.73917 0.37929   1
   4  -3 -11 1.09665 0.18941   2
   4  -3 -11 1.05685 0.50842   2
   4  -3 -11 1.85944 0.54742   1
   4   3 -11 0.45628 0.27769   3
   4   3 -11 2.69290 1.05131   1
   3  -3 -11 1.05020 0.26016   2
   3  -3 -11 0.77081 0.52988   2
   3  -3 -11 1.18501 0.42397   2
   3  -3 -11 0.71292 0.16381   2
   3  -3 -11 1.20434 0.43353   2
   3  -3 -11 0.93452 0.51065   2
   3   3 -11 0.20881 0.22865   1
   3   3 -11 2.07171 1.02184   2
   3   3 -11 0.65614 0.18886   1
   3   3 -11 0.53677 0.75555   1
   3   3 -11 0.74059 0.55310   2
   3   3 -11 0.75931 0.41252   2
   2   3 -11 2.66728 0.72401   2
   2   3 -11 2.05453 0.32645   4
   2   3 -11 2.72452 0.65731   2
   2   3 -11 2.91495 0.92400   2
   1  -3 -11 19.2806 2.20946   1
   1  -3 -11 17.6359 1.82306   1
   1  -3 -11 15.7831 1.47622   1
   1   3 -11 16.0879 1.97572   2
   1   3 -11 15.5526 1.75187   2
   1   3 -11 16.6913 1.45011   2
   0  -3  11 4.23282 0.99001   4
   0  -3 -11 8.41713 1.23893   1
   0  -3 -11 7.11571 1.23315   3
   0  -3 -11 7.20665 0.99053   3
   0  -3  11 7.06138 1.07087   4
   0  -3 -11 9.43976 1.13083   1
   0  -3  11 7.13211 0.69706   4
   0  -3 -11 8.11236 0.73748   1
   0   3 -11 6.36432 1.10117   4
   0   3  11 7.22682 0.92990   3
   0   3  11 6.69121 0.92990   3
   0   3 -11 6.40475 0.87885   4
   0   3  11 8.16148 0.69812   1
   0   3 -11 7.40489 0.70719   4
   0   3 -11 7.79887 1.30322   4
   0   3 -11 6.03094 1.17190   4
   0   3  11 6.29692 1.07144   3
   1  -3  11 0.86983 0.57328   3
   1  -3  11 0.46479 0.36374   3
   1  -3  11 0.70732 0.20209   3
   1   3  11 0.50279 0.48261   3
   1   3  11 0.77420 0.19103   3
   1   3  11 1.29782 0.41339   1
   2  -3  11 4.51688 0.94098   1
   2  -3  11 3.28226 0.77522   4
   2  -3  11 4.30044 0.57399   1
   2  -3  11 3.57423 0.68463   4
   2  -3  11 4.59221 0.50810   1
   2  -3  11 4.27222 0.73398   1
   2  -3  11 5.26031 0.77165   1
   2   3  11 4.05123 0.74653   4
   2   3  11 5.08519 0.81622   1
   2   3  11 3.79234 0.59726   4
   2   3  11 4.31584 0.45973   1
   2   3  11 4.17561 0.55227   4
   3  -3  11 0.36606 0.42395   2
   3  -3  11 0.07019 0.31083   4
   3  -3  11 0.41428 0.29871   2
   3  -3  11 -0.0192 0.12524   2
   3  -3  11 0.22159 0.47207   2
   3  -3  11 0.25048 0.45284   2
   3  -3  11 -0.1349 0.26015   2
   3  -3  11 0.11031 0.21057   4
   3  -3  11 0.09020 0.18040   4
   3   3  11 0.21573 0.12193   2
   3   3  11 0.17819 0.12193   2
   3   3  11 0.10896 0.18812   4
   3   3  11 0.15006 0.37521   2
   3   3  11 0.15006 0.15947   2
   4  -3  11 0.16787 0.17767   3
   4  -3  11 -0.0197 0.19748   3
   4  -3  11 0.33574 0.28632   3
   4  -3  11 -0.0888 0.09874   3
   4   3  11 0.04843 0.18420   3
   5  -3  11 0.66140 0.40851   3
   5   3  11 -0.3150 0.43908   3
   5  -4 -11 0.50926 0.58355   2
   4   4 -11 6.35479 1.01013   1
   4   4 -11 6.48338 0.94583   1
   4   4 -11 6.20786 1.48765   1
   3  -4 -11 0.51238 0.31903   2
   3  -4 -11 0.42540 0.16436   2
   3  -4 -11 0.11993 0.41988   1
   3  -4 -11 0.09998 0.11001   1
   3  -4 -11 0.15466 0.29003   2
   3  -4 -11 0.27064 0.41571   2
   3   4 -11 0.33590 0.69978   2
   3   4 -11 0.05962 0.20879   1
   3   4 -11 0.12164 0.13102   4
   3   4 -11 0.32654 0.39186   2
   3   4 -11 0.10938 0.42744   1
   3   4 -11 0.02981 0.16900   1
   2  -4 -11 0.50893 0.79275   2
   2  -4 -11 0.16085 0.20109   1
   2  -4 -11 0.33281 0.46976   2
   2   4 -11 0.84305 0.47364   2
   2   4 -11 0.54936 0.63469   2
   2   4 -11 0.47364 0.17995   2
   2   4 -11 -0.0568 0.50205   2
   1  -4 -11 0.87279 0.23807   2
   1  -4 -11 0.99177 0.80334   2
   1  -4 -11 0.82324 0.52568   2
   1   4 -11 0.82331 0.21307   2
   1   4 -11 0.92990 0.54243   2
   1   4 -11 0.53276 0.62319   1
   0  -4 -11 0.62708 0.61693   3
   0  -4 -11 0.64727 0.33378   3
   0  -4 -11 1.11390 0.52249   1
   0  -4  11 -0.2414 0.51195   1
   0  -4  11 0.47545 0.17198   4
   0  -4 -11 0.78868 0.19717   1
   0  -4  11 0.27313 0.44511   4
   0   4  11 0.25282 0.36411   3
   0   4 -11 0.75339 0.46360   1
   0   4  11 0.26297 0.35397   3
   0   4  11 0.60689 0.16182   3
   0   4 -11 0.11130 0.31362   4
   0   4 -11 0.28317 0.54616   4
   0   4 -11 0.74370 0.54092   1
   1  -4  11 1.80205 0.46569   3
   1  -4  11 2.67737 0.60758   1
   1  -4  11 2.73431 0.35131   1
   1   4  11 3.28331 0.53920   1
   1   4  11 2.64782 0.58730   1
   1   4  11 2.30606 0.33512   3
   2  -4  11 0.07553 0.13213   1
   2  -4  11 0.01012 0.24216   4
   2  -4  11 0.05660 0.25479   1
   2  -4  11 0.00000 0.09436   1
   2  -4  11 0.12266 0.17926   1
   2  -4  11 -0.0755 0.32085   1
   2  -4  11 -0.0566 0.23586   1
   2  -4  11 -0.0188 0.14149   1
   2   4  11 0.01982 0.07950   4
   2   4  11 0.00000 0.12196   1
   2   4  11 -0.0751 0.17824   1
   2   4  11 -0.0844 0.09383   1
   2   4  11 0.04686 0.12196   1
   2   4  11 0.36589 0.18765   1
   2   4  11 0.13138 0.17824   1
   3  -4  11 -0.0483 0.30968   2
   3  -4  11 0.21289 0.52257   2
   3  -4  11 0.20328 0.33870   2
   3  -4  11 0.16073 0.24114   4
   3  -4  11 0.00000 0.31163   1
   3  -4  11 0.39676 0.45491   2
   3  -4  11 0.05018 0.64291   4
   3  -4  11 0.06026 0.32146   4
   3  -4  11 -0.0775 0.17416   2
   3  -4  11 0.16073 0.15065   4
   3   4  11 0.11860 0.16808   4
   3   4  11 -0.1214 0.31753   2
   3   4  11 0.37354 0.51357   2
   3   4  11 0.57895 0.17740   2
   3   4  11 0.63496 0.43892   2
   4  -4  11 1.60334 0.76206   3
   4  -4  11 0.45289 0.30541   1
   4  -4  11 1.23720 0.53441   3
   4   4  11 0.70528 0.22220   3
   4   4  11 0.99503 0.51205   3
   5  -4  11 0.11951 0.62138   1
   5   4  11 0.30696 0.29670   3
   5  -5 -11 0.14530 0.14530   4
   4  -5 -11 2.19006 0.70155   1
   4   5 -11 4.19969 0.84177   1
   4   5 -11 6.77072 1.07048   1
   3  -5 -11 0.09003 0.17013   1
   3  -5 -11 0.37807 0.27139   3
   3  -5 -11 0.12602 0.18417   3
   3  -5 -11 0.03001 0.11011   1
   3  -5 -11 0.03001 0.22011   1
   3  -5 -11 0.20362 0.41687   3
   3   5 -11 -0.1580 0.38086   2
   3   5 -11 -0.0093 0.42736   2
   3   5 -11 0.12077 0.65959   2
   3   5 -11 0.00000 0.12160   1
   3   5 -11 -0.0093 0.15796   2
   3   5 -11 0.03980 0.21875   3
   3   5 -11 0.10942 0.22872   3
   2  -5 -11 9.85905 1.15577   1
   2  -5 -11 12.4117 2.08038   1
   2  -5 -11 12.7329 1.07819   2
   2  -5 -11 12.4856 1.60689   1
   2  -5 -11 10.3816 1.27633   1
   2  -5 -11 11.7283 1.19599   1
   2  -5 -11 12.3012 1.71858   1
   2   5 -11 12.4981 1.05018   4
   2   5 -11 11.6219 1.49148   1
   2   5 -11 11.3617 1.22128   1
   2   5 -11 12.4963 1.67738   4
   2   5 -11 12.4828 1.12117   1
   2   5 -11 11.9422 1.78187   1
   2   5 -11 12.4944 1.46998   1
   1  -5 -11 0.00995 0.01980   2
   1  -5 -11 -0.0595 0.05950   2
   1  -5 -11 -0.0495 0.10915   2
   1   5 -11 0.03856 0.08668   2
   1   5 -11 0.00000 0.06821   1
   1   5 -11 0.00966 0.01923   2
   0  -5  11 0.34724 0.36649   1
   0  -5 -11 0.36550 0.30625   1
   1  -5  11 0.12343 0.28485   1
   1  -5  11 0.18990 0.08543   1
   1  -5  11 -0.1139 0.15190   1
   1   5  11 0.18310 0.18310   1
   1   5  11 0.07715 0.07715   1
   1   5  11 0.04016 0.18054   3
   2   5  11 1.05957 0.29074   1
   2   5  11 1.12522 0.26252   1
   3  -5  11 -0.0194 0.13616   2
   3  -5  11 -0.0194 0.09725   2
   3  -5  11 -0.0486 0.08749   2
   3  -5  11 -0.0486 0.08749   2
   3  -5  11 -0.0486 0.05833   2
   3  -5  11 -0.0098 0.13616   2
   3  -5  11 0.07784 0.14582   2
   3  -5  11 -0.0292 0.02916   2
   3  -5  11 0.09725 0.08749   2
   3   5  11 0.09298 0.04644   2
   3   5  11 0.20453 0.15808   2
   3   5  11 -0.0930 0.09298   2
   3   5  11 0.05577 0.03721   2
   4  -5  11 4.01935 0.80816   1
   4  -5  11 4.35474 0.61501   3
   4  -5  11 4.24558 1.05152   3
   4  -5  11 4.68209 0.78367   3
   4   5  11 5.28379 0.85659   3
   4   5  11 5.13947 0.91432   3
   5  -5  11 0.74272 0.43003   3
   5   5  11 0.78612 0.47357   3
   5   5  11 0.88083 0.41676   3
   5  -6 -11 0.24159 0.23199   4
   5   6 -11 0.19636 0.23565   4
   4  -6 -11 6.78056 0.95914   1
   4  -6 -11 4.68454 0.57060   2
   4   6 -11 5.31380 0.69401   3
   4   6 -11 6.17874 0.99251   3
   4   6 -11 4.76856 0.47583   3
   4   6 -11 5.48235 0.86246   3
   3  -6 -11 -0.0581 0.15506   1
   3  -6 -11 0.04841 0.08720   1
   3  -6 -11 0.01999 0.10017   2
   3  -6 -11 0.00000 0.05814   1
   3  -6 -11 0.25199 0.57183   1
   3  -6 -11 -0.1260 0.24226   1
   3   6 -11 0.06481 0.06481   2
   3   6 -11 0.04624 0.11104   2
   3   6 -11 0.18514 0.34251   2
   3   6 -11 -0.0278 0.10185   2
   3   6 -11 0.00000 0.09279   1
   3   6 -11 0.20361 0.35170   2
   3   6 -11 0.02776 0.20361   2
   3   6 -11 0.00998 0.36819   3
   2  -6 -11 -0.0196 0.49046   2
   2  -6 -11 0.21576 0.22560   2
   2  -6 -11 0.86314 0.48062   2
   2  -6 -11 0.05019 0.14071   1
   2  -6 -11 -0.4021 0.71606   2
   2  -6 -11 0.14709 0.10793   2
   2  -6 -11 0.66696 0.18634   2
   2   6 -11 -0.0561 0.48664   2
   2   6 -11 0.04005 0.17013   1
   2   6 -11 0.03001 0.12004   1
   2   6 -11 0.08010 0.10007   1
   2   6 -11 -0.3275 0.47725   2
   2   6 -11 0.16841 0.19657   2
   2   6 -11 0.23393 0.38366   2
   2   6 -11 -0.0749 0.40243   2
   2   6 -11 -0.0749 0.14034   2
   1  -6 -11 6.84799 1.26852   2
   1  -6 -11 10.4949 1.65501   2
   1  -6 -11 7.53180 0.76304   2
   1   6 -11 6.63632 1.16833   2
   1   6 -11 6.31069 1.13000   2
   1   6 -11 6.62672 0.71821   2
   0  -6 -11 14.1063 1.20603   1
   0  -6 -11 13.1665 1.59659   3
   0   6 -11 13.5944 1.69568   1
   0   6  11 12.0247 1.41465   3
   0   6 -11 13.3871 1.17807   4
   0   6  11 13.3485 1.21255   3
   1  -6  11 6.86547 0.87345   4
   1  -6  11 7.74113 0.78619   4
   1  -6  11 6.26626 1.12732   4
   1   6  11 7.11002 0.97133   3
   1   6  11 8.93485 0.95424   1
   1   6  11 7.86498 0.71321   1
   2  -6  11 4.19049 0.74687   3
   2  -6  11 4.19006 0.92890   3
   2  -6  11 3.99020 0.64810   4
   2  -6  11 3.38253 0.92156   4
   2  -6  11 4.09137 0.51645   4
   2  -6  11 3.29141 0.71901   4
   2  -6  11 4.40376 0.72289   1
   2  -6  11 3.11922 0.60767   4
   2   6  11 3.34958 0.55334   4
   2   6  11 3.71520 0.77069   4
   2   6  11 3.67566 0.45453   4
   2   6  11 4.19116 0.80639   3
   2   6  11 3.85357 0.46444   4
   2   6  11 4.94476 0.46828   1
   2   6  11 4.20491 0.56193   1
   2   6  11 4.79483 0.51506   1
   3  -6  11 0.83068 0.25409   2
   3  -6  11 1.88614 0.65482   2
   3  -6  11 0.67578 0.47406   4
   3  -6  11 0.45382 0.70603   4
   3  -6  11 1.09457 0.37133   2
   3  -6  11 1.05546 0.44955   2
   3  -6  11 1.32905 0.72314   2
   3  -6  11 1.15319 0.55709   2
   3  -6  11 0.51432 0.79678   4
   3   6  11 2.01884 0.56488   2
   3   6  11 1.30580 0.72234   2
   3   6  11 2.21336 0.60195   2
   3   6  11 1.59283 0.41672   2
   4  -6  11 0.06959 0.12921   3
   4  -6  11 0.05962 0.14905   3
   4  -6  11 0.05962 0.07956   3
   4  -6  11 -0.0796 0.19881   3
   4   6  11 0.03837 0.05750   3
   4   6  11 0.07673 0.11500   3
   4   6  11 0.34510 0.14375   3
   5  -6  11 -0.1762 0.17620   3
   5  -6  11 0.16648 0.12729   3
   5   6  11 0.05657 0.15089   3
   5  -7 -11 -0.3469 0.39508   4
   5  -7 -11 0.20437 0.31196   1
   5   7 -11 0.26516 0.19641   4
   5   7 -11 0.04549 0.47731   2
   4  -7 -11 0.37088 0.28532   1
   4  -7 -11 0.06012 0.18036   2
   4   7 -11 0.27349 0.37370   1
   4   7 -11 -0.2643 0.26434   1
   4   7 -11 0.30083 0.21881   1
   4   7 -11 0.10914 0.06944   3
   3  -7 -11 3.84727 0.52195   1
   3  -7 -11 3.47457 1.79114   2
   3  -7 -11 2.84737 0.52134   2
   3  -7 -11 2.89756 0.44119   2
   3  -7 -11 3.85696 0.65731   1
   3  -7 -11 1.44375 0.88228   2
   3   7 -11 3.34565 0.44806   3
   3   7 -11 2.08108 0.52776   3
   3   7 -11 3.17636 0.54764   3
   3   7 -11 3.63365 0.85557   1
   3   7 -11 3.47547 0.76455   3
   3   7 -11 2.63871 1.01567   3
   3   7 -11 3.44397 1.22733   3
   2  -7 -11 9.66880 0.91202   2
   2  -7 -11 7.80816 1.64808   1
   2  -7 -11 9.29620 1.50032   2
   2  -7 -11 8.47028 0.93459   1
   2  -7 -11 8.12982 1.08531   1
   2  -7 -11 9.66880 2.01023   2
   2  -7 -11 7.08462 0.95468   1
   2   7 -11 8.47082 1.15600   3
   2   7 -11 10.6605 1.22794   2
   2   7 -11 9.43257 0.85583   2
   2   7 -11 9.17205 1.40467   2
   2   7 -11 9.24651 0.85583   2
   2   7 -11 10.9395 1.52560   2
   2   7 -11 9.29298 0.83716   2
   2   7 -11 9.20005 0.93019   2
   1  -7 -11 9.40486 0.92958   2
   1  -7 -11 10.6213 1.60205   2
   1  -7 -11 8.40604 1.31526   2
   1   7 -11 9.26749 1.35116   2
   1   7 -11 8.87743 1.31308   2
   1   7 -11 8.88687 0.85629   2
   0  -7 -11 15.8559 1.75524   1
   0   7 -11 15.2207 1.37905   4
   0   7 -11 14.8556 1.82527   4
   1  -7  11 4.39264 0.71181   4
   1  -7  11 5.70886 0.59946   1
   1  -7  11 5.21623 1.00667   4
   1   7  11 6.19098 0.58729   1
   1   7  11 5.74807 0.83762   1
   1   7  11 5.81548 0.83762   1
   2  -7  11 0.64062 0.27725   1
   2  -7  11 0.39194 0.43980   1
   2  -7  11 0.23898 0.30592   1
   2  -7  11 0.16255 0.18163   1
   2  -7  11 0.20082 0.35378   1
   2  -7  11 0.26766 0.23898   1
   2  -7  11 0.43021 0.26766   1
   2  -7  11 0.13188 0.59856   4
   2   7  11 0.73752 0.15872   2
   2   7  11 0.12830 0.41450   4
   2   7  11 0.59743 0.16799   2
   2   7  11 0.79351 0.32671   2
   2   7  11 0.59743 0.16799   2
   2   7  11 1.05486 0.17736   2
   2   7  11 0.73752 0.21472   2
   2   7  11 1.08296 0.28945   2
   3  -7  11 0.06885 0.35400   2
   3  -7  11 0.02017 0.29308   1
   3  -7  11 0.10812 0.46183   2
   3  -7  11 0.03031 0.23245   1
   3  -7  11 -0.1179 0.11787   2
   3  -7  11 0.47159 0.44212   2
   3  -7  11 0.17681 0.31439   2
   3  -7  11 0.30464 0.20638   2
   3  -7  11 -0.0688 0.21613   2
   3   7  11 -0.2584 0.25836   2
   3   7  11 0.47062 0.44295   2
   3   7  11 0.30456 0.12923   2
   3   7  11 0.22152 0.20300   2
   3   7  11 -0.1661 0.23994   2
   3   7  11 0.26762 0.15691   2
   4  -7  11 -0.2092 0.21904   3
   4  -7  11 -0.2290 0.33861   3
   4  -7  11 -0.0497 0.14932   3
   4  -7  11 0.23902 0.28876   3
   4   7  11 0.63007 0.20051   3
   4   7  11 0.69690 0.27683   3
   5  -7  11 0.88422 0.50346   1
   5  -7  11 1.37324 0.41196   3
   5   7  11 0.31094 0.41855   1
   5  -8 -11 -0.5764 0.57644   4
   5  -8 -11 0.31703 0.28822   4
   5   8 -11 -0.1964 0.41249   4
   5   8 -11 0.16282 0.24423   2
   4  -8 -11 0.66669 0.37141   1
   4  -8 -11 0.47298 0.23170   3
   4   8 -11 0.15878 0.34732   3
   4   8 -11 1.54264 0.68461   1
   4   8 -11 0.26798 0.28779   3
   3  -8 -11 4.64126 1.29996   1
   3  -8 -11 4.73756 0.65476   1
   3  -8 -11 5.90268 1.06882   1
   3  -8 -11 4.57609 0.83296   2
   3  -8 -11 4.56603 0.63225   2
   3  -8 -11 3.98401 0.51175   2
   3  -8 -11 3.42203 2.03715   2
   3   8 -11 4.00619 1.33540   3
   3   8 -11 3.89653 1.45495   3
   3   8 -11 4.11585 0.85708   3
   3   8 -11 4.60817 0.94898   2
   3   8 -11 4.27529 0.51820   3
   3   8 -11 4.60574 0.62762   3
   3   8 -11 4.53439 0.51820   3
   2  -8 -11 0.38197 0.65627   2
   2  -8 -11 0.11056 0.21105   1
   2  -8 -11 0.42117 0.19590   2
   2  -8 -11 0.27420 0.98921   2
   2  -8 -11 0.21105 0.30145   1
   2  -8 -11 0.20097 0.17083   1
   2   8 -11 0.37920 0.27751   2
   2   8 -11 0.57348 0.36073   2
   2   8 -11 0.62896 0.59194   2
   2   8 -11 0.28679 0.19429   2
   2   8 -11 0.45324 0.22203   2
   2   8 -11 0.09004 0.12006   1
   2   8 -11 0.35145 0.19429   2
   2   8 -11 1.01744 0.67526   2
   2   8 -11 -0.6198 0.67526   2
   1  -8 -11 0.04924 0.09857   2
   1  -8 -11 0.02010 0.39268   1
   1  -8 -11 -0.1971 0.22671   2
   1   8 -11 0.09452 0.33079   2
   1   8 -11 0.16070 0.24574   2
   1   8 -11 0.10401 0.09452   2
   0   8 -11 0.23333 0.18255   4
   0   8 -11 0.26376 0.80145   4
   1  -8  11 14.1975 1.34346   4
   1  -8  11 16.0702 1.76069   4
   1   8  11 14.2608 1.29460   4
   1   8  11 14.7686 1.59338   4
   1   8  11 14.8981 1.47391   4
   2  -8  11 0.69234 0.34617   1
   2  -8  11 0.87502 0.73082   1
   2  -8  11 -0.1923 0.41349   1
   2  -8  11 0.21343 0.43695   4
   2  -8  11 0.50966 0.24036   1
   2  -8  11 1.00966 0.55769   1
   2  -8  11 0.75966 0.39420   1
   2  -8  11 0.60582 0.21152   1
   2   8  11 0.27610 0.17747   4
   2   8  11 0.29588 0.17747   4
   2   8  11 0.28599 0.35504   4
   2   8  11 0.50084 0.45451   2
   2   8  11 0.47302 0.19483   2
   2   8  11 0.36493 0.32546   4
   2   8  11 0.45451 0.23186   2
   3  -8  11 1.76910 0.51393   2
   3  -8  11 1.34776 1.05389   1
   3  -8  11 2.04590 0.67205   2
   3  -8  11 1.82839 0.54357   2
   3  -8  11 1.76910 0.47437   2
   3  -8  11 1.36809 0.77019   1
   3  -8  11 2.07554 0.63249   2
   3   8  11 3.36847 0.65342   2
   3   8  11 2.14444 0.64428   2
   3   8  11 3.87465 0.76393   2
   4  -8  11 0.74535 0.70148   1
   4  -8  11 1.17284 0.51523   1
   4  -8  11 1.03034 0.51523   1
   4  -8  11 1.31533 0.80022   1
   4   8  11 1.10104 0.58524   2
   4   8  11 1.39863 0.29760   2
   5  -8  11 0.64839 0.35366   3
   5  -8  11 0.43600 0.33276   3
   5   8  11 0.15846 0.39005   1
   5  -9 -11 0.20047 0.71294   1
   5   9 -11 -0.2161 0.46168   4
   5   9 -11 0.78086 0.26840   1
   4  -9 -11 0.35303 0.19082   1
   4  -9 -11 0.38164 0.62969   1
   4  -9 -11 1.07803 0.46748   1
   4   9 -11 0.46776 0.32101   1
   4   9 -11 0.02978 0.29793   3
   4   9 -11 0.55038 0.64211   1
   3  -9 -11 6.06628 0.70309   2
   3  -9 -11 6.69645 0.91972   1
   3  -9 -11 5.72487 2.31006   2
   3  -9 -11 6.15675 0.79346   2
   3  -9 -11 4.45932 1.28559   2
   3  -9 -11 6.28732 1.62701   2
   3  -9 -11 6.68694 0.82392   1
   3   9 -11 6.06450 1.02732   3
   3   9 -11 6.49767 0.78619   1
   3   9 -11 6.38720 1.50132   3
   3   9 -11 5.10691 1.59592   3
   3   9 -11 7.78099 1.14770   1
   3   9 -11 6.52478 0.63264   1
   2  -9 -11 0.01008 0.33160   1
   2  -9 -11 0.02006 0.51241   1
   2  -9 -11 -0.1662 0.89913   2
   2  -9 -11 0.30301 0.20528   2
   2  -9 -11 0.18567 0.17586   2
   2  -9 -11 0.33232 0.15636   2
   2   9 -11 -0.1013 0.50620   2
   2   9 -11 0.15649 0.52467   2
   2   9 -11 0.21170 0.32211   2
   2   9 -11 0.23930 0.17486   2
   2   9 -11 -0.3866 0.55228   2
   2   9 -11 0.03003 0.18016   1
   2   9 -11 0.20246 0.10128   2
   2   9 -11 0.20246 0.20246   2
   2   9 -11 0.19333 0.20246   2
   2   9 -11 0.22093 0.18409   2
   1  -9 -11 8.10112 0.99385   1
   1  -9 -11 9.67718 0.95367   1
   1  -9 -11 7.62937 1.38535   1
   1   9 -11 9.19716 0.96710   1
   1   9 -11 9.98177 0.90149   2
   1   9 -11 10.4137 1.51184   2
   1   9 -11 11.0053 1.38977   2
   0   9 -11 1.46126 0.75088   4
   0   9 -11 1.76708 0.31523   2
   1  -9  11 0.19348 0.56012   4
   1   9  11 0.78875 0.27556   2
   1   9  11 0.22822 0.15875   4
   1   9  11 0.14879 0.27778   4
   1   9  11 0.10919 0.42668   4
   2  -9  11 0.15478 0.21282   1
   2  -9  11 0.00000 0.31927   1
   2  -9  11 0.10646 0.22252   1
   2  -9  11 0.06774 0.15478   1
   2  -9  11 0.14508 0.30957   1
   2  -9  11 -0.0290 0.22252   1
   2  -9  11 0.02031 0.09155   4
   2  -9  11 0.09675 0.19350   1
   2   9  11 0.12905 0.08292   2
   2   9  11 0.17509 0.11981   2
   2   9  11 0.05528 0.11056   2
   2   9  11 0.36867 0.23037   2
   2   9  11 0.20273 0.07377   2
   2   9  11 0.20273 0.10141   2
   2   9  11 -0.2027 0.22122   2
   3  -9  11 16.9719 1.75089   2
   3  -9  11 13.7941 1.60731   1
   3  -9  11 12.2987 1.46486   1
   3  -9  11 11.6782 2.24811   1
   3  -9  11 14.6994 1.68863   1
   3   9  11 15.2116 1.72697   1
   3   9  11 13.7973 1.30791   4
   3   9  11 12.4599 1.44562   4
   3   9  11 14.7983 1.27940   3
   3   9  11 14.2005 1.42599   4
   4  -9  11 0.01002 0.04988   3
   4  -9  11 0.05990 0.03997   3
   4  -9  11 0.07994 0.07994   3
   4  -9  11 0.00000 0.05532   1
   4   9  11 -0.0189 0.04725   1
   4   9  11 -0.0189 0.01888   1
   5  -9  11 -0.1377 0.23610   3
   5  -9  11 0.45428 0.33804   4
   5   9  11 0.34985 0.24995   1
   5   9  11 -0.0930 0.27908   3
   5 -10 -11 -0.0954 0.25748   3
   5  10 -11 0.13648 0.17368   3
   4 -10 -11 1.23206 0.95501   1
   4 -10 -11 0.66423 0.30193   2
   4 -10 -11 1.68088 0.52526   1
   4  10 -11 0.37905 0.49883   2
   4  10 -11 1.33360 0.54641   1
   4  10 -11 0.03993 0.34913   2
   3 -10 -11 1.50435 0.39032   1
   3 -10 -11 1.22826 0.79028   1
   3 -10 -11 1.10449 1.83756   1
   3 -10 -11 1.01872 0.85685   1
   3 -10 -11 0.81412 0.47244   2
   3 -10 -11 0.78397 0.35176   2
   3  10 -11 0.98601 0.30481   1
   3  10 -11 0.02994 1.08824   3
   3  10 -11 1.72106 0.65440   1
   3  10 -11 1.40735 0.44823   1
   3  10 -11 0.80864 0.38935   3
   2 -10 -11 5.04674 1.72446   2
   2 -10 -11 2.87411 0.47739   2
   2 -10 -11 2.86433 0.42872   2
   2 -10 -11 3.02021 1.00344   2
   2 -10 -11 2.59158 0.56505   2
   2 -10 -11 2.65980 0.45794   2
   2  10 -11 2.73232 0.40347   2
   2  10 -11 2.56724 0.54096   2
   2  10 -11 3.03490 1.00854   2
   2  10 -11 2.51700 0.43265   3
   2  10 -11 2.49283 0.90736   3
   2  10 -11 2.00457 1.05240   3
   2  10 -11 3.60337 0.47677   2
   2  10 -11 2.09475 0.33076   3
   2  10 -11 3.34659 0.51347   2
   1 -10 -11 6.01062 1.23918   2
   1 -10 -11 5.91304 0.77085   2
   1  10 -11 7.73711 1.28799   2
   1  10 -11 5.35753 0.76125   1
   1  10 -11 9.79979 1.32535   2
   1  10 -11 8.10120 0.86802   2
   1  10 -11 7.93315 0.75596   2
   0  10 -11 0.22325 0.20299   4
   1 -10  11 9.92617 0.96817   3
   1 -10  11 9.59011 1.44723   4
   1 -10  11 8.56078 1.07011   4
   1  10  11 9.35717 0.99013   4
   1  10  11 9.42650 0.90104   4
   1  10  11 10.5147 1.25306   2
   1  10  11 10.0248 1.13058   2
   1  10  11 9.20868 1.02976   4
   2 -10  11 0.56415 0.22373   2
   2 -10  11 0.46687 0.40852   2
   2 -10  11 0.04077 0.65196   4
   2 -10  11 0.33076 0.35994   2
   2 -10  11 0.55449 0.32101   2
   2 -10  11 0.35018 0.64201   2
   2  10  11 0.07888 0.45330   4
   2  10  11 0.35721 0.22895   2
   2  10  11 0.20698 0.17732   4
   2  10  11 -0.0733 0.15573   2
   2  10  11 -0.4031 0.43962   2
   2  10  11 0.17732 0.14777   4
   3 -10  11 0.23584 0.38961   1
   3 -10  11 -0.2205 0.85190   2
   3 -10  11 0.53121 0.50115   2
   3 -10  11 -0.0101 0.35075   2
   3 -10  11 0.94207 0.49109   2
   3  10  11 0.31178 0.49507   1
   3  10  11 -0.2201 0.41257   1
   3  10  11 0.08844 0.21622   4
   3  10  11 0.29338 0.19258   1
   3  10  11 0.20646 0.19660   4
   3  10  11 0.54096 0.22918   1
   4 -10  11 0.05997 0.26996   3
   4 -10  11 0.11993 0.16998   3
   4 -10  11 0.14992 0.28991   3
   4  10  11 -0.0282 0.08471   3
   4  10  11 0.46132 0.17886   3
   4  10  11 0.16941 0.14118   3
   5 -10  11 0.16864 0.32426   2
   5 -10  11 0.11672 0.31138   2
   5  10  11 0.06463 0.37518   1
   5  10  11 0.40728 0.13879   4
   5 -11 -11 -0.0760 0.69309   3
   5 -11 -11 0.24686 0.36439   1
   5  11 -11 0.85429 0.27491   4
   5  11 -11 0.00000 0.23937   1
   4 -11 -11 0.25804 0.17196   1
   4 -11 -11 0.11464 0.11464   1
   4 -11 -11 0.15289 0.44918   1
   4  11 -11 0.02027 0.25383   2
   4  11 -11 -0.0753 0.16001   1
   4  11 -11 0.62116 0.28236   1
   3 -11 -11 0.53897 0.85088   1
   3 -11 -11 0.55784 0.29315   1
   3 -11 -11 0.54835 1.25745   1
   3 -11 -11 -0.0189 0.34986   1
   3 -11 -11 0.29166 0.34201   2
   3  11 -11 0.56990 0.58777   1
   3  11 -11 -0.4987 0.89943   1
   3  11 -11 -0.2138 0.25824   1
   3  11 -11 0.18983 0.19986   3
   3  11 -11 0.29397 0.37229   3
   2 -11 -11 3.37840 0.58315   4
   2 -11 -11 3.86378 0.91024   1
   2 -11 -11 4.88058 1.83019   1
   2 -11 -11 2.89580 0.53293   4
   2 -11 -11 3.76694 0.64885   1
   2 -11 -11 5.73273 1.31694   1
   2 -11 -11 3.55393 0.48421   1
   2  11 -11 3.54043 0.41165   2
   2  11 -11 3.16157 1.36494   3
   2  11 -11 2.80025 0.63234   3
   2  11 -11 3.38010 0.52072   3
   2  11 -11 3.79654 0.52149   2
   2  11 -11 2.55934 0.39142   3
   2  11 -11 3.09130 0.91332   3
   2  11 -11 3.45802 0.47570   2
   1 -11 -11 10.6341 1.01785   2
   1 -11 -11 9.46601 1.06594   4
   1 -11 -11 11.7294 1.78368   2
   1  11 -11 9.47410 1.15785   3
   1  11 -11 9.47547 0.97655   4
   1  11 -11 9.47396 1.57565   1
   1  11 -11 12.6737 1.65272   2
   1  11 -11 9.67464 0.96559   2
   0  11 -11 1.05626 0.35545   4
   1 -11  11 2.14250 0.49991   4
   1  11  11 1.83177 0.36639   4
   1  11  11 1.38622 0.57427   4
   1  11  11 2.37645 0.42579   4
   1  11  11 2.54042 0.61644   2
   1  11  11 3.12885 0.43900   2
   2 -11  11 4.80814 0.88749   2
   2 -11  11 3.95648 0.59141   4
   2 -11  11 5.11053 1.39463   2
   2 -11  11 2.82460 1.09107   4
   2 -11  11 4.40521 0.77501   4
   2 -11  11 3.44670 0.67304   4
   2  11  11 4.56323 0.53511   4
   2  11  11 3.52732 0.77838   4
   2  11  11 4.23662 0.51233   4
   2  11  11 4.55199 0.52222   4
   2  11  11 4.05932 0.91635   4
   2  11  11 4.70937 0.59207   2
   3 -11  11 1.00063 0.43462   3
   3 -11  11 -0.1415 0.48511   3
   3 -11  11 0.94000 0.38403   3
   3 -11  11 0.75802 0.44476   3
   3  11  11 0.34684 0.19173   1
   3  11  11 0.16707 0.20639   4
   3  11  11 0.24422 0.22472   3
   3  11  11 0.02947 0.40283   4
   4 -11  11 0.63717 0.48065   3
   4 -11  11 0.36182 0.37316   1
   4 -11  11 0.65033 0.39020   3
   4  11  11 0.63628 0.18993   3
   4  11  11 0.78677 0.40278   3
   4  11  11 0.87115 0.28102   3
   5 -11  11 0.00988 0.02955   3
   5 -11  11 0.01967 0.02955   3
   5  11  11 -0.0368 0.03685   4
   5  11  11 0.00924 0.01838   4
   5 -12 -11 0.96382 0.49134   3
   5  12 -11 0.06248 0.29660   1
   5  12 -11 0.15613 0.35908   1
   4 -12 -11 3.72581 1.05083   1
   4 -12 -11 2.45401 0.44439   2
   4 -12 -11 4.53784 0.68784   1
   4  12 -11 2.57588 0.57125   2
   4  12 -11 2.72132 0.49853   2
   3 -12 -11 0.14075 0.10328   1
   3 -12 -11 0.00000 0.08445   1
   3 -12 -11 -0.2159 0.24402   1
   3 -12 -11 0.41302 0.53503   1
   3  12 -11 -0.0177 0.08872   1
   3  12 -11 0.03550 0.09762   1
   3  12 -11 0.04431 0.31046   1
   3  12 -11 -0.0532 0.05321   1
   3  12 -11 0.01771 0.12422   1
   2 -12 -11 0.01009 0.09050   4
   2 -12 -11 0.07663 0.05742   1
   2 -12 -11 0.01009 0.42244   4
   2 -12 -11 0.01911 0.22018   1
   2 -12 -11 0.01911 0.07663   1
   2 -12 -11 -0.0957 0.18187   1
   2 -12 -11 0.08613 0.10534   1
   2  12 -11 0.17278 0.08183   1
   2  12 -11 0.37284 0.22733   1
   2  12 -11 0.16366 0.16366   1
   1 -12 -11 0.94311 0.74097   2
   1 -12 -11 0.69290 0.28873   2
   1 -12 -11 0.70256 0.22135   2
   1 -12 -11 0.88538 0.43304   2
   1  12 -11 0.40701 0.25894   2
   1  12 -11 0.80464 0.24975   2
   1  12 -11 0.73998 0.35143   2
   1  12 -11 -0.0555 0.62893   2
   1  12 -11 0.36071 0.62893   2
   0  12 -11 10.2408 1.08812   3
   1 -12  11 0.01913 0.04787   2
   1  12  11 0.02777 0.02777   2
   1  12  11 0.00929 0.01848   2
   1  12  11 0.12038 0.07412   2
   1  12  11 0.05554 0.03706   2
   1  12  11 0.03706 0.05554   2
   2 -12  11 4.16983 0.73994   4
   2 -12  11 3.75511 0.73471   4
   2 -12  11 4.18009 0.71633   1
   2 -12  11 2.90823 0.55098   4
   2 -12  11 3.40823 1.36737   4
   2 -12  11 3.39800 1.45918   4
   2  12  11 2.12819 0.73895   4
   2  12  11 3.74405 0.50245   4
   2  12  11 3.64551 0.58131   4
   2  12  11 4.18073 0.49795   3
   2  12  11 3.76371 0.91635   4
   2  12  11 3.34991 0.47290   4
   3 -12  11 3.43345 0.74945   3
   3 -12  11 3.77786 0.70902   3
   3 -12  11 4.51726 0.82037   3
   3  12  11 3.33507 0.50075   4
   3  12  11 3.33563 0.48601   2
   3  12  11 3.85748 0.66418   1
   4 -12  11 0.76571 0.42286   1
   4 -12  11 1.28133 0.49050   3
   4 -12  11 1.18122 0.38035   3
   4  12  11 1.81666 0.41921   4
   4  12  11 1.00668 0.23235   4
   4  12  11 1.09000 0.24222   4
   5 -12  11 0.69517 0.34075   2
   5  12  11 0.77327 0.23935   3
   5 -13 -11 0.65808 0.33842   3
   5  13 -11 0.15699 0.14714   4
   5  13 -11 0.09813 0.09813   4
   4 -13 -11 5.65965 1.37690   2
   4 -13 -11 5.86215 0.69861   2
   4 -13 -11 7.50569 0.86786   1
   4 -13 -11 7.04138 1.32083   2
   4  13 -11 6.36764 0.87609   2
   3 -13 -11 1.86403 0.42873   1
   3 -13 -11 2.56303 0.86681   1
   3 -13 -11 2.06905 0.43808   1
   3  13 -11 1.07068 0.49032   3
   3  13 -11 1.76950 0.34103   4
   3  13 -11 1.13070 0.45027   3
   3  13 -11 3.61171 0.83412   1
   2 -13 -11 6.44396 2.15427   1
   2 -13 -11 5.53519 1.39806   4
   2 -13 -11 5.53400 1.40099   4
   2 -13 -11 4.69874 0.77469   4
   2 -13 -11 5.78261 0.67083   1
   2 -13 -11 5.52200 0.92033   4
   2 -13 -11 5.03078 0.73453   4
   2  13 -11 4.73850 0.65392   3
   2  13 -11 4.53728 1.16707   3
   2  13 -11 5.04034 1.51916   3
   2  13 -11 5.53379 0.72910   2
   2  13 -11 6.27355 0.70205   1
   2  13 -11 5.62549 0.62106   1
   1 -13 -11 2.69300 0.51563   2
   1 -13 -11 3.25643 0.67799   2
   1 -13 -11 1.51430 1.17330   4
   1 -13 -11 2.97951 0.52521   2
   1  13 -11 3.16633 0.58160   2
   1  13 -11 3.00938 0.44307   2
   1  13 -11 3.39708 0.96004   2
   1  13 -11 2.20609 1.02209   3
   1  13 -11 2.37815 0.46552   3
   0  13 -11 12.1359 1.26246   3
   1 -13  11 0.05750 0.12462   2
   1 -13  11 -0.0096 0.23011   2
   1  13  11 -0.0276 0.05510   2
   1  13  11 -0.0551 0.14698   2
   1  13  11 0.17453 0.10109   2
   1  13  11 0.07354 0.14698   2
   1  13  11 0.17453 0.09187   2
   2 -13  11 5.05327 0.92896   4
   2 -13  11 6.70014 0.93468   2
   2 -13  11 7.09361 1.52503   2
   2 -13  11 6.61879 1.09490   3
   2 -13  11 3.39943 1.62312   4
   2  13  11 6.63987 0.75267   1
   2  13  11 6.27684 1.07410   4
   2  13  11 6.61865 0.70311   3
   2  13  11 6.73848 1.08425   1
   3 -13  11 0.24261 0.49580   1
   3 -13  11 0.01058 0.59070   1
   3 -13  11 0.18981 0.45358   1
   3  13  11 1.41751 0.46339   1
   3  13  11 1.00863 0.27262   1
   3  13  11 0.19649 0.22595   3
   4 -13  11 0.73942 0.50844   1
   4 -13  11 0.54310 0.40436   1
   4  13  11 1.20428 0.38907   4
   4  13  11 0.76892 0.23169   2
   5  14 -11 -0.0098 0.07849   4
   4 -14 -11 -0.1804 0.38923   3
   4 -14 -11 -0.1614 0.17085   3
   4 -14 -11 0.31333 0.55066   3
   4  14 -11 0.24672 0.10861   1
   4  14 -11 0.27632 0.19741   1
   3 -14 -11 0.45406 0.20384   1
   3 -14 -11 0.19464 0.16675   1
   3 -14 -11 0.50964 0.34289   1
   3 -14 -11 -0.1853 0.45406   1
   3  14 -11 0.03003 0.11017   3
   3  14 -11 0.11610 0.16071   1
   3  14 -11 0.01004 0.12010   3
   2 -14 -11 3.17029 0.64407   4
   2 -14 -11 3.41176 0.65417   4
   2 -14 -11 4.07083 0.76939   4
   2 -14 -11 2.92871 2.13361   4
   2 -14 -11 3.37159 0.97620   4
   2  14 -11 3.86672 1.36941   3
   2  14 -11 4.68525 0.58903   1
   2  14 -11 4.32835 0.50873   1
   2  14 -11 3.47392 0.65450   3
   1 -14 -11 0.07522 0.10340   1
   1  14 -11 -0.0644 0.08272   1
   1  14 -11 0.11952 0.31262   1
   1  14 -11 0.07359 0.14709   1
   1  14 -11 0.27583 0.09194   1
   1  14 -11 -0.3402 0.34020   1
   0  14 -11 0.82686 0.33827   2
   0  14 -11 1.36249 0.82686   2
   1 -14  11 1.31870 0.63377   3
   1 -14  11 1.46950 1.02767   2
   1  14  11 2.07730 0.39007   1
   1  14  11 1.03033 0.30717   4
   1  14  11 2.25874 0.63502   1
   1  14  11 1.39037 0.62197   2
   1  14  11 1.38229 0.36181   4
   2 -14  11 0.11884 0.17826   2
   2 -14  11 0.00994 0.25755   2
   2 -14  11 -0.0891 0.12878   2
   2  14  11 0.02662 0.05323   1
   2  14  11 -0.1509 0.17751   1
   2  14  11 0.10647 0.07985   1
   3 -14  11 0.12779 0.46876   1
   3 -14  11 0.12779 0.54323   1
   3 -14  11 0.70919 0.59772   3
   3  14  11 0.41263 0.25544   2
   3  14  11 0.83790 0.44627   1
   3  14  11 0.55021 0.18665   2
   4 -14  11 1.36823 0.71332   1
   4 -14  11 1.16940 0.43273   1
   4  14  11 1.24375 0.25960   2
   4  14  11 2.31146 0.41439   4
   4 -15 -11 0.15399 0.20539   1
   4 -15 -11 0.30201 0.53804   3
   4  15 -11 -0.0296 0.17789   4
   4  15 -11 0.05764 0.10383   2
   3 -15 -11 0.36020 0.24014   1
   3 -15 -11 -0.1016 0.39717   1
   3 -15 -11 1.46851 0.44330   1
   3 -15 -11 0.09237 0.25857   1
   3  15 -11 0.06007 0.23034   3
   3  15 -11 0.32636 0.20851   1
   3  15 -11 0.25380 0.15413   1
   2 -15 -11 4.59042 1.08720   4
   2 -15 -11 3.85553 0.76509   4
   2 -15 -11 4.63945 0.64313   1
   2 -15 -11 4.64857 2.13137   1
   2 -15 -11 4.61686 0.90223   4
   2  15 -11 3.43591 1.47105   3
   2  15 -11 4.63301 0.66050   4
   2  15 -11 4.72341 0.65698   1
   2  15 -11 4.62929 0.59522   2
   1 -15 -11 2.65927 0.51709   1
   1  15 -11 2.66084 0.53763   1
   1  15 -11 2.11381 0.39693   4
   1  15 -11 1.17606 0.39538   3
   1  15 -11 1.08474 1.01376   3
   1  15 -11 1.26728 1.11515   3
   0  15 -11 0.85631 0.38735   3
   0  15 -11 1.24427 0.80462   1
   1 -15  11 0.84571 0.61503   1
   1 -15  11 0.37828 0.90985   3
   1  15  11 0.87566 0.33951   1
   1  15  11 1.17053 0.32167   1
   1  15  11 0.74813 0.62806   4
   2 -15  11 0.93955 0.36987   2
   2 -15  11 0.28986 0.57971   2
   2 -15  11 0.56979 0.50973   2
   2  15  11 0.22675 0.27599   3
   2  15  11 0.20707 0.22675   3
   3 -15  11 0.04309 0.23685   1
   3 -15  11 0.10128 0.26330   3
   3 -15  11 0.32405 0.21272   3
   3  15  11 0.08257 0.22939   1
   3  15  11 0.00000 0.07346   1
   3  15  11 0.06425 0.11009   1
   4 -15  11 0.13009 0.11011   3
   4 -15  11 -0.0701 0.16010   3
   4  15  11 0.02232 0.05585   1
   4  15  11 0.02232 0.13414   1
   4  15  11 0.01122 0.05585   1
   4 -16 -11 0.05626 0.16877   3
   4 -16 -11 -0.0657 0.06567   3
   4  16 -11 0.01972 0.06919   4
   4  16 -11 -0.0889 0.08891   4
   3 -16 -11 1.07231 0.76726   1
   3 -16 -11 0.51766 0.24960   1
   3 -16 -11 -0.1294 0.58238   1
   3  16 -11 0.29364 0.31396   2
   3  16 -11 0.40033 0.21413   1
   2 -16 -11 0.32650 0.19950   1
   2 -16 -11 0.20860 0.25391   1
   2 -16 -11 0.12700 0.38091   1
   2 -16 -11 0.21770 0.11790   1
   2  16 -11 0.01011 0.15115   3
   2  16 -11 0.24862 0.16872   1
   2  16 -11 0.01011 0.14114   3
   1 -16 -11 8.28100 0.92517   1
   1  16 -11 7.92046 0.96854   1
   1  16 -11 7.61942 0.89285   3
   1  16 -11 7.21112 1.65316   3
   0 -16  11 -0.0186 0.22355   1
   0  16  11 -0.0359 0.09882   1
   0  16 -11 0.20487 0.26073   1
   1 -16  11 11.0173 2.09510   3
   1 -16  11 12.2642 1.45131   3
  -1  16 -11 8.65649 1.83964   3
   1  16  11 10.7858 1.18958   4
   1  16  11 11.0932 1.57620   4
   1  16  11 12.6061 1.26952   4
   2 -16  11 3.36796 0.58179   1
   2 -16  11 2.17389 0.75520   1
   2 -16  11 3.56185 0.88788   1
   2  16  11 3.12624 0.58186   3
   2  16  11 3.72778 0.61144   3
   2  16  11 2.93888 0.40429   3
   2  16  11 3.33338 0.51281   3
   3 -16  11 0.06539 0.32706   1
   3 -16  11 0.73882 0.56675   3
   3 -16  11 0.14172 0.45784   1
   3  16  11 0.72802 0.17507   1
   3  16  11 0.71878 0.17507   1
   3  16  11 0.62662 0.32251   1
   4 -16  11 0.51728 0.46798   2
   4 -16  11 0.36952 0.35716   2
   4  16  11 0.91290 0.37656   3
   4  16  11 0.76045 0.21383   1
   4  16  11 0.91655 0.17708   4
   4 -17 -11 -0.1397 0.16764   3
   4 -17 -11 -0.0559 0.05588   3
   4  17 -11 0.03952 0.04932   4
   3 -17 -11 3.74194 1.11697   1
   3 -17 -11 2.79247 0.53986   1
   3 -17 -11 4.49589 0.79121   1
   3  17 -11 2.74622 0.43099   4
   3  17 -11 2.99920 0.52240   1
   2 -17 -11 0.02010 0.78546   4
   2 -17 -11 0.55672 0.40405   1
   2 -17 -11 0.09061 0.55385   4
   2  17 -11 0.60884 0.33132   1
   2  17 -11 0.48346 0.25965   1
   2  17 -11 0.53726 0.27761   1
   2  17 -11 0.51930 0.26863   1
   1 -17 -11 6.11899 0.78494   1
   1  17 -11 5.52773 0.79111   3
   1  17 -11 6.73524 0.85771   1
   1  17 -11 6.07151 0.68889   2
   0  17 -11 1.82131 0.40891   1
   0  17  11 1.37698 0.30015   1
   0  17 -11 0.19366 0.94805   3
   1 -17  11 15.3347 1.85268   4
   1  17  11 15.3239 1.56636   3
   1  17  11 15.3305 1.48127   3
   2 -17  11 2.74048 0.88275   2
   2 -17  11 4.17585 0.57037   4
   2 -17  11 3.28970 0.66200   4
   2  17  11 2.81231 0.40844   3
   2  17  11 2.81800 0.56178   2
   2  17  11 3.01895 0.58634   1
   3 -17  11 0.04437 0.32146   1
   3 -17  11 0.98066 0.59651   3
   3 -17  11 0.33259 0.45445   1
   3  17  11 1.21220 0.44997   1
   3  17  11 0.82643 0.22043   1
   4 -17  11 0.07996 0.11983   3
   4 -17  11 0.00000 0.08614   1
   4  17  11 0.13544 0.09939   4
   4  17  11 0.03383 0.04514   4
   4 -18 -11 -0.2960 0.32370   3
   4 -18 -11 0.26822 0.13870   3
   4  18 -11 0.13341 0.18340   1
   3 -18 -11 0.29273 0.27258   4
   3 -18 -11 0.41383 0.28260   4
   3 -18 -11 0.35328 0.70667   4
   3  18 -11 0.63361 0.22772   1
   3  18 -11 0.30671 0.21913   2
   2 -18 -11 0.58971 0.50035   1
   2 -18 -11 0.23165 0.32227   4
   2  18 -11 0.60253 0.31949   1
   2  18 -11 0.39301 0.28212   3
   2  18 -11 0.29223 0.28212   3
   2  18 -11 0.48231 0.27003   4
   1 -18 -11 3.40536 0.58077   1
   1  18 -11 3.11763 0.45317   1
   1  18 -11 4.44076 0.63444   1
   1  18 -11 1.98475 0.44408   1
   0  18 -11 1.36849 0.37240   1
   0  18  11 1.13976 0.35668   1
   1  18  11 0.13892 0.25794   3
   1  18  11 0.23284 0.23284   1
   2 -18  11 3.84556 0.82403   4
   2 -18  11 3.10585 0.82616   2
   2 -18  11 4.48652 0.57994   4
   2  18  11 3.87019 0.57302   1
   2  18  11 4.51369 0.52014   1
   3 -18  11 1.80055 0.49300   3
   3 -18  11 1.41031 0.44356   2
   3 -18  11 2.24148 0.53515   3
   3  18  11 1.77722 0.25914   4
   3  18  11 1.91501 0.47418   4
   3 -19 -11 2.01221 0.38514   3
   3 -19 -11 1.21957 0.75205   1
   3 -19 -11 2.17514 0.38108   3
   3 -19 -11 2.18446 0.72505   3
   3  19 -11 2.14648 0.32794   4
   2 -19 -11 1.18261 0.23293   1
   2 -19 -11 1.29008 0.63605   1
   2 -19 -11 2.20390 0.60918   1
   2  19 -11 1.01123 0.26459   1
   2  19 -11 0.72695 0.32763   2
   2  19 -11 1.13410 0.33076   1
   1 -19 -11 0.20952 0.23570   1
   1  19 -11 0.10133 0.29384   3
   1  19 -11 0.04055 0.13172   3
   1  19 -11 0.22043 0.19289   1
   0 -19 -11 3.61244 0.62075   1
   0  19  11 3.73316 0.58625   1
   0  19 -11 4.53402 0.61958   1
   1 -19  11 -0.0393 0.26514   1
   1 -19  11 0.43208 0.36333   1
   1  19  11 0.08930 0.21832   3
   1  19  11 0.22391 0.22391   1
   2 -19  11 0.87363 0.27430   4
   2 -19  11 1.07681 0.51802   4
   2 -19  11 0.64218 0.47095   2
   2  19  11 0.57477 0.35677   2
   2  19  11 0.78939 0.33043   4
   2  19  11 0.78959 0.22687   4
   3 -19  11 0.08213 0.26980   2
   3 -19  11 0.12908 0.34016   2
   3  19  11 0.02113 0.13762   1
   3  19  11 0.19875 0.35573   4
   3 -20 -11 0.23046 0.36882   3
   3 -20 -11 0.19902 0.32481   1
   3 -20 -11 0.09426 0.22004   1
   3  20 -11 0.19211 0.16654   1
   3  20 -11 0.39705 0.17861   4
   2 -20 -11 0.89013 0.19078   1
   2 -20 -11 1.28071 0.55403   1
   2 -20 -11 1.28071 0.54501   1
   2  20 -11 1.05511 0.25638   1
   2  20 -11 0.74947 0.23670   1
   2  20 -11 0.43790 0.29904   2
   2  20 -11 0.50209 0.33119   2
   1 -20 -11 0.91715 0.34941   1
   1  20 -11 1.53706 0.29237   1
   1  20 -11 1.32017 0.43378   1
   1  20 -11 0.65067 0.27345   1
   0 -20 -11 2.58484 0.44803   1
   0  20 -11 1.74823 0.38621   3
   0  20  11 2.57629 0.46523   1
   1 -20  11 1.47603 0.46772   2
   1 -20  11 1.32005 0.55092   2
   1  20  11 2.07489 0.38718   4
   1  20  11 2.07322 0.41646   1
   2 -20  11 2.05897 0.35231   2
   2 -20  11 2.08967 0.58971   4
   2 -20  11 2.30145 0.89217   4
   2 -20  11 2.27094 0.50695   4
   2  20  11 2.57727 0.42807   1
   2  20  11 2.44984 0.38248   1
   2  20  11 2.05015 0.39003   2
   3 -20  11 0.58384 0.43791   2
   3 -20  11 0.34054 0.45012   2
   3  20  11 0.97900 0.17063   4
   3  20  11 0.77358 0.30017   1
   3 -21 -11 0.07676 0.21929   1
   3  21 -11 0.13697 0.18263   1
   3  21 -11 0.24355 0.18263   1
   2 -21 -11 9.21171 1.15027   2
   2 -21 -11 9.38265 1.35388   3
   2  21 -11 9.41101 0.95700   4
   2  21 -11 9.38559 0.94675   4
   1 -21 -11 0.64617 0.29210   1
   1 -21 -11 0.35129 0.64238   2
   1  21 -11 0.36837 0.17896   2
   1  21 -11 0.48279 0.38426   1
   1  21 -11 0.47291 0.20696   1
   0 -21 -11 4.11511 0.63920   2
   0  21 -11 4.79607 0.65689   2
   0  21  11 4.65442 0.64922   2
   1 -21  11 0.64723 0.37424   1
   1  21  11 0.42826 0.35853   2
  -1  21 -11 0.42873 0.28941   2
   1  21  11 0.67687 0.23155   1
   2 -21  11 0.03418 0.52425   2
   2 -21  11 0.26212 0.42171   2
   2 -21  11 0.21651 0.31905   2
   2 -21  11 0.20508 0.14815   2
   2  21  11 0.37059 0.21699   4
   2  21  11 0.17318 0.26483   2
   2  21  11 0.32164 0.25729   4
   3 -21  11 0.03807 0.16502   2
   3  21  11 0.08910 0.16544   4
   3  21  11 -0.0267 0.06238   4
   2 -22 -11 0.44750 0.29222   3
   2 -22 -11 0.28492 0.54038   1
   2  22 -11 0.62855 0.24938   4
   2  22 -11 0.25657 0.21981   1
   1 -22 -11 0.06373 0.07286   1
   1 -22 -11 0.08189 0.05459   1
   0 -22 -11 0.70022 0.26934   1
   0 -22  11 0.80547 0.36244   1
   0  22 -11 0.65439 0.33225   1
   0  22  11 0.70022 0.28726   1
   1 -22  11 7.67427 0.85965   4
   1  22  11 7.18312 0.80376   2
   1  22  11 8.02440 0.86138   4
   2 -22  11 0.19006 0.58211   2
   2  22  11 0.94076 0.22455   1
   2  22  11 0.51311 0.27795   1
   2  22  11 1.05840 0.31001   1
   2 -23 -11 -0.0181 0.09047   3
   2 -23 -11 0.05426 0.10853   3
   2  23 -11 -0.0199 0.03984   4
   1 -23 -11 2.03220 0.36292   4
   1 -23 -11 2.31350 0.60791   4
   1  23 -11 1.94481 0.34088   4
  -1  23  11 1.81236 0.41018   3
   1  23 -11 2.28558 0.48115   4
   0 -23 -11 1.91864 0.42540   4
   0 -23  11 2.02478 0.47348   4
   0  23  11 1.40219 0.29254   2
   1 -23  11 3.57179 0.49439   4
   1  23  11 2.91230 0.58870   1
   1  23  11 3.02583 0.46470   1
   2 -23  11 0.60565 0.34074   4
   2  23  11 0.50730 0.31405   1
   1 -24 -11 0.18336 0.33438   1
   1  24 -11 0.39990 0.19995   4
   1  24 -11 0.21349 0.17583   4
  -1  24  11 0.31439 0.14372   4
   0 -24 -11 1.78717 0.32746   2
   0 -24  11 1.79846 0.37209   4
   1  24  11 0.63716 0.24587   1
  -1  24 -11 0.37238 0.26972   1
   1  24  11 0.86309 0.23135   4
   1  25 -11 3.42661 0.44333   4
   0 -25  11 0.35035 0.16016   4
   0 -25 -11 0.18636 0.12424   4
   4   0 -12 0.22488 0.10309   1
   2   0 -12 5.93645 1.12570   2
   2   0 -12 6.39836 1.42401   2
   2   0 -12 6.19626 0.76977   2
   2   0 -12 6.96603 0.69275   2
   2   0 -12 7.25459 1.02948   2
   0   0 -12 22.2600 2.09203   1
   0   0  12 19.9385 1.77140   3
   0   0 -12 21.8647 1.72563   1
   0   0 -12 20.7089 2.20188   4
   0   0 -12 19.8077 2.01300   3
   0   0 -12 20.6897 2.19893   3
   0   0  12 20.6880 1.75290   3
   0   0  12 16.1039 2.06327   3
   0   0  12 19.6568 2.00290   3
   2   0  12 -0.0562 0.28119   1
   2   0  12 0.29989 0.30930   1
   2   0  12 0.14054 0.18746   1
   2   0  12 0.15935 0.10313   1
   2   0  12 0.05000 0.18012   4
   2   0  12 0.07008 0.14016   4
   4   0  12 0.84305 0.60366   1
   5  -1 -12 1.10334 0.47846   4
   5   1 -12 0.29286 0.43385   2
   4  -1 -12 4.68144 0.42300   1
   4  -1 -12 4.39941 0.89305   1
   4  -1 -12 7.21952 0.95886   1
   4   1 -12 5.53567 0.90546   1
   4   1 -12 3.29026 0.42745   3
   3  -1 -12 1.49091 0.48738   2
   3  -1 -12 0.38892 0.59839   1
   3   1 -12 1.92342 0.54952   2
   3   1 -12 2.54878 1.22231   2
   3   1 -12 1.23172 0.53061   2
   2  -1 -12 0.11588 0.16423   2
   2  -1 -12 0.01928 0.07732   2
   2  -1 -12 0.17382 0.25114   2
   2  -1 -12 0.02897 0.05794   2
   2   1 -12 0.02873 0.05746   2
   2   1 -12 0.11492 0.08619   2
   2   1 -12 0.09580 0.12453   2
   2   1 -12 0.15327 0.23946   2
   2   1 -12 -0.0671 0.11492   2
   1  -1 -12 1.42871 0.29360   1
   1  -1 -12 1.29178 0.64589   1
   1  -1 -12 0.97442 0.73339   4
   1   1 -12 1.66361 0.30163   2
   1   1 -12 1.26468 0.65186   2
   1   1 -12 1.67326 0.71987   2
   0  -1 -12 19.6827 2.20599   3
   0  -1  12 16.9171 1.60105   3
   0  -1 -12 19.5819 2.02473   3
   0  -1  12 18.0450 1.61115   3
   0  -1  12 18.1759 1.90316   3
   0  -1 -12 20.7726 1.62862   3
   0   1 -12 19.9683 1.63125   3
   0   1 -12 18.7297 2.13477   3
   0   1  12 16.7514 1.83326   3
   0   1 -12 20.7782 2.08666   3
   0   1  12 18.7962 1.62178   3
   0   1 -12 19.0922 2.21537   3
   0   1  12 19.2596 1.62178   3
   0   1  12 13.6792 1.94410   3
   1  -1  12 0.12277 0.15109   1
   1  -1  12 0.26439 0.13224   1
   1  -1  12 0.05665 0.05665   1
   1   1  12 0.47386 0.08526   1
   1   1  12 0.19905 0.15161   1
   1   1  12 0.12319 0.12319   1
   2  -1  12 0.36593 0.36593   1
   2  -1  12 0.00000 0.22523   1
   2  -1  12 0.26268 0.17826   1
   2  -1  12 0.05010 0.39116   4
   2  -1  12 0.10031 0.13039   4
   2  -1  12 -0.0469 0.20640   1
   2  -1  12 0.22523 0.36593   1
   2   1  12 -0.1499 0.33721   1
   2   1  12 -0.0468 0.20605   1
   2   1  12 0.40280 0.24354   1
   2   1  12 0.14978 0.16982   4
   2   1  12 0.13987 0.14978   4
   2   1  12 0.05991 0.29967   4
   2   1  12 0.01002 0.20980   4
   3  -1  12 0.18974 0.16980   4
   3  -1  12 0.01993 0.20978   4
   3  -1  12 0.43111 0.25871   2
   3  -1  12 0.23973 0.28962   4
   3  -1  12 0.48858 0.52692   2
   3  -1  12 0.01993 0.61920   4
   3   1  12 0.34180 0.52218   2
   3   1  12 0.81655 0.35133   2
   3   1  12 0.50323 0.21838   2
   3   1  12 0.42723 0.17085   2
   4  -1  12 2.38537 0.64789   3
   4  -1  12 3.55344 0.89326   3
   4   1  12 2.76993 0.40962   3
   4   1  12 4.73040 0.89732   3
   5  -1  12 0.39633 0.39633   3
   5   1  12 0.26177 0.41647   1
   5   2 -12 1.11766 0.44116   1
   4  -2 -12 1.07623 0.21920   2
   4  -2 -12 2.32917 0.62240   1
   4  -2 -12 1.47486 0.60783   2
   4   2 -12 2.53003 0.56736   1
   3  -2 -12 0.40300 0.12474   2
   3   2 -12 0.16975 0.16039   2
   3   2 -12 -0.0566 0.19814   2
   3   2 -12 0.00946 0.26409   2
   3   2 -12 0.00000 0.12334   1
   3   2 -12 0.02829 0.04712   2
   2  -2 -12 -0.0097 0.11628   2
   2  -2 -12 0.28107 0.35866   2
   2  -2 -12 0.01006 0.11036   1
   2  -2 -12 -0.1260 0.12600   2
   2  -2 -12 0.06016 0.19054   1
   2  -2 -12 -0.1163 0.54280   2
   2   2 -12 0.93439 0.50536   2
   2   2 -12 0.50536 0.24790   2
   2   2 -12 0.20027 0.31465   2
   2   2 -12 0.22886 0.12395   2
   2   2 -12 0.22886 0.32422   2
   2   2 -12 0.23833 0.12395   2
   1  -2 -12 2.05186 0.67393   4
   1  -2 -12 2.37369 0.38216   4
   1  -2 -12 2.59011 0.89279   1
   1   2 -12 2.96725 0.82425   2
   1   2 -12 2.39047 0.37166   4
   1   2 -12 2.78302 0.77581   2
   0  -2 -12 0.02908 0.03880   1
   0  -2  12 -0.0096 0.11512   1
   0  -2 -12 0.02908 0.13576   1
   0  -2  12 0.06719 0.09597   1
   0  -2 -12 -0.0194 0.11631   1
   0   2  12 0.12603 0.10668   1
   0   2 -12 0.06719 0.11512   1
   0   2  12 0.04843 0.08723   1
   0   2 -12 0.01915 0.03841   1
   0   2  12 0.00000 0.02908   1
   0   2  12 0.04843 0.05815   1
   0   2 -12 0.00963 0.11512   1
   1  -2  12 0.37738 0.16976   1
   1  -2  12 0.60373 0.29250   1
   1  -2  12 0.71700 0.39621   1
   1   2  12 0.40833 0.31337   1
   1   2  12 0.51272 0.36080   1
   1   2  12 0.21104 0.15067   3
   2  -2  12 2.43223 0.44227   4
   2  -2  12 2.61701 0.43134   4
   2  -2  12 2.83900 0.75209   1
   2  -2  12 2.18101 0.78393   4
   2  -2  12 2.06033 0.48239   4
   2  -2  12 2.62013 0.52987   2
   2  -2  12 2.82014 0.66741   1
   2   2  12 3.33395 0.47758   1
   2   2  12 3.28717 0.53385   1
   2   2  12 3.24969 0.51506   1
   2   2  12 4.56078 0.73046   1
   2   2  12 3.73666 0.44019   1
   2   2  12 4.08320 0.70237   1
   3  -2  12 2.06950 0.42358   2
   3  -2  12 2.00211 0.38505   2
   3  -2  12 2.07916 0.51018   2
   3  -2  12 1.51122 0.62049   4
   3  -2  12 1.83855 0.33687   2
   3  -2  12 2.64708 0.59679   2
   3  -2  12 1.75184 0.33687   2
   3  -2  12 2.15611 0.49087   2
   3   2  12 2.13638 0.42536   2
   3   2  12 1.94730 0.31196   2
   3   2  12 2.43885 0.42536   2
   3   2  12 2.29709 0.55773   2
   3   2  12 1.51637 0.33587   4
   4  -2  12 3.36705 0.55135   3
   4  -2  12 4.25318 0.78767   3
   4  -2  12 4.97193 0.87625   3
   4   2  12 7.09531 1.09827   3
   4   2  12 4.27656 0.66091   3
   5  -2  12 0.26489 0.50575   1
   5   2  12 0.78459 0.35405   3
   5   3 -12 4.61320 0.76558   4
   4  -3 -12 2.73302 0.32157   1
   4  -3 -12 3.06398 0.65252   1
   4  -3 -12 2.23180 0.58631   1
   4   3 -12 1.42760 1.09388   1
   3  -3 -12 1.32907 0.57788   2
   3  -3 -12 1.10756 0.27928   2
   3  -3 -12 0.58931 1.41838   1
   3  -3 -12 2.12836 0.51045   2
   3  -3 -12 1.29052 0.23117   2
   3  -3 -12 1.50238 0.29860   2
   3  -3 -12 0.95892 0.50936   1
   3   3 -12 1.55926 0.63872   2
   3   3 -12 1.71896 0.82660   2
   3   3 -12 1.09899 1.05207   2
   3   3 -12 1.06140 0.27239   2
   3   3 -12 1.49349 0.51661   2
   3   3 -12 1.09899 0.24422   2
   2  -3 -12 1.16643 0.60267   2
   2  -3 -12 0.49154 0.20064   1
   2  -3 -12 0.46145 0.33105   1
   2  -3 -12 0.04015 0.22066   1
   2  -3 -12 0.50160 0.63201   1
   2  -3 -12 0.80684 0.98176   2
   2   3 -12 0.59619 0.26393   1
   2   3 -12 1.01505 0.57866   2
   2   3 -12 0.40058 0.52071   1
   2   3 -12 0.45060 0.19024   1
   2   3 -12 0.72102 0.74947   2
   2   3 -12 0.59619 0.26393   1
   2   3 -12 0.79685 0.38891   2
   2   3 -12 0.47069 0.18020   1
   1  -3 -12 3.74627 0.48181   1
   1  -3 -12 4.05114 1.08158   1
   1  -3 -12 3.34249 0.81547   4
   1   3 -12 3.59616 0.88939   3
   1   3 -12 4.11440 0.81125   2
   1   3 -12 3.71836 0.46356   2
   0  -3 -12 0.23197 0.18149   3
   0  -3 -12 0.14123 0.54457   3
   0  -3 -12 0.25210 0.50431   3
   0  -3  12 0.24240 0.44439   4
   0   3  12 -0.1166 0.33061   1
   0   3 -12 -0.0096 0.17239   1
   0   3 -12 0.56521 0.43107   1
   0   3  12 -0.0681 0.33061   1
   0   3  12 0.56388 0.27219   1
   0   3  12 0.29247 0.15124   3
   0   3 -12 -0.2587 0.45980   1
   1  -3  12 0.08084 0.13129   3
   1  -3  12 0.05045 0.21213   3
   1  -3  12 -0.0943 0.27346   1
   1   3  12 -0.0475 0.08561   1
   1   3  12 0.01007 0.26098   3
   1   3  12 -0.0190 0.16177   1
   2  -3  12 0.22154 0.33236   4
   2  -3  12 0.98030 0.47134   1
   2  -3  12 0.36257 0.46329   4
   2  -3  12 0.35246 0.32226   4
   2  -3  12 0.51842 0.57496   1
   2  -3  12 0.33236 0.26185   4
   2  -3  12 0.56560 0.46188   1
   2  -3  12 0.55615 0.21681   1
   2   3  12 0.62746 0.39329   1
   2   3  12 0.29834 0.24857   4
   2   3  12 0.22872 0.26852   4
   2   3  12 0.36797 0.35799   4
   2   3  12 0.11930 0.30832   4
   2   3  12 0.28837 0.20887   4
   2   3  12 0.39779 0.16907   4
   3  -3  12 -0.1257 0.31920   2
   3  -3  12 0.06772 0.18376   2
   3  -3  12 -0.2032 0.31920   2
   3  -3  12 0.13544 0.24177   2
   3  -3  12 0.08703 0.13544   2
   3  -3  12 0.33850 0.39652   2
   3  -3  12 0.07742 0.08703   2
   3  -3  12 0.05802 0.22247   2
   3  -3  12 -0.0193 0.15475   2
   3   3  12 0.13181 0.10358   2
   3   3  12 0.15059 0.14115   2
   3   3  12 0.53657 0.32942   2
   3   3  12 0.23529 0.17882   2
   3   3  12 0.32942 0.23529   2
   3   3  12 0.40477 0.29184   2
   4  -3  12 -0.5825 0.73055   3
   4  -3  12 0.64013 0.30936   1
   4   3  12 1.66565 0.70698   3
   5  -3  12 2.77300 0.69028   1
   5   3  12 3.21285 0.60846   3
   5   4 -12 4.58824 0.83512   4
   4  -4 -12 0.21805 0.11373   1
   4  -4 -12 0.30335 0.34129   1
   4   4 -12 0.20333 0.13861   1
   4   4 -12 0.41593 0.33276   1
   4   4 -12 0.77641 0.70252   1
   4   4 -12 -0.0277 0.24959   1
   3  -4 -12 0.63705 0.18337   1
   3  -4 -12 0.40983 0.46990   2
   3  -4 -12 0.95557 0.25095   1
   3  -4 -12 0.87831 0.59842   1
   3  -4 -12 1.79525 0.47294   1
   3  -4 -12 1.31263 0.61768   1
   3  -4 -12 1.08104 0.27989   1
   3   4 -12 0.77662 0.58948   2
   3   4 -12 0.79530 0.44908   2
   3   4 -12 1.05724 0.55204   2
   3   4 -12 0.57768 0.21910   3
   3   4 -12 0.42831 0.25897   3
   3   4 -12 0.50794 1.04586   3
   2  -4 -12 0.18508 0.12665   2
   2  -4 -12 0.22408 0.31173   2
   2  -4 -12 0.25329 0.14609   2
   2  -4 -12 0.13642 0.30206   2
   2  -4 -12 0.87676 0.67223   2
   2   4 -12 0.16045 0.32090   2
   2   4 -12 0.01998 0.14021   1
   2   4 -12 0.01004 0.08015   1
   2   4 -12 0.14151 0.22652   2
   2   4 -12 0.59456 0.49071   2
   2   4 -12 0.43411 0.36803   2
   2   4 -12 0.12268 0.13215   2
   2   4 -12 0.01998 0.17023   1
   1  -4 -12 7.51176 1.13219   1
   1  -4 -12 9.17553 1.53579   1
   1  -4 -12 6.97020 0.70884   1
   1   4 -12 6.18382 0.69380   1
   1   4 -12 6.51564 1.12618   1
   1   4 -12 5.92239 1.19658   1
   0  -4 -12 0.20474 0.14617   1
   0  -4  12 -0.1722 0.47842   1
   0  -4 -12 0.21442 0.49708   1
   0  -4 -12 0.39960 0.49708   1
   0   4 -12 0.05051 0.36400   4
   0   4 -12 0.06065 0.43479   4
   0   4 -12 0.07079 0.15162   4
   1  -4  12 0.18867 0.22643   1
   1  -4  12 0.25472 0.33013   1
   1  -4  12 0.37735 0.15092   1
   1   4  12 0.24779 0.25735   1
   1   4  12 0.09020 0.29071   3
   1   4  12 0.15248 0.10487   1
   2  -4  12 0.64330 0.33109   1
   2  -4  12 0.05041 0.46424   4
   2  -4  12 0.71903 0.64330   1
   2  -4  12 0.66228 0.50143   1
   2  -4  12 0.80415 0.35947   1
   2  -4  12 0.90826 0.28384   1
   2  -4  12 0.88927 0.35947   1
   2  -4  12 0.45412 0.21198   4
   2   4  12 0.82390 0.49624   1
   2   4  12 1.04864 0.28090   1
   2   4  12 0.80522 0.38382   1
   2   4  12 0.73027 0.16848   1
   2   4  12 0.45635 0.20837   4
   2   4  12 0.47615 0.34719   4
   3  -4  12 0.10050 0.31158   1
   3  -4  12 0.12056 0.59292   1
   3  -4  12 0.03014 0.29142   1
   3  -4  12 0.61248 0.34022   2
   3  -4  12 -0.2625 0.57357   2
   3  -4  12 0.09042 0.65320   1
   3  -4  12 -0.0486 0.36938   2
   3   4  12 0.13856 0.21766   4
   3   4  12 0.46511 0.30680   4
   3   4  12 0.22759 0.18799   4
   3   4  12 0.08903 0.54421   4
   4  -4  12 0.32305 0.49532   1
   4  -4  12 0.56426 0.45534   3
   4  -4  12 0.36615 0.29076   1
   4  -4  12 0.16147 0.54911   1
   4   4  12 0.98404 0.62706   3
   5  -4  12 1.27735 0.32178   3
   5  -4  12 0.53734 0.51284   1
   5   4  12 0.65787 0.38275   1
   5   5 -12 6.72613 0.95382   4
   4  -5 -12 1.23019 0.26004   2
   4  -5 -12 2.43231 0.62709   1
   4   5 -12 1.14199 0.81428   3
   4   5 -12 1.23134 0.47662   3
   4   5 -12 0.83410 0.16883   3
   4   5 -12 4.07741 1.29146   1
   4   5 -12 0.66537 0.30789   3
   3  -5 -12 2.87472 0.38264   2
   3  -5 -12 3.70529 0.84911   1
   3   5 -12 2.88096 0.76575   3
   3   5 -12 2.71110 0.48839   3
   3   5 -12 2.80078 0.58807   3
   3   5 -12 2.18282 1.24592   3
   3   5 -12 2.41207 0.66785   3
   3   5 -12 2.47185 0.41861   3
   2  -5 -12 2.58560 0.99523   2
   2   5 -12 0.49751 0.23463   2
   2   5 -12 -0.6195 0.61953   2
   2   5 -12 -0.2722 0.43179   2
   2   5 -12 0.08015 0.20026   1
   2   5 -12 0.82600 0.56322   2
   2   5 -12 0.45052 0.14076   2
   2   5 -12 0.09009 0.20026   1
   2   5 -12 0.45052 0.55381   2
   2   5 -12 0.37548 0.24404   2
   1  -5 -12 1.07324 0.23634   2
   1  -5 -12 0.51198 0.80738   2
   1  -5 -12 0.95502 0.54151   2
   1   5 -12 0.88953 0.56430   2
   1   5 -12 0.35208 0.64381   1
   1   5 -12 0.75560 0.21998   2
   0  -5 -12 1.78741 0.62506   1
   0   5 -12 1.38664 0.65789   4
   0   5 -12 1.14369 0.25300   4
   1  -5  12 5.17509 0.96327   1
   1  -5  12 4.67239 0.71958   4
   1  -5  12 4.98596 0.56522   3
   1   5  12 5.40064 0.85871   1
   1   5  12 4.97977 0.79600   3
   1   5  12 4.98367 0.53325   2
   2  -5  12 0.41823 0.28514   1
   2  -5  12 0.39916 0.34215   1
   2  -5  12 -0.0095 0.47523   1
   2  -5  12 -0.0950 0.38962   1
   2  -5  12 -0.0475 0.13309   1
   2  -5  12 -0.0095 0.19963   1
   2  -5  12 0.54178 0.36112   1
   2  -5  12 0.27561 0.29467   1
   2   5  12 -0.2058 0.24329   1
   2   5  12 0.02970 0.13866   4
   2   5  12 0.04946 0.19806   4
   2   5  12 0.11880 0.15843   4
   2   5  12 0.13866 0.11880   4
   2   5  12 -0.0094 0.34625   1
   2   5  12 0.00993 0.36643   4
   3  -5  12 0.17126 0.32231   1
   3  -5  12 0.96763 0.62547   2
   3  -5  12 -0.1759 0.56685   2
   3  -5  12 0.53754 0.28342   2
   3  -5  12 0.31274 0.66459   2
   3  -5  12 0.71351 0.43979   2
   3  -5  12 0.08063 0.29210   1
   3  -5  12 1.20213 0.54734   2
   3   5  12 0.76585 0.51366   2
   3   5  12 1.16746 0.43899   2
   3   5  12 2.31619 0.70983   2
   4  -5  12 -0.1985 0.27778   3
   4  -5  12 -0.3076 0.41673   3
   4  -5  12 0.11964 0.42401   1
   4   5  12 0.40355 0.35555   3
   4   5  12 0.44201 0.28828   3
   5  -5  12 0.43012 0.34207   3
   5  -5  12 -0.0684 0.22481   3
   5   5  12 0.16890 0.42213   1
   5  -6 -12 0.14180 0.50176   1
   5   6 -12 1.45634 0.47228   4
   4  -6 -12 1.81838 0.48548   1
   4  -6 -12 1.61841 0.30462   1
   4   6 -12 2.74741 0.76525   1
   4   6 -12 1.07571 0.33317   3
   4   6 -12 1.89921 0.58085   1
   4   6 -12 1.07952 0.17990   4
   3  -6 -12 3.28575 0.68410   1
   3  -6 -12 3.49771 0.83825   1
   3  -6 -12 4.27817 0.52027   1
   3  -6 -12 2.54393 0.39060   2
   3  -6 -12 5.96444 1.96569   1
   3  -6 -12 4.53835 0.73233   1
   3   6 -12 2.43394 0.78807   3
   3   6 -12 2.93115 0.98935   1
   3   6 -12 2.33418 0.69832   3
   3   6 -12 6.33393 1.46098   1
   3   6 -12 2.89940 0.50017   4
   3   6 -12 2.54371 0.58855   3
   3   6 -12 3.03289 0.38834   1
   3   6 -12 2.89975 0.38728   4
   2  -6 -12 1.77695 0.48821   2
   2  -6 -12 2.56789 0.56627   2
   2  -6 -12 2.12845 0.33201   2
   2  -6 -12 2.15773 0.56627   2
   2  -6 -12 2.24568 0.33201   2
   2  -6 -12 1.69890 0.27334   2
   2  -6 -12 1.28884 0.69319   2
   1  -6 -12 4.22985 1.02303   2
   1  -6 -12 4.17085 1.26902   2
   1   6 -12 5.91686 1.06544   2
   1   6 -12 5.00361 1.01782   2
   1   6 -12 5.20342 0.56125   2
   0  -6 -12 0.09780 0.09780   1
   0   6 -12 0.05731 0.09555   1
   0   6 -12 -0.2388 0.29624   1
   1  -6  12 -0.0284 0.22710   1
   1  -6  12 0.08125 0.13195   4
   1  -6  12 0.12176 0.39584   4
   1   6  12 0.20997 0.11451   1
   1   6  12 0.05990 0.28957   4
   1   6  12 0.42004 0.27680   1
   2  -6  12 0.41536 0.40530   4
   2  -6  12 0.20265 0.29381   4
   2  -6  12 1.08939 0.45866   1
   2  -6  12 0.65939 0.25804   1
   2  -6  12 0.62114 0.69763   1
   2  -6  12 0.27359 0.33436   4
   2  -6  12 0.05061 0.49646   4
   2  -6  12 0.51669 0.62818   4
   2   6  12 0.57945 0.23362   2
   2   6  12 -0.0374 0.37386   2
   2   6  12 0.59810 0.21496   2
   2   6  12 0.27688 0.20774   4
   2   6  12 0.57945 0.34583   2
   2   6  12 0.63551 0.52339   2
   3  -6  12 1.65151 0.52102   2
   3  -6  12 1.96605 0.59960   2
   3  -6  12 1.32347 0.40414   1
   3  -6  12 0.70724 0.77787   1
   3  -6  12 -0.2654 0.67829   2
   3  -6  12 1.36634 0.42271   2
   3  -6  12 0.13133 0.83857   1
   3   6  12 1.54523 0.52130   2
   3   6  12 1.89902 0.28862   2
   3   6  12 1.28289 0.66125   4
   3   6  12 1.31249 0.29608   4
   3   6  12 0.00990 0.53285   4
   3   6  12 1.70350 0.63297   2
   4  -6  12 1.23309 0.36797   3
   4  -6  12 0.90046 0.62597   1
   4  -6  12 1.76016 0.60657   3
   4   6  12 1.12906 0.41145   3
   4   6  12 1.27255 0.61233   3
   5  -6  12 -0.1959 0.29389   3
   5   6  12 0.24638 0.42851   3
   5  -7 -12 0.00966 0.13480   4
   5   7 -12 -0.0196 0.10833   4
   5   7 -12 -0.0099 0.03940   4
   4  -7 -12 4.34977 0.72498   1
   4  -7 -12 3.65340 0.51505   1
   4   7 -12 4.43201 0.39705   1
   4   7 -12 3.41637 0.60016   1
   4   7 -12 4.87528 0.88644   1
   3  -7 -12 2.66222 1.73963   1
   3  -7 -12 0.81195 0.26063   2
   3  -7 -12 1.67234 0.95152   1
   3  -7 -12 1.10528 0.84576   1
   3  -7 -12 2.12399 0.50940   1
   3  -7 -12 1.85493 0.38446   1
   3   7 -12 1.09210 0.33037   1
   3   7 -12 0.82877 0.25960   3
   3   7 -12 1.57841 0.94518   1
   3   7 -12 0.97489 0.48740   3
   3   7 -12 1.12873 0.23860   1
   3   7 -12 0.80873 0.49926   3
   3   7 -12 0.82877 0.18969   3
   3   7 -12 0.67893 0.63897   3
   3   7 -12 1.72532 1.09210   1
   2  -7 -12 2.10856 0.39050   2
   2  -7 -12 2.09876 0.44905   2
   2  -7 -12 1.51569 0.37142   1
   2  -7 -12 3.07500 1.34715   2
   2  -7 -12 1.86455 0.78099   2
   2  -7 -12 2.56740 0.87851   2
   2  -7 -12 3.31901 0.95665   2
   2  -7 -12 1.72642 0.33125   1
   2  -7 -12 1.99145 0.47833   2
   2   7 -12 1.61323 0.34072   1
   2   7 -12 1.85811 0.52028   2
   2   7 -12 1.78359 0.41077   1
   2   7 -12 1.82262 0.26998   1
   2   7 -12 2.10898 0.36232   2
   2   7 -12 0.78154 0.98195   1
   2   7 -12 1.58318 0.33067   1
   2   7 -12 1.90452 0.78969   2
   2   7 -12 2.05315 0.91046   2
   1  -7 -12 0.02944 0.07858   2
   1  -7 -12 0.00985 0.02944   2
   1  -7 -12 0.10803 0.12762   2
   1   7 -12 0.02837 0.07572   2
   1   7 -12 -0.0095 0.02837   2
   1   7 -12 -0.0946 0.09460   2
   0   7 -12 0.30413 0.19258   4
   0   7 -12 0.55392 0.59215   1
   1  -7  12 0.78242 0.61984   4
   1  -7  12 0.75194 0.23373   4
   1   7  12 0.59754 0.43822   4
   1   7  12 0.69713 0.49795   4
   1   7  12 0.59754 0.19918   4
   2  -7  12 2.28386 0.90342   4
   2  -7  12 1.34999 0.51764   4
   2  -7  12 2.36554 0.45199   1
   2  -7  12 1.80685 0.57863   4
   2  -7  12 1.73578 0.60907   4
   2  -7  12 1.80685 0.34516   4
   2  -7  12 2.47125 0.98084   1
   2  -7  12 1.46169 0.42631   4
   2   7  12 1.90684 0.36559   4
   2   7  12 2.02537 0.33596   4
   2   7  12 1.82776 0.63228   4
   2   7  12 2.21307 0.35568   4
   2   7  12 2.13409 0.71136   4
   2   7  12 2.25261 0.40503   4
   3  -7  12 0.38552 0.26380   1
   3  -7  12 -0.5836 0.76164   2
   3  -7  12 0.03043 0.47692   1
   3  -7  12 0.30441 0.72036   1
   3  -7  12 0.82108 0.84083   2
   3  -7  12 0.25362 0.53778   1
   3  -7  12 0.24355 0.60882   1
   3   7  12 0.20706 0.54218   4
   3   7  12 0.22674 0.49294   4
   3   7  12 -0.4456 0.44560   2
   3   7  12 -0.1671 0.48276   2
   3   7  12 0.44359 0.22674   4
   3   7  12 0.58367 0.31125   3
   4  -7  12 -0.1694 0.25906   3
   4  -7  12 1.28543 0.47825   3
   4  -7  12 0.28895 0.39859   3
   4   7  12 0.31437 0.40008   3
   4   7  12 0.22866 0.16196   3
   4   7  12 0.21910 0.40964   3
   5  -7  12 1.36425 0.38278   3
   5  -7  12 0.45738 0.33032   2
   5   7  12 0.45893 0.42174   1
   5  -8 -12 -0.0863 0.29744   4
   5   8 -12 0.47270 0.16745   4
   4  -8 -12 0.18162 0.11469   1
   4  -8 -12 0.14336 0.17203   1
   4  -8 -12 0.27723 0.45885   1
   4   8 -12 0.12057 0.32459   1
   4   8 -12 -0.1391 0.22263   1
   4   8 -12 -0.0185 0.13908   1
   3  -8 -12 -0.1149 1.02455   1
   3  -8 -12 0.88096 0.69904   1
   3  -8 -12 0.30099 0.41128   2
   3  -8 -12 0.28086 0.19060   2
   3  -8 -12 0.33108 0.27090   2
   3  -8 -12 0.45959 0.28728   1
   3  -8 -12 1.23528 0.84263   1
   3   8 -12 0.39168 0.18218   1
   3   8 -12 0.39168 0.95640   1
   3   8 -12 -0.0273 0.49181   1
   3   8 -12 0.49181 0.27327   1
   3   8 -12 0.18988 0.92957   3
   3   8 -12 0.40082 0.28241   1
   3   8 -12 0.58290 0.20036   1
   2  -8 -12 2.64345 0.44384   1
   2  -8 -12 4.73895 1.61864   2
   2  -8 -12 3.25685 1.02387   2
   2  -8 -12 3.67616 0.97506   2
   2  -8 -12 3.11053 0.50704   2
   2  -8 -12 3.08128 0.54607   2
   2  -8 -12 2.53977 0.45171   1
   2   8 -12 2.55686 1.06289   1
   2   8 -12 2.46664 0.34096   1
   2   8 -12 2.70093 0.43477   2
   2   8 -12 2.25603 0.55146   1
   2   8 -12 3.39465 0.95267   2
   2   8 -12 2.25603 1.02276   1
   2   8 -12 2.64322 0.41393   1
   2   8 -12 2.54680 0.49132   1
   1  -8 -12 0.32298 0.54808   2
   1  -8 -12 1.15486 0.87105   2
   1   8 -12 1.87200 0.31044   2
   1   8 -12 1.45814 0.58324   2
   1   8 -12 1.31697 0.63032   2
   0   8 -12 0.09125 0.19268   4
   0   8 -12 0.58196 0.62014   2
   1  -8  12 0.27587 0.26633   1
   1  -8  12 0.24734 0.12367   1
   1  -8  12 0.12367 0.37101   1
   1   8  12 0.09508 0.25671   2
   1   8  12 0.13313 0.12359   2
   1   8  12 0.18061 0.18061   2
   1   8  12 0.20913 0.25671   2
   2  -8  12 0.90499 0.51854   4
   2  -8  12 0.88459 0.39655   4
   2  -8  12 0.50844 0.54903   4
   2  -8  12 0.75241 0.73211   4
   2  -8  12 1.50092 0.49380   2
   2  -8  12 1.18966 0.29486   4
   2  -8  12 1.24055 0.45754   4
   2  -8  12 2.44956 0.89075   1
   2   8  12 1.06620 0.26658   4
   2   8  12 1.71245 0.33324   2
   2   8  12 1.33277 0.65158   4
   2   8  12 1.33277 0.26658   4
   2   8  12 1.40189 0.27638   4
   2   8  12 1.46111 0.45413   4
   2   8  12 0.60217 0.50344   4
   3  -8  12 0.74707 0.44822   2
   3  -8  12 1.26503 0.62757   2
   3  -8  12 0.42981 0.74712   1
   3  -8  12 0.97617 0.39846   2
   3  -8  12 0.63451 0.59355   1
   3  -8  12 0.37869 0.94155   1
   3   8  12 0.11816 0.39400   4
   3   8  12 0.72861 0.24287   3
   3   8  12 0.75066 0.31514   2
   3   8  12 0.75066 0.52830   2
   3   8  12 -0.0742 0.72286   2
   4  -8  12 4.97097 0.96820   3
   4  -8  12 4.62971 0.65405   3
   4  -8  12 4.26947 0.95252   1
   4   8  12 4.61342 0.51259   4
   4   8  12 4.65564 0.68270   3
   5  -8  12 0.36382 0.28511   3
   5  -8  12 0.24574 0.27169   2
   5   8  12 0.00000 0.33909   1
   5   8  12 0.25326 0.22785   1
   5  -9 -12 -0.1816 0.37271   4
   5   9 -12 0.66124 0.43283   4
   5   9 -12 0.65595 0.30875   4
   4  -9 -12 2.86601 0.43044   4
   4  -9 -12 3.92256 0.62185   1
   4  -9 -12 2.86358 0.99388   2
   4   9 -12 4.55593 0.75774   1
   4   9 -12 2.86356 0.56876   2
   3  -9 -12 1.16268 0.46696   1
   3  -9 -12 0.03011 0.86347   2
   3  -9 -12 1.73440 1.70582   1
   3  -9 -12 0.67273 0.33133   2
   3  -9 -12 0.51200 0.77303   2
   3  -9 -12 0.82906 0.36210   1
   3   9 -12 0.33019 1.16069   3
   3   9 -12 0.85024 0.58794   1
   3   9 -12 0.99496 0.28943   1
   3   9 -12 0.29015 0.46026   3
   3   9 -12 0.95885 1.13070   1
   3   9 -12 0.56032 0.36020   3
   2  -9 -12 0.27243 0.53521   2
   2  -9 -12 0.18488 0.35033   2
   2  -9 -12 0.28220 0.94391   2
   2  -9 -12 -0.2044 0.20440   2
   2  -9 -12 -0.0876 0.18488   2
   2  -9 -12 0.19464 0.15569   2
   2   9 -12 0.01007 0.25094   3
   2   9 -12 -0.0645 0.56225   2
   2   9 -12 0.10040 0.18065   3
   2   9 -12 -0.0460 0.14747   2
   2   9 -12 -0.0369 0.09218   2
   2   9 -12 -0.1567 0.54385   2
   2   9 -12 -0.5070 0.50696   2
   2   9 -12 0.01007 0.22083   3
   1  -9 -12 0.12669 0.32162   2
   1  -9 -12 -0.0195 0.49700   2
   1  -9 -12 -0.0390 0.10724   2
   1  -9 -12 0.11692 0.11692   2
   1   9 -12 0.05613 0.12165   2
   1   9 -12 0.07491 0.12165   2
   1   9 -12 -0.0281 0.15911   2
   1   9 -12 -0.3182 0.31822   2
   1   9 -12 0.00000 0.32378   1
   1  -9  12 0.15277 0.19355   4
   1  -9  12 0.80165 0.66811   1
   1  -9  12 0.59172 0.39125   1
   1   9  12 0.53811 0.22659   2
   1   9  12 0.25490 0.15103   2
   1   9  12 0.10905 0.37656   4
   1   9  12 0.93456 0.28321   2
   1   9  12 -0.0849 0.35867   2
   2  -9  12 11.8263 1.65334   2
   2  -9  12 9.70558 1.27305   4
   2  -9  12 11.0483 1.27406   2
   2  -9  12 11.1066 1.16704   2
   2  -9  12 10.5610 1.03881   4
   2  -9  12 8.51394 1.09990   4
   2  -9  12 10.8342 1.67276   2
   2   9  12 10.7544 1.02609   4
   2   9  12 10.7594 1.14404   3
   2   9  12 7.98197 1.24312   4
   2   9  12 10.7508 0.99968   4
   2   9  12 10.9375 1.10477   2
   2   9  12 9.66906 1.22343   4
   2   9  12 10.1328 0.97680   4
   3  -9  12 0.22082 0.28104   2
   3  -9  12 0.07029 0.11046   2
   3  -9  12 0.09032 0.13050   2
   3  -9  12 -0.1505 0.16061   2
   3  -9  12 0.19072 0.16061   2
   3   9  12 -0.0093 0.05555   1
   3   9  12 -0.0093 0.06484   1
   3   9  12 -0.0556 0.12969   1
   3   9  12 0.18524 0.16666   1
   4  -9  12 0.88976 0.49988   3
   4  -9  12 -0.4599 0.45987   3
   4  -9  12 -0.2699 0.26995   3
   4   9  12 0.24533 0.15096   3
   4   9  12 0.33969 0.43405   3
   5  -9  12 0.06593 0.21118   2
   5  -9  12 0.15753 0.18706   3
   5   9  12 0.12989 0.09276   3
   5   9  12 -0.1206 0.18552   3
   5 -10 -12 -0.0475 0.04754   3
   5  10 -12 -0.0099 0.01967   4
   5  10 -12 0.15764 0.04922   4
   4 -10 -12 0.19145 0.25847   1
   4 -10 -12 0.89025 0.41162   1
   4 -10 -12 0.02010 0.12082   2
   4  10 -12 0.06643 0.18026   1
   4  10 -12 0.14229 0.18978   1
   4  10 -12 0.78758 0.40802   1
   3 -10 -12 -0.0284 0.08526   1
   3 -10 -12 0.05684 0.07585   1
   3 -10 -12 0.00951 0.28430   1
   3 -10 -12 -0.2084 0.20845   1
   3 -10 -12 0.05684 0.06635   1
   3  10 -12 -0.0090 0.07199   1
   3  10 -12 0.08092 0.04492   1
   3  10 -12 -0.0630 0.23383   1
   3  10 -12 0.00902 0.08994   1
   3  10 -12 0.06297 0.12594   1
   2 -10 -12 1.96751 0.92076   1
   2 -10 -12 1.20539 0.36163   4
   2 -10 -12 3.03361 1.60887   1
   2 -10 -12 1.47663 0.30137   4
   2 -10 -12 1.77366 0.49426   1
   2 -10 -12 1.21546 0.35155   4
   2  10 -12 1.29703 0.22116   3
   2  10 -12 0.96523 0.32171   3
   2  10 -12 1.54978 0.37122   3
   2  10 -12 1.59129 0.39554   2
   2  10 -12 1.95002 0.33114   2
   2  10 -12 0.41217 0.75405   3
   2  10 -12 1.00537 1.00537   3
   2  10 -12 1.55322 1.00056   4
   2  10 -12 1.38749 0.44243   3
   1 -10 -12 0.59139 0.51388   2
   1 -10 -12 0.23273 0.18420   2
   1 -10 -12 0.38784 0.74651   2
   1 -10 -12 0.38784 0.18420   2
   1 -10 -12 0.25208 0.30061   2
   1  10 -12 0.04043 0.22220   1
   1  10 -12 -0.0279 0.59620   2
   1  10 -12 0.00000 0.46389   1
   1  10 -12 0.04043 0.15148   1
   1  10 -12 -0.0746 0.24222   2
   0  10 -12 3.10895 0.54859   4
   1 -10  12 0.59363 0.32558   1
   1  10  12 0.16860 0.20610   2
   1  10  12 0.02972 0.11886   4
   1  10  12 0.12180 0.36540   2
   1  10  12 -0.0562 0.29050   2
   1  10  12 0.40290 0.18740   2
   2 -10  12 -0.0098 0.02926   2
   2 -10  12 0.01947 0.05852   2
   2 -10  12 0.09757 0.06831   2
   2 -10  12 0.00000 0.04908   1
   2 -10  12 0.04874 0.13662   2
   2 -10  12 0.02926 0.13662   2
   2  10  12 0.14656 0.08242   2
   2  10  12 0.11909 0.05495   2
   2  10  12 0.07333 0.02747   2
   2  10  12 0.19241 0.04576   2
   2  10  12 0.05495 0.06414   2
   3 -10  12 0.04052 0.13161   3
   3 -10  12 0.15182 0.16198   3
   3 -10  12 0.07089 0.14177   3
   3 -10  12 0.13161 0.13161   3
   3  10  12 0.17600 0.15751   1
   3  10  12 0.17600 0.07416   1
   3  10  12 0.13892 0.08335   1
   4 -10  12 0.64058 0.37039   3
   4 -10  12 0.70072 0.53054   3
   4 -10  12 0.64058 0.33033   3
   4  10  12 0.45058 0.45058   3
   4  10  12 0.14321 0.18403   2
   4  10  12 0.10227 0.25563   2
   5 -10  12 0.01968 0.05913   3
   5 -10  12 -0.0296 0.05913   3
   5  10  12 -0.0646 0.06460   3
   5 -11 -12 1.53880 0.50068   1
   5 -11 -12 1.80369 0.74784   3
   5  11 -12 1.85361 0.43694   4
   5  11 -12 0.84431 0.41454   1
   4 -11 -12 -0.0096 0.15306   1
   4 -11 -12 -0.1053 0.10527   1
   4 -11 -12 0.80360 0.45918   1
   4  11 -12 -0.1640 0.16398   1
   4  11 -12 0.08678 0.17356   1
   3 -11 -12 3.45626 0.56509   1
   3 -11 -12 1.42757 2.22167   2
   3 -11 -12 2.55214 0.46146   1
   3 -11 -12 0.74388 1.20633   2
   3  11 -12 1.66443 1.33354   3
   3  11 -12 2.72441 0.63627   1
   3  11 -12 1.69451 0.56152   3
   3  11 -12 2.11502 0.41225   1
   3  11 -12 2.00742 0.34951   1
   2 -11 -12 1.02735 1.00819   1
   2 -11 -12 0.55687 0.23047   1
   2 -11 -12 0.80651 0.29770   1
   2 -11 -12 0.38182 0.31156   4
   2 -11 -12 0.55687 0.40325   1
   2 -11 -12 2.40999 1.50746   1
   2 -11 -12 1.44987 0.76818   1
   2  11 -12 0.98989 0.88903   1
   2  11 -12 1.08155 0.31167   1
   2  11 -12 0.49338 0.31219   3
   2  11 -12 0.50576 0.32447   3
   2  11 -12 0.17120 0.65448   3
   2  11 -12 0.77908 0.25660   1
   2  11 -12 0.51113 0.32525   3
   1 -11 -12 0.44333 0.73246   2
   1 -11 -12 0.06011 0.20043   4
   1 -11 -12 -0.1060 0.53970   2
   1 -11 -12 0.06011 0.16032   4
   1  11 -12 -0.2507 0.40858   2
   1  11 -12 1.91267 0.64066   2
   1  11 -12 0.09285 0.13001   2
   0  11 -12 0.89551 0.34604   4
   1 -11  12 0.11509 0.19189   2
   1  11  12 0.23244 0.17666   2
   1  11  12 0.59508 0.19532   2
   1  11  12 0.92061 0.14877   2
   1  11  12 0.93917 0.15810   2
   2 -11  12 1.93010 1.17565   2
   2 -11  12 1.50880 0.60743   2
   2 -11  12 0.91883 0.35731   4
   2 -11  12 0.28583 0.90870   4
   2 -11  12 0.99032 0.58201   4
   2 -11  12 1.11291 0.46966   4
   2  11  12 1.37742 0.36490   2
   2  11  12 1.16418 0.27448   4
   2  11  12 1.00576 0.30572   4
   2  11  12 1.66930 0.30103   2
   2  11  12 1.66015 0.67498   2
   2  11  12 1.49600 0.35575   2
   2  11  12 1.23148 0.62942   2
   3 -11  12 0.17934 0.34811   1
   3 -11  12 -0.3851 0.38512   3
   3 -11  12 0.15818 0.49582   1
   3 -11  12 0.46626 0.42569   3
   3  11  12 0.14746 0.29502   4
   3  11  12 0.01963 0.14746   4
   3  11  12 0.36073 0.18500   1
   4 -11  12 -0.1202 0.34071   3
   4 -11  12 0.20779 0.47338   1
   4 -11  12 0.89809 0.42652   3
   4  11  12 0.71617 0.21801   2
   4  11  12 1.05509 0.21476   3
   4  11  12 0.34252 0.42549   2
   5  11  12 1.08150 0.40732   2
   5 -12 -12 1.90395 0.76345   3
   5  12 -12 2.02804 0.42757   4
   5  12 -12 1.89705 0.40656   4
   4 -12 -12 1.35645 0.47764   1
   4 -12 -12 1.80534 0.65911   1
   4 -12 -12 1.38510 1.06987   1
   4 -12 -12 1.05208 0.30351   2
   4  12 -12 1.14191 0.35220   2
   4  12 -12 1.70971 0.50803   1
   3 -12 -12 2.46146 0.47727   1
   3 -12 -12 2.91066 0.51473   1
   3 -12 -12 2.60180 0.90779   1
   3  12 -12 2.09763 0.40149   3
   3  12 -12 3.70960 0.84226   1
   3  12 -12 1.58581 0.50186   3
   3  12 -12 2.19587 0.49684   3
   2 -12 -12 0.64572 0.24690   1
   2 -12 -12 0.02006 0.28141   4
   2 -12 -12 0.01008 0.25127   4
   2 -12 -12 0.84519 1.37699   1
   2 -12 -12 0.94958 0.72174   1
   2 -12 -12 0.32291 0.77870   1
   2 -12 -12 0.57924 0.37987   1
   2  12 -12 0.78136 0.29071   1
   2  12 -12 0.21179 0.90743   3
   2  12 -12 0.45429 0.29071   1
   2  12 -12 0.34520 0.26346   1
   2  12 -12 0.04036 0.31263   3
   2  12 -12 0.54515 0.22710   1
   2  12 -12 -0.2271 0.59964   1
   1 -12 -12 1.16258 0.29062   4
   1 -12 -12 1.01220 0.54113   4
   1 -12 -12 0.86191 0.36079   4
   1 -12 -12 0.31073 0.85186   4
   1  12 -12 1.43663 0.84340   2
   1  12 -12 0.58782 0.36487   3
   1  12 -12 1.05405 0.46623   3
   1  12 -12 1.53852 0.28737   2
   1  12 -12 -0.4541 0.79711   2
   0  12 -12 0.27521 0.22419   3
   1 -12  12 1.37296 0.56648   2
   1  12  12 1.68007 0.35075   2
   1  12  12 2.18788 0.39696   2
   1  12  12 0.78265 0.71329   4
   1  12  12 0.87179 0.27734   4
   1  12  12 1.43090 0.58160   2
   2 -12  12 -0.1084 0.11817   2
   2 -12  12 0.10839 0.10839   2
   2 -12  12 0.14772 0.13794   2
   2 -12  12 -0.1576 0.23645   2
   2 -12  12 0.28565 0.23645   2
   2  12  12 -0.0907 0.09067   1
   2  12  12 -0.0091 0.04529   1
   2  12  12 -0.0544 0.10877   1
   2  12  12 0.01810 0.06348   1
   2  12  12 -0.0181 0.11786   1
   3 -12  12 0.75061 0.46663   3
   3 -12  12 0.41585 0.30434   3
   3 -12  12 0.39561 0.40578   3
   3  12  12 0.54480 0.21238   1
   3  12  12 0.60018 0.23081   1
   3  12  12 -0.1662 0.30472   1
   4 -12  12 0.25064 0.18043   3
   4 -12  12 0.04013 0.13035   3
   4  12  12 0.44565 0.14855   3
   4  12  12 0.08354 0.06501   3
   5  13 -12 1.86168 0.34473   4
   4 -13 -12 0.43777 0.21889   3
   4 -13 -12 0.26371 0.55784   2
   4  13 -12 0.20921 0.35237   2
   4  13 -12 0.68085 0.39472   1
   3 -13 -12 0.23265 0.21407   1
   3 -13 -12 0.04028 0.25156   4
   3 -13 -12 -0.1489 0.47464   1
   3 -13 -12 0.29781 0.67013   1
   3  13 -12 0.14405 0.18009   1
   3  13 -12 0.14405 0.18912   1
   2 -13 -12 0.04024 0.65356   4
   2 -13 -12 -0.1032 1.05062   1
   2 -13 -12 0.08049 0.31176   4
   2 -13 -12 0.09381 0.14066   1
   2 -13 -12 -0.0938 0.20634   1
   2  13 -12 0.10818 0.17131   1
   2  13 -12 -0.3156 0.46890   1
   2  13 -12 0.27054 0.21645   1
   2  13 -12 -0.4598 0.62221   1
   2  13 -12 -0.1082 0.19836   1
   1 -13 -12 0.62142 0.33077   4
   1 -13 -12 0.86087 0.53928   1
   1  13 -12 0.34514 0.97444   3
   1  13 -12 0.87085 0.79679   1
   1  13 -12 1.61207 0.31504   1
   1  13 -12 0.28416 0.29434   3
   1  13 -12 1.76959 0.45397   1
   0  13 -12 -0.2450 0.24498   2
   1 -13  12 5.46607 1.17409   2
   1 -13  12 4.08995 0.80833   2
   1  13  12 2.79400 0.79267   4
   1  13  12 2.24910 0.84216   4
   1  13  12 3.40550 0.54013   1
   1  13  12 3.37127 0.55543   4
   2 -13  12 0.01026 0.23530   1
   2 -13  12 0.07940 0.19841   2
   2 -13  12 -0.0595 0.16866   2
   2 -13  12 0.05950 0.34716   2
   2  13  12 -0.1708 0.17084   1
   2  13  12 0.01968 0.16763   4
   2  13  12 0.08091 0.10788   1
   2  13  12 0.06296 0.08091   1
   3 -13  12 0.32475 0.27405   3
   3 -13  12 0.35519 0.42625   3
   3 -13  12 -0.2030 0.47705   3
   3  13  12 0.51752 0.31424   1
   3  13  12 0.57295 0.16629   1
   3  13  12 0.34196 0.21255   1
   4 -13  12 -0.0101 0.05011   3
   4  13  12 -0.0554 0.05537   4
   4  13  12 0.01842 0.01842   4
   4 -14 -12 -0.3028 0.45416   3
   4 -14 -12 0.33702 0.21450   1
   4 -14 -12 0.87056 0.81380   3
   4  14 -12 0.17158 0.25169   2
   4  14 -12 0.37589 0.26714   4
   3 -14 -12 0.00930 0.11123   1
   3 -14 -12 -0.0463 0.05562   1
   3 -14 -12 -0.0371 0.04631   1
   3 -14 -12 0.04631 0.15764   1
   3  14 -12 -0.0365 0.03647   1
   3  14 -12 -0.0182 0.05465   1
   3  14 -12 -0.0273 0.03647   1
   2 -14 -12 1.63914 0.30561   1
   2 -14 -12 1.18680 1.98137   4
   2 -14 -12 1.36779 0.57333   4
   2 -14 -12 1.65763 0.44448   1
   2  14 -12 1.71388 0.41276   1
   2  14 -12 1.42292 0.34639   3
   2  14 -12 1.34412 0.42445   3
   2  14 -12 0.34366 1.21273   3
   1 -14 -12 5.10223 0.75180   4
   1 -14 -12 5.30273 1.07255   4
   1  14 -12 6.26451 0.63474   1
   1  14 -12 4.98972 1.39223   3
   1  14 -12 5.51932 0.78191   1
   1  14 -12 5.39506 1.36084   3
   1  14 -12 4.10553 0.70121   3
   0  14 -12 0.24501 0.59372   1
   0  14 -12 -0.1885 0.21675   1
   1 -14  12 1.57527 0.60888   2
   1 -14  12 1.40136 0.91812   2
   1  14  12 1.29244 0.34342   1
   1  14  12 1.36479 0.63271   1
   1  14  12 1.51846 0.37959   1
   2 -14  12 0.06004 0.18012   2
   2  14  12 0.01781 0.08029   1
   2  14  12 0.06248 0.06248   1
   2  14  12 0.04458 0.08029   1
   3 -14  12 0.15237 0.38081   1
   3 -14  12 0.42436 0.51146   1
   3 -14  12 0.74108 0.58875   3
   3  14  12 1.06661 0.38022   1
   3  14  12 1.01097 0.25965   1
   4 -14  12 0.47157 0.40133   3
   4  14  12 0.15597 0.23851   4
   4  14  12 -0.0092 0.13756   4
   4 -15 -12 -0.1505 0.40440   3
   4 -15 -12 0.72409 0.21630   3
   4 -15 -12 0.40609 0.86430   1
   4  15 -12 0.22868 0.36113   1
   4  15 -12 0.51761 0.31295   1
   3 -15 -12 0.01010 0.27199   4
   3 -15 -12 -0.0742 0.10195   1
   3 -15 -12 0.01849 0.07416   1
   3 -15 -12 -0.1297 0.25017   1
   3  15 -12 -0.0279 0.05584   1
   3  15 -12 -0.0745 0.08377   1
   2 -15 -12 0.55789 0.46642   1
   2 -15 -12 0.48477 0.35670   1
   2 -15 -12 0.53046 0.21954   1
   2  15 -12 0.49313 0.26001   1
   2  15 -12 0.78003 0.30489   1
   1 -15 -12 1.13682 1.57685   1
   1 -15 -12 1.00844 0.35754   1
   1  15 -12 1.58251 0.47566   1
   1  15 -12 2.03992 0.38418   1
   1  15 -12 1.74722 1.12511   1
   1  15 -12 -0.6038 0.85076   1
   0  15 -12 1.03246 0.38841   3
   0  15  12 1.46298 0.41800   1
   0  15 -12 1.45674 0.90225   1
   1 -15  12 1.64961 0.66956   1
   1 -15  12 1.42424 1.04518   3
   1  15  12 1.42390 0.56581   4
   1  15  12 1.29842 0.39649   4
   1  15  12 2.04273 0.41034   1
   2 -15  12 0.06073 0.08104   2
   2 -15  12 0.06073 0.07089   2
   2  15  12 -0.0355 0.05321   1
   2  15  12 0.01771 0.05321   1
   2  15  12 -0.0177 0.03551   1
   3 -15  12 0.66126 0.58902   3
   3 -15  12 0.99473 0.35523   3
   3 -15  12 0.59439 0.49535   1
   3  15  12 0.54459 0.25745   2
   3  15  12 0.51490 0.36641   2
   4 -15  12 0.95348 0.63151   2
   4  15  12 1.08216 0.20938   1
   4  15  12 1.34896 0.33726   4
   4 -16 -12 1.53052 0.67433   1
   4 -16 -12 1.89970 0.28593   3
   4 -16 -12 2.72811 0.67268   3
   4  16 -12 1.01972 0.42931   1
   3 -16 -12 2.10217 0.39065   1
   3 -16 -12 2.17653 0.82786   1
   3  16 -12 1.34312 0.33314   2
   3  16 -12 1.39512 0.43726   2
   2 -16 -12 -0.1628 0.22620   1
   2 -16 -12 0.09958 0.13570   1
   2 -16 -12 0.09958 0.29864   1
   2  16 -12 0.22538 0.12626   1
   2  16 -12 0.24347 0.18034   1
   2  16 -12 0.49588 0.21642   1
   1 -16 -12 0.06014 0.32082   4
   1 -16 -12 -0.2255 1.08269   1
   1  16 -12 0.37662 1.01775   3
   1  16 -12 0.52466 0.30127   4
   1  16 -12 0.62952 0.30108   1
   0  16 -12 5.35026 0.64767   1
   0  16  12 4.30831 0.68814   4
   0  16 -12 2.43385 1.22713   3
   1 -16  12 0.26303 0.07797   1
   1  16  12 -0.0353 0.03527   1
   1  16  12 -0.0088 0.03527   1
   2 -16  12 0.89762 0.48958   4
   2 -16  12 0.09266 0.28831   1
   2 -16  12 -0.0918 0.52017   4
   2  16  12 0.27617 0.24658   4
   2  16  12 0.20720 0.31565   4
   2  16  12 0.38945 0.15047   1
   2  16  12 1.08852 0.38057   1
   3 -16  12 0.23433 0.33471   1
   3 -16  12 -0.1623 0.39570   3
   3 -16  12 -0.0102 0.52759   3
   3  16  12 0.96657 0.44183   1
   3  16  12 0.58910 0.17488   1
   4 -16  12 0.59503 0.31810   4
   4 -16  12 0.03834 0.28119   2
   4  16  12 0.59614 0.11927   2
   4  16  12 0.70614 0.24446   4
   4 -17 -12 0.12361 0.32575   1
   4 -17 -12 0.46051 0.17972   1
   4 -17 -12 0.25837 0.51674   1
   4  17 -12 0.20149 0.24798   1
   3 -17 -12 0.44055 0.14995   1
   3 -17 -12 0.09373 0.15935   1
   3 -17 -12 0.29990 0.06562   1
   3  17 -12 0.01966 0.05909   1
   3  17 -12 0.06897 0.04921   1
   2 -17 -12 0.08084 0.12581   1
   2 -17 -12 0.06291 0.16168   1
   2  17 -12 0.15555 0.06406   1
   2  17 -12 0.38423 0.11893   1
   2  17 -12 0.05488 0.08232   1
   1 -17 -12 0.01775 0.07120   1
   1  17 -12 -0.0182 0.05484   1
   1  17 -12 0.05484 0.06402   1
   1  17 -12 0.14628 0.06402   1
   0  17  12 6.50364 0.77802   4
   0  17 -12 7.09659 0.84029   3
   1 -17  12 0.55864 0.44098   1
   1  17  12 0.13964 0.20950   1
   2 -17  12 1.32611 0.72424   4
   2 -17  12 1.28528 0.34688   4
   2 -17  12 0.17779 0.62744   1
   2  17  12 0.93748 0.38485   2
   2  17  12 1.01138 0.31421   4
   3 -17  12 0.05064 0.09122   3
   3 -17  12 0.14198 0.19262   3
   3  17  12 0.02031 0.05083   2
   3  17  12 -0.1006 0.10060   4
   3  17  12 -0.0182 0.06401   4
   4 -17  12 0.55663 0.21204   2
   4 -17  12 1.03376 0.35788   2
   4  17  12 1.15974 0.24275   4
   4 -18 -12 0.24868 0.11048   3
   4  18 -12 0.16897 0.22529   1
   3 -18 -12 0.10260 0.03732   3
   3 -18 -12 -0.0559 0.07464   3
   3 -18 -12 0.00000 0.03842   1
   3  18 -12 0.00998 0.02983   4
   3  18 -12 0.02983 0.02983   4
   2 -18 -12 1.13947 0.43064   1
   2 -18 -12 1.34583 0.39482   1
   2  18 -12 0.32895 0.20676   1
   2  18 -12 0.79896 0.31962   1
   1 -18 -12 0.13200 0.17606   1
   1  18 -12 0.35075 0.16611   1
   1  18 -12 0.08306 0.11074   1
   1  18 -12 0.45232 0.15695   1
   0 -18 -12 2.87527 0.52281   1
   0  18 -12 2.62121 0.52044   1
   1  18  12 -0.0173 0.05211   1
   1  18  12 0.00871 0.04339   1
   2 -18  12 0.06118 0.07141   4
   2 -18  12 -0.0204 0.11223   4
   2 -18  12 0.04082 0.20400   4
   2  18  12 0.04487 0.08083   1
   2  18  12 -0.0539 0.07191   1
   3 -18  12 0.12151 0.14183   3
   3 -18  12 -0.0506 0.09113   3
   3 -18  12 0.13167 0.11145   3
   3  18  12 -0.0091 0.04533   4
   3  18  12 0.06354 0.09986   4
   3 -19 -12 1.25795 0.28679   3
   3 -19 -12 1.05448 0.23121   3
   3 -19 -12 0.66948 0.49436   1
   3  19 -12 0.69095 0.21812   1
   3  19 -12 0.31514 0.25459   1
   2 -19 -12 0.45187 0.33440   1
   2 -19 -12 0.37954 0.08131   1
   2  19 -12 0.04881 0.10753   1
   1 -19 -12 0.01750 0.08767   1
   1  19 -12 0.08474 0.07539   1
   1  19 -12 0.11299 0.08474   1
   1  19 -12 0.01880 0.07539   1
   0 -19 -12 2.47920 0.53744   1
   0  19  12 2.97325 0.48544   1
   0  19 -12 3.48276 0.53730   1
   1 -19  12 0.50285 0.31180   1
   1 -19  12 -0.0201 0.41227   1
   1  19  12 0.20918 0.20918   1
   2 -19  12 1.64513 0.50700   4
   2 -19  12 2.25255 0.33637   4
   2 -19  12 1.37244 0.75758   2
   2  19  12 1.39472 0.51803   2
   2  19  12 1.33496 0.28890   2
   2  19  12 1.81464 0.33743   1
   3 -19  12 0.02424 0.27928   2
   3 -19  12 0.37427 0.21245   3
   3  19  12 -0.0630 0.09005   4
   3  19  12 0.12159 0.23209   1
   3 -20 -12 0.80146 0.55568   1
   3 -20 -12 1.05487 0.26599   3
   3  20 -12 0.87375 0.27308   4
   3  20 -12 1.21430 0.21894   4
   2 -20 -12 1.60859 0.56069   1
   2 -20 -12 0.51339 0.88591   4
   2  20 -12 0.93975 0.28745   2
   2  20 -12 2.70653 0.41945   1
   2  20 -12 1.48806 0.28962   1
   1 -20 -12 5.43006 0.92558   1
   1 -20 -12 4.88353 0.62584   1
   1  20 -12 4.47539 0.61429   1
   1  20 -12 3.24896 0.58315   2
   1  20 -12 4.52409 0.51678   1
   0 -20 -12 0.58329 0.26117   1
   0  20 -12 0.13456 0.17599   2
   0  20 -12 1.14047 0.34406   1
   0  20  12 0.50488 0.21760   1
   1 -20  12 0.13854 0.33043   2
   1 -20  12 -0.3857 0.38570   1
   1  20  12 0.71624 0.30069   1
   1  20  12 0.23878 0.20339   1
  -1  20 -12 0.10658 0.35170   2
   2 -20  12 -0.1323 0.27478   4
   2 -20  12 0.61060 0.49863   4
   2  20  12 0.20204 0.22220   2
   2  20  12 0.65278 0.31730   4
   3 -20  12 0.65632 0.32310   3
   3 -20  12 0.36677 0.27822   2
   3  20  12 0.50188 0.16734   3
   3  20  12 0.41313 0.29163   1
   3 -21 -12 0.53229 0.21685   2
   3  21 -12 0.45900 0.22097   1
   3  21 -12 0.53657 0.16941   4
   2 -21 -12 0.83399 0.36662   3
   2 -21 -12 0.65988 0.37572   3
   2  21 -12 0.21033 0.14022   4
   2  21 -12 0.59080 0.18019   4
   1 -21 -12 0.28752 0.29653   1
   1 -21 -12 0.17972 0.21569   1
   1  21 -12 0.39079 0.17037   1
   1  21 -12 -0.1503 0.15027   1
   1  21 -12 0.31069 0.21048   1
   0 -21  12 0.37251 0.23154   1
   0 -21 -12 0.68224 0.24806   1
   0  21  12 0.50511 0.19491   1
   0  21 -12 0.86579 0.28183   1
   1  21  12 3.76740 0.54472   1
   2 -21  12 0.29451 0.32497   4
   2 -21  12 0.08257 0.24770   2
   2  21  12 -0.0899 0.18881   4
   2  21  12 0.17596 0.21738   1
   2  21  12 0.24272 0.15283   4
   2 -22 -12 0.59649 0.27532   3
   2 -22 -12 0.53669 0.44200   1
   2  22 -12 0.14560 0.23811   1
   2  22 -12 0.60095 0.26039   4
   1 -22 -12 3.41460 0.59186   3
   1 -22 -12 2.59037 0.44088   3
   1  22 -12 2.64390 0.48361   4
   0 -22  12 0.60571 0.31405   2
   0 -22 -12 0.71723 0.28149   1
   0  22 -12 0.68921 0.31426   4
   0  22  12 0.30116 0.31123   2
   1 -22  12 0.61971 0.24387   4
   1  22  12 0.74814 0.25233   4
   1  22  12 0.45964 0.16219   4
  -1  22 -12 0.48764 0.23368   4
   2 -22  12 -0.0709 0.09117   4
   2  22  12 0.07132 0.02672   4
   2  22  12 -0.0267 0.04450   4
   2  22  12 0.00000 0.03361   1
   2 -23 -12 -0.0630 0.14387   3
   2 -23 -12 0.10788 0.15289   3
   2  23 -12 0.11999 0.08006   4
   1 -23 -12 -0.0450 0.12627   3
   1 -23 -12 0.12627 0.07218   3
   1  23 -12 0.08061 0.08061   4
   1  23 -12 0.03020 0.11082   4
  -1  23  12 0.01044 0.08328   1
   0 -23 -12 0.40472 0.24287   4
   0 -23  12 0.18211 0.28332   4
   0  23  12 -0.0090 0.11692   4
   0  23 -12 0.26312 0.19226   4
   1 -23  12 0.55029 0.23233   1
   1  23  12 0.85914 0.27578   1
  -1  23 -12 0.26901 0.26901   1
   1  23  12 1.26784 0.32141   4
   2 -23  12 0.64350 0.34858   1
   2  23  12 0.91663 0.15903   4
   2  23  12 0.74293 0.29463   1
   1 -24 -12 0.41071 0.53272   1
   1 -24 -12 0.45324 0.16479   4
   1  24 -12 0.45475 0.26748   4
  -1  24  12 0.19973 0.18871   1
   0 -24  12 0.39363 0.20188   4
   0 -24 -12 0.44527 0.17811   4
   1  24  12 0.22988 0.15032   4
   1  24  12 0.02351 0.17664   1
  -1  24 -12 0.19205 0.24009   4
   5   0 -13 2.70156 0.65585   4
   3   0 -13 0.44867 0.23934   3
   3   0 -13 -0.0667 1.12426   1
   3   0 -13 1.18141 0.27629   1
   3   0 -13 0.86699 0.53355   1
   3   0 -13 0.69649 0.65830   3
   1   0 -13 16.7686 1.40550   2
   1   0 -13 14.8796 1.83735   4
   1   0 -13 14.4881 2.05821   4
   1   0  13 1.58929 0.46270   4
   1   0  13 2.34226 0.33864   1
   1   0  13 1.75022 0.70415   4
   3   0  13 0.95890 0.72882   2
   3   0  13 0.62838 0.30924   1
   3   0  13 1.73572 0.66168   2
   3   0  13 1.30412 0.44112   2
   5   0  13 3.62954 0.67598   3
   5  -1 -13 2.22644 0.52641   2
   5   1 -13 3.50995 0.66666   4
   4  -1 -13 0.57637 0.19847   1
   4  -1 -13 0.37799 0.34017   1
   4   1 -13 0.10339 0.27246   1
   3  -1 -13 3.01101 1.39553   1
   3  -1 -13 1.78748 0.66915   1
   3  -1 -13 2.01683 0.57355   1
   3   1 -13 -0.1234 1.16732   1
   3   1 -13 1.09370 0.28068   3
   3   1 -13 0.97661 0.57797   3
   3   1 -13 1.70833 0.81623   1
   3   1 -13 0.46842 0.30898   3
   3   1 -13 0.64774 0.66774   3
   2  -1 -13 -0.0962 0.15396   2
   2  -1 -13 0.01005 0.14029   1
   2  -1 -13 -0.0962 0.42346   2
   2  -1 -13 0.01005 0.14029   1
   2  -1 -13 0.23099 0.22133   2
   2  -1 -13 0.31757 0.39450   2
   2  -1 -13 -0.2213 0.61583   2
   2   1 -13 -0.0668 0.13369   2
   2   1 -13 0.24822 0.43918   2
   2   1 -13 0.12411 0.15274   2
   2   1 -13 0.00000 0.30074   1
   2   1 -13 0.24822 0.34370   2
   2   1 -13 -0.0573 0.19096   2
   2   1 -13 -0.0955 0.15274   2
   2   1 -13 -0.1145 0.58235   2
   1  -1 -13 2.81864 0.71921   1
   1  -1 -13 2.26468 0.55406   1
   1  -1 -13 1.83698 0.28185   1
   1   1 -13 0.33820 0.51220   2
   1   1 -13 0.28993 0.64752   2
   0  -1 -13 0.02874 0.10546   1
   0  -1 -13 0.00000 0.03836   1
   0  -1 -13 -0.0287 0.10546   1
   0   1  13 0.01913 0.04787   1
   0   1 -13 0.01904 0.02861   1
   0   1 -13 0.00957 0.10497   1
   0   1 -13 0.02861 0.12401   1
   1  -1  13 5.25215 0.73378   3
   1  -1  13 5.10548 0.59413   4
   1  -1  13 5.17599 0.96676   4
   1   1  13 5.24452 0.74920   4
   1   1  13 5.60482 0.55578   1
   1   1  13 5.39761 0.87609   1
   2  -1  13 0.40125 0.59181   4
   2  -1  13 0.88584 0.23112   4
   2  -1  13 0.58175 0.36111   4
   2  -1  13 0.53165 0.35104   4
   2  -1  13 1.14998 0.51840   1
   2  -1  13 0.59181 0.56173   4
   2  -1  13 0.30094 0.27086   4
   2   1  13 0.44933 0.24960   4
   2   1  13 0.78888 0.34946   4
   2   1  13 1.09012 0.43228   1
   2   1  13 0.83876 0.21965   4
   2   1  13 0.77886 0.34946   4
   2   1  13 0.69903 0.26964   4
   3  -1  13 0.41192 0.27458   4
   3  -1  13 0.63592 0.36609   2
   3  -1  13 -0.1156 0.46244   2
   3  -1  13 0.29986 0.22988   1
   3  -1  13 0.57813 0.42398   2
   3   1  13 0.43914 0.36272   2
   3   1  13 0.15925 0.42804   1
   3   1  13 0.42956 0.50598   2
   3   1  13 0.12940 0.24881   1
   4  -1  13 0.16682 0.18640   3
   4  -1  13 0.09812 0.07854   3
   4  -1  13 -0.1276 0.19625   3
   4   1  13 -0.0487 0.27282   3
   5  -1  13 1.90339 0.49271   3
   5   1  13 1.20868 0.42214   3
   5   2 -13 1.74780 0.61862   4
   4  -2 -13 0.75813 0.19951   2
   4  -2 -13 0.77804 0.45886   2
   4   2 -13 0.94653 0.61855   1
   4   2 -13 1.45265 0.79659   1
   4   2 -13 0.85281 0.16864   1
   3  -2 -13 0.16975 0.20971   3
   3  -2 -13 0.45989 0.43115   1
   3  -2 -13 -0.0191 0.50785   1
   3  -2 -13 0.90065 0.66115   1
   3  -2 -13 0.19969 0.38937   3
   3  -2 -13 -0.0383 0.15330   1
   3   2 -13 0.16949 0.67784   3
   3   2 -13 0.29296 0.36850   1
   3   2 -13 0.09969 0.18938   3
   3   2 -13 0.78430 0.42518   1
   3   2 -13 -0.2173 0.88817   1
   2  -2 -13 5.59995 0.59861   2
   2  -2 -13 4.86614 0.60829   2
   1  -2 -13 2.03639 0.85742   1
   1  -2 -13 1.84151 0.34099   1
   1  -2 -13 2.03639 0.77953   1
   1   2 -13 1.39682 0.31790   2
   1   2 -13 0.86412 0.72342   4
   1   2 -13 1.67616 0.65502   2
   0  -2 -13 5.14111 0.97056   1
   0  -2 -13 3.19035 0.39395   1
   0  -2 -13 4.89126 0.82646   1
   0   2 -13 1.03804 0.58087   1
   0   2  13 2.51773 0.44205   1
   1  -2  13 1.24010 0.54440   4
   1  -2  13 1.71401 0.44367   4
   1  -2  13 1.12926 0.26214   4
   1   2  13 1.00347 0.54185   4
   1   2  13 1.22432 0.47169   4
   1   2  13 1.61568 0.30107   4
   2  -2  13 0.02006 0.31169   4
   2  -2  13 0.06030 0.47252   4
   2  -2  13 0.23122 0.18090   4
   2  -2  13 0.31169 0.57306   4
   2  -2  13 0.06030 0.24130   4
   2  -2  13 -0.1229 0.29303   1
   2  -2  13 0.10053 0.47252   4
   2   2  13 0.32839 0.27037   4
   2   2  13 0.27890 0.22914   4
   2   2  13 0.49771 0.16898   1
   2   2  13 0.11951 0.46827   4
   2   2  13 0.37564 0.20656   1
   2   2  13 0.53530 0.21598   1
   2   2  13 0.04976 0.39852   4
   3  -2  13 0.40076 0.29052   1
   3  -2  13 0.61966 0.64881   2
   3  -2  13 -0.0193 0.30022   2
   3  -2  13 0.42076 0.17033   1
   3  -2  13 0.91017 0.57130   2
   3  -2  13 0.79401 0.37763   2
   3   2  13 0.34773 0.24836   4
   3   2  13 0.35770 0.19873   4
   3   2  13 0.23850 0.36767   4
   3   2  13 0.37753 0.59620   4
   4  -2  13 0.97446 0.70868   3
   4  -2  13 0.37901 0.29243   1
   4  -2  13 0.06496 0.51979   1
   4   2  13 0.53623 0.71500   1
   5  -2  13 0.38532 0.52194   1
   5  -2  13 0.21130 0.34792   1
   5   2  13 0.62712 0.46726   1
   5   3 -13 0.01962 0.06884   4
   4  -3 -13 2.65082 0.55103   1
   4  -3 -13 1.63772 0.30962   2
   4  -3 -13 1.75751 0.51926   2
   4   3 -13 2.03723 0.59631   3
   3  -3 -13 0.61415 0.44146   1
   3  -3 -13 0.71975 0.55659   1
   3  -3 -13 0.38390 0.28792   1
   3   3 -13 0.55466 0.41368   1
   3   3 -13 1.97421 0.70506   1
   3   3 -13 1.03406 0.20679   1
   3   3 -13 0.41368 0.68630   1
   3   3 -13 0.95891 0.50760   1
   2  -3 -13 4.06647 1.30710   2
   2  -3 -13 1.59359 0.37088   1
   2  -3 -13 1.65382 0.82188   1
   2   3 -13 2.64915 0.45411   2
   2   3 -13 2.02809 0.95715   4
   2   3 -13 2.02652 0.60299   1
   2   3 -13 2.10042 0.79473   2
   2   3 -13 2.02652 0.30650   1
   2   3 -13 3.46286 0.81371   2
   2   3 -13 2.02886 0.38103   1
   2   3 -13 2.28965 0.37848   2
   2   3 -13 1.07188 0.72129   1
   2   3 -13 2.73438 0.65285   2
   1  -3 -13 2.33356 0.91777   1
   1  -3 -13 2.39212 0.80064   1
   1  -3 -13 1.92349 0.32221   1
   1   3 -13 2.07294 0.73892   2
   1   3 -13 1.01528 0.67356   4
   1   3 -13 1.25258 0.29359   4
   0  -3 -13 7.27479 1.25259   1
   0  -3 -13 5.48588 1.05693   3
   0  -3 -13 7.08547 0.69674   3
   0   3  13 6.21062 0.76503   3
   0   3 -13 8.41767 1.16988   1
   0   3 -13 5.81504 0.68647   4
   1  -3  13 0.31308 0.18170   4
   1  -3  13 0.54522 0.48465   4
   1  -3  13 0.09085 0.33323   4
   1   3  13 0.25049 0.52108   4
   1   3  13 0.46097 0.18033   4
   1   3  13 0.86966 0.38752   1
   2  -3  13 0.09486 0.07592   1
   2  -3  13 -0.0284 0.11379   1
   2  -3  13 -0.0189 0.14223   1
   2  -3  13 0.14223 0.21816   1
   2  -3  13 0.03796 0.19923   1
   2  -3  13 0.18971 0.15175   1
   2  -3  13 0.00000 0.21816   1
   2  -3  13 0.02011 0.11086   4
   2   3  13 0.10328 0.09387   1
   2   3  13 0.14075 0.08445   1
   2   3  13 -0.1689 0.16890   1
   2   3  13 0.36605 0.22530   1
   2   3  13 -0.1126 0.11260   1
   2   3  13 0.01985 0.13924   4
   3  -3  13 0.09735 0.19469   2
   3  -3  13 0.08758 0.27251   2
   3  -3  13 0.04862 0.07792   2
   3  -3  13 0.07792 0.13631   2
   3  -3  13 0.00000 0.33905   1
   3  -3  13 -0.1752 0.17516   2
   3  -3  13 0.04862 0.15573   2
   3   3  13 -0.0758 0.10418   2
   3   3  13 -0.1894 0.27456   2
   4  -3  13 0.14203 0.34959   1
   4  -3  13 0.39332 0.46982   1
   4  -3  13 0.16384 0.74292   1
   4   3  13 0.24049 0.67963   1
   5  -3  13 0.27220 0.32087   3
   5  -3  13 -0.1945 0.23339   3
   5   3  13 0.27599 0.27599   3
   5   4 -13 2.71711 0.53155   4
   4  -4 -13 6.30564 0.93345   1
   4  -4 -13 3.26500 0.77407   2
   4  -4 -13 3.45760 0.44772   1
   4   4 -13 4.59570 0.89675   1
   3  -4 -13 0.25931 0.19208   1
   3  -4 -13 -0.1152 0.11521   1
   3  -4 -13 0.41296 0.34572   1
   3  -4 -13 -0.4802 0.48019   1
   3  -4 -13 -0.1152 0.36489   1
   3   4 -13 0.33654 0.25243   1
   3   4 -13 0.33654 0.42065   1
   3   4 -13 0.94417 0.80399   1
   3   4 -13 0.58897 0.61701   1
   3   4 -13 0.21502 0.18698   1
   3   4 -13 0.03995 0.16971   3
   2  -4 -13 5.81694 0.66081   1
   2  -4 -13 7.68477 1.68834   2
   2   4 -13 5.27102 0.55113   1
   2   4 -13 5.33113 0.61124   1
   2   4 -13 5.81472 0.58335   1
   2   4 -13 4.98042 0.69146   1
   2   4 -13 5.29112 1.31275   1
   2   4 -13 4.25891 0.95200   1
   2   4 -13 3.92821 1.13232   1
   2   4 -13 5.09069 1.06227   1
   2   4 -13 4.97037 0.90184   1
   1  -4 -13 0.06845 0.11729   1
   1  -4 -13 -0.0195 0.02932   1
   1  -4 -13 0.00000 0.12743   1
   1   4 -13 0.12422 0.11463   2
   1   4 -13 0.22936 0.04773   2
   1   4 -13 0.05732 0.09556   2
   0  -4 -13 0.87519 0.64381   3
   0  -4 -13 1.32850 0.28750   3
   0  -4 -13 1.07641 0.75451   3
   0   4 -13 0.91975 0.66711   4
   0   4 -13 1.19268 0.28296   4
   0   4  13 1.28772 0.37226   3
   1  -4  13 1.61825 0.29329   4
   1  -4  13 0.99118 0.60688   4
   1  -4  13 1.24399 0.41463   4
   1   4  13 1.83782 0.32090   4
   1   4  13 1.43054 0.60028   4
   1   4  13 1.27049 0.48016   4
   2  -4  13 0.22210 0.62599   4
   2  -4  13 0.68605 0.43831   1
   2  -4  13 0.20194 0.28266   4
   2  -4  13 0.61933 0.42876   1
   2  -4  13 0.23848 0.46749   3
   2  -4  13 0.37160 0.18102   1
   2  -4  13 0.01013 0.18169   4
   2  -4  13 0.12112 0.32307   4
   2   4  13 0.32833 0.46911   1
   2   4  13 0.06951 0.46662   4
   2   4  13 0.25333 0.20637   1
   2   4  13 0.10924 0.19856   4
   2   4  13 0.18860 0.15883   4
   2   4  13 0.16878 0.26806   4
   3  -4  13 0.01954 0.06854   2
   3  -4  13 0.00000 0.05020   1
   3  -4  13 -0.0195 0.04890   2
   3  -4  13 0.00000 0.04022   1
   3  -4  13 -0.0195 0.03918   2
   3  -4  13 -0.0489 0.07836   2
   3   4  13 -0.0095 0.02829   2
   3   4  13 -0.0660 0.06605   2
   3   4  13 -0.0188 0.02829   2
   4  -4  13 3.17779 0.69301   3
   4  -4  13 2.22739 0.49501   3
   4  -4  13 2.70264 0.51477   3
   4   4  13 2.42750 0.76101   3
   5  -4  13 0.10730 0.09751   3
   5  -4  13 -0.0487 0.19503   3
   5   4  13 0.02479 0.13666   1
   5   5 -13 -0.0099 0.04923   4
   4  -5 -13 2.21519 0.50608   1
   4  -5 -13 0.97095 0.28024   2
   4   5 -13 0.82604 0.17908   3
   4   5 -13 1.62540 0.58853   1
   4   5 -13 1.45721 0.62591   1
   4   5 -13 0.84591 0.30856   3
   3  -5 -13 0.99842 0.26877   1
   3  -5 -13 0.06722 0.10564   1
   3   5 -13 0.29734 0.35308   1
   3   5 -13 0.10225 0.11148   1
   3   5 -13 -0.1115 0.56681   1
   3   5 -13 0.09293 0.10225   1
   3   5 -13 0.40891 0.26947   1
   3   5 -13 0.21373 0.29734   1
   3   5 -13 -0.1580 0.15799   1
   3   5 -13 -0.0093 0.12080   1
   2  -5 -13 3.95494 1.38953   2
   2  -5 -13 3.93544 0.61221   2
   2  -5 -13 3.38162 0.46639   2
   2  -5 -13 3.64391 0.57332   2
   2  -5 -13 4.44072 1.06885   2
   2  -5 -13 2.73052 0.39836   2
   2  -5 -13 2.42934 0.42760   2
   2  -5 -13 2.94427 1.01057   2
   2   5 -13 2.42901 0.88860   1
   2   5 -13 2.42125 0.88130   1
   2   5 -13 2.53092 0.41250   2
   2   5 -13 2.34602 0.51128   1
   2   5 -13 2.42937 0.40649   3
   2   5 -13 2.14560 0.66173   1
   2   5 -13 5.59620 1.22799   2
   2   5 -13 2.75593 1.00298   2
   2   5 -13 2.40627 0.61155   1
   2   5 -13 2.48410 0.33746   2
   1  -5 -13 0.41064 0.17594   2
   1  -5 -13 0.63552 0.66485   2
   1  -5 -13 0.37151 0.48890   2
   1   5 -13 -0.0190 0.14263   2
   1   5 -13 0.01010 0.47300   1
   1   5 -13 -0.3424 0.57073   2
   1  -5  13 0.07550 0.09432   1
   1  -5  13 0.13207 0.30179   1
   1   5  13 0.04735 0.09480   1
   1   5  13 -0.0569 0.18008   1
   1   5  13 -0.0379 0.17057   1
   2  -5  13 2.63487 0.51734   1
   2  -5  13 2.32829 0.62277   1
   2  -5  13 2.18451 0.44075   1
   2  -5  13 1.22430 0.70832   4
   2  -5  13 2.23247 0.85276   1
   2  -5  13 1.93540 0.36405   1
   2  -5  13 1.82128 0.41480   4
   2  -5  13 2.64449 0.60365   1
   2   5  13 2.15621 0.31878   1
   2   5  13 1.97801 0.33749   1
   2   5  13 2.35302 0.46876   1
   2   5  13 2.39054 0.46876   1
   2   5  13 1.75457 0.34692   4
   2   5  13 2.96236 0.71250   1
   3  -5  13 0.19698 0.37421   2
   3  -5  13 0.23640 0.58107   2
   3  -5  13 0.03040 0.54738   1
   3  -5  13 -0.1280 0.33489   2
   3  -5  13 -0.1477 0.44316   2
   3  -5  13 -0.0591 0.23640   2
   3   5  13 0.04940 0.44502   4
   3   5  13 0.35729 0.18808   2
   3   5  13 -0.1881 0.22572   2
   4  -5  13 2.19346 0.60541   3
   4  -5  13 1.32482 0.60110   1
   4  -5  13 1.73689 0.36727   3
   4   5  13 1.43880 0.51793   3
   5  -5  13 0.07189 0.16783   4
   5  -5  13 0.13690 0.20535   3
   5   5  13 -0.0188 0.16041   3
   5  -6 -13 1.87196 0.75262   4
   5   6 -13 0.67513 0.66304   1
   4  -6 -13 2.67633 0.43104   2
   4  -6 -13 3.35011 0.64135   1
   4   6 -13 2.57025 0.48815   3
   4   6 -13 2.76951 0.30888   3
   4   6 -13 2.43075 0.76705   3
   3  -6 -13 2.79001 0.57529   1
   3  -6 -13 1.47225 0.29043   2
   3  -6 -13 1.40213 0.36055   2
   3  -6 -13 1.21185 0.54078   2
   3  -6 -13 1.30197 0.92142   2
   3  -6 -13 0.81122 1.37209   2
   3   6 -13 1.05021 1.20020   3
   3   6 -13 1.70844 0.29550   1
   3   6 -13 1.00015 0.64008   3
   3   6 -13 1.78237 0.64649   1
   3   6 -13 1.65305 0.28633   1
   3   6 -13 1.13017 0.48006   3
   3   6 -13 1.41028 0.38003   3
   2  -6 -13 0.34030 0.64179   2
   2  -6 -13 -0.2722 0.52504   2
   2  -6 -13 0.20424 0.16533   2
   2  -6 -13 -0.9044 0.90436   2
   2  -6 -13 0.18473 0.29173   2
   2  -6 -13 0.18473 0.19449   2
   2  -6 -13 0.02002 0.21065   1
   2  -6 -13 -0.2237 0.29173   2
   2   6 -13 0.17056 0.14047   1
   2   6 -13 0.31738 0.28002   2
   2   6 -13 0.21467 0.17732   2
   2   6 -13 -0.5600 0.56931   2
   2   6 -13 0.11039 0.20065   1
   2   6 -13 0.15043 0.22067   1
   2   6 -13 0.24267 0.67201   2
   2   6 -13 0.16050 0.64199   1
   2   6 -13 -0.2520 0.33601   2
   1  -6 -13 0.00000 0.30463   1
   1  -6 -13 0.35168 0.44937   2
   1   6 -13 0.17036 0.30292   2
   1   6 -13 0.00000 0.11479   1
   1   6 -13 0.12307 0.28403   2
   1   6 -13 0.02009 0.10068   1
   0   6 -13 0.58730 0.24307   4
   0   6 -13 0.87090 0.71895   4
   1  -6  13 6.73496 0.64321   1
   1  -6  13 5.52416 1.04048   1
   1  -6  13 5.19586 0.84235   4
   1   6  13 5.48045 0.88111   4
   1   6  13 6.73318 0.71124   1
   1   6  13 3.68461 0.90619   4
   1   6  13 6.10726 0.62592   1
   2  -6  13 1.27295 0.66539   1
   2  -6  13 0.69961 0.35484   4
   2  -6  13 1.00381 0.70979   4
   2  -6  13 0.58805 0.25344   4
   2  -6  13 1.45615 0.49176   1
   2  -6  13 0.86183 0.39542   4
   2  -6  13 0.77060 0.57798   4
   2  -6  13 1.17651 0.45327   1
   2   6  13 0.82177 0.25740   4
   2   6  13 0.81184 0.39604   4
   2   6  13 0.98016 0.33665   4
   2   6  13 0.82177 0.25740   4
   2   6  13 1.09290 0.58852   2
   3  -6  13 0.50557 0.47583   2
   3  -6  13 -0.2280 0.55519   2
   3  -6  13 0.29674 0.37865   1
   3  -6  13 0.18414 0.33769   1
   3  -6  13 -0.6246 0.93188   2
   3  -6  13 -0.2578 0.67412   2
   3   6  13 0.58151 0.40332   2
   3   6  13 0.42336 0.22644   4
   3   6  13 -0.1313 0.35637   2
   3   6  13 0.36551 0.75073   4
   4  -6  13 0.31471 0.40469   1
   4  -6  13 1.46252 0.49749   3
   4  -6  13 0.70636 0.30847   3
   4   6  13 -0.2673 0.51563   3
   4   6  13 0.47565 0.50666   1
   5  -6  13 -0.0980 0.18618   3
   5  -6  13 -0.1274 0.28419   3
   5   6  13 -0.0094 0.25358   3
   5  -7 -13 0.66480 0.64192   1
   5   7 -13 -0.0592 0.38495   4
   4  -7 -13 0.24944 0.31661   1
   4  -7 -13 0.05014 0.19069   2
   4   7 -13 0.31028 0.12223   1
   4   7 -13 0.57350 0.34791   1
   4   7 -13 -0.0282 0.24445   1
   3  -7 -13 2.89813 1.69300   1
   3  -7 -13 0.64090 0.27737   1
   3  -7 -13 1.12867 0.82261   1
   3   7 -13 0.13017 0.16020   3
   3   7 -13 0.12013 0.23031   3
   3   7 -13 0.08015 0.50070   3
   3   7 -13 0.22027 0.72097   3
   3   7 -13 0.09009 0.44064   3
   3   7 -13 -0.2570 0.51401   1
   3   7 -13 0.33045 0.30042   3
   3   7 -13 0.32041 0.23031   3
   2  -7 -13 2.83896 0.48615   2
   2  -7 -13 1.56477 0.31100   1
   2  -7 -13 1.15356 1.43438   1
   2  -7 -13 1.91592 0.39119   1
   2  -7 -13 1.68521 0.38113   1
   2  -7 -13 1.29402 0.91278   1
   2  -7 -13 0.68207 0.95293   1
   2  -7 -13 2.06634 0.50157   1
   2   7 -13 1.97829 0.42174   1
   2   7 -13 2.51041 0.43704   2
   2   7 -13 1.91805 0.30128   1
   2   7 -13 2.45463 0.87398   2
   2   7 -13 1.85771 1.01422   1
   2   7 -13 2.07065 0.50080   1
   2   7 -13 1.89790 0.37158   1
   2   7 -13 1.58666 1.15484   1
   1  -7 -13 3.76371 0.94577   2
   1  -7 -13 3.66107 1.38524   4
   1  -7 -13 4.14397 0.54604   2
   1  -7 -13 3.85144 0.54604   2
   1   7 -13 3.63862 0.96764   1
   1   7 -13 2.85235 0.95753   1
   1   7 -13 3.64437 0.48779   1
   1   7 -13 3.02372 0.51399   1
   1  -7  13 0.10446 0.12341   1
   1  -7  13 -0.0189 0.03799   1
   1  -7  13 -0.0474 0.08541   1
   1   7  13 -0.0284 0.03793   1
   1   7  13 0.02842 0.05685   1
   1   7  13 0.10429 0.09478   1
   1   7  13 0.08527 0.06636   1
   2  -7  13 0.51808 0.35554   4
   2  -7  13 0.57913 0.45714   4
   2  -7  13 0.74166 0.40640   4
   2  -7  13 -0.1067 0.50429   2
   2  -7  13 0.17273 0.23367   4
   2  -7  13 0.86315 0.65944   2
   2  -7  13 -0.3200 0.79525   2
   2  -7  13 1.12502 0.49456   2
   2   7  13 1.19943 0.38115   2
   2   7  13 1.00414 0.61366   2
   2   7  13 0.77141 0.49453   4
   2   7  13 0.64284 0.24721   4
   2   7  13 0.57360 0.30664   4
   2   7  13 0.49453 0.23740   4
   3  -7  13 3.42073 0.57874   1
   3  -7  13 4.49385 0.76891   2
   3  -7  13 3.71004 0.82681   1
   3  -7  13 1.79822 0.97141   1
   3  -7  13 2.55256 1.15749   1
   3  -7  13 4.46390 0.75899   2
   3   7  13 4.75617 0.89883   2
   3   7  13 4.77485 0.53370   2
   3   7  13 3.03910 1.05576   4
   3   7  13 3.15747 0.63145   4
   3   7  13 4.11015 0.68349   2
   4  -7  13 0.31905 0.28914   3
   4  -7  13 0.40876 0.32905   3
   4  -7  13 0.02266 0.21566   1
   4   7  13 0.05160 0.13428   1
   4   7  13 0.36116 0.21862   3
   4   7  13 0.08552 0.21862   3
   5  -7  13 0.22346 0.34765   4
   5   7  13 0.09052 0.32318   1
   5  -8 -13 -0.3162 0.36400   4
   5   8 -13 -0.2864 0.28641   4
   5   8 -13 0.06599 0.15850   1
   4  -8 -13 2.49443 0.73870   1
   4  -8 -13 1.68855 0.40294   1
   4   8 -13 0.25598 0.46450   1
   3  -8 -13 7.24479 2.32591   1
   3  -8 -13 6.03820 0.77228   2
   3  -8 -13 7.95017 0.92463   1
   3  -8 -13 5.77742 0.77228   2
   3   8 -13 6.17808 0.65232   3
   3   8 -13 4.14064 1.54397   3
   3   8 -13 5.95522 1.18304   3
   3   8 -13 6.03548 1.65429   3
   3   8 -13 6.16358 0.81596   3
   3   8 -13 5.33363 1.02264   3
   3   8 -13 5.64448 0.98251   3
   3   8 -13 6.18795 0.62975   1
   2  -8 -13 1.32087 0.82557   2
   2  -8 -13 -0.1360 1.37923   2
   2  -8 -13 0.88291 0.88291   1
   2  -8 -13 0.71233 0.29095   1
   2  -8 -13 0.55181 0.30101   1
   2  -8 -13 0.72239 0.28088   1
   2  -8 -13 1.01983 0.41765   2
   2   8 -13 0.18094 0.28150   3
   2   8 -13 0.01009 0.87478   3
   2   8 -13 0.88486 0.18094   3
   2   8 -13 0.46255 0.70392   3
   2   8 -13 0.78430 0.29159   3
   2   8 -13 1.02898 0.32443   2
   2   8 -13 0.56311 0.40224   3
   2   8 -13 0.57320 0.97534   3
   1  -8 -13 0.24043 0.68110   4
   1  -8 -13 0.62102 0.28042   4
   1  -8 -13 1.10834 0.30144   2
   1  -8 -13 0.56094 1.09184   4
   1  -8 -13 0.73124 0.43073   4
   1   8 -13 0.88191 0.32835   2
   1   8 -13 1.21968 0.39404   2
   1   8 -13 1.13526 0.26266   2
   1   8 -13 1.11654 0.30963   2
   1   8 -13 0.65613 0.91859   1
   1   8 -13 -0.2815 0.60043   2
   1  -8  13 2.68861 0.90642   4
   1  -8  13 3.56498 0.62913   1
   1  -8  13 3.16731 0.48881   4
   1   8  13 3.36371 0.43464   2
   1   8  13 2.92716 0.70447   4
   1   8  13 3.22202 0.68978   2
   1   8  13 2.63943 0.52591   4
   1   8  13 3.16726 0.50211   4
   2  -8  13 -0.0194 0.05835   2
   2  -8  13 0.03893 0.02918   2
   2  -8  13 0.06811 0.09729   2
   2  -8  13 0.02918 0.03893   2
   2  -8  13 0.04859 0.04859   2
   2  -8  13 -0.0584 0.08753   2
   2  -8  13 0.01942 0.04859   2
   2   8  13 0.01847 0.02776   2
   2   8  13 0.00928 0.03704   2
   2   8  13 -0.0741 0.07408   2
   2   8  13 0.01847 0.03704   2
   2   8  13 0.02776 0.02776   2
   2   8  13 0.03704 0.06479   2
   3  -8  13 0.50115 0.62651   1
   3  -8  13 0.96061 1.08587   1
   3  -8  13 1.56056 0.37254   3
   3  -8  13 1.36918 0.64430   3
   3  -8  13 2.55720 0.87586   3
   3  -8  13 1.02324 0.51162   1
   3   8  13 1.57176 0.45842   2
   3   8  13 1.74011 0.36486   2
   3   8  13 1.24425 0.63615   2
   3   8  13 1.46881 0.30874   2
   4  -8  13 -0.0400 0.23981   3
   4  -8  13 0.44955 0.30976   3
   4  -8  13 0.26977 0.17978   3
   4   8  13 0.71888 0.26480   3
   4   8  13 0.08510 0.10408   3
   5  -8  13 0.58035 0.41844   2
   5   8  13 0.72522 0.26030   3
   5  -9 -13 0.51497 0.47905   1
   5   9 -13 0.22574 0.21158   1
   5   9 -13 0.65884 0.38141   4
   4  -9 -13 0.02878 0.04794   1
   4  -9 -13 0.02878 0.02878   1
   4  -9 -13 0.22075 0.12477   1
   4   9 -13 -0.0288 0.03844   1
   4   9 -13 0.18246 0.06724   1
   3  -9 -13 1.35732 0.63601   1
   3  -9 -13 0.40817 0.20880   1
   3  -9 -13 1.25297 0.89222   1
   3  -9 -13 0.91126 0.24679   1
   3  -9 -13 0.68342 0.21832   1
   3   9 -13 0.23619 0.72681   1
   3   9 -13 -0.0727 0.25433   1
   3   9 -13 0.20895 0.14534   1
   3   9 -13 -0.4905 0.69045   1
   3   9 -13 -0.0454 0.19983   1
   3   9 -13 0.21806 0.19983   1
   2  -9 -13 1.21072 0.61983   1
   2  -9 -13 0.85232 0.30030   1
   2  -9 -13 0.98795 0.80394   1
   2  -9 -13 1.44311 0.44554   1
   2  -9 -13 0.53198 0.24092   4
   2  -9 -13 1.71436 1.47226   1
   2   9 -13 -0.1944 0.78653   2
   2   9 -13 0.44319 0.30216   3
   2   9 -13 0.70503 0.20144   3
   2   9 -13 0.57411 0.27195   3
   2   9 -13 1.14740 1.12893   2
   2   9 -13 0.81428 0.27762   2
   2   9 -13 0.80500 0.31465   2
   2   9 -13 0.72507 0.90379   4
   1  -9 -13 1.41307 0.36566   4
   1  -9 -13 1.22203 0.81130   4
   1  -9 -13 1.80139 1.22998   2
   1  -9 -13 1.78206 0.50361   2
   1  -9 -13 1.37223 0.35054   4
   1   9 -13 1.32459 0.41451   1
   1   9 -13 1.86010 0.32713   2
   1   9 -13 1.70118 0.36454   2
   1   9 -13 1.26394 0.86960   1
   1   9 -13 1.00105 0.82913   1
   1   9 -13 1.72921 0.43936   2
   0   9 -13 -0.0569 0.06640   2
   1  -9  13 1.50308 0.48822   1
   1   9  13 0.51569 0.47600   4
   1   9  13 0.57779 0.32318   4
   1   9  13 -0.0469 0.44138   2
   1   9  13 0.44626 0.27764   4
   1   9  13 0.63852 0.22540   2
   2  -9  13 0.42970 0.60542   2
   2  -9  13 0.55664 0.30276   2
   2  -9  13 0.24408 0.40031   2
   2  -9  13 0.04081 0.38740   4
   2  -9  13 0.12231 0.80548   4
   2  -9  13 -0.1660 0.35153   2
   2  -9  13 0.09173 0.20393   4
   2   9  13 0.17569 0.15621   4
   2   9  13 0.21193 0.20268   2
   2   9  13 0.59890 0.30407   2
   2   9  13 0.37773 0.18429   2
   2   9  13 0.43309 0.39622   2
   2   9  13 0.37773 0.35934   2
   2   9  13 0.29483 0.23032   2
   3  -9  13 5.26520 0.82301   1
   3  -9  13 7.15995 1.17316   3
   3  -9  13 6.69485 0.92026   3
   3  -9  13 6.24655 1.01299   1
   3   9  13 6.31450 0.96540   4
   3   9  13 6.68283 0.73491   4
   3   9  13 6.38348 1.04425   4
   3   9  13 8.00360 0.79567   2
   4  -9  13 -0.1601 0.31029   3
   4  -9  13 0.08011 0.19013   3
   4  -9  13 -0.0100 0.32023   3
   4   9  13 0.07777 0.21372   3
   4   9  13 0.22588 0.12233   3
   5  -9  13 -0.0197 0.11825   3
   5 -10 -13 0.00000 0.32092   1
   5  10 -13 0.73080 0.20744   4
   5  10 -13 0.10740 0.24542   1
   4 -10 -13 2.88691 0.41380   2
   4 -10 -13 3.55754 0.92057   1
   4  10 -13 1.97706 0.52307   2
   4  10 -13 3.16016 0.71826   4
   3 -10 -13 2.39910 0.47230   1
   3 -10 -13 1.87014 0.41564   1
   3 -10 -13 1.50485 2.01614   2
   3 -10 -13 3.07917 0.85951   1
   3  10 -13 1.38706 0.56287   3
   3  10 -13 1.63061 0.54357   1
   3  10 -13 0.97491 0.33169   3
   3  10 -13 1.18603 1.41721   3
   3  10 -13 1.25640 0.43221   3
   2 -10 -13 0.17301 0.26916   1
   2 -10 -13 0.24997 0.13463   1
   2 -10 -13 0.14418 0.07696   1
   2 -10 -13 0.12499 0.08651   1
   2 -10 -13 0.11534 0.09615   1
   2 -10 -13 -0.1538 0.34612   1
   2  10 -13 0.08304 0.10155   1
   2  10 -13 0.02768 0.07387   1
   2  10 -13 -0.1938 0.26762   1
   2  10 -13 0.23069 0.11997   1
   2  10 -13 0.38760 0.30456   1
   2  10 -13 -0.0554 0.07387   1
   2  10 -13 0.21227 0.08304   1
   2  10 -13 -0.0093 0.27688   1
   1 -10 -13 1.96645 0.53014   2
   1 -10 -13 1.85071 1.30133   2
   1 -10 -13 1.98569 0.45308   2
   1 -10 -13 1.95678 0.85792   2
   1 -10 -13 2.04351 0.37592   2
   1  10 -13 1.12446 0.34447   3
   1  10 -13 0.70917 0.88130   3
   1  10 -13 1.70194 0.48622   3
   1  10 -13 2.08792 0.93209   2
   1  10 -13 2.05071 0.37287   2
   0  10 -13 1.45603 0.37678   4
   1 -10  13 3.83201 0.70511   4
   1  10  13 2.30998 0.83274   4
   1  10  13 2.80560 0.53530   4
   1  10  13 3.30133 0.52546   4
   1  10  13 4.16128 0.69039   2
   1  10  13 2.36945 0.42632   4
   2 -10  13 2.00140 1.04971   2
   2 -10  13 1.06939 0.52972   2
   2 -10  13 1.08897 0.84374   2
   2 -10  13 0.51071 0.30643   1
   2 -10  13 1.19693 0.47088   2
   2 -10  13 0.51071 0.28593   1
   2  10  13 0.58238 0.26654   4
   2  10  13 0.16782 0.54288   4
   2  10  13 -0.0092 0.30291   2
   2  10  13 0.98212 0.30291   2
   2  10  13 0.18753 0.64159   4
   3 -10  13 0.33064 0.63988   1
   3 -10  13 1.18371 0.51184   1
   3 -10  13 1.72135 0.60757   3
   3 -10  13 1.13044 0.41589   1
   3  10  13 1.30623 0.30509   3
   3  10  13 2.28857 0.37520   1
   3  10  13 1.38820 0.41274   1
   4 -10  13 -0.1403 0.29064   3
   4 -10  13 0.17040 0.20046   3
   4 -10  13 0.08023 0.18035   3
   4  10  13 0.00000 0.13593   1
   4  10  13 0.02095 0.11551   2
   4  10  13 -0.1778 0.17782   3
   5 -11 -13 0.66167 0.42531   3
   5 -11 -13 0.50097 0.34975   3
   5  11 -13 0.08521 0.34120   1
   4 -11 -13 0.45519 0.22252   2
   4 -11 -13 0.74661 0.67959   1
   4  11 -13 0.31044 0.36403   2
   4  11 -13 0.12843 0.36403   2
   3 -11 -13 0.42283 0.26307   1
   3 -11 -13 0.76111 0.25374   1
   3 -11 -13 -0.1785 0.79872   1
   3  11 -13 0.05027 0.19118   3
   3  11 -13 0.29896 0.45298   1
   3  11 -13 0.03018 0.24156   3
   3  11 -13 0.10064 0.28173   3
   2 -11 -13 2.30585 0.53360   1
   2 -11 -13 1.19523 0.40177   4
   2 -11 -13 1.45781 0.40973   1
   2 -11 -13 2.26772 1.23866   1
   2 -11 -13 1.36167 0.31122   4
   2 -11 -13 -0.3144 1.62937   1
   2  11 -13 1.65858 0.32988   1
   2  11 -13 1.25286 1.05078   3
   2  11 -13 1.34377 0.44462   3
   2  11 -13 1.03061 0.43448   3
   2  11 -13 1.00031 0.34357   3
   2  11 -13 2.41906 0.46729   1
   2  11 -13 1.19226 1.16196   3
   1 -11 -13 3.67178 0.54649   2
   1 -11 -13 6.39444 1.69689   2
   1 -11 -13 3.15404 1.22713   2
   1 -11 -13 3.09654 0.59438   2
   1 -11 -13 3.46090 0.60400   2
   1  11 -13 5.53833 1.12628   2
   1  11 -13 7.15797 1.23795   2
   1  11 -13 2.81109 0.50259   2
   0  11 -13 1.16281 0.38757   3
   1 -11  13 -0.0096 0.28854   2
   1  11  13 0.13902 0.11122   2
   1  11  13 -0.2132 0.27814   2
   1  11  13 0.43576 0.29664   2
   1  11  13 0.00994 0.19825   4
   1  11  13 -0.0556 0.14832   2
   2 -11  13 0.03069 0.28647   1
   2 -11  13 0.38881 0.91074   1
   2 -11  13 0.76970 0.87828   2
   2 -11  13 0.55263 0.51313   2
   2 -11  13 1.03616 0.44404   2
   2  11  13 0.77793 0.38437   2
   2  11  13 0.70467 0.60405   2
   2  11  13 0.47590 0.17387   2
   2  11  13 0.53998 0.24713   2
   2  11  13 -0.4027 0.45763   2
   2  11  13 0.82364 0.29285   2
   3 -11  13 0.11154 0.09120   3
   3 -11  13 0.05063 0.13177   3
   3 -11  13 0.06080 0.13177   3
   3 -11  13 0.07097 0.15200   3
   3  11  13 0.09404 0.06584   1
   3  11  13 0.08461 0.13168   1
   4 -11  13 0.56418 0.36103   3
   4 -11  13 0.79276 0.40142   3
   4  11  13 0.50159 0.19203   2
   4  11  13 0.39488 0.19203   2
   4  11  13 0.55830 0.36890   4
   5  12 -13 -0.0691 0.06914   4
   5  12 -13 0.05063 0.16444   4
   4 -12 -13 2.52769 0.37199   1
   4 -12 -13 2.35249 1.02414   2
   4 -12 -13 2.59447 0.82980   1
   4  12 -13 2.11500 0.45160   2
   4  12 -13 2.63599 0.61211   1
   3 -12 -13 0.01009 0.19101   4
   3 -12 -13 -0.5517 0.74816   1
   3 -12 -13 0.05022 0.30164   4
   3  12 -13 0.13956 0.26054   3
   3  12 -13 0.21836 0.48216   1
   3  12 -13 0.16370 0.17283   1
   3  12 -13 0.10076 0.32238   3
   2 -12 -13 1.38622 0.39605   1
   2 -12 -13 1.32019 0.32066   1
   2 -12 -13 1.77290 0.50918   1
   2 -12 -13 0.78273 1.00899   1
   2 -12 -13 2.02744 1.68796   1
   2  12 -13 0.59704 0.30359   3
   2  12 -13 -0.2368 1.00176   1
   2  12 -13 0.45534 0.38449   3
   2  12 -13 0.49584 0.29344   3
   2  12 -13 1.32058 0.35517   1
   2  12 -13 -0.8196 0.89250   1
   1 -12 -13 0.19008 0.13308   1
   1 -12 -13 0.11401 0.46566   1
   1 -12 -13 -0.0190 0.21858   1
   1  12 -13 0.05586 0.12105   2
   1  12 -13 -0.1863 0.18625   2
   1  12 -13 -0.0373 0.14898   2
   1  12 -13 -0.4656 0.46563   2
   1  12 -13 -0.0465 0.42836   2
   0  12 -13 3.68604 0.57650   2
   1 -12  13 0.72326 0.54005   2
   1  12  13 1.00451 0.32251   2
   1  12  13 0.91235 0.55296   2
   1  12  13 1.29939 0.35015   2
   2 -12  13 0.43744 0.27829   2
   2 -12  13 0.29824 0.32805   2
   2 -12  13 0.17888 0.16901   2
   2 -12  13 -0.1193 0.53675   2
   2  12  13 0.10029 0.17315   1
   2  12  13 0.11848 0.12763   1
   2  12  13 0.10029 0.26430   1
   2  12  13 0.18230 0.21877   1
   3 -12  13 0.10147 0.23336   3
   3 -12  13 0.10147 0.28404   3
   3 -12  13 0.11164 0.19275   3
   3  12  13 0.57264 0.27224   1
   3  12  13 0.01964 0.09839   2
   4 -12  13 1.02219 0.66560   1
   4 -12  13 1.13252 0.38137   3
   4  12  13 1.53593 0.38860   3
   4 -13 -13 1.35652 0.62611   3
   4 -13 -13 0.53992 0.25463   1
   4 -13 -13 1.00559 0.80634   3
   4  13 -13 0.43343 0.38789   2
   4  13 -13 1.13865 0.34651   4
   3 -13 -13 -0.0465 0.11177   1
   3 -13 -13 0.02794 0.04654   1
   3 -13 -13 -0.0186 0.03729   1
   3 -13 -13 0.02794 0.13047   1
   3  13 -13 0.01834 0.01834   1
   3  13 -13 -0.0092 0.02756   1
   3  13 -13 -0.0092 0.04590   1
   2 -13 -13 0.58748 1.60381   1
   2 -13 -13 0.59674 0.35430   1
   2 -13 -13 0.38183 0.25119   4
   2 -13 -13 1.07236 0.45691   1
   2  13 -13 0.46251 0.33561   1
   2  13 -13 0.44441 0.97952   1
   2  13 -13 0.81622 0.27211   1
   2  13 -13 1.12463 0.34461   1
   1 -13 -13 0.02814 0.18767   1
   1 -13 -13 0.12198 0.10325   1
   1 -13 -13 0.19709 0.56302   1
   1  13 -13 0.50094 0.34330   1
   1  13 -13 1.00198 0.40826   1
   0  13 -13 0.96175 0.37861   3
   1 -13  13 0.08715 0.23251   2
   1 -13  13 -0.0969 0.15497   2
   1  13  13 0.00000 0.07309   1
   1  13  13 -0.0548 0.15525   1
   1  13  13 -0.0365 0.08216   1
   2 -13  13 0.01031 0.16441   1
   2 -13  13 0.15044 0.18053   2
   2  13  13 -0.0272 0.14486   1
   2  13  13 -0.0996 0.10862   1
   2  13  13 -0.1358 0.17201   1
   2  13  13 0.01969 0.08876   4
   3 -13  13 0.35535 0.41626   3
   3 -13  13 -0.2742 0.39599   3
   3 -13  13 0.44682 0.50772   3
   3  13  13 0.05911 0.42377   2
   3  13  13 0.31757 0.20544   1
   4 -13  13 0.55278 0.36184   3
   4  13  13 -0.3035 0.30348   3
   4 -14 -13 -0.4243 0.66949   3
   4 -14 -13 0.31091 0.22796   1
   4  14 -13 0.94073 0.28715   4
   4  14 -13 1.09916 0.25746   4
   3 -14 -13 0.75357 0.40007   1
   3 -14 -13 0.08371 0.14885   1
   3 -14 -13 0.19542 0.35350   1
   3 -14 -13 0.03724 0.12095   1
   3  14 -13 0.02807 0.14033   1
   3  14 -13 -0.1310 0.13104   1
   3  14 -13 -0.0561 0.06552   1
   2 -14 -13 1.24638 0.48244   4
   2 -14 -13 1.34691 0.60313   4
   2 -14 -13 1.33682 0.33171   4
   2  14 -13 1.12615 0.35506   3
   2  14 -13 1.76712 0.33534   1
   2  14 -13 1.45365 0.36100   4
   1 -14 -13 1.87234 0.51487   4
   1 -14 -13 1.87391 0.40493   4
   1 -14 -13 1.07204 1.79344   4
   1  14 -13 1.22358 1.08090   3
   1  14 -13 2.22663 1.09951   1
   0  14 -13 4.47311 1.20355   1
   0  14 -13 3.19612 0.49167   3
   1 -14  13 0.83864 0.92637   2
   1 -14  13 0.44150 0.61606   3
   1  14  13 1.58922 0.37018   1
   1  14  13 1.39059 0.34309   1
   1  14  13 0.77659 0.63212   1
   2 -14  13 0.70017 0.38555   2
   2  14  13 0.02959 0.25650   4
   2  14  13 0.00990 0.19732   4
   2  14  13 0.54022 0.32411   1
   3 -14  13 -0.0407 0.07114   3
   3 -14  13 0.00000 0.08912   1
   3  14  13 0.11141 0.07434   1
   3  14  13 0.00932 0.03717   1
   4 -14  13 1.45797 0.42228   3
   4  14  13 1.34712 0.41136   3
   4 -15 -13 0.35033 0.14865   1
   4 -15 -13 0.42161 0.67462   3
   4 -15 -13 0.32915 0.47769   1
   4  15 -13 0.35649 0.29289   4
   4  15 -13 0.10432 0.23451   1
   3 -15 -13 -0.4289 0.42893   1
   3 -15 -13 -0.1585 0.17714   1
   3  15 -13 0.10602 0.08669   1
   3  15 -13 0.20237 0.18304   1
   2 -15 -13 -0.0639 0.26458   1
   2 -15 -13 0.35583 0.32846   1
   2 -15 -13 0.17334 0.14597   1
   2  15 -13 0.10918 0.16377   1
   2  15 -13 0.22749 0.19116   1
   2  15 -13 0.13648 0.17290   1
   1 -15 -13 1.10336 0.33742   1
   1 -15 -13 2.00614 1.17635   1
   1 -15 -13 0.86628 0.41947   1
   1  15 -13 2.13935 0.46110   1
   1  15 -13 1.38319 0.31356   1
   1  15 -13 0.82072 0.94060   1
   0  15  13 1.04053 0.35286   1
   0  15 -13 0.30761 0.94331   3
   0  15 -13 0.29733 0.23583   3
   1 -15  13 1.27850 0.48190   2
   1  15  13 1.57171 0.36610   1
   1  15  13 1.19665 0.30367   1
   1  15  13 1.47353 0.54471   1
   2 -15  13 0.12233 0.06116   3
   2 -15  13 0.10198 0.09175   3
   2  15  13 0.02691 0.03591   1
   2  15  13 0.14355 0.03591   1
   2  15  13 0.09873 0.04482   1
   3 -15  13 0.19311 0.14234   3
   3 -15  13 -0.0610 0.11185   3
   3  15  13 0.02769 0.08306   1
   3  15  13 0.11074 0.05537   1
   4 -15  13 -0.0201 0.09047   3
   4  15  13 0.10888 0.08166   4
   4 -16 -13 -0.0093 0.01857   3
   4 -16 -13 0.05582 0.04648   3
   4 -16 -13 -0.0186 0.05582   3
   4  16 -13 0.00000 0.02948   1
   3 -16 -13 -0.0751 0.46926   1
   3 -16 -13 0.22527 0.36599   1
   3  16 -13 0.04305 0.19356   2
   3  16 -13 0.04907 0.12771   1
   2 -16 -13 -0.2715 0.27155   1
   2 -16 -13 0.33492 0.36206   1
   2  16 -13 1.05887 0.23939   1
   2  16 -13 0.31309 0.19340   1
   2  16 -13 0.13807 0.22101   1
   1 -16 -13 2.69060 0.86373   4
   1 -16 -13 3.01300 0.51269   1
   1  16 -13 3.97224 0.62816   1
   1  16 -13 2.87299 0.48036   1
   0  16  13 0.08924 0.08924   1
   0  16 -13 0.07605 0.05699   1
   1 -16  13 2.10930 0.59546   2
   1  16  13 2.45883 0.50419   1
   2 -16  13 0.29577 0.48954   4
   2 -16  13 -0.0612 0.60178   4
   2 -16  13 0.15790 0.27376   1
   2  16  13 0.14798 0.22698   4
   2  16  13 0.01970 0.13819   4
   2  16  13 -0.3502 0.35017   1
   2  16  13 0.41304 0.28731   1
   3 -16  13 0.80332 0.53895   3
   3 -16  13 0.41686 0.40676   3
   3  16  13 0.41247 0.15585   4
   3  16  13 0.52253 0.31170   4
   4 -16  13 -0.0502 0.19099   3
   4  16  13 0.14022 0.19873   3
   4 -17 -13 0.28747 0.15398   2
   4  17 -13 0.19176 0.22655   1
   3 -17 -13 0.25251 0.25251   1
   3 -17 -13 0.24313 0.39273   1
   3  17 -13 0.25853 0.16907   1
   3  17 -13 -0.0398 0.19889   1
   2 -17 -13 0.75737 0.49590   1
   2 -17 -13 1.93855 0.64920   1
   2 -17 -13 0.53020 0.35008   4
   2  17 -13 0.67757 0.26346   1
   2  17 -13 0.56468 0.30112   1
   2  17 -13 0.90346 0.31056   1
   1 -17 -13 0.08001 0.13334   1
   1  17 -13 -0.1210 0.12100   1
   1  17 -13 0.23266 0.13034   1
   1  17 -13 0.54917 0.19551   1
   0 -17 -13 0.08819 0.19399   1
   0  17 -13 0.31537 0.19114   1
   1 -17  13 0.83962 0.46985   1
   1  17  13 0.65033 0.31639   1
   2 -17  13 0.45903 0.63247   4
   2 -17  13 0.56105 0.56105   4
   2 -17  13 0.75485 0.27546   4
   2  17  13 1.21170 0.26222   1
   2  17  13 0.59683 0.28036   1
   2  17  13 1.01279 0.32553   1
   3 -17  13 -0.0102 0.28468   3
   3 -17  13 -0.0305 0.19319   3
   3  17  13 0.21841 0.21841   4
   3 -18 -13 0.56602 0.25057   3
   3 -18 -13 0.28517 0.46858   1
   3  18 -13 0.37828 0.19913   4
   3  18 -13 0.35538 0.21315   2
   2 -18 -13 0.93126 0.83186   1
   2  18 -13 1.00292 0.35055   1
   2  18 -13 0.69134 0.30191   1
   1 -18 -13 2.86136 0.54754   1
   1  18 -13 2.83179 0.44987   3
   1  18 -13 2.85230 0.46002   3
   0 -18 -13 0.02991 0.34906   4
   0  18 -13 1.33401 0.32871   1
   2 -18  13 0.27549 0.26525   4
   2 -18  13 0.35705 0.10203   4
   2 -18  13 0.40811 0.17346   4
   2  18  13 0.08225 0.07318   1
   2  18  13 -0.0274 0.15543   1
   3 -18  13 0.47761 0.35560   3
   3 -18  13 0.53855 0.25399   3
   3 -18  13 0.37683 0.30380   2
   3  18  13 0.61400 0.16249   4
   3  18  13 0.60503 0.26185   4
   3 -19 -13 0.54302 0.38654   3
   3 -19 -13 0.44091 0.24147   1
   3  19 -13 0.47872 0.22736   4
   3  19 -13 0.06588 0.18467   1
   2 -19 -13 0.64082 0.78728   1
   2  19 -13 0.63657 0.28845   1
   2  19 -13 0.48067 0.30580   2
   1  19 -13 0.19216 0.36414   3
   1  19 -13 0.82644 0.26254   1
   1  19 -13 0.24304 0.23338   1
   0 -19 -13 0.69970 0.28862   1
   0  19 -13 1.36059 0.36482   1
   0  19  13 0.72593 0.27116   1
   1 -19  13 0.04253 0.18067   2
   1 -19  13 0.06374 0.28693   2
   2 -19  13 0.29425 0.18107   2
   2 -19  13 0.02259 0.38484   2
   2 -19  13 0.63256 0.58159   4
   2  19  13 0.79110 0.36376   4
   2  19  13 0.23106 0.24114   2
   3 -19  13 0.17257 0.11169   3
   3 -19  13 0.00000 0.09788   1
   3 -19  13 0.10151 0.11169   3
   3  19  13 0.09857 0.05373   4
   3  19  13 0.25977 0.10747   4
   3 -20 -13 0.23724 0.13683   3
   3 -20 -13 -0.0547 0.20987   3
   3  20 -13 0.14937 0.09962   4
   2 -20 -13 0.92887 0.66218   3
   2 -20 -13 -0.0459 0.39548   3
   2  20 -13 0.27054 0.18029   4
   2  20 -13 0.83160 0.25043   4
   2  20 -13 0.24173 0.19567   2
   1 -20 -13 0.41090 0.18762   1
   1 -20 -13 0.06014 0.29073   4
   1  20 -13 0.97784 0.27934   1
   1  20 -13 0.15964 0.16965   1
   1  20 -13 0.72843 0.18956   1
   0 -20 -13 0.71850 0.33933   2
   0  20  13 0.63862 0.27937   2
   0  20 -13 0.76715 0.23438   2
   0  20 -13 1.00527 0.37200   1
   1 -20  13 -0.0611 0.29515   1
   1 -20  13 0.62082 0.41725   1
  -1  20 -13 -0.2748 0.31557   1
   1  20  13 0.33435 0.21689   1
   2 -20  13 1.68325 0.61211   4
   2 -20  13 1.39091 0.42713   4
   2  20  13 1.37948 0.29755   4
   2  20  13 1.34489 0.43264   4
   3  20  13 -0.0089 0.04438   4
   3  20  13 0.00000 0.12862   1
   2 -21 -13 1.94098 0.71990   3
   2 -21 -13 1.85899 0.46470   3
   2  21 -13 1.09227 0.23047   4
   2  21 -13 0.66047 0.24924   1
   1 -21 -13 0.70143 0.27332   1
   1  21 -13 0.86692 0.29231   1
   1  21 -13 0.62496 0.24196   1
   0 -21  13 0.35441 0.23292   1
   0  21 -13 0.22199 0.28857   2
   0  21  13 0.23008 0.20008   2
   1 -21  13 0.02032 0.04075   4
   1  21  13 -0.0091 0.01805   4
  -1  21 -13 -0.0102 0.03054   4
   2 -21  13 0.20170 0.29722   4
   2 -21  13 0.02449 0.24546   2
   2  21  13 0.24133 0.17876   4
   2  21  13 0.42896 0.18772   4
   2  21  13 0.20079 0.19173   4
   2 -22 -13 1.09216 0.27080   3
   2 -22 -13 0.90257 0.40615   3
   2  22 -13 0.67153 0.20045   4
   2  22 -13 0.40754 0.34943   1
   1 -22 -13 0.04521 0.07244   3
   1 -22 -13 0.07244 0.03622   3
  -1  22  13 0.01806 0.04521   3
   1  22 -13 0.00000 0.03574   1
   0 -22 -13 0.65675 0.27205   3
   0 -22  13 0.25665 0.29164   2
   0  22  13 0.59453 0.30232   2
   0  22 -13 0.30334 0.23336   2
   1 -22  13 -0.0713 0.17309   4
  -1  22 -13 0.07192 0.16789   2
   1  22  13 0.17020 0.14333   4
   1  22  13 0.25979 0.16121   4
   2 -22  13 0.64122 0.38671   4
   2  22  13 0.61518 0.27211   1
   1 -23 -13 0.57344 0.31359   3
   1  23 -13 0.82678 0.31261   4
  -1  23  13 0.56240 0.19395   4
   0 -23 -13 0.45579 0.25022   4
   0 -23  13 0.45615 0.31430   4
   0  23 -13 0.26518 0.13791   4
   0  23  13 0.03153 0.14722   1
  -1  23 -13 0.34610 0.17305   4
   1  23  13 0.27509 0.15966   4
   1  23  13 0.00000 0.19695   1
   1  24 -13 0.31260 0.20166   4
   0 -24  13 0.10454 0.18288   4
   0 -24 -13 0.09050 0.13564   1
   4   0 -14 2.58782 0.76116   1
   2   0 -14 0.10019 0.17034   1
   2   0 -14 0.07014 0.60115   1
   2   0 -14 0.27736 0.30604   2
   2   0 -14 0.17211 0.44957   2
   2   0 -14 0.35392 0.25827   2
   2   0 -14 -0.0766 0.75561   2
   2   0 -14 0.01005 0.14029   1
   2   0 -14 -0.0096 0.15302   2
   0   0 -14 9.50310 1.40934   4
   0   0 -14 10.5702 0.98655   4
   0   0 -14 9.36224 1.46973   4
   2   0  14 0.33212 0.22779   1
   2   0  14 0.21022 0.23020   4
   2   0  14 0.18010 0.31031   4
   2   0  14 -0.4365 0.44606   1
   2   0  14 0.07007 0.16012   4
   4   0  14 2.05227 0.76225   3
   5  -1 -14 -0.0880 0.09777   4
   5   1 -14 -0.0982 0.16690   4
   4  -1 -14 0.79851 0.22956   2
   4  -1 -14 2.06906 0.66747   1
   4   1 -14 1.06621 0.20930   2
   4   1 -14 1.61440 0.52229   1
   3  -1 -14 0.08573 0.11430   1
   3  -1 -14 -0.0286 0.30487   1
   3  -1 -14 0.00000 0.21914   1
   3  -1 -14 0.28585 0.58116   1
   3  -1 -14 0.07627 0.10484   1
   3   1 -14 -0.0473 0.20825   1
   3   1 -14 0.09468 0.09468   1
   3   1 -14 -0.2177 0.35971   1
   3   1 -14 0.07578 0.26504   1
   3   1 -14 0.02839 0.09468   1
   2  -1 -14 -0.0096 0.06720   2
   2  -1 -14 -0.1632 0.23038   2
   2  -1 -14 0.07683 0.08636   2
   2  -1 -14 0.03841 0.19197   2
   2  -1 -14 0.02879 0.15356   2
   2  -1 -14 0.02879 0.05757   2
   2  -1 -14 -0.0192 0.06720   2
   2   1 -14 0.08573 0.15245   2
   2   1 -14 0.10485 0.25730   2
   2   1 -14 0.07627 0.15245   2
   2   1 -14 0.03814 0.08573   2
   2   1 -14 0.00000 0.05786   1
   2   1 -14 -0.0381 0.04760   2
   2   1 -14 -0.1143 0.11431   2
   2   1 -14 -0.0476 0.04760   2
   2   1 -14 0.07627 0.13343   2
   1  -1 -14 0.33150 0.56253   4
   1  -1 -14 0.79256 0.70559   1
   1  -1 -14 0.57995 0.22230   1
   1   1 -14 0.62484 0.62484   2
   1   1 -14 0.40194 0.21105   4
   1   1 -14 0.42112 0.57780   4
   0  -1 -14 24.7420 2.67648   4
   0  -1 -14 25.2652 2.09282   4
   0   1 -14 25.1719 2.56855   4
   0   1 -14 24.3459 2.07499   4
   0   1 -14 23.2781 2.59876   4
   0   1  14 20.9185 2.02248   4
   1  -1  14 1.00417 0.66280   3
   1  -1  14 0.82590 0.25176   4
   1  -1  14 0.86621 0.41289   4
   1   1  14 0.71286 0.22087   4
   1   1  14 0.81327 0.42169   4
   1   1  14 1.11940 0.52677   1
   2  -1  14 0.22068 0.33107   4
   2  -1  14 0.19059 0.25077   4
   2  -1  14 0.58990 0.50429   1
   2  -1  14 0.74212 0.58990   1
   2  -1  14 0.20066 0.26083   4
   2  -1  14 0.05011 0.19059   4
   2   1  14 0.45463 0.28418   1
   2   1  14 0.27962 0.18975   4
   2   1  14 0.71041 0.50205   1
   2   1  14 0.40732 0.23677   1
   2   1  14 0.38832 0.31259   1
   3  -1  14 -0.2137 0.61214   2
   3  -1  14 0.40806 0.33039   2
   3  -1  14 0.44695 0.40806   2
   3  -1  14 0.13068 0.25128   1
   3   1  14 0.01002 0.22974   1
   3   1  14 0.35615 0.24058   2
   3   1  14 0.37536 0.38501   2
   4  -1  14 3.11870 0.56879   3
   4  -1  14 4.49168 0.77478   3
   4   1  14 4.18660 0.91520   3
   5  -1  14 0.81175 0.51541   2
   5   1  14 1.03000 0.43811   3
   5   2 -14 1.76019 0.61955   4
   4  -2 -14 1.92104 0.65946   1
   4  -2 -14 2.07395 0.29632   1
   4   2 -14 2.18139 0.85353   1
   4   2 -14 1.42261 0.69238   1
   3  -2 -14 0.06993 0.17974   3
   3  -2 -14 0.23869 0.45832   1
   3  -2 -14 -0.6779 1.16500   1
   3  -2 -14 0.06993 0.21972   3
   3  -2 -14 0.04989 0.21972   3
   3  -2 -14 -0.2292 0.62067   1
   3   2 -14 0.09984 0.42932   3
   3   2 -14 -0.2546 0.95232   1
   3   2 -14 0.06990 0.52916   3
   3   2 -14 0.21687 0.22633   1
   3   2 -14 0.31117 0.66943   1
   2  -2 -14 0.30055 0.21042   1
   2  -2 -14 0.99159 0.92429   2
   2  -2 -14 0.45480 0.24186   1
   2  -2 -14 -0.3755 0.54882   2
   2  -2 -14 0.65466 0.39469   2
   2  -2 -14 0.59691 0.54882   2
   2  -2 -14 0.30055 0.23041   1
   2   2 -14 0.55997 0.21829   2
   2   2 -14 0.41097 0.32077   1
   2   2 -14 0.27070 0.23057   1
   2   2 -14 0.51246 0.82567   2
   2   2 -14 0.80672 0.42707   2
   2   2 -14 0.00000 0.26914   1
   2   2 -14 0.51246 0.43659   2
   2   2 -14 -0.1803 0.61689   2
   2   2 -14 0.17044 0.18039   1
   1  -2 -14 0.59256 0.66288   4
   1  -2 -14 1.77277 0.89124   1
   1  -2 -14 1.66716 0.34151   4
   1   2 -14 1.77314 0.79557   2
   1   2 -14 1.69652 0.32592   2
   1   2 -14 2.27164 0.87220   2
   0  -2 -14 0.35353 0.43949   1
   0   2  14 0.42991 0.21016   1
   0   2 -14 0.28450 0.53105   1
   0   2 -14 0.03023 0.14116   4
   1  -2  14 2.49117 0.30080   1
   1  -2  14 1.56991 0.58284   1
   1  -2  14 1.46647 0.43244   1
   1   2  14 0.64986 0.48973   1
   1   2  14 0.26366 0.34850   1
   2  -2  14 0.02863 0.11454   1
   2  -2  14 0.02863 0.13370   1
   2  -2  14 0.04769 0.04769   1
   2  -2  14 0.06685 0.13370   1
   2  -2  14 -0.0191 0.06685   1
   2  -2  14 0.00000 0.06685   1
   2  -2  14 0.01906 0.05727   1
   2   2  14 -0.0189 0.06623   1
   2   2  14 0.10409 0.11348   1
   2   2  14 -0.0284 0.04725   1
   2   2  14 -0.0189 0.03786   1
   2   2  14 0.03786 0.04725   1
   3  -2  14 0.12698 0.11718   2
   3  -2  14 -0.0782 0.07819   2
   3  -2  14 0.09768 0.06839   2
   3  -2  14 0.00980 0.13678   2
   3  -2  14 0.04879 0.06839   2
   3   2  14 0.07672 0.08624   2
   3   2  14 0.39294 0.13422   2
   3   2  14 0.09586 0.05749   2
   4  -2  14 0.09841 0.07877   3
   4  -2  14 0.31486 0.20668   3
   4  -2  14 0.03938 0.12792   3
   4   2  14 -0.1843 0.18425   3
   5  -2  14 -0.1162 0.11624   3
   5  -2  14 0.00000 0.07462   1
   5   2  14 -0.0764 0.07639   3
   5   3 -14 2.03574 0.59184   1
   4  -3 -14 0.32579 0.10543   1
   4  -3 -14 -0.0383 0.27783   1
   4   3 -14 0.07588 0.22755   1
   4   3 -14 -0.0284 0.08529   1
   3  -3 -14 3.09835 0.37294   1
   3   3 -14 0.68952 1.30908   3
   3   3 -14 1.21098 0.68529   1
   3   3 -14 1.83986 0.93867   1
   2  -3 -14 -0.2413 1.03281   2
   2  -3 -14 0.89775 0.65636   2
   2  -3 -14 0.79153 0.37645   2
   2  -3 -14 0.13025 0.65125   1
   2  -3 -14 0.64120 0.26050   1
   2  -3 -14 0.67658 0.28027   1
   2   3 -14 0.85071 0.69947   2
   2   3 -14 0.71844 0.86019   2
   2   3 -14 0.67204 0.33099   1
   2   3 -14 0.55161 0.25071   1
   2   3 -14 0.67204 0.48139   1
   2   3 -14 0.46137 0.26077   1
   2   3 -14 0.82236 0.34030   2
   2   3 -14 0.69947 0.18907   2
   2   3 -14 -0.1040 0.56720   2
   1  -3 -14 3.08374 1.07434   4
   1   3 -14 2.20256 0.39223   4
   1   3 -14 2.48412 0.42239   4
   1   3 -14 2.05174 0.85487   4
   1   3 -14 2.66520 0.84478   4
   0  -3 -14 0.29694 0.52672   1
   0   3 -14 -0.0189 0.18954   1
   0   3  14 0.22103 0.27133   4
   1  -3  14 5.70912 0.85890   4
   1  -3  14 5.58790 0.69723   4
   1  -3  14 5.75970 0.64665   4
   1  -3  14 5.34535 1.08117   4
   1   3  14 5.42317 0.96060   4
   1   3  14 5.76342 0.88051   4
   1   3  14 5.82344 0.66041   4
   1   3  14 6.26374 0.72043   4
   2  -3  14 0.29734 0.28772   1
   2  -3  14 0.17257 0.15343   1
   2  -3  14 0.18219 0.26848   1
   2  -3  14 0.12467 0.20143   1
   2  -3  14 0.26848 0.31648   1
   2  -3  14 0.20143 0.11505   1
   2  -3  14 0.14381 0.16305   1
   2  -3  14 0.48905 0.37401   1
   2   3  14 0.00000 0.17006   1
   2   3  14 0.09450 0.29299   2
   2   3  14 -0.0567 0.24569   2
   2   3  14 0.08502 0.13233   2
   2   3  14 -0.1700 0.17005   2
   2   3  14 0.00000 0.09451   1
   3  -3  14 0.94316 0.64841   2
   3  -3  14 0.76627 0.38313   2
   3  -3  14 0.98237 0.41260   2
   3  -3  14 0.43780 0.34619   1
   3  -3  14 0.41737 0.44801   1
   3  -3  14 0.75641 0.77612   2
   3   3  14 0.31816 0.66625   1
   3   3  14 0.46737 0.29832   1
   3   3  14 0.90720 0.33420   2
   4  -3  14 1.01669 0.44418   3
   4  -3  14 1.78674 0.72064   3
   4   3  14 -0.6278 0.64721   3
   5  -3  14 1.03334 0.35320   2
   5  -3  14 1.88592 0.41802   3
   5   3  14 0.57988 0.51551   2
   5   4 -14 1.10487 0.44388   4
   4  -4 -14 0.33616 0.32663   1
   4  -4 -14 0.35543 0.20176   1
   4   4 -14 0.33202 0.54082   1
   3  -4 -14 1.72237 0.69855   1
   3  -4 -14 0.97602 0.54546   1
   3  -4 -14 0.17997 0.22000   2
   3   4 -14 0.35012 0.41013   3
   3   4 -14 0.48580 0.23353   1
   3   4 -14 1.22386 0.88754   1
   3   4 -14 0.17009 0.23010   3
   3   4 -14 0.24014 0.52021   3
   3   4 -14 0.45017 1.17048   3
   3   4 -14 0.07004 0.57029   3
   2  -4 -14 1.96349 0.35791   2
   2  -4 -14 0.58119 0.69145   1
   2  -4 -14 1.10263 0.35791   2
   2  -4 -14 1.08332 0.31920   2
   2  -4 -14 1.77973 0.45464   2
   2  -4 -14 1.65399 1.27678   2
   2   4 -14 2.13740 0.81912   2
   2   4 -14 0.61217 0.89325   1
   2   4 -14 0.38134 0.90321   1
   2   4 -14 0.91328 0.53194   1
   2   4 -14 0.97348 0.49177   1
   2   4 -14 1.08282 0.76265   2
   2   4 -14 1.22401 0.24480   2
   2   4 -14 1.10161 0.34841   2
   2   4 -14 0.77274 0.29104   1
   2   4 -14 0.79288 0.28097   1
   1  -4 -14 13.0937 1.15563   4
   1  -4 -14 15.7019 2.05989   1
   1  -4 -14 11.0763 1.22405   4
   1  -4 -14 12.4007 1.68557   4
   1   4 -14 11.1319 1.69096   4
   1   4 -14 13.8915 1.62705   2
   1   4 -14 10.3871 1.20777   4
   1   4 -14 12.7725 1.14740   4
   0  -4 -14 0.30712 0.47994   1
   0   4 -14 -0.0758 0.12318   1
   0   4  14 0.36469 0.21113   1
   1  -4  14 0.49055 0.18869   1
   1  -4  14 0.71699 0.50938   1
   1  -4  14 0.79241 0.25474   1
   1   4  14 0.27955 0.18970   4
   1   4  14 0.27955 0.17969   4
   1   4  14 0.57607 0.44392   1
   1   4  14 0.12981 0.40936   4
   2  -4  14 0.21209 0.22176   1
   2  -4  14 0.11117 0.37383   4
   2  -4  14 0.35678 0.40494   1
   2  -4  14 0.26992 0.18317   1
   2  -4  14 -0.1253 0.26992   1
   2  -4  14 0.14458 0.50136   1
   2  -4  14 0.25068 0.25068   1
   2  -4  14 0.00000 0.42431   1
   2   4  14 0.08940 0.23850   4
   2   4  14 0.17890 0.12241   2
   2   4  14 0.12917 0.25834   4
   2   4  14 0.14121 0.12241   2
   2   4  14 0.30131 0.45197   2
   2   4  14 -0.1412 0.40493   2
   3  -4  14 0.99846 0.79091   2
   3  -4  14 0.49279 0.36962   1
   3  -4  14 1.06767 0.47449   2
   3  -4  14 0.25664 0.66736   1
   3  -4  14 0.87678 0.48821   4
   3   4  14 -0.3427 0.59971   2
   3   4  14 0.92329 0.33313   2
   3   4  14 -0.1047 0.58061   2
   4  -4  14 0.46538 0.40589   3
   4  -4  14 0.50490 0.24748   3
   4  -4  14 0.19213 0.25991   1
   4   4  14 -0.2020 0.51931   3
   5  -4  14 0.27781 0.41007   2
   5  -4  14 0.25127 0.26454   2
   5   4  14 0.44140 0.32447   2
   5   5 -14 2.01497 0.60247   4
   4   5 -14 -0.0571 0.05705   1
   4   5 -14 -0.0856 0.16171   1
   3  -5 -14 2.10176 1.06092   2
   3  -5 -14 2.54207 0.73064   2
   3  -5 -14 2.70716 0.44964   1
   3   5 -14 2.43406 0.49081   3
   3   5 -14 2.65892 0.63216   1
   3   5 -14 1.67278 1.36221   3
   3   5 -14 2.54418 0.40069   3
   3   5 -14 2.12350 0.75124   3
   3   5 -14 4.56473 1.09703   1
   3   5 -14 2.28375 0.74119   3
   3   5 -14 2.14360 0.41063   3
   2  -5 -14 0.02905 0.05810   2
   2  -5 -14 0.04838 0.03876   2
   2  -5 -14 -0.0484 0.16467   2
   2  -5 -14 -0.0290 0.03876   2
   2  -5 -14 -0.0388 0.11619   2
   2  -5 -14 0.04838 0.03876   2
   2   5 -14 -0.0469 0.13136   2
   2   5 -14 0.00000 0.03800   1
   2   5 -14 0.00941 0.11254   2
   2   5 -14 0.04686 0.02814   2
   2   5 -14 -0.0094 0.12195   2
   2   5 -14 0.03755 0.04686   2
   2   5 -14 0.02814 0.05627   2
   2   5 -14 0.01872 0.02814   2
   1  -5 -14 1.34096 0.32067   2
   1  -5 -14 1.37010 0.86483   2
   1  -5 -14 1.86563 1.05918   2
   1  -5 -14 1.33121 0.31092   2
   1   5 -14 1.10828 0.30229   1
   1   5 -14 0.25185 0.84632   1
   1   5 -14 1.47849 0.42647   2
   1   5 -14 1.03774 0.72545   1
   1   5 -14 1.24159 0.30327   2
   0  -5 -14 0.51914 0.62494   1
   0   5  14 0.24054 0.30065   4
   1  -5  14 6.35845 0.91265   4
   1  -5  14 6.98720 1.22708   4
   1  -5  14 7.08862 0.76058   4
   1   5  14 6.51556 1.11584   4
   1   5  14 7.16936 0.71018   4
   1   5  14 7.13589 0.78746   4
   1   5  14 7.16681 0.96384   4
   2  -5  14 0.15472 0.29014   2
   2  -5  14 0.08701 0.13542   2
   2  -5  14 0.00000 0.18436   1
   2  -5  14 -0.0387 0.20313   2
   2  -5  14 -0.2224 0.22243   2
   2  -5  14 0.06771 0.11602   2
   2  -5  14 -0.1064 0.14502   2
   2   5  14 -0.0375 0.13136   2
   2   5  14 -0.0375 0.11253   2
   2   5  14 0.00995 0.06947   4
   2   5  14 -0.0094 0.08440   2
   2   5  14 0.13136 0.21576   2
   3  -5  14 0.93564 0.42803   2
   3  -5  14 0.20725 0.78752   1
   3  -5  14 0.56987 0.49733   1
   3  -5  14 0.85606 0.65697   2
   3  -5  14 0.84608 0.36833   2
   3   5  14 0.74053 0.22789   2
   3   5  14 1.52858 0.60758   2
   3   5  14 1.01584 0.34179   2
   4  -5  14 0.54410 0.31736   2
   4  -5  14 1.24109 0.48649   3
   4  -5  14 0.72481 0.29787   3
   4  -5  14 0.54380 0.48836   4
   4   5  14 0.59364 0.41173   3
   5  -5  14 0.26814 0.45586   2
   5   5  14 0.93222 0.27305   3
   5  -6 -14 0.27958 0.26991   4
   4  -6 -14 0.23121 0.23121   1
   4   6 -14 0.20268 0.24324   2
   4   6 -14 0.22944 0.35369   1
   4   6 -14 0.80288 0.44928   1
   4   6 -14 0.19251 0.13173   2
   3  -6 -14 0.55082 1.01153   2
   3  -6 -14 1.41412 0.53507   1
   3  -6 -14 1.83447 1.87271   1
   3  -6 -14 1.04149 0.38221   1
   3  -6 -14 0.91415 0.33423   2
   3   6 -14 0.47143 0.58169   3
   3   6 -14 1.07331 0.26830   1
   3   6 -14 0.58169 0.33099   3
   3   6 -14 0.82244 0.61177   3
   3   6 -14 0.24075 1.23361   3
   3   6 -14 0.65192 0.48139   3
   3   6 -14 0.85252 0.29085   3
   2  -6 -14 3.24680 1.12430   2
   2  -6 -14 2.58646 0.46116   1
   2  -6 -14 4.28379 1.11457   2
   2  -6 -14 3.40185 1.25991   2
   2  -6 -14 3.54719 0.48462   2
   2  -6 -14 3.64411 0.60089   2
   2  -6 -14 2.32582 0.47122   1
   2   6 -14 2.94485 1.06180   3
   2   6 -14 2.41364 0.54301   3
   2   6 -14 2.75551 1.10620   3
   2   6 -14 2.89633 0.53303   3
   2   6 -14 2.60470 0.46261   3
   2   6 -14 2.94587 0.60259   3
   2   6 -14 2.75551 0.90505   3
   2   6 -14 2.94485 0.39064   3
   1  -6 -14 1.85323 0.57106   4
   1  -6 -14 2.24269 0.42723   2
   1  -6 -14 2.88349 1.25248   2
   1  -6 -14 1.97352 0.86156   4
   1   6 -14 3.83335 0.90644   2
   1   6 -14 3.26681 0.44380   2
   1   6 -14 3.70114 0.87812   2
   0  -6 -14 0.55813 0.52927   1
   0   6  14 0.28872 0.24055   1
   1  -6  14 0.10161 0.17275   4
   1  -6  14 0.18280 0.32719   4
   1  -6  14 0.47502 0.48446   1
   1   6  14 0.97401 0.37830   1
   1   6  14 0.11932 0.38790   4
   2  -6  14 0.03883 0.07766   2
   2  -6  14 -0.0291 0.06793   2
   2  -6  14 0.02910 0.11639   2
   2  -6  14 0.00973 0.11639   2
   2  -6  14 0.06793 0.05820   2
   2  -6  14 -0.0194 0.05820   2
   2  -6  14 0.00000 0.09776   1
   2   6  14 0.02802 0.06542   2
   2   6  14 0.00937 0.03740   2
   2   6  14 0.01865 0.10281   2
   2   6  14 0.02802 0.06542   2
   2   6  14 0.05605 0.03740   2
   3  -6  14 -0.0803 0.08028   2
   3  -6  14 0.00000 0.05227   1
   3  -6  14 0.03008 0.11036   2
   3  -6  14 0.06016 0.07022   2
   3  -6  14 -0.0200 0.05010   2
   3   6  14 0.08527 0.03793   2
   3   6  14 0.15162 0.03793   2
   3   6  14 0.04734 0.05684   2
   3   6  14 0.02842 0.07586   2
   4  -6  14 0.82625 0.46789   3
   4  -6  14 0.54094 0.57545   1
   4  -6  14 0.71352 0.37979   1
   4   6  14 1.06739 0.46697   3
   4   6  14 0.60486 0.58357   1
   5  -6  14 0.00000 0.15053   1
   5   6  14 0.04680 0.09371   3
   5  -7 -14 0.22093 0.28818   4
   5   7 -14 -0.0890 0.15820   4
   4  -7 -14 2.20450 0.46305   2
   4  -7 -14 3.64198 1.21396   1
   4   7 -14 3.45020 0.35661   1
   4   7 -14 4.14399 0.67465   1
   3  -7 -14 1.30623 0.41000   1
   3  -7 -14 1.60185 1.02018   1
   3  -7 -14 0.58124 1.98429   2
   3  -7 -14 1.40158 0.38141   1
   3  -7 -14 1.27764 0.35281   1
   3   7 -14 1.52921 0.29477   1
   3   7 -14 1.24368 0.47903   1
   3   7 -14 0.77330 0.30132   3
   3   7 -14 0.90387 0.37164   3
   3   7 -14 1.26207 0.42377   1
   3   7 -14 -0.3777 1.12392   1
   2  -7 -14 1.32363 0.38100   4
   2  -7 -14 1.99540 0.38100   4
   2  -7 -14 3.23665 1.55048   2
   2  -7 -14 2.53893 0.52324   2
   2  -7 -14 2.05555 1.11302   4
   2  -7 -14 2.16101 0.41671   2
   2  -7 -14 2.80060 0.93033   2
   2   7 -14 1.04743 0.99712   3
   2   7 -14 1.80279 0.53382   3
   2   7 -14 1.95393 0.29206   3
   2   7 -14 2.24804 0.41048   2
   2   7 -14 2.21080 0.96074   2
   2   7 -14 0.92660 1.22877   3
   2   7 -14 1.63156 0.38268   3
   2   7 -14 1.99413 0.39279   3
   1  -7 -14 -0.0291 0.17440   2
   1  -7 -14 0.16478 0.19385   2
   1  -7 -14 1.07579 0.74623   2
   1  -7 -14 -0.1066 0.47490   2
   1   7 -14 0.24462 0.17874   2
   1   7 -14 0.05047 0.20211   1
   1   7 -14 0.42336 0.26340   2
   1   7 -14 0.18818 0.44224   2
   1   7 -14 0.33871 0.22584   2
   1   7 -14 -0.0753 0.49867   2
   0  -7 -14 6.75980 1.43269   1
   1  -7  14 0.46829 0.44797   4
   1  -7  14 -0.1145 0.61075   1
   1   7  14 1.59696 0.49137   1
   1   7  14 0.47695 0.24839   4
   1   7  14 0.30810 0.19875   4
   1   7  14 0.89772 0.46303   1
   2  -7  14 6.85556 1.43148   2
   2  -7  14 5.12550 0.69151   4
   2  -7  14 5.55260 0.80342   4
   2  -7  14 5.77631 0.93562   4
   2  -7  14 6.76784 0.93488   2
   2  -7  14 3.16276 1.06782   4
   2  -7  14 6.29502 0.83392   4
   2   7  14 5.95949 0.69300   4
   2   7  14 5.68224 0.64345   4
   2   7  14 5.90011 0.81176   4
   2   7  14 5.82087 1.06914   4
   2   7  14 6.72889 1.05164   2
   3  -7  14 0.36297 0.25202   3
   3  -7  14 0.61499 0.35285   3
   3  -7  14 -0.1714 0.41333   3
   3  -7  14 0.08462 0.36997   1
   3   7  14 0.10873 0.21735   1
   3   7  14 0.61544 0.29357   2
   3   7  14 0.20311 0.46413   4
   3   7  14 0.09882 0.22727   1
   4  -7  14 -0.0299 0.27934   3
   4  -7  14 0.47891 0.32928   3
   4  -7  14 0.23227 0.46453   1
   4   7  14 0.80608 0.32247   3
   4   7  14 0.55952 0.19919   3
   4   7  14 0.33189 0.32247   3
   5  -7  14 0.15270 0.30526   2
   5   7  14 0.32869 0.22232   3
   5  -8 -14 -0.0574 0.05738   4
   5   8 -14 0.05931 0.03958   4
   4  -8 -14 -0.0192 0.10594   1
   4   8 -14 0.01041 0.15558   2
   4   8 -14 0.06084 0.08120   4
   4   8 -14 0.15508 0.18415   1
   3  -8 -14 1.37851 0.40880   1
   3  -8 -14 0.73210 0.36102   2
   3  -8 -14 1.70168 1.03627   1
   3  -8 -14 -0.8936 1.88229   1
   3  -8 -14 1.09329 0.50388   1
   3   8 -14 0.61350 0.55317   3
   3   8 -14 0.89605 0.60973   2
   3   8 -14 0.76443 0.38216   3
   3   8 -14 1.02828 0.28465   1
   3   8 -14 1.37712 0.25702   1
   3   8 -14 1.05581 0.90893   1
   2  -8 -14 2.87221 0.48357   1
   2  -8 -14 3.12364 0.54158   1
   2  -8 -14 2.53376 0.98644   1
   2  -8 -14 2.34625 1.67299   4
   2  -8 -14 4.66136 1.18947   1
   2  -8 -14 3.88765 0.62859   1
   2  -8 -14 2.39834 0.46417   1
   2   8 -14 2.69203 0.44708   2
   2   8 -14 3.18564 0.52164   2
   2   8 -14 1.54344 1.02900   3
   2   8 -14 2.33029 0.54470   3
   2   8 -14 3.03661 0.35393   2
   2   8 -14 2.49638 0.83829   2
   2   8 -14 2.34041 1.22065   3
   2   8 -14 1.92685 0.43380   3
   1  -8 -14 0.46395 0.31899   2
   1  -8 -14 1.67225 0.54132   2
   1   8 -14 -0.0281 0.37525   2
   1   8 -14 0.02020 0.28339   4
   0   8 -14 1.39303 0.32536   4
   1  -8  14 0.38461 0.44377   4
   1   8  14 0.40450 0.29165   2
   1   8  14 0.48914 0.22579   2
   1   8  14 -0.0094 0.45149   2
   1   8  14 0.38563 0.46092   2
   1   8  14 0.08934 0.17868   4
   2  -8  14 0.40773 0.38728   1
   2  -8  14 -0.1271 0.73353   2
   2  -8  14 0.31602 0.50966   1
   2  -8  14 1.02697 0.73353   2
   2  -8  14 0.98782 0.49876   2
   2  -8  14 1.27144 0.49876   2
   2  -8  14 0.58103 0.28535   1
   2   8  14 0.76963 0.66760   2
   2   8  14 0.60331 0.24724   4
   2   8  14 0.63360 0.54041   4
   2   8  14 0.83445 0.29669   2
   2   8  14 0.80664 0.31529   2
   2   8  14 0.38574 0.21757   4
   2   8  14 0.63297 0.20775   4
   3  -8  14 0.79778 0.44437   3
   3  -8  14 0.26706 0.55556   1
   3  -8  14 0.11756 0.28850   1
   3  -8  14 0.27778 0.59832   1
   3   8  14 0.73877 0.25576   2
   3   8  14 1.09875 0.53042   2
   3   8  14 1.07025 0.45460   2
   3   8  14 0.56833 0.26516   2
   4  -8  14 1.96807 0.53887   1
   4  -8  14 2.13368 0.68617   3
   4  -8  14 1.45258 0.44510   1
   4   8  14 2.13238 0.33778   4
   5  -8  14 0.00000 0.03766   1
   5   8  14 0.03711 0.02781   3
   5  -9 -14 0.02857 0.07624   3
   5   9 -14 0.00992 0.05931   4
   4  -9 -14 0.76789 0.26269   2
   4  -9 -14 1.41393 0.72139   1
   4   9 -14 1.16240 0.41023   1
   4   9 -14 0.74922 0.36931   2
   3  -9 -14 0.24628 0.18947   1
   3  -9 -14 0.47366 0.44525   1
   3  -9 -14 0.13265 0.19897   1
   3   9 -14 0.07052 0.22157   3
   3   9 -14 0.14661 0.14661   1
   3   9 -14 -0.2841 0.34820   1
   3   9 -14 0.01010 0.29209   3
   2  -9 -14 1.57526 0.36121   4
   2  -9 -14 2.88516 0.55778   1
   2  -9 -14 1.92640 0.48157   4
   2  -9 -14 1.98116 1.01947   1
   2  -9 -14 1.94267 1.02902   1
   2  -9 -14 3.83730 1.77916   1
   2   9 -14 1.84927 0.51533   3
   2   9 -14 2.54543 0.48307   1
   2   9 -14 1.45517 0.37393   3
   2   9 -14 1.67746 0.26273   3
   2   9 -14 1.24291 1.06107   3
   2   9 -14 0.99032 1.42486   3
   2   9 -14 0.43454 0.82864   3
   2   9 -14 1.10152 0.35366   3
   1  -9 -14 0.37566 0.33711   2
   1  -9 -14 0.98253 0.98253   2
   1  -9 -14 0.19266 0.21189   2
   1  -9 -14 0.12013 0.22028   4
   1  -9 -14 -0.3660 0.58754   2
   1   9 -14 0.22469 0.20591   2
   1   9 -14 0.17783 0.63650   2
   1   9 -14 0.53360 0.31830   2
   1   9 -14 0.35567 0.24337   2
   1   9 -14 0.46806 0.21530   2
   0   9 -14 2.55710 0.52975   4
   1  -9  14 1.20585 0.57228   4
   1   9  14 1.15124 0.38703   4
   1   9  14 1.71232 0.37430   2
   1   9  14 0.53585 0.58552   4
   1   9  14 1.85264 0.58013   2
   1   9  14 0.98251 0.30769   4
   2  -9  14 9.19265 1.57307   2
   2  -9  14 6.76521 0.98109   1
   2  -9  14 6.92871 1.07304   1
   2  -9  14 8.70557 1.21802   3
   2  -9  14 8.70555 1.12520   3
   2  -9  14 6.73446 0.92994   1
   2   9  14 8.66837 1.20589   4
   2   9  14 9.90699 0.97965   2
   2   9  14 8.42120 1.40358   4
   2   9  14 8.32235 0.86979   4
   2   9  14 9.29702 0.86869   2
   2   9  14 9.38945 0.87796   2
   2   9  14 10.7018 1.00737   2
   3  -9  14 0.62698 0.46519   3
   3  -9  14 0.84943 0.46519   3
   3  -9  14 0.24274 0.32358   3
   3  -9  14 0.26292 0.24274   3
   3   9  14 0.40803 0.21824   2
   3   9  14 0.37957 0.28468   2
   3   9  14 0.58829 0.41755   2
   3   9  14 0.37005 0.19930   2
   4  -9  14 0.10628 0.30711   1
   4  -9  14 0.16029 0.38068   3
   4   9  14 0.06407 0.14956   2
   4   9  14 0.34724 0.23456   3
   5 -10 -14 0.05022 0.23124   3
   5 -10 -14 0.18960 0.22754   3
   5  10 -14 0.06921 0.13842   4
   4 -10 -14 0.38395 0.39348   1
   4  10 -14 0.42270 0.14740   1
   4  10 -14 0.59958 0.21623   1
   3 -10 -14 2.92099 0.55911   2
   3 -10 -14 2.64046 0.48187   2
   3  10 -14 3.48449 0.56852   1
   3  10 -14 2.16875 0.58504   3
   3  10 -14 3.69540 0.82522   1
   3  10 -14 2.96178 0.40351   1
   2 -10 -14 1.88690 0.46168   4
   2 -10 -14 -0.1432 0.92627   1
   2 -10 -14 2.25369 0.48698   1
   2 -10 -14 2.59748 1.05041   1
   2 -10 -14 0.37138 1.24451   4
   2 -10 -14 2.08753 0.36131   4
   2 -10 -14 3.48552 0.61112   1
   2  10 -14 2.35600 0.43428   1
   2  10 -14 1.18437 0.49603   3
   2  10 -14 0.90097 0.91102   3
   2  10 -14 1.21473 1.13380   3
   2  10 -14 1.33627 0.38463   3
   2  10 -14 1.41720 0.39479   3
   2  10 -14 2.13467 0.40617   3
   2  10 -14 1.85250 1.27545   3
   1 -10 -14 0.94959 0.31653   2
   1 -10 -14 0.40058 0.95132   4
   1 -10 -14 0.47069 0.33047   4
   1 -10 -14 0.77102 0.49067   4
   1 -10 -14 0.47069 0.91124   4
   1  10 -14 0.94454 0.28996   2
   1  10 -14 0.46748 0.92477   3
   1  10 -14 0.51824 0.32518   3
   1  10 -14 0.99136 0.43020   2
   1  10 -14 0.77238 0.96544   3
   0  10 -14 8.09340 0.87190   2
   1 -10  14 -0.1060 0.10605   2
   1  10  14 0.13956 0.04649   2
   1  10  14 0.10241 0.07450   2
   1  10  14 0.00934 0.12099   2
   1  10  14 0.00934 0.11165   2
   1  10  14 0.11165 0.06516   2
   2 -10  14 0.09222 1.04554   1
   2 -10  14 -0.3166 0.41554   2
   2 -10  14 -0.3859 0.83107   2
   2 -10  14 0.71238 0.49474   2
   2 -10  14 0.09222 0.27678   1
   2  10  14 0.32601 0.70137   4
   2  10  14 0.92172 0.25805   2
   2  10  14 0.31610 0.68165   4
   2  10  14 0.10871 0.28647   4
   2  10  14 1.04155 0.25805   2
   3 -10  14 0.45848 0.54586   1
   3 -10  14 0.62229 0.34931   1
   3 -10  14 0.61134 0.53491   1
   3 -10  14 1.59980 0.47592   3
   3  10  14 0.63500 0.28864   4
   3  10  14 1.09104 0.48380   3
   3  10  14 0.98664 0.28463   3
   4 -10  14 0.43600 0.45775   3
   4 -10  14 -0.1204 0.29103   3
   4 -10  14 0.43248 0.36597   3
   4  10  14 0.18400 0.19474   2
   4  10  14 0.92382 0.41988   3
   5  11 -14 0.96201 0.34179   4
   4 -11 -14 0.56414 0.79366   1
   4 -11 -14 0.36331 0.19125   1
   4  11 -14 0.07749 0.30984   2
   4  11 -14 0.04430 0.30984   2
   3 -11 -14 3.56226 0.62036   1
   3 -11 -14 6.56064 1.34405   1
   3 -11 -14 3.52157 0.64844   4
   3  11 -14 3.52866 0.54644   1
   3  11 -14 4.07930 0.48806   1
   3  11 -14 3.76618 0.73670   1
   2 -11 -14 0.77649 0.43559   1
   2 -11 -14 -0.6345 1.08898   1
   2 -11 -14 0.57759 0.22730   1
   2 -11 -14 -0.1231 1.48667   1
   2 -11 -14 0.24098 0.25094   4
   2  11 -14 0.24341 0.35489   3
   2  11 -14 1.25069 0.79093   1
   2  11 -14 0.08117 0.28389   3
   2  11 -14 0.36506 0.35489   3
   2  11 -14 0.11158 0.34482   3
   2  11 -14 0.28389 1.10535   3
   1 -11 -14 1.93267 0.47069   4
   1 -11 -14 2.21634 0.52718   4
   1 -11 -14 2.10293 0.45060   4
   1 -11 -14 3.17417 1.50610   2
   1  11 -14 1.41528 0.42764   3
   1  11 -14 3.31297 0.56155   2
   1  11 -14 2.62976 0.43050   2
   1  11 -14 2.41451 1.08565   2
   1  11 -14 2.21813 1.08971   3
   0  11 -14 0.32723 0.33749   3
   1 -11  14 2.65885 0.62844   2
   1  11  14 1.39833 0.33722   4
   1  11  14 1.36859 0.32728   4
   1  11  14 1.59668 0.54542   4
   2 -11  14 0.30914 0.42876   2
   2 -11  14 -0.0598 0.26924   2
   2 -11  14 0.14406 0.51441   1
   2 -11  14 -0.0100 0.83751   2
   2  11  14 0.41412 0.46932   2
   3 -11  14 0.57780 0.44603   3
   3 -11  14 0.38616 0.35307   1
   3 -11  14 0.61826 0.46626   3
   3 -11  14 0.44140 0.58484   1
   3  11  14 0.67913 0.45272   1
   3  11  14 1.07527 0.26406   1
   4 -11  14 0.33167 0.27139   3
   4 -11  14 0.45224 0.33167   3
   4  11  14 -0.1948 0.37108   3
   4  11  14 0.28762 0.14841   3
   4 -12 -14 0.19977 0.54215   3
   4 -12 -14 0.10465 0.12364   3
   4 -12 -14 1.29341 0.54215   3
   4  12 -14 0.03428 0.31997   2
   4  12 -14 0.09612 0.17092   4
   3 -12 -14 1.17129 0.30922   1
   3 -12 -14 3.09213 1.07758   1
   3  12 -14 0.75658 0.45594   4
   3  12 -14 0.56647 0.27314   3
   3  12 -14 0.34396 0.41467   3
   2 -12 -14 0.32827 0.30955   1
   2 -12 -14 0.02813 0.05626   1
   2 -12 -14 0.09381 0.08440   1
   2 -12 -14 -0.0281 0.04685   1
   2 -12 -14 -0.0094 0.15007   1
   2  12 -14 0.02750 0.03670   1
   2  12 -14 0.06420 0.05500   1
   2  12 -14 -0.0825 0.18339   1
   2  12 -14 0.02750 0.05500   1
   2  12 -14 0.07340 0.06420   1
   1 -12 -14 2.50961 1.56611   1
   1 -12 -14 3.12284 0.66982   1
   1 -12 -14 1.85783 0.42802   4
   1  12 -14 3.78782 0.60791   1
   1  12 -14 0.98947 1.38730   3
   1  12 -14 1.30576 1.17314   3
   0  12 -14 0.40878 0.12358   2
   1 -12  14 1.92354 0.50517   2
   1  12  14 1.83433 0.43633   4
   1  12  14 2.32173 0.44220   2
   1  12  14 2.08219 0.58046   2
   2 -12  14 1.01658 0.47311   2
   2 -12  14 1.73119 0.51329   2
   2  12  14 0.81947 0.29620   4
   2  12  14 1.36072 0.44128   1
   2  12  14 0.23698 0.59239   4
   2  12  14 0.72074 0.36532   4
   3 -12  14 0.11164 0.14207   3
   3 -12  14 0.20293 0.17250   3
   3 -12  14 0.24353 0.18257   3
   3  12  14 0.00991 0.12838   2
   3  12  14 0.06564 0.09376   1
   4 -12  14 0.03686 0.23348   2
   4  12  14 -0.0184 0.22131   3
   4 -13 -14 0.04723 0.02836   3
   4 -13 -14 0.08508 0.07569   3
   4 -13 -14 0.08508 0.06620   3
   4  13 -14 0.05945 0.03967   4
   4  13 -14 0.00000 0.04728   1
   3 -13 -14 0.26194 0.22459   1
   3 -13 -14 0.29010 0.18714   1
   3 -13 -14 0.14969 0.50521   1
   3 -13 -14 0.72041 0.58949   1
   3  13 -14 0.42502 0.16059   1
   3  13 -14 0.28338 0.23610   1
   3  13 -14 0.08009 0.17010   4
   2 -13 -14 0.44577 0.34367   1
   2 -13 -14 0.22293 0.17645   1
   2 -13 -14 0.05571 0.10220   1
   2 -13 -14 0.06503 0.13927   1
   2  13 -14 0.18334 0.13746   1
   2  13 -14 -0.0275 0.12836   1
   2  13 -14 -0.0092 0.07338   1
   1 -13 -14 4.22365 1.88339   1
   1 -13 -14 3.61761 0.61539   1
   1 -13 -14 4.82978 0.86716   1
   1  13 -14 5.99878 0.75566   1
   1  13 -14 1.97215 1.33862   3
   1  13 -14 1.43055 1.23643   3
   0  13 -14 1.48019 0.37242   2
   1 -13  14 3.16921 0.62597   2
   1 -13  14 2.21065 1.13101   3
   1  13  14 3.53572 0.70344   1
   1  13  14 3.20682 0.51164   1
   1  13  14 3.05133 0.54871   4
   2 -13  14 1.49471 0.48804   2
   2 -13  14 1.01677 0.43725   2
   2  13  14 0.36527 0.32576   4
   2  13  14 0.12832 0.24674   4
   2  13  14 0.36527 0.40467   4
   3 -13  14 0.14655 0.55239   1
   3 -13  14 0.14655 0.46215   1
   3  13  14 0.11921 0.33789   2
   3  13  14 0.65223 0.23289   3
   4 -13  14 0.01010 0.08062   3
   4  13  14 0.09161 0.06414   3
   4 -14 -14 1.15228 0.62753   2
   4 -14 -14 1.02837 0.62553   1
   4 -14 -14 1.15293 0.24217   4
   4  14 -14 1.38760 0.31715   4
   4  14 -14 1.11799 0.35977   1
   3 -14 -14 -0.0094 0.44041   1
   3 -14 -14 -0.3654 0.52471   1
   3 -14 -14 0.29981 0.20610   1
   3  14 -14 0.17391 0.19331   1
   3  14 -14 0.11594 0.20300   1
   3  14 -14 0.04160 0.14554   2
   2 -14 -14 0.09200 0.05518   1
   2 -14 -14 0.11959 0.06441   1
   2 -14 -14 0.11959 0.03682   1
   2 -14 -14 0.05518 0.09200   1
   2  14 -14 0.02760 0.03683   1
   2  14 -14 0.02760 0.03683   1
   2  14 -14 0.06443 0.05520   1
   1 -14 -14 2.58697 0.61687   1
   1 -14 -14 3.85746 1.84128   1
   1 -14 -14 2.32355 0.51074   4
   1  14 -14 4.64241 0.67119   1
   1  14 -14 3.39326 0.46613   1
   1  14 -14 1.59642 1.25870   3
   0  14  14 0.74757 0.30905   4
   0  14 -14 -0.1053 0.96676   1
   0  14 -14 0.64736 0.36990   3
   1 -14  14 0.93791 0.87869   2
   1 -14  14 0.58249 0.38503   2
   1  14  14 0.47964 0.28956   1
   1  14  14 0.35292 0.19906   1
   1  14  14 0.23799 0.42636   4
   2 -14  14 0.70314 0.66236   3
   2  14  14 0.31584 0.33565   4
   2  14  14 -0.2826 0.36460   1
   2  14  14 0.38495 0.20733   4
   3 -14  14 0.23372 0.29467   3
   3 -14  14 0.34554 0.36582   3
   3  14  14 0.36094 0.29614   3
   3  14  14 -0.0093 0.14807   3
   4 -14  14 -0.0907 0.22168   3
   4  14  14 0.15472 0.18201   3
   4 -15 -14 0.34086 0.43978   1
   4 -15 -14 0.26389 0.65966   1
   4  15 -14 0.40187 0.41627   1
   4  15 -14 0.41964 0.20442   4
   3 -15 -14 -0.2822 0.57377   1
   3 -15 -14 0.01010 0.24157   4
   3  15 -14 0.35364 0.15716   1
   3  15 -14 0.09824 0.21608   1
   2 -15 -14 2.29977 0.41980   1
   2 -15 -14 2.25409 0.54760   1
   2 -15 -14 3.23064 0.91256   1
   2 -15 -14 2.42756 0.65708   1
   2  15 -14 2.72337 0.54840   1
   2  15 -14 2.13983 0.43173   2
   1 -15 -14 0.66109 0.49079   4
   1 -15 -14 1.04547 0.35454   1
   1  15 -14 1.40130 0.47641   1
   1  15 -14 0.93417 0.31767   1
   0 -15 -14 3.27953 0.58813   4
   0  15 -14 2.59217 0.46286   3
   0  15  14 3.36932 0.57813   4
   1 -15  14 0.21985 0.21985   2
   1  15  14 0.08970 0.10760   1
   2 -15  14 -0.2753 0.27527   3
   2 -15  14 0.45872 0.47917   3
   2  15  14 0.12753 0.12753   1
   2  15  14 0.24593 0.20034   1
   2  15  14 0.18216 0.17302   1
   3 -15  14 0.19317 0.17288   3
   3 -15  14 -0.0814 0.13218   3
   3  15  14 0.02756 0.07357   3
   3  15  14 0.16539 0.14704   3
   4 -15  14 1.37578 0.45864   2
   4  15  14 2.01412 0.21866   3
   4  15  14 2.02257 0.34945   3
   4 -16 -14 0.71543 0.56542   1
   4  16 -14 1.00741 0.25805   4
   3 -16 -14 -0.2157 0.21566   1
   3 -16 -14 -0.0281 0.09377   1
   3  16 -14 0.09938 0.11922   1
   3  16 -14 0.08941 0.05961   1
   2 -16 -14 0.05447 0.49943   1
   2 -16 -14 0.35415 0.29057   1
   2 -16 -14 0.07269 0.22699   1
   2  16 -14 0.06629 0.16098   1
   2  16 -14 -0.0379 0.17988   1
   0 -16 -14 1.15289 0.43232   4
   0  16 -14 1.45906 0.31887   1
   0  16  14 1.73267 0.41084   1
   1 -16  14 0.00000 0.08092   1
   1  16  14 0.03565 0.02672   1
   1  16  14 0.00000 0.03565   1
   2 -16  14 -0.1734 0.39769   3
   2 -16  14 0.43851 0.46909   3
   2  16  14 -0.0823 0.27432   1
   2  16  14 0.23773 0.17371   1
   3 -16  14 0.02356 0.54301   2
   3 -16  14 -0.0915 0.34592   3
   3  16  14 0.25885 0.30030   2
   3  16  14 0.31932 0.13682   3
   4  17 -14 0.60275 0.30127   1
   3 -17 -14 -0.1489 0.14893   3
   3 -17 -14 -0.3537 0.35370   3
   3  17 -14 0.00000 0.08020   1
   3  17 -14 0.01177 0.16424   2
   2 -17 -14 0.52671 0.25424   1
   2 -17 -14 0.09082 0.10895   1
   2  17 -14 0.49674 0.13640   1
   1 -17 -14 0.74894 0.41910   1
   1 -17 -14 0.78462 0.24076   1
   1  17 -14 0.84843 0.24784   1
   1  17 -14 0.77212 0.31459   1
   0 -17 -14 4.81572 0.74778   4
   0  17  14 6.05639 0.69951   1
   0  17 -14 6.04357 0.74204   1
   1 -17  14 -0.2135 0.55902   1
   2 -17  14 0.19782 0.56061   1
   2 -17  14 0.14291 0.63757   1
   2  17  14 0.46798 0.23860   1
   2  17  14 0.42687 0.29413   3
   3 -17  14 0.07125 0.03052   3
   3 -17  14 0.00000 0.05948   1
   3  17  14 0.00908 0.03624   3
   3 -18 -14 -0.0370 0.48944   3
   3 -18 -14 -0.0739 0.16617   3
   3  18 -14 0.19930 0.14942   4
   3  18 -14 0.06343 0.17781   1
   2 -18 -14 0.55817 0.63142   1
   2  18 -14 0.11900 0.21821   1
   2  18 -14 0.30756 0.17850   1
   2  18 -14 0.01088 0.16265   2
   1 -18 -14 0.57155 0.66681   4
   1 -18 -14 0.98695 0.33784   1
   1  18 -14 0.60478 0.43893   1
   1  18 -14 0.37138 0.23727   3
   1  18 -14 0.68287 0.26340   1
   0 -18 -14 0.77634 0.37052   1
   0  18 -14 1.56887 0.36742   1
   1  18  14 0.67746 0.32983   1
   2 -18  14 0.05096 0.16321   4
   2 -18  14 0.00000 0.12327   1
   2  18  14 -0.0274 0.04556   3
   2  18  14 0.17327 0.10942   3
   3 -18  14 0.02031 0.03052   3
   3 -18  14 -0.0102 0.04073   3
   3  18  14 0.01793 0.04488   4
   3  18  14 0.00000 0.02247   1
   3 -19 -14 0.56991 0.27956   1
   3 -19 -14 0.88171 0.68811   1
   3  19 -14 1.03668 0.23361   1
   3  19 -14 0.70084 0.27741   1
   2 -19 -14 -0.0369 0.21216   1
   2  19 -14 0.05005 0.10021   1
   2  19 -14 0.08021 0.10021   1
   1  19 -14 1.28484 0.47803   1
   1  19 -14 1.28484 0.26894   1
   1  19 -14 0.59856 0.33139   2
   0  19 -14 1.31792 0.39235   1
   1 -19  14 0.42764 0.23420   1
   1 -19  14 0.02186 0.36147   2
  -1  19 -14 0.07669 0.32862   2
   2 -19  14 0.15249 0.56301   2
   2 -19  14 0.00000 0.35710   1
   2 -19  14 0.31631 0.12239   4
   2  19  14 0.24422 0.23515   3
   3 -19  14 0.44920 0.25516   3
   3 -19  14 0.45764 0.35865   3
   3  19  14 0.58811 0.13362   4
   3  19  14 0.56139 0.20495   4
   3 -20 -14 0.31689 0.20369   1
   3 -20 -14 0.27171 0.36220   1
   3  20 -14 0.31734 0.22925   1
   3  20 -14 0.40059 0.16234   4
   2 -20 -14 0.03660 0.22859   3
   2  20 -14 0.09020 0.08025   4
   2  20 -14 0.15034 0.12027   4
   2  20 -14 0.00000 0.09591   1
   1  20 -14 2.19475 0.47323   1
   1  20 -14 1.33899 0.28185   1
   0  20 -14 0.19228 0.12142   1
   0  20 -14 -0.0102 0.08102   1
   1 -20  14 0.24447 0.21392   4
   1 -20  14 -0.0305 0.14262   4
  -1  20 -14 0.14262 0.16294   4
   1  20  14 0.03004 0.10016   2
   2 -20  14 0.12239 0.08166   4
   2 -20  14 0.03060 0.06119   4
   2  20  14 0.11655 0.06277   4
   2  20  14 0.05378 0.05378   4
   2 -21 -14 -0.0272 0.09060   3
   2 -21 -14 0.05434 0.05434   3
   2  21 -14 0.01006 0.02001   4
   2  21 -14 0.05009 0.03007   4
   1 -21 -14 -0.1272 0.30887   3
   1  21 -14 0.51443 0.24214   4
   1  21 -14 0.30265 0.20176   4
   0 -21  14 0.12707 0.20781   2
   0  21 -14 0.19270 0.22312   4
   0  21  14 0.02004 0.15058   2
   0  21 -14 0.14203 0.15210   4
   1 -21  14 1.25175 0.27936   4
   1  21  14 0.55753 0.18242   2
  -1  21 -14 0.77331 0.29739   2
   2 -21  14 0.18001 0.32134   2
   2 -21  14 0.07711 0.30857   2
   2  21  14 0.20541 0.18480   4
   2  21  14 -0.0177 0.16880   4
   2 -22 -14 0.56527 0.26018   3
   2 -22 -14 0.49742 0.43256   2
   2  22 -14 0.50024 0.32837   4
   1 -22 -14 1.01632 0.23385   3
   1 -22 -14 1.11529 0.37775   3
   1  22 -14 0.63093 0.20600   1
  -1  22  14 0.15601 0.21852   1
   0 -22  14 0.08551 0.21978   2
   0  22  14 0.12562 0.16143   3
   0  22 -14 0.15208 0.16225   4
   1 -22  14 0.00000 0.05012   1
  -1  22 -14 0.02032 0.05086   4
   1  22  14 0.05341 0.03564   4
   2  22  14 0.02640 0.01757   4
   1 -23 -14 0.36501 0.29383   3
   1 -23 -14 -0.2048 0.20479   3
   1 -23 -14 0.11022 0.11022   1
   1  23 -14 0.01505 0.21002   1
   0 -23  14 0.34480 0.20281   4
   0 -23 -14 0.32276 0.25100   3
   0  23  14 0.11930 0.20597   1
  -1  23 -14 0.60813 0.31786   1
   1  23  14 0.87224 0.23792   3
   5   0 -15 1.50527 0.60925   4
   3   0 -15 -0.0665 0.63627   1
   3   0 -15 -0.3893 0.38928   1
   3   0 -15 -0.1519 0.84515   1
   3   0 -15 0.32950 0.25959   3
   1   0 -15 13.8092 1.24042   4
   1   0 -15 13.8602 1.90177   2
   1   0 -15 11.9217 1.36703   4
   1   0 -15 16.5880 1.81534   2
   1   0  15 5.94285 0.90496   4
   1   0  15 7.04947 0.79268   1
   1   0  15 6.66250 0.68893   1
   1   0  15 6.30800 1.08894   4
   3   0  15 2.06086 0.44895   1
   3   0  15 3.30559 0.78243   2
   3   0  15 2.13113 0.52026   3
   3   0  15 2.15157 0.90956   2
   5   0  15 4.02990 0.74125   2
   5  -1 -15 0.34913 0.36121   1
   5   1 -15 0.72075 0.62297   1
   4  -1 -15 -0.0677 0.24167   1
   4   1 -15 0.00000 0.18332   1
   3  -1 -15 0.17974 1.23855   3
   3  -1 -15 0.12985 0.53932   3
   3  -1 -15 0.42836 0.23795   1
   3  -1 -15 0.35225 0.23795   1
   3  -1 -15 0.88536 0.63786   1
   3   1 -15 -0.4828 0.48281   1
   3   1 -15 0.02996 0.22977   3
   3   1 -15 -0.0568 0.55859   1
   2  -1 -15 0.07674 0.15338   2
   2  -1 -15 0.05751 0.17252   2
   2  -1 -15 -0.0191 0.09588   2
   2  -1 -15 0.15338 0.10550   2
   2  -1 -15 -0.1725 0.35476   2
   2  -1 -15 -0.3739 0.43140   2
   2  -1 -15 0.08626 0.11501   2
   2   1 -15 -0.0857 0.26671   2
   2   1 -15 0.02002 0.10029   1
   2   1 -15 0.25725 0.20956   2
   2   1 -15 0.13340 0.08572   2
   2   1 -15 0.21912 0.14286   2
   2   1 -15 0.15242 0.11429   2
   2   1 -15 -0.0286 0.35252   2
   2   1 -15 0.46681 0.22868   2
   1  -1 -15 0.00000 0.07716   1
   1  -1 -15 -0.1540 0.24065   2
   1  -1 -15 -0.1444 0.21177   2
   1  -1 -15 0.11549 0.09628   2
   1   1 -15 0.00000 0.23039   1
   1   1 -15 0.14368 0.13417   2
   1   1 -15 0.13417 0.07669   2
   1   1 -15 0.23950 0.22998   2
   0  -1 -15 4.78775 1.12657   4
   1  -1  15 3.53725 0.49684   4
   1  -1  15 3.53924 0.62162   4
   1  -1  15 2.66977 0.78580   4
   1  -1  15 3.75764 0.57589   1
   1   1  15 3.71893 0.85891   1
   1   1  15 3.38222 0.49177   4
   1   1  15 3.77555 0.54742   1
   1   1  15 2.87042 0.63231   4
   2  -1  15 0.14375 0.08625   2
   2  -1  15 0.26837 0.24924   2
   2  -1  15 -0.0767 0.11500   2
   2  -1  15 0.13423 0.23962   2
   2  -1  15 0.10548 0.15337   2
   2   1  15 0.08572 0.09527   2
   2   1  15 0.06670 0.14286   2
   2   1  15 0.34297 0.24769   2
   2   1  15 0.05714 0.11429   2
   3  -1  15 0.09241 0.22592   1
   3  -1  15 0.33426 0.36374   2
   3  -1  15 -0.0787 0.51115   2
   3  -1  15 -0.2261 0.41284   2
   3   1  15 -0.0584 0.36023   2
   3   1  15 -0.1557 0.70092   2
   3   1  15 0.78851 0.40885   2
   3   1  15 0.09125 0.28393   1
   4  -1  15 0.00983 0.04896   3
   4  -1  15 0.01956 0.06863   3
   4   1  15 0.04859 0.10704   3
   5  -1  15 0.12174 0.24349   2
   5  -1  15 0.39238 0.37881   2
   5   1  15 -0.0957 0.26798   3
   5   2 -15 0.79312 0.70648   1
   4  -2 -15 1.08483 0.25182   1
   4  -2 -15 1.13321 0.63928   1
   4   2 -15 0.89019 0.24282   2
   4   2 -15 1.61184 0.70461   1
   4   2 -15 1.72762 0.63703   1
   3  -2 -15 1.14451 0.31476   1
   3  -2 -15 0.37197 0.50553   1
   3  -2 -15 0.40057 0.26702   1
   3  -2 -15 0.22984 0.58957   3
   3  -2 -15 0.56274 0.52456   1
   3   2 -15 0.12999 0.83992   3
   3   2 -15 0.59450 0.43406   1
   3   2 -15 0.28997 0.40993   3
   3   2 -15 0.27994 0.24002   3
   2  -2 -15 1.42283 0.64416   2
   2  -2 -15 1.02862 0.41340   2
   2  -2 -15 1.15359 0.82679   2
   2  -2 -15 0.79796 0.24030   2
   2  -2 -15 0.46078 0.29047   1
   2  -2 -15 0.79796 0.87482   2
   2   2 -15 0.96852 0.22792   2
   2   2 -15 1.31977 0.42726   2
   2   2 -15 0.84508 0.27534   2
   2   2 -15 0.83556 0.39878   2
   2   2 -15 0.94947 0.69317   2
   2   2 -15 1.53816 0.73108   2
   2   2 -15 0.73777 0.35920   1
   2   2 -15 0.10037 1.03369   1
   1  -2 -15 3.32813 0.59810   2
   1  -2 -15 3.26069 0.89721   2
   1  -2 -15 2.58537 1.05155   2
   1  -2 -15 2.61430 0.43409   2
   1  -2 -15 2.40931 0.44175   4
   1   2 -15 2.26491 0.48315   4
   1   2 -15 1.92272 0.97640   4
   1   2 -15 1.97300 0.88583   4
   1   2 -15 2.53673 0.48315   4
   1   2 -15 2.54365 0.44710   4
   0  -2 -15 2.98391 0.89420   4
   1  -2  15 2.18024 0.46432   4
   1  -2  15 1.88753 0.67633   4
   1  -2  15 2.43254 0.41379   4
   1   2  15 2.15341 0.39062   4
   1   2  15 2.34369 0.43070   4
   1   2  15 1.58256 0.64098   4
   1   2  15 1.53242 0.54081   4
   2  -2  15 0.46154 0.35583   2
   2  -2  15 0.69236 0.29815   2
   2  -2  15 0.11069 0.21128   4
   2  -2  15 0.07043 0.54313   4
   2  -2  15 0.62503 0.51922   2
   2   2  15 0.43684 0.22795   2
   2   2  15 0.15960 0.40897   4
   2   2  15 0.47485 0.23737   2
   2   2  15 0.59830 0.31339   2
   2   2  15 0.38931 0.25643   2
   3  -2  15 0.60302 0.32625   2
   3  -2  15 0.48631 0.67249   1
   3  -2  15 0.66242 0.77110   2
   3   2  15 1.19255 0.61086   2
   3   2  15 0.44391 0.59518   1
   3   2  15 0.71745 0.39748   2
   3   2  15 0.23202 0.28241   1
   4  -2  15 0.34971 0.42623   4
   4  -2  15 1.01319 0.61977   3
   4   2  15 -0.4844 0.58127   3
   5  -2  15 0.53121 0.29963   2
   5  -2  15 1.46247 0.36800   3
   5   2  15 1.06539 0.55285   2
   5   3 -15 -0.2073 0.20727   4
   4  -3 -15 0.94947 0.60068   1
   4  -3 -15 0.78680 0.23201   2
   4   3 -15 0.16242 0.74114   2
   3  -3 -15 0.05728 0.11457   1
   3  -3 -15 0.07644 0.22923   1
   3  -3 -15 0.14321 0.07644   1
   3   3 -15 -0.0564 0.15986   1
   3   3 -15 0.05640 0.08460   1
   3   3 -15 -0.0188 0.23502   1
   3   3 -15 0.14099 0.15043   1
   3   3 -15 0.02820 0.31972   1
   2  -3 -15 1.02188 0.33061   1
   2  -3 -15 1.58031 0.97322   2
   2  -3 -15 2.02357 0.46249   2
   2  -3 -15 1.58031 1.31045   2
   2  -3 -15 1.94644 0.74192   2
   2  -3 -15 1.60921 0.31800   2
   2   3 -15 0.91419 0.55252   1
   2   3 -15 1.30598 0.32146   1
   2   3 -15 1.34396 0.27445   2
   2   3 -15 1.04479 1.02474   1
   2   3 -15 1.32044 0.41804   3
   2   3 -15 1.45750 0.38799   2
   2   3 -15 1.04479 0.88406   1
   2   3 -15 0.81372 0.32146   1
   2   3 -15 2.37549 0.84234   2
   1  -3 -15 2.67615 0.72459   2
   1  -3 -15 2.66656 1.06271   2
   1  -3 -15 2.38724 1.05321   4
   1  -3 -15 2.42738 0.42126   4
   1  -3 -15 2.25684 0.42126   4
   1  -3 -15 2.97570 0.51207   2
   1   3 -15 2.58210 0.51638   1
   1   3 -15 2.13601 0.40305   4
   1   3 -15 1.44078 0.86653   4
   1   3 -15 1.36023 0.96729   4
   1   3 -15 2.20655 0.42316   4
   0  -3 -15 1.90070 0.81186   1
   0   3  15 1.74587 0.42139   4
   1  -3  15 -0.0095 0.07583   1
   1  -3  15 0.00000 0.02841   1
   1  -3  15 0.03792 0.04732   1
   1   3  15 0.04722 0.02835   1
   1   3  15 0.02835 0.03784   1
   1   3  15 -0.0095 0.07567   1
   1   3  15 0.09454 0.06619   1
   2  -3  15 0.28944 0.23157   2
   2  -3  15 0.06049 0.44374   4
   2  -3  15 0.25082 0.49197   2
   2  -3  15 0.57887 0.59813   2
   2  -3  15 0.23157 0.18328   2
   2  -3  15 0.07060 0.47398   4
   2  -3  15 0.13109 0.27229   4
   2   3  15 0.81403 0.48268   2
   2   3  15 0.56794 0.28397   2
   2   3  15 0.29347 0.21770   2
   2   3  15 0.29347 0.27448   2
   2   3  15 0.03986 0.19920   4
   2   3  15 -0.0379 0.41651   2
   3  -3  15 -0.2785 0.27851   2
   3  -3  15 -0.0597 0.13931   2
   3  -3  15 0.02082 0.37550   1
   3  -3  15 0.07963 0.17902   2
   3  -3  15 -0.0199 0.16915   2
   3   3  15 -0.0290 0.11592   2
   3   3  15 0.06765 0.27051   2
   3   3  15 0.00000 0.12043   1
   4  -3  15 0.62187 0.37504   3
   4  -3  15 1.41146 0.61197   3
   4   3  15 -0.0772 0.59802   3
   4   3  15 0.70416 0.31831   3
   5  -3  15 0.10939 0.30060   4
   5   3  15 -0.0664 0.16132   3
   5   4 -15 0.29658 0.30650   4
   4  -4 -15 3.23600 0.40690   1
   4  -4 -15 2.36260 0.59571   2
   4   4 -15 3.22915 0.84362   1
   4   4 -15 2.91015 0.34176   4
   3  -4 -15 0.54469 0.40130   1
   3   4 -15 -0.9087 1.03985   1
   3   4 -15 0.97426 0.88997   1
   3   4 -15 -0.4496 0.48713   1
   3   4 -15 0.77759 0.67450   1
   3   4 -15 0.33091 0.24069   3
   3   4 -15 0.29078 0.25065   3
   2  -4 -15 4.24747 0.59851   2
   2  -4 -15 3.60713 0.60122   1
   2  -4 -15 4.07873 1.27765   1
   2  -4 -15 5.72453 1.67004   2
   2  -4 -15 3.94784 0.74142   1
   2  -4 -15 3.99789 0.56112   1
   2   4 -15 4.09265 0.48379   1
   2   4 -15 4.58571 0.83980   2
   2   4 -15 3.67081 0.63363   1
   2   4 -15 4.77444 1.17002   2
   2   4 -15 4.66124 0.64161   2
   2   4 -15 3.46965 0.56321   1
   2   4 -15 2.16225 1.18675   1
   1  -4 -15 1.13113 0.93776   2
   1  -4 -15 0.86047 0.29976   2
   1  -4 -15 1.01515 0.44473   2
   1  -4 -15 1.01515 0.58011   2
   1  -4 -15 0.77348 0.28036   2
   1  -4 -15 0.10024 0.69163   4
   1   4 -15 1.30072 0.71207   2
   1   4 -15 2.02232 0.42722   2
   1   4 -15 1.09187 0.31332   2
   1   4 -15 1.65204 0.31332   2
   1   4 -15 1.03492 0.67407   2
   0  -4 -15 4.47374 1.12097   4
   0   4  15 4.07717 0.65112   4
   1  -4  15 0.13173 0.35463   4
   1  -4  15 0.19251 0.21284   4
   1  -4  15 -0.3991 0.53217   1
   1   4  15 0.11969 0.26940   4
   1   4  15 0.38909 0.45894   4
   1   4  15 0.22947 0.18954   4
   2  -4  15 2.42983 0.52271   2
   2  -4  15 1.76908 0.93007   4
   2  -4  15 1.93092 0.43472   4
   2  -4  15 0.58631 0.87947   4
   2  -4  15 1.07163 0.65709   4
   2  -4  15 1.76908 0.36394   4
   2  -4  15 2.69123 0.52271   2
   2   4  15 1.19329 0.42762   4
   2   4  15 1.15359 0.35800   4
   2   4  15 1.04417 0.69615   4
   2   4  15 2.50926 0.38672   2
   2   4  15 1.64086 0.32817   4
   3  -4  15 0.03004 0.14025   3
   3  -4  15 -0.1002 0.10016   3
   3  -4  15 -0.1903 0.19028   3
   3  -4  15 0.06008 0.12015   3
   3   4  15 -0.0675 0.07713   2
   3   4  15 0.14450 0.13493   2
   3   4  15 0.31799 0.19273   2
   4  -4  15 3.04930 0.56383   2
   4  -4  15 4.49553 0.74265   3
   4   4  15 3.05047 0.84372   3
   5  -4  15 0.10730 0.14622   3
   5   5 -15 0.16830 0.19799   4
   4  -5 -15 0.65891 0.27128   1
   4   5 -15 2.39042 0.53442   1
   4   5 -15 1.62276 0.21375   1
   3  -5 -15 -0.0765 0.12419   1
   3   5 -15 0.03012 0.24106   3
   3   5 -15 -0.0466 0.11199   1
   3   5 -15 0.11199 0.11199   1
   3   5 -15 -0.3081 0.33608   1
   3   5 -15 0.04663 0.11199   1
   2  -5 -15 1.33383 0.28028   2
   2  -5 -15 0.90187 0.34077   1
   2  -5 -15 0.90187 0.85181   1
   2  -5 -15 1.46917 0.48329   2
   2  -5 -15 0.98209 0.33071   1
   2  -5 -15 -0.4639 1.33383   2
   2   5 -15 0.67480 0.31225   3
   2   5 -15 1.05746 0.52368   3
   2   5 -15 1.13797 0.38266   3
   2   5 -15 1.25889 0.81572   3
   2   5 -15 0.18122 0.98695   3
   2   5 -15 1.20848 0.23164   3
   2   5 -15 1.11787 0.40286   3
   2   5 -15 0.79562 0.89634   3
   1  -5 -15 1.06341 0.32874   2
   1  -5 -15 0.93193 1.08219   4
   1  -5 -15 0.73151 0.45089   4
   1  -5 -15 0.91182 0.79162   4
   1   5 -15 1.13586 0.85187   2
   1   5 -15 0.95677 0.30616   1
   1   5 -15 0.77768 0.28276   4
   1   5 -15 0.85853 0.43433   4
   1   5 -15 0.81811 0.80808   4
   0  -5 -15 0.11004 0.82000   4
   0   5  15 0.40002 0.38999   4
   0   5 -15 1.54739 0.37975   1
   1  -5  15 0.54825 0.40617   4
   1  -5  15 0.63928 0.63928   1
   1   5  15 0.63443 0.21778   1
   1   5  15 0.41848 0.20929   4
   1   5  15 0.97519 0.46395   1
   2  -5  15 1.80745 0.56359   2
   2  -5  15 1.57419 0.48591   2
   2  -5  15 1.41760 0.42333   3
   2  -5  15 0.97306 0.91215   1
   2  -5  15 0.85136 0.94266   1
   2  -5  15 1.08448 0.32432   1
   2   5  15 1.11226 0.31776   4
   2   5  15 1.24136 0.43700   4
   2   5  15 0.82429 0.70505   4
   2   5  15 0.90367 0.26815   4
   3  -5  15 -0.0101 0.06026   3
   3  -5  15 -0.0502 0.11054   3
   3  -5  15 -0.0201 0.06026   3
   3  -5  15 0.03013 0.09039   3
   3   5  15 0.08653 0.07698   2
   3   5  15 0.17305 0.11537   2
   4  -5  15 0.76470 0.42708   3
   4  -5  15 -0.0298 0.26819   3
   4   5  15 0.55428 0.37271   3
   5  -5  15 0.26411 0.19563   3
   5  -6 -15 0.46550 0.45557   4
   5   6 -15 0.01412 0.46442   1
   4  -6 -15 2.30697 0.35411   2
   4   6 -15 2.57418 0.31141   2
   4   6 -15 1.42202 0.38409   2
   4   6 -15 2.84547 0.61394   1
   3  -6 -15 0.40064 0.57092   2
   3  -6 -15 0.89707 0.39124   1
   3  -6 -15 1.29789 1.85149   1
   3   6 -15 1.80566 0.32573   1
   3   6 -15 1.49851 0.27924   1
   3   6 -15 1.96381 0.64222   1
   3   6 -15 0.95861 1.20070   1
   3   6 -15 1.67533 0.57705   1
   2  -6 -15 1.42159 0.44486   2
   2  -6 -15 0.60928 0.22243   2
   2  -6 -15 1.27657 0.58028   2
   2  -6 -15 0.72530 0.94773   2
   2  -6 -15 1.38288 0.99603   2
   2  -6 -15 0.33078 0.27065   4
   2  -6 -15 0.59958 0.22243   2
   2   6 -15 -0.1597 0.57297   2
   2   6 -15 0.08074 0.86747   3
   2   6 -15 0.66692 0.31000   2
   2   6 -15 0.02013 0.41350   3
   2   6 -15 0.10087 0.26224   3
   2   6 -15 0.01012 0.72623   3
   2   6 -15 0.34298 0.21186   3
   1  -6 -15 0.37673 0.69551   2
   1  -6 -15 0.43467 0.52158   2
   1   6 -15 -0.1888 0.27374   2
   1   6 -15 0.02019 0.47551   4
   1   6 -15 0.05053 0.21249   4
   1   6 -15 0.08613 0.50737   4
   1   6 -15 -0.0661 0.17934   2
   0  -6 -15 2.48276 0.97778   1
   0   6  15 1.13901 0.47956   4
   1  -6  15 5.18650 0.73814   1
   1   6  15 4.71621 0.79547   4
   1   6  15 3.36425 0.81618   4
   1   6  15 3.37413 0.51756   4
   2  -6  15 -0.3026 0.83933   2
   2  -6  15 0.63019 0.29475   1
   2  -6  15 1.10275 0.47820   2
   2  -6  15 0.85880 0.72215   2
   2  -6  15 1.03452 0.51726   2
   2  -6  15 1.02473 0.39039   2
   2   6  15 0.49596 0.21818   4
   2   6  15 0.31737 0.37687   4
   2   6  15 0.77771 0.34670   2
   2   6  15 0.88071 0.55281   2
   2   6  15 0.92761 0.46851   2
   2   6  15 0.75891 0.21550   2
   3  -6  15 0.21460 0.62229   1
   3  -6  15 0.52334 0.48306   3
   3  -6  15 0.59380 0.37242   3
   3  -6  15 0.55352 0.40260   3
   3   6  15 0.68205 0.43228   2
   3   6  15 0.60525 0.42274   2
   3   6  15 0.84539 0.28822   2
   4  -6  15 2.26089 0.50790   3
   4  -6  15 1.16526 0.46814   3
   4   6  15 1.27431 0.52302   3
   5  -6  15 -0.0490 0.17651   3
   5   6  15 0.19637 0.15895   3
   5  -7 -15 0.53731 0.34541   4
   5   7 -15 -0.0594 0.26730   4
   4  -7 -15 0.14500 0.03870   1
   4   7 -15 0.03918 0.01954   1
   4   7 -15 0.04890 0.05872   1
   4   7 -15 -0.0098 0.03918   1
   3  -7 -15 -0.0667 0.58113   1
   3  -7 -15 0.26672 0.11429   1
   3  -7 -15 0.09528 0.09528   1
   3  -7 -15 0.00000 0.10484   1
   3   7 -15 -0.0464 0.09288   1
   3   7 -15 -0.2229 0.38075   1
   3   7 -15 -0.1114 0.17645   1
   3   7 -15 -0.0185 0.15791   1
   3   7 -15 0.01854 0.07434   1
   3   7 -15 0.02785 0.07434   1
   2  -7 -15 4.64434 0.60833   1
   2  -7 -15 3.53532 1.07513   4
   2  -7 -15 7.55067 1.94082   1
   2  -7 -15 4.05539 0.56968   1
   2   7 -15 3.27356 1.17206   3
   2   7 -15 3.17252 0.74762   3
   2   7 -15 2.93000 0.44460   3
   2   7 -15 3.03104 0.38390   3
   2   7 -15 3.53999 0.65486   2
   2   7 -15 1.97016 1.18209   3
   2   7 -15 1.94999 0.44460   3
   2   7 -15 3.12195 1.49535   3
   1  -7 -15 3.27501 0.54078   4
   1  -7 -15 4.55218 1.43697   2
   1  -7 -15 3.11477 1.20181   4
   1  -7 -15 2.70409 0.52079   4
   1   7 -15 2.51332 0.52698   4
   1   7 -15 2.36135 0.46619   4
   1   7 -15 2.92889 0.53715   4
   1   7 -15 1.80397 1.20604   4
   1   7 -15 2.41197 0.48642   4
   0  -7 -15 0.20093 0.41136   1
   0   7 -15 -0.0381 0.09516   2
   0   7  15 0.20093 0.20093   1
   1   7  15 0.53693 0.24856   4
   1   7  15 0.08947 0.52705   4
   1   7  15 0.87644 0.50883   2
   2  -7  15 0.10199 0.88719   1
   2  -7  15 0.67673 0.45115   2
   2  -7  15 0.19374 0.24479   1
   2  -7  15 -0.0294 0.37264   2
   2  -7  15 0.28550 0.44877   1
   2  -7  15 0.45889 0.26515   1
   2  -7  15 0.00000 0.72315   1
   2   7  15 0.34676 0.23783   4
   2   7  15 0.00994 0.53499   4
   2   7  15 -0.3176 0.32687   2
   2   7  15 -0.2335 0.57907   2
   2   7  15 0.08915 0.18824   4
   2   7  15 0.39635 0.23783   4
   3  -7  15 2.34176 0.71556   1
   3  -7  15 3.14550 0.64518   3
   3  -7  15 1.94059 0.54210   1
   3  -7  15 1.98398 0.58538   1
   3   7  15 2.83237 0.49925   2
   3   7  15 2.79394 0.46082   2
   3   7  15 2.86117 0.72008   2
   4  -7  15 -0.0599 0.17969   3
   4  -7  15 0.03997 0.11979   3
   4  -7  15 -0.1398 0.16977   3
   4   7  15 0.13248 0.13248   3
   4   7  15 -0.0379 0.18923   3
   4   7  15 0.17974 0.08512   3
   5  -8 -15 0.21972 0.29619   4
   5   8 -15 0.60374 0.26727   4
   4  -8 -15 0.72383 0.35712   1
   4   8 -15 0.34392 0.18669   1
   4   8 -15 0.00000 0.10136   1
   3  -8 -15 6.80563 0.81747   1
   3  -8 -15 6.31137 0.76989   1
   3   8 -15 4.95491 0.93855   3
   3   8 -15 5.47594 0.64041   1
   3   8 -15 5.33205 0.79032   4
   3   8 -15 6.84028 0.65894   1
   3   8 -15 6.07921 1.09519   1
   2  -8 -15 4.52972 1.72146   1
   2  -8 -15 4.16431 1.07716   1
   2  -8 -15 1.23716 0.43209   4
   2   8 -15 0.19229 0.99193   3
   2   8 -15 1.26300 0.95426   1
   2   8 -15 1.34717 0.45841   1
   2   8 -15 -0.2432 1.04782   1
   2   8 -15 1.86170 0.39291   1
   2   8 -15 1.10331 0.35423   3
   2   8 -15 1.28167 0.25262   1
   2   8 -15 0.80979 0.38459   3
   1  -8 -15 2.01084 0.33672   2
   1  -8 -15 1.61642 0.52915   2
   1  -8 -15 2.97293 1.36627   2
   1  -8 -15 1.42199 1.14154   4
   1  -8 -15 1.53207 0.40057   4
   1   8 -15 0.81239 0.35537   3
   1   8 -15 1.91873 0.48907   2
   1   8 -15 1.47241 1.19821   3
   1   8 -15 1.28957 0.37574   3
   0  -8 -15 -0.0096 0.72432   2
   0   8  15 0.17149 0.33353   2
   1  -8  15 3.87237 0.79694   4
   1   8  15 2.74249 0.82476   4
   1   8  15 3.83546 0.55645   4
   1   8  15 4.42171 0.86443   4
   1   8  15 3.66652 0.55645   4
   2  -8  15 0.03948 0.09865   2
   2  -8  15 -0.0296 0.20719   2
   2  -8  15 0.04927 0.12823   2
   2  -8  15 0.00990 0.20719   2
   2  -8  15 0.05917 0.12823   2
   2   8  15 -0.0373 0.05587   2
   2   8  15 0.07455 0.13967   2
   2   8  15 -0.1211 0.16760   2
   2   8  15 -0.0652 0.06521   2
   2   8  15 0.04652 0.06521   2
   3  -8  15 5.40168 0.99960   3
   3  -8  15 5.34112 0.95919   3
   3  -8  15 4.25124 0.89847   1
   3  -8  15 4.66767 0.83275   1
   3   8  15 5.28802 0.62154   3
   3   8  15 5.16371 0.65022   3
   3   8  15 4.30513 0.78547   1
   3   8  15 4.95337 0.77453   3
   4  -8  15 -0.1601 0.21024   3
   4  -8  15 0.04006 0.14016   3
   4   8  15 0.02822 0.07532   3
   4   8  15 0.06588 0.13177   3
   5  -9 -15 0.96568 0.93891   1
   5  -9 -15 0.69742 0.49630   1
   5   9 -15 1.07244 0.41918   4
   4  -9 -15 0.37541 0.16366   1
   4  -9 -15 1.03963 0.69309   1
   4   9 -15 0.26665 0.27646   1
   4   9 -15 0.12837 0.21722   1
   3  -9 -15 0.38861 0.15166   1
   3  -9 -15 0.44557 0.43606   1
   3   9 -15 -0.0744 0.13939   1
   3   9 -15 0.16726 0.20447   1
   3   9 -15 0.23234 0.12083   1
   3   9 -15 0.10228 0.18591   1
   2  -9 -15 2.97504 1.12880   1
   2  -9 -15 3.23335 1.76017   1
   2  -9 -15 3.23335 0.45914   1
   2  -9 -15 3.89341 0.60269   1
   2   9 -15 2.16197 0.46597   1
   2   9 -15 1.63267 0.41572   3
   2   9 -15 0.60848 1.13578   3
   2   9 -15 1.56168 1.60226   3
   2   9 -15 0.77072 1.12561   3
   2   9 -15 2.02222 0.52187   1
   1  -9 -15 1.37170 1.06137   4
   1  -9 -15 2.61845 1.19892   2
   1   9 -15 6.45923 1.25987   2
   1   9 -15 3.38475 0.55473   2
   1   9 -15 3.95824 0.62999   2
   0  -9 -15 0.33207 0.18027   2
   0   9  15 0.12335 0.05692   2
   1  -9  15 0.45425 0.25126   2
   1   9  15 0.12145 0.26155   2
   1   9  15 0.03974 0.16884   4
   2  -9  15 0.64556 0.36751   2
   2  -9  15 0.32776 0.25822   2
   2  -9  15 0.50649 0.28801   2
   2  -9  15 0.31780 0.54624   2
   2  -9  15 -0.0100 0.30794   2
   2   9  15 0.09331 0.18661   4
   2   9  15 0.23230 0.12081   2
   2   9  15 0.13936 0.20443   2
   2   9  15 -0.0929 0.32524   2
   2   9  15 -0.0836 0.26017   2
   3  -9  15 2.25919 0.63128   1
   3  -9  15 3.55870 0.65714   3
   3  -9  15 4.32709 0.81889   3
   3  -9  15 3.19448 0.63262   3
   3   9  15 3.19427 0.56374   3
   3   9  15 3.42397 0.48502   3
   3   9  15 3.39545 0.71332   3
   3   9  15 2.76114 0.52643   1
   4  -9  15 0.31100 0.20063   3
   4  -9  15 0.16048 0.19056   3
   4  -9  15 0.15042 0.20063   3
   4   9  15 0.21521 0.16838   3
   4   9  15 0.01107 0.13234   2
   5 -10 -15 0.28383 0.28383   3
   5  10 -15 0.22887 0.26715   4
   4 -10 -15 2.02261 0.80520   3
   4  10 -15 1.41796 0.35726   2
   4  10 -15 1.42916 0.63646   2
   3 -10 -15 1.57873 1.03984   1
   3 -10 -15 1.12500 0.34981   1
   3 -10 -15 0.63233 0.30111   2
   3  10 -15 0.48597 0.40503   3
   3  10 -15 0.43539 0.30377   3
   3  10 -15 1.05522 0.35483   1
   2 -10 -15 0.54171 0.69374   1
   2 -10 -15 1.13088 0.78878   1
   2 -10 -15 -0.8362 1.21638   1
   2 -10 -15 0.37061 0.27557   1
   2 -10 -15 0.22810 0.35164   1
   2 -10 -15 0.34210 0.19007   1
   2  10 -15 -0.2230 0.90108   1
   2  10 -15 0.78032 0.25085   1
   2  10 -15 1.46782 0.73391   1
   2  10 -15 1.39346 0.32512   1
   2  10 -15 0.04066 0.30482   3
   2  10 -15 0.11180 0.84331   3
   2  10 -15 0.56665 0.31589   1
   1 -10 -15 -0.1815 1.38495   2
   1 -10 -15 1.38463 0.35862   4
   1 -10 -15 1.02122 0.39045   4
   1 -10 -15 1.23141 0.55063   4
   1  10 -15 0.34672 1.10121   3
   1  10 -15 -0.0188 0.38587   2
   1  10 -15 1.76961 0.33885   2
   1  10 -15 1.42132 0.47066   2
   1  10 -15 1.19295 1.07063   3
   0 -10 -15 0.48863 0.84763   4
   0  10  15 1.03872 0.50051   2
   0  10 -15 0.34803 0.33776   3
   1 -10  15 4.21979 0.79546   2
   1  10  15 2.72554 0.76280   2
   1  10  15 3.53490 0.55817   2
   2 -10  15 0.27951 1.14896   1
   2 -10  15 1.29176 0.49065   2
   2 -10  15 0.41407 0.47615   1
   2 -10  15 0.75566 0.59005   1
   2  10  15 1.57773 0.30627   2
   2  10  15 1.28077 0.34342   2
   2  10  15 1.17864 0.35263   2
   2  10  15 0.03957 0.80080   4
   2  10  15 0.67227 0.29662   4
   3 -10  15 0.83003 0.34420   3
   3 -10  15 1.12356 0.52635   3
   3 -10  15 0.81988 0.46563   3
   3 -10  15 0.57075 0.55964   1
   3  10  15 0.81334 0.28373   3
   3  10  15 0.95516 0.28373   3
   3  10  15 1.04973 0.47288   3
   4 -10  15 0.08531 0.21925   2
   4 -10  15 -0.2814 0.28135   3
   4 -10  15 0.09261 0.19555   3
   4  10  15 0.21395 0.26975   3
   4  10  15 0.18605 0.10236   3
   4 -11 -15 0.00957 0.10493   3
   4 -11 -15 -0.0382 0.03817   3
   4 -11 -15 0.12396 0.12396   3
   4  11 -15 -0.0297 0.02975   4
   4  11 -15 0.13890 0.04955   4
   3 -11 -15 0.33956 0.17919   1
   3 -11 -15 0.07550 0.18866   1
   3 -11 -15 0.02004 0.40168   4
   3  11 -15 -0.1225 0.22620   1
   3  11 -15 -0.0848 0.13196   1
   3  11 -15 0.00000 0.14132   1
   2 -11 -15 3.77213 0.92416   1
   2 -11 -15 4.57370 0.72608   1
   2 -11 -15 2.30094 0.41498   1
   2 -11 -15 4.79060 1.92381   1
   2  11 -15 2.04956 0.45443   1
   2  11 -15 1.08911 1.32323   3
   2  11 -15 1.26218 0.39697   3
   2  11 -15 1.04838 0.48855   3
   1 -11 -15 2.81482 1.25108   1
   1 -11 -15 1.63010 0.48332   1
   1 -11 -15 2.08509 0.40755   1
   1  11 -15 2.43310 0.52813   1
   1  11 -15 -0.0660 1.07508   1
   1  11 -15 0.07154 1.37935   3
   1  11 -15 2.30104 0.42436   1
   0  11 -15 1.26139 0.39996   3
   1 -11  15 1.09224 0.52655   2
   1  11  15 0.04956 0.57547   4
   1  11  15 0.85242 0.32426   2
   1  11  15 0.43381 0.32533   4
   2 -11  15 -0.0202 0.14160   2
   2 -11  15 -0.0505 0.11127   2
   2  11  15 0.03714 0.07428   2
   2  11  15 0.03714 0.04635   2
   2  11  15 0.02783 0.05566   2
   2  11  15 0.02783 0.09280   2
   3 -11  15 -0.0202 0.04056   3
   3 -11  15 -0.0304 0.07095   3
   3  11  15 0.04696 0.03762   3
   3  11  15 -0.0188 0.01876   3
   3  11  15 0.00000 0.03926   1
   4 -11  15 0.07048 0.11077   3
   4 -11  15 0.06038 0.14096   3
   4  11  15 0.13864 0.17564   3
   4  11  15 0.02284 0.08011   2
   4 -12 -15 2.34000 0.83206   1
   4 -12 -15 2.60173 0.82828   3
   4 -12 -15 2.16318 0.34321   1
   4  12 -15 2.60420 0.45182   4
   4  12 -15 2.05167 0.64408   2
   3 -12 -15 -0.0188 0.05652   1
   3 -12 -15 0.03771 0.06597   1
   3 -12 -15 0.21673 0.15075   1
   3  12 -15 0.00960 0.04779   1
   3  12 -15 0.05739 0.08608   1
   3  12 -15 0.03829 0.07658   1
   2 -12 -15 2.20714 0.75751   1
   2 -12 -15 1.33734 0.55178   1
   2 -12 -15 1.23453 0.29925   1
   2 -12 -15 1.59925 0.44887   1
   2  12 -15 2.76552 0.50108   1
   2  12 -15 1.97670 0.38975   1
   2  12 -15 1.17270 0.45885   3
   2  12 -15 2.41281 0.51970   1
   1 -12 -15 0.12203 0.60073   1
   1 -12 -15 0.08446 0.20649   1
   1 -12 -15 0.06572 0.12203   1
   0  12 -15 8.02063 0.93059   2
   1 -12  15 0.44595 0.39523   1
   1  12  15 0.64627 0.32309   2
   1  12  15 0.42658 0.33732   4
   1  12  15 -0.5447 0.54469   2
   2 -12  15 1.77007 0.54927   3
   2  12  15 1.03733 0.32603   4
   2  12  15 2.03488 0.46461   1
   2  12  15 1.35655 0.39024   1
   3 -12  15 -0.0406 0.08119   3
   3 -12  15 -0.0710 0.13186   3
   3  12  15 -0.0654 0.06541   3
   3  12  15 -0.0374 0.08405   3
   4 -12  15 2.78240 0.62827   2
   4  12  15 3.60088 0.53276   3
   4 -13 -15 1.72622 0.29832   1
   4 -13 -15 1.00164 0.92703   1
   4 -13 -15 1.38525 0.60744   1
   4  13 -15 1.86475 0.44843   4
   4  13 -15 1.68169 0.39802   1
   3 -13 -15 0.84902 0.31134   1
   3 -13 -15 0.27139 0.67343   4
   3 -13 -15 0.33963 0.32080   1
   3  13 -15 0.13577 0.26107   2
   3  13 -15 -0.0291 0.33038   1
   3  13 -15 0.15662 0.24022   2
   2 -13 -15 0.89042 0.48228   1
   2 -13 -15 0.68630 0.39883   1
   2 -13 -15 0.63067 0.93675   1
   2 -13 -15 0.72342 0.27826   1
   2  13 -15 0.66163 0.37279   1
   2  13 -15 0.44949 0.40860   3
   2  13 -15 0.51076 0.23494   3
   1 -13 -15 0.18576 0.94731   1
   1 -13 -15 0.36219 0.31580   1
   1 -13 -15 0.10219 0.18576   1
   1  13 -15 -0.0566 0.63171   1
   1  13 -15 0.40541 0.28285   1
   1  13 -15 0.40541 0.18857   1
   0  13  15 1.80166 0.36960   1
   0  13 -15 2.53160 0.50244   1
   1 -13  15 -0.1289 0.33713   2
   1 -13  15 -0.0297 0.13883   2
   1  13  15 -0.0092 0.06422   1
   1  13  15 -0.0550 0.22016   1
   2 -13  15 0.60072 0.50911   3
   2  13  15 0.56570 0.30606   1
   2  13  15 0.24113 0.17619   1
   2  13  15 0.35239 0.14838   1
   3 -13  15 -0.2030 0.30457   3
   3 -13  15 0.40610 0.26394   3
   3  13  15 0.30625 0.19492   3
   3  13  15 0.62182 0.26911   3
   4 -13  15 -0.0303 0.17159   3
   4  13  15 -0.0182 0.14599   3
   4 -14 -15 -0.1030 0.42134   3
   4  14 -15 0.40238 0.31188   4
   4  14 -15 0.17013 0.35448   1
   3 -14 -15 -0.0188 0.04714   1
   3 -14 -15 0.10385 0.09438   1
   3  14 -15 -0.0394 0.04916   1
   3  14 -15 0.00000 0.03038   1
   3  14 -15 0.01964 0.03939   1
   2 -14 -15 0.26107 0.80337   4
   2 -14 -15 1.35338 0.53396   1
   2 -14 -15 0.13054 0.45184   4
   2 -14 -15 0.78322 0.26107   4
   2  14 -15 0.78768 0.27624   3
   2  14 -15 1.43911 0.40448   1
   2  14 -15 0.85803 0.40489   4
   1  14 -15 3.61199 0.63357   1
   0 -14 -15 1.82403 0.46851   4
   0  14 -15 2.03082 0.44329   3
   0  14 -15 1.74212 1.24734   3
   0  14  15 1.98350 0.40862   4
   1 -14  15 0.76272 0.47171   2
   1  14  15 1.24670 0.36403   1
   1  14  15 1.46514 0.36403   1
   2 -14  15 -0.1426 0.16298   3
   2  14  15 0.15744 0.06483   1
   2  14  15 0.06483 0.04625   1
   2  14  15 0.12966 0.10189   1
   3 -14  15 0.46682 0.45511   1
   3 -14  15 0.54852 0.35011   1
   3  14  15 0.26481 0.25459   2
   3  14  15 0.79262 0.31339   3
   4 -14  15 0.95690 0.34178   1
   4  14  15 1.01494 0.27187   3
   4 -15 -15 0.11156 0.33477   3
   4  15 -15 0.16869 0.11903   4
   3 -15 -15 0.62062 0.34794   1
   3 -15 -15 -0.0753 0.09404   1
   3  15 -15 0.23857 0.14904   1
   3  15 -15 0.02229 0.10048   2
   2 -15 -15 0.80597 0.53119   1
   2  15 -15 1.43430 0.33464   1
   2  15 -15 1.86457 0.25820   1
   1 -15 -15 0.67259 0.34537   1
   1 -15 -15 0.12012 0.46059   4
   1  15 -15 1.44691 0.32368   1
   1  15 -15 1.34217 0.47597   1
   0 -15 -15 0.83234 0.35283   1
   0  15  15 0.70566 0.28050   1
   0  15 -15 0.89981 0.26410   1
   1 -15  15 1.13850 0.50828   2
   1  15  15 1.45540 0.36161   1
   1  15  15 0.94010 0.36161   1
   2 -15  15 0.36689 0.50960   3
   2 -15  15 0.10938 0.61250   1
   2  15  15 0.53754 0.19468   1
   3 -15  15 0.09518 0.38049   2
   3  15  15 0.53067 0.37510   3
   3  15  15 0.27415 0.20796   3
   4 -16 -15 0.06073 0.25535   1
   4  16 -15 0.05735 0.19124   1
   3 -16 -15 -0.3548 0.35480   3
   3 -16 -15 0.13076 0.15876   3
   3  16 -15 0.14948 0.10969   4
   3  16 -15 0.09969 0.19938   4
   2 -16 -15 0.10972 0.16458   1
   2 -16 -15 -0.2012 0.36587   1
   2 -16 -15 0.00000 0.20119   1
   2  16 -15 0.03911 0.08792   1
   2  16 -15 0.36159 0.15634   1
   2  16 -15 -0.0293 0.13683   1
   1 -16 -15 4.12824 0.78415   1
   1 -16 -15 4.59694 0.69400   1
   1  16 -15 4.94303 0.59740   1
   1  16 -15 4.95269 0.80936   1
   0 -16 -15 -0.0628 0.27808   1
   0  16  15 0.34078 0.30498   1
   0  16 -15 0.16531 0.21703   3
   1 -16  15 4.98765 0.74815   2
   2 -16  15 -0.4282 0.42817   3
   2 -16  15 0.26506 0.53013   3
   2  16  15 0.12904 0.24812   2
   2  16  15 0.30411 0.21195   1
   3 -16  15 0.90533 0.41700   3
   3  16  15 0.98988 0.34505   3
   3 -17 -15 0.38144 0.82472   1
   3 -17 -15 0.62079 0.31504   3
   3  17 -15 0.29827 0.21127   1
   3  17 -15 0.54681 0.27334   1
   2 -17 -15 0.04589 0.09188   1
   2 -17 -15 -0.0092 0.04589   1
   2  17 -15 0.08923 0.04954   1
   2  17 -15 0.00995 0.04954   1
   1 -17 -15 -0.1167 0.20639   1
   1 -17 -15 0.10019 0.40968   4
   1  17 -15 0.02061 0.22710   3
   1  17 -15 0.86508 0.20648   1
   1  17 -15 0.32442 0.30479   1
   0 -17 -15 0.48178 0.19627   1
   0  17 -15 0.38061 0.24044   1
   0  17  15 0.16951 0.24094   1
   1 -17  15 0.35122 0.42574   2
   1  17  15 0.50052 0.25500   2
   2 -17  15 0.07952 0.51107   2
   2 -17  15 0.31618 0.29572   4
   2  17  15 0.54890 0.21958   3
   2  17  15 0.18297 0.18297   3
   3 -17  15 0.08146 0.20355   3
   3  17  15 -0.1442 0.14416   3
   3 -18 -15 0.02120 0.50991   1
   3 -18 -15 0.69836 0.27568   3
   3  18 -15 0.42091 0.25246   1
   3  18 -15 0.51855 0.18945   4
   2 -18 -15 1.18410 0.79558   1
   2  18 -15 0.03392 0.30536   2
   2  18 -15 0.79114 0.30044   1
   2  18 -15 0.22618 0.22618   2
   1 -18 -15 1.22355 0.66558   4
   1  18 -15 1.60550 0.47862   1
   1  18 -15 0.82110 0.29855   2
   1  18 -15 1.00242 0.29855   2
   0  18 -15 0.66540 0.33270   1
  -1  18 -15 0.28494 0.38354   2
   2 -18  15 0.32900 0.62288   2
   2 -18  15 0.66297 0.51001   4
   2  18  15 -0.0544 0.35380   3
   3 -18  15 0.30545 0.22395   3
   3 -18  15 0.32577 0.26470   3
   3  18  15 0.27711 0.18773   3
   3 -19 -15 0.03322 0.11076   1
   3 -19 -15 0.09110 0.26417   3
   3  19 -15 0.04982 0.05983   4
   3  19 -15 0.04335 0.07584   4
   2 -19 -15 0.77086 0.55067   3
   2  19 -15 0.42546 0.29894   4
   2  19 -15 -0.0602 0.24077   4
   1  19 -15 0.00000 0.03183   1
   1  19 -15 -0.0201 0.03017   1
   1  19 -15 0.14084 0.07042   1
   0  19 -15 1.25531 0.37460   1
   1 -19  15 0.11208 0.15274   4
   1 -19  15 -0.0815 0.23427   4
  -1  19 -15 -0.1426 0.15274   4
   1  19  15 0.09101 0.10917   1
   2 -19  15 0.45902 0.29582   4
   2 -19  15 -0.2040 0.29582   4
   2  19  15 0.22482 0.22482   3
   2 -20 -15 0.94565 0.56376   3
   2  20 -15 0.59697 0.27360   3
   2  20 -15 0.59861 0.20307   4
   2  20 -15 0.36595 0.23523   1
   1 -20 -15 0.26435 0.28264   3
   1  20 -15 0.15134 0.27251   4
   1  20 -15 0.17158 0.10093   4
   1  20 -15 -0.0404 0.12107   4
   0  20 -15 1.54992 0.39039   2
   0  20 -15 0.96434 0.33292   2
   1 -20  15 0.48883 0.40741   4
   1 -20  15 -0.0509 0.27501   4
  -1  20 -15 0.16597 0.24895   2
   1  20  15 0.13117 0.17155   2
   2 -20  15 1.74738 0.43679   4
   2 -20  15 1.50123 0.43632   2
   2  20  15 1.85412 0.38333   3
   2 -21 -15 0.56417 0.50997   1
   2  21 -15 0.77526 0.31932   1
   2  21 -15 0.89695 0.27357   1
  -1  21  15 0.03613 0.03613   3
   1  21 -15 0.02014 0.03027   4
   1  21 -15 0.03027 0.02014   4
   0 -21  15 0.40583 0.22316   4
   0  21 -15 0.31455 0.17249   4
   0  21 -15 0.14512 0.15726   2
   1 -21  15 0.16292 0.14260   4
   1 -21  15 0.09162 0.13238   4
   1  21  15 0.10719 0.08039   3
   1  21  15 0.09832 0.12511   3
  -1  21 -15 0.21390 0.16292   4
   2 -21  15 0.01023 0.06119   4
   2  21  15 0.07070 0.05298   4
   2  21  15 0.04412 0.03535   4
   1 -22 -15 0.40219 0.14300   3
   1 -22 -15 -0.0536 0.54519   3
   1 -22 -15 0.62570 0.27712   3
   1  22 -15 0.15519 0.21148   1
  -1  22  15 0.11784 0.17133   1
   0 -22  15 0.43620 0.29415   4
   0 -22 -15 0.54371 0.20502   3
   0  22 -15 0.20889 0.22199   1
   0  22  15 0.12660 0.15825   1
   1  22  15 1.10750 0.30698   1
  -1  22 -15 0.71829 0.27942   2
   1  23 -15 0.52026 0.32867   4
   0 -23 -15 0.16762 0.08824   3
   0  23  15 0.04498 0.10111   1
   4   0 -16 0.10258 0.64625   2
   2   0 -16 0.56158 0.58160   1
   2   0 -16 0.55152 0.38103   1
   2   0 -16 1.32074 1.11972   2
   2   0 -16 0.37107 0.56158   1
   2   0 -16 0.44128 0.24071   1
   2   0 -16 0.39109 0.28074   1
   2   0  16 -0.0672 0.26878   2
   2   0  16 0.49924 0.36480   2
   2   0  16 -0.1440 0.53766   2
   4   0  16 -0.1561 0.22445   3
   5  -1 -16 0.24463 0.33478   1
   5   1 -16 0.17076 0.55168   1
   4  -1 -16 1.75095 0.78261   1
   4   1 -16 2.63670 0.64694   1
   3   1 -16 0.89313 0.53210   1
   3   1 -16 0.29006 0.70022   3
   3   1 -16 1.14970 0.30403   1
   3   1 -16 0.27009 0.99028   3
   2  -1 -16 0.18228 0.43173   2
   2  -1 -16 0.05755 0.17265   2
   2  -1 -16 0.25908 0.10558   2
   2  -1 -16 -0.0672 0.52768   2
   2  -1 -16 -0.0288 0.12473   2
   2  -1 -16 0.03840 0.19190   2
   2   1 -16 0.13367 0.10504   2
   2   1 -16 0.02004 0.13049   1
   2   1 -16 0.25776 0.23860   2
   2   1 -16 0.04768 0.16229   2
   2   1 -16 0.38185 0.48679   2
   2   1 -16 0.06683 0.23860   2
   1  -1 -16 0.46218 0.33157   4
   1  -1 -16 1.13325 0.77788   2
   1  -1 -16 0.77788 0.26886   2
   1  -1 -16 0.51237 0.29136   4
   1  -1 -16 0.20096 0.84394   4
   1   1 -16 0.10070 0.72499   4
   1   1 -16 0.24170 0.24170   4
   1   1 -16 0.77468 0.40168   2
   1   1 -16 0.87033 0.28694   2
   1   1 -16 -0.1913 0.71731   2
   1  -1  16 0.19072 0.24792   1
   1   1  16 -0.2379 0.31412   1
   1   1  16 0.40931 0.24748   1
   1   1  16 0.14274 0.14274   1
   2  -1  16 0.26972 0.23126   2
   2  -1  16 0.38540 0.25049   2
   2  -1  16 0.20236 0.47208   2
   2   1  16 0.14003 0.30002   1
   2   1  16 -0.1340 0.21049   2
   2   1  16 0.46887 0.48797   2
   3  -1  16 0.00000 0.21084   1
   3  -1  16 0.03161 0.42168   1
   3   1  16 0.38418 0.39406   3
   3   1  16 0.35463 0.25612   3
   4  -1  16 3.41062 0.58958   1
   4  -1  16 3.62854 0.94160   4
   4   1  16 3.88717 0.70944   3
   5  -1  16 0.71353 0.28930   3
   5   1  16 0.71429 0.30139   3
   5   2 -16 0.42813 0.46826   1
   4  -2 -16 2.78431 0.74250   1
   4   2 -16 2.19770 0.87324   1
   4   2 -16 0.94970 0.61940   2
   3  -2 -16 0.31988 0.28989   2
   3  -2 -16 0.88879 0.76456   1
   3  -2 -16 0.44983 0.62983   2
   3   2 -16 0.32047 1.34207   3
   3   2 -16 1.34600 0.66354   1
   3   2 -16 0.54079 0.29044   3
   3   2 -16 0.73931 0.45494   1
   2  -2 -16 0.42073 0.92165   1
   2  -2 -16 0.55096 0.65114   1
   2  -2 -16 0.24046 0.26046   1
   2  -2 -16 0.31060 0.29050   1
   2  -2 -16 1.46174 0.98089   2
   2  -2 -16 0.80775 0.39423   2
   2   2 -16 0.52265 0.54271   4
   2   2 -16 0.67599 0.51410   2
   2   2 -16 0.73310 0.35232   2
   2   2 -16 0.21112 0.26133   4
   2   2 -16 0.58294 0.21112   4
   2   2 -16 0.41205 1.00507   4
   2   2 -16 1.15208 0.92354   2
   1  -2 -16 1.35493 0.37138   4
   1  -2 -16 -0.0770 0.97148   2
   1  -2 -16 1.48404 0.53146   4
   1  -2 -16 1.29473 0.40148   4
   1  -2 -16 0.80295 0.95345   4
   1   2 -16 1.32064 0.35281   4
   1   2 -16 1.10889 0.32258   4
   1   2 -16 1.06865 0.80654   4
   1   2 -16 1.01819 0.85690   4
   1   2 -16 0.92748 0.46374   4
   1  -2  16 0.46820 0.43954   1
   1  -2  16 0.60200 0.25801   1
   1   2  16 -0.2285 0.30457   1
   1   2  16 0.12374 0.14273   1
   1   2  16 0.31412 0.21893   1
   2  -2  16 0.58981 0.57051   2
   2  -2  16 0.16108 0.39266   1
   2  -2  16 0.30207 0.23158   1
   2   2  16 0.56272 0.42916   2
   2   2  16 0.41928 0.27949   1
   2   2  16 0.45924 0.22962   1
   2   2  16 0.44922 0.21960   1
   3  -2  16 0.72704 0.38839   3
   3  -2  16 0.19919 0.25893   3
   3   2  16 0.78499 0.32380   3
   3   2  16 0.30422 0.35323   3
   4  -2  16 -0.4130 0.41303   3
   4  -2  16 0.31449 0.41927   1
   4   2  16 -0.2903 0.56116   3
   5  -2  16 0.34851 0.26141   3
   5   3 -16 1.74664 0.51035   4
   4  -3 -16 0.57286 0.62395   2
   4  -3 -16 1.01474 0.24390   1
   4   3 -16 1.05048 0.71674   1
   4   3 -16 1.96359 0.60870   1
   3  -3 -16 0.81313 0.31569   1
   3  -3 -16 1.10013 0.34438   1
   3  -3 -16 0.76534 0.47834   1
   3   3 -16 0.04016 0.96321   3
   3   3 -16 1.08740 0.63357   1
   3   3 -16 0.56186 0.30101   3
   3   3 -16 1.73036 0.60511   1
   2  -3 -16 1.58986 1.09840   2
   2  -3 -16 3.30488 0.61661   2
   2  -3 -16 2.64970 0.77087   2
   2  -3 -16 1.05196 0.29053   1
   2   3 -16 2.03289 0.29452   2
   2   3 -16 0.37247 1.01663   3
   2   3 -16 1.11730 1.11730   3
   2   3 -16 0.75493 0.58379   3
   2   3 -16 1.70034 0.42744   2
   2   3 -16 0.84549 0.33218   3
   1  -3 -16 4.76350 1.03287   4
   1  -3 -16 4.45257 0.69197   4
   1  -3 -16 5.12453 1.42407   4
   1  -3 -16 5.19702 0.83506   4
   1  -3 -16 3.36951 1.08307   4
   1  -3 -16 4.93401 0.67195   4
   1   3 -16 4.55254 1.17099   4
   1   3 -16 3.90655 0.62585   4
   1   3 -16 5.25134 0.74880   4
   1   3 -16 3.07880 1.07004   4
   1   3 -16 4.68377 0.67637   4
   0  -3 -16 1.81676 0.83184   1
   0   3 -16 0.89042 0.27323   4
   1  -3  16 1.14374 0.42511   4
   1   3  16 1.36941 0.53972   4
   1   3  16 0.82969 0.25988   4
   1   3  16 1.39939 0.68972   4
   1   3  16 1.16948 0.36988   4
   2  -3  16 -0.2718 0.42718   2
   2  -3  16 0.09708 0.27177   2
   2  -3  16 0.10682 0.20390   2
   2  -3  16 -0.1359 0.24266   2
   2   3  16 0.05979 0.21926   1
   2   3  16 0.12359 0.17108   2
   2   3  16 -0.0475 0.12359   2
   2   3  16 0.10461 0.39928   2
   3  -3  16 0.65950 0.63945   3
   3  -3  16 0.42855 0.37493   1
   3   3  16 0.75232 0.33225   3
   3   3  16 1.40703 0.50808   3
   4  -3  16 2.16148 0.59222   3
   4   3  16 -0.1541 0.57793   3
   4   3  16 0.71271 0.31785   3
   5  -3  16 3.05198 0.46881   1
   5   4 -16 0.53891 0.53891   1
   4  -4 -16 -0.1267 0.12669   1
   4  -4 -16 0.00000 0.23810   1
   4   4 -16 -0.1082 0.44230   1
   4   4 -16 0.20646 0.47177   1
   4   4 -16 0.06269 0.13587   2
   3  -4 -16 0.00000 0.06701   1
   3  -4 -16 0.05741 0.05741   1
   3  -4 -16 0.03830 0.04781   1
   3   4 -16 0.02830 0.10382   1
   3   4 -16 0.33018 0.16977   1
   3   4 -16 -0.0566 0.20753   1
   3   4 -16 -0.0944 0.09435   1
   3   4 -16 0.00946 0.03776   1
   2  -4 -16 0.03862 0.11577   2
   2  -4 -16 0.06756 0.37634   2
   2  -4 -16 -0.0289 0.07724   2
   2  -4 -16 0.05788 0.07724   2
   2  -4 -16 0.10619 0.07724   2
   2   4 -16 -0.0948 0.25601   2
   2   4 -16 0.03795 0.04736   2
   2   4 -16 0.05687 0.21807   2
   2   4 -16 0.07589 0.10433   2
   2   4 -16 0.03795 0.07589   2
   2   4 -16 0.02844 0.13276   2
   2   4 -16 0.06638 0.08531   2
   1  -4 -16 3.48848 0.61144   4
   1  -4 -16 4.08483 1.33909   2
   1  -4 -16 2.49605 0.47118   4
   1  -4 -16 2.68649 1.09268   4
   1  -4 -16 4.39320 0.71289   2
   1  -4 -16 4.18117 0.86702   2
   1   4 -16 3.48768 0.55600   4
   1   4 -16 2.89133 1.00086   4
   1   4 -16 3.30576 0.57628   4
   1   4 -16 3.15417 1.08167   4
   0  -4 -16 0.41039 0.81085   4
   0   4 -16 0.45609 0.34467   4
   1  -4  16 0.36520 0.26375   4
   1   4  16 0.15971 0.48913   4
   1   4  16 0.15971 0.18964   4
   2  -4  16 -0.1073 0.21446   2
   2  -4  16 0.04057 0.15201   1
   2  -4  16 -0.0975 0.41924   2
   2  -4  16 0.01017 0.46630   1
   2  -4  16 0.21446 0.20478   2
   2  -4  16 0.08772 0.31196   2
   2  -4  16 0.33152 0.26326   2
   2   4  16 0.01987 0.38818   1
   2   4  16 0.13271 0.12320   2
   2   4  16 0.00000 0.11629   1
   2   4  16 0.04972 0.16923   1
   3  -4  16 0.00000 0.05400   1
   3  -4  16 -0.0902 0.09019   3
   3  -4  16 0.00000 0.06484   1
   3   4  16 -0.0194 0.03894   3
   3   4  16 0.08753 0.09729   3
   3   4  16 -0.0098 0.05835   3
   4  -4  16 0.01186 0.21271   1
   4  -4  16 -0.1881 0.34659   3
   4   4  16 0.18211 0.23961   3
   5   5 -16 2.27930 0.66599   1
   4  -5 -16 0.18414 0.24563   2
   4  -5 -16 -0.0098 0.47695   1
   4   5 -16 0.36416 0.14758   1
   4   5 -16 0.66918 0.42319   1
   3  -5 -16 2.98509 0.55248   2
   3  -5 -16 3.50231 0.84208   1
   3  -5 -16 4.37309 0.59329   1
   3   5 -16 3.46595 0.83827   1
   3   5 -16 2.85965 0.49339   3
   3   5 -16 2.98429 0.82000   3
   3   5 -16 2.55756 0.53369   3
   3   5 -16 3.94635 0.48030   1
   2  -5 -16 0.31070 0.23049   4
   2  -5 -16 0.83055 0.99465   2
   2  -5 -16 0.34076 0.29060   4
   2  -5 -16 0.45393 0.42496   2
   2  -5 -16 -1.1493 1.22645   2
   2  -5 -16 0.51186 0.28005   2
   2   5 -16 0.43749 0.28194   3
   2   5 -16 0.24240 0.92908   3
   2   5 -16 0.53027 0.45447   2
   2   5 -16 0.49237 0.74806   2
   2   5 -16 0.73856 0.35038   2
   2   5 -16 0.67226 0.17989   2
   1  -5 -16 1.19250 0.96202   4
   1  -5 -16 0.42085 1.17239   4
   1  -5 -16 2.21564 0.75137   2
   1   5 -16 1.74929 0.51332   4
   1   5 -16 1.81054 0.36968   2
   1   5 -16 2.71105 1.16589   2
   0  -5 -16 -0.1245 0.46923   1
   0   5  16 -0.0862 0.23937   1
   1  -5  16 8.69290 1.03706   4
   1   5  16 6.83957 1.11669   4
   2  -5  16 0.16656 0.25470   2
   2  -5  16 0.28409 0.42127   2
   2  -5  16 -0.2547 0.25470   2
   2  -5  16 -0.0588 0.19594   2
   2  -5  16 0.16656 0.28409   2
   2  -5  16 0.26453 0.42127   2
   2   5  16 0.05963 0.37770   1
   2   5  16 0.21733 0.15117   2
   2   5  16 -0.0662 0.11336   2
   2   5  16 -0.1323 0.20785   2
   3  -5  16 0.53240 0.27124   3
   3  -5  16 0.66298 0.39174   3
   3  -5  16 0.57260 0.43195   3
   3  -5  16 1.47659 0.58258   3
   3   5  16 1.53966 0.45517   3
   3   5  16 1.40416 0.42613   3
   4  -5  16 -0.1292 0.24835   3
   4  -5  16 0.29808 0.37750   3
   4   5  16 0.51503 0.33381   3
   5  -6 -16 0.17299 0.45249   1
   5   6 -16 0.67377 0.26756   4
   4  -6 -16 0.22341 0.22341   1
   4   6 -16 0.24656 0.35510   1
   4   6 -16 0.33542 0.13812   1
   3  -6 -16 1.76897 0.65980   1
   3  -6 -16 1.41524 0.40160   1
   3   6 -16 0.94823 0.34303   3
   3   6 -16 1.37792 0.37397   4
   3   6 -16 1.69392 0.63056   1
   3   6 -16 1.22063 0.68595   3
   3   6 -16 1.41158 0.30112   1
   2  -6 -16 1.45334 1.02235   4
   2  -6 -16 2.16122 0.42458   1
   2  -6 -16 1.93940 1.66919   1
   2  -6 -16 1.35311 0.39088   4
   2   6 -16 1.72079 0.31203   1
   2   6 -16 1.55428 0.47439   3
   2   6 -16 0.47553 1.08247   3
   2   6 -16 0.77894 1.09262   3
   2   6 -16 1.10276 1.38599   3
   2   6 -16 1.67356 0.43494   1
   2   6 -16 1.76811 0.35925   1
   2   6 -16 1.29496 0.41474   3
   1  -6 -16 3.98695 0.82145   4
   1  -6 -16 3.65637 1.41249   4
   1  -6 -16 6.38175 1.63635   2
   1  -6 -16 4.59809 0.65113   4
   1  -6 -16 4.16732 0.74126   4
   1   6 -16 5.40454 1.37247   2
   1   6 -16 4.49417 0.80145   4
   1   6 -16 4.04776 0.61879   4
   0  -6 -16 0.97476 0.85053   2
   0   6 -16 1.34532 0.34348   2
   0   6  16 0.06997 0.38977   4
   1  -6  16 0.20258 0.18323   2
   1   6  16 -0.0661 0.12282   2
   1   6  16 -0.0756 0.14168   2
   2  -6  16 0.00000 0.05086   1
   2  -6  16 0.03942 0.03942   2
   2  -6  16 0.03942 0.09851   2
   2  -6  16 0.09851 0.04920   2
   2  -6  16 0.03942 0.11817   2
   2  -6  16 0.11817 0.06897   2
   2   6  16 0.01881 0.03771   2
   2   6  16 0.00000 0.04821   1
   2   6  16 0.09424 0.09424   2
   3  -6  16 1.22775 0.64401   3
   3  -6  16 1.12712 0.45282   3
   3  -6  16 0.89566 0.43274   3
   3  -6  16 0.99629 0.51319   3
   3   6  16 1.66716 0.47220   3
   3   6  16 1.21420 0.48187   3
   4  -6  16 0.03595 0.28770   1
   4  -6  16 -0.0698 0.34876   3
   4   6  16 0.24581 0.31284   1
   4   6  16 0.05582 0.21229   1
   5   7 -16 0.51523 0.17830   4
   4  -7 -16 1.54072 0.28101   1
   4  -7 -16 1.99620 0.73649   1
   4   7 -16 1.26817 0.21496   4
   4   7 -16 1.19257 0.34692   2
   4   7 -16 2.33421 0.52423   1
   3  -7 -16 1.60451 0.47755   1
   3  -7 -16 1.63315 0.40110   1
   3   7 -16 1.33414 0.32340   3
   3   7 -16 1.07137 0.35371   3
   3   7 -16 1.15216 0.38402   3
   3   7 -16 1.81724 0.63090   1
   2  -7 -16 3.30055 0.58695   1
   2  -7 -16 4.44569 1.14513   1
   2  -7 -16 1.91474 0.49120   4
   2  -7 -16 0.95234 1.77437   4
   2  -7 -16 1.06265 1.07260   4
   2   7 -16 0.90214 1.16567   3
   2   7 -16 2.34847 0.49989   1
   2   7 -16 2.34847 0.59421   1
   2   7 -16 1.67251 1.19607   3
   2   7 -16 3.09358 0.56593   1
   2   7 -16 3.02754 0.34900   1
   2   7 -16 2.36729 1.22608   1
   2   7 -16 2.62197 0.46214   1
   1   7 -16 12.1347 1.69297   2
   1   7 -16 7.46245 0.87964   2
   0  -7 -16 1.69639 1.02925   2
   0   7  16 1.06864 0.50932   4
   0   7 -16 0.64243 0.36709   4
   1  -7  16 0.81713 0.55148   4
   1   7  16 1.39362 0.45194   2
   2  -7  16 5.79879 0.88223   2
   2  -7  16 4.83771 0.92632   1
   2  -7  16 3.83932 0.76165   1
   2  -7  16 3.66431 1.14252   1
   2   7  16 5.40563 0.64470   1
   2   7  16 4.41381 0.73394   1
   2   7  16 3.79885 1.01172   1
   3  -7  16 0.01011 0.11091   3
   3  -7  16 -0.0403 0.08068   3
   3  -7  16 0.03023 0.11091   3
   3  -7  16 0.08068 0.10080   3
   3   7  16 0.00000 0.07075   1
   3   7  16 0.02876 0.08627   3
   3   7  16 0.13426 0.14378   3
   4  -7  16 1.65887 0.34974   3
   4  -7  16 1.97863 0.38973   3
   4  -7  16 1.65591 0.66717   3
   4   7  16 0.90585 0.52567   1
   4   7  16 1.65289 0.29623   3
   4   7  16 2.09516 0.48128   3
   5   8 -16 -0.1090 0.10900   4
   4  -8 -16 0.29940 0.13522   1
   4   8 -16 0.57499 0.24782   1
   4   8 -16 0.07736 0.18785   2
   3  -8 -16 0.18115 0.12396   1
   3  -8 -16 0.08579 0.14299   1
   3   8 -16 -0.1416 0.14156   1
   3   8 -16 0.15103 0.11325   1
   3   8 -16 0.02021 0.14179   3
   3   8 -16 0.02021 0.11142   3
   2  -8 -16 2.32932 0.48882   1
   2  -8 -16 1.65442 1.91510   4
   2  -8 -16 2.08546 1.42380   4
   2   8 -16 2.24979 1.29095   2
   2   8 -16 2.37090 0.53632   1
   2   8 -16 1.76723 1.19846   3
   2   8 -16 2.66251 0.31048   1
   2   8 -16 1.75704 1.25938   3
   2   8 -16 3.28348 0.57387   1
   2   8 -16 2.74726 0.47044   1
   1  -8 -16 -0.0575 0.22059   2
   1  -8 -16 0.55625 0.77684   2
   1  -8 -16 -0.2877 0.93991   2
   1  -8 -16 0.22059 0.25898   2
   1   8 -16 0.22709 0.21760   2
   1   8 -16 0.05088 0.24452   3
   1   8 -16 -0.0946 0.25546   2
   1   8 -16 0.19872 0.34059   2
   1   8 -16 0.00000 0.73331   1
   1  -8  16 0.77607 0.49468   2
   1   8  16 0.54420 0.56303   2
   1   8  16 0.83513 0.30024   2
   2  -8  16 -0.0499 0.34946   2
   2  -8  16 0.19721 0.32185   1
   2  -8  16 0.28957 0.34946   2
   2  -8  16 -0.5392 0.87872   2
   2  -8  16 0.01041 0.44639   1
   2   8  16 0.47851 0.29093   2
   2   8  16 -0.3941 0.59118   2
   2   8  16 -0.0563 0.21582   2
   2   8  16 -0.1314 0.23455   2
   3  -8  16 -0.1211 0.20189   3
   3  -8  16 0.21201 0.27256   3
   3  -8  16 -0.1413 0.16149   3
   3  -8  16 0.18164 0.21201   3
   3   8  16 0.27654 0.19074   3
   3   8  16 0.07634 0.13354   3
   3   8  16 0.04763 0.12397   3
   3   8  16 -0.1526 0.21934   3
   4  -8  16 1.57303 0.38069   3
   4  -8  16 1.27806 0.30425   1
   4  -8  16 1.46622 0.35634   3
   4   8  16 0.88192 0.26006   2
   4   8  16 1.18724 0.40705   2
   4   9 -16 1.75270 0.36181   2
   4   9 -16 2.01182 0.52159   1
   3  -9 -16 1.38041 0.37127   1
   3  -9 -16 0.41119 1.03306   2
   3  -9 -16 1.21856 0.32371   1
   3   9 -16 0.87322 0.31322   1
   3   9 -16 0.97756 0.51249   1
   3   9 -16 0.73079 0.36063   1
   2  -9 -16 2.90902 0.41970   1
   2  -9 -16 1.07300 1.85520   4
   2  -9 -16 3.84371 0.93469   1
   2  -9 -16 2.14611 0.45125   4
   2   9 -16 2.24065 0.44028   3
   2   9 -16 2.10670 1.41457   3
   2   9 -16 1.35352 1.23143   3
   2   9 -16 2.10670 0.45795   3
   2   9 -16 2.82720 0.56359   1
   2   9 -16 2.00492 0.59025   3
   1  -9 -16 0.08606 0.21999   2
   1  -9 -16 0.23908 0.30604   2
   1  -9 -16 1.26256 0.84167   2
   1  -9 -16 0.06005 0.20024   4
   1   9 -16 0.28430 0.63494   2
   1   9 -16 0.55909 0.61593   2
   1   9 -16 0.22746 0.21795   2
   1   9 -16 0.48324 0.18953   2
   1   9 -16 -0.0948 0.18003   2
   1   9 -16 0.56860 0.27479   2
   0  -9 -16 10.0501 1.91159   2
   0   9  16 7.63283 1.13743   4
   0   9 -16 8.63356 0.99339   4
   1  -9  16 2.05576 0.56508   2
   1   9  16 0.48687 0.31794   4
   1   9  16 0.25834 0.60608   4
   2  -9  16 6.64991 0.99644   1
   2  -9  16 4.85628 1.41602   1
   2  -9  16 9.05485 1.19863   2
   2   9  16 9.27951 0.94669   2
   2   9  16 7.94856 0.84355   2
   2   9  16 7.03929 0.83424   2
   2   9  16 8.60463 0.95609   2
   3  -9  16 -0.0909 0.30323   3
   3  -9  16 0.14153 0.29309   3
   3  -9  16 -0.2426 0.37399   3
   3  -9  16 -0.1212 0.35371   3
   3   9  16 -0.1612 0.24654   3
   3   9  16 -0.1138 0.18966   3
   3   9  16 -0.0664 0.22762   3
   3   9  16 -0.0095 0.14220   3
   4  -9  16 0.11182 0.17403   2
   4  -9  16 0.18072 0.29124   3
   4  -9  16 0.17075 0.20087   3
   4   9  16 0.23320 0.21458   3
   4   9  16 0.09183 0.16064   2
   4 -10 -16 0.17208 0.12431   3
   4 -10 -16 0.05736 0.03827   3
   4  10 -16 -0.0198 0.03974   4
   4  10 -16 -0.0298 0.08933   4
   3 -10 -16 1.48651 0.35206   4
   3  10 -16 1.18918 0.28455   3
   3  10 -16 1.72457 0.45034   1
   3  10 -16 1.48393 0.36591   3
   2 -10 -16 2.23744 1.86770   1
   2 -10 -16 2.35118 0.57828   1
   2 -10 -16 2.23744 0.42660   1
   2 -10 -16 1.66857 0.46455   1
   2 -10 -16 2.31323 1.00499   1
   2  10 -16 1.58700 0.39678   4
   2  10 -16 1.57051 0.48947   3
   2  10 -16 1.63381 1.60565   1
   2  10 -16 1.18303 0.52006   3
   2  10 -16 1.95300 0.46951   1
   1 -10 -16 0.91381 0.49495   2
   1 -10 -16 0.39039 0.32031   4
   1 -10 -16 0.89471 0.97090   2
   1  10 -16 0.14327 0.34791   3
   1  10 -16 -0.9220 0.95053   1
   1  10 -16 1.01709 0.42774   1
   1  10 -16 -0.1331 0.95053   1
   0 -10 -16 0.97079 1.14050   2
   0  10  16 0.49012 0.51839   2
   1 -10  16 0.03086 0.54541   1
   1  10  16 0.37735 0.59591   4
   1  10  16 0.13907 0.27803   4
   2 -10  16 -0.1014 0.37523   2
   2  10  16 0.06928 0.16823   1
   2  10  16 -0.1594 0.15936   2
   2  10  16 0.20617 0.18747   2
   2  10  16 0.01975 0.14837   1
   3 -10  16 -0.0202 0.12140   3
   3 -10  16 0.07085 0.15174   3
   3 -10  16 0.05055 0.09105   3
   3  10  16 -0.0283 0.07545   3
   3  10  16 0.20735 0.13200   3
   3  10  16 0.06600 0.08481   3
   4 -10  16 0.48358 0.36907   2
   4 -10  16 1.20705 0.43205   1
   4  10  16 1.34448 0.20396   3
   4  10  16 1.21004 0.43558   3
   4 -11 -16 0.02104 0.24240   1
   4 -11 -16 0.03161 0.09482   1
   4 -11 -16 -0.0381 0.29485   3
   4  11 -16 -0.0100 0.13902   4
   4  11 -16 0.37722 0.15884   4
   3 -11 -16 5.40813 1.02650   1
   3 -11 -16 5.19906 0.65583   1
   3 -11 -16 3.79235 0.62732   1
   3  11 -16 3.97804 0.66948   1
   3  11 -16 3.30414 0.77002   1
   3  11 -16 3.55108 0.51425   1
   2 -11 -16 1.17718 0.51793   1
   2 -11 -16 1.46907 0.32023   1
   2 -11 -16 1.85523 0.72509   1
   2 -11 -16 0.81258 0.36116   4
   2  11 -16 0.82576 0.34566   4
   2  11 -16 0.20439 0.42917   3
   2  11 -16 1.27918 0.41391   1
   2  11 -16 0.79705 0.35763   3
   1 -11 -16 2.36203 1.65334   1
   1 -11 -16 1.39832 0.39680   1
   1 -11 -16 1.87065 0.61410   1
   1  11 -16 -0.3143 1.18102   1
   1  11 -16 2.19066 1.20003   1
   0 -11 -16 1.94308 1.42683   2
   0  11  16 1.47579 0.69804   4
   1 -11  16 2.34016 0.69121   2
   1  11  16 2.91846 0.50185   2
   1  11  16 2.32314 0.83597   4
   2 -11  16 -0.2845 0.30491   3
   2  11  16 -0.0187 0.19712   2
   2  11  16 -0.0187 0.17829   2
   2  11  16 0.15015 0.13141   2
   2  11  16 -0.0939 0.09385   2
   3 -11  16 1.08935 0.52148   1
   3 -11  16 1.69177 0.46600   3
   3  11  16 1.55499 0.28104   3
   3  11  16 1.31144 0.29974   3
   3  11  16 1.69556 0.38402   3
   4 -11  16 0.13074 0.44453   2
   4  11  16 0.34848 0.14611   4
   4  11  16 0.28679 0.43012   2
   4 -12 -16 0.05670 0.10402   3
   4 -12 -16 0.28362 0.27414   3
   4  12 -16 0.39714 0.14888   4
   4  12 -16 0.29786 0.09929   4
   3 -12 -16 1.34809 0.73094   1
   3 -12 -16 0.87340 0.28482   1
   3  12 -16 0.69516 0.29486   2
   3  12 -16 0.85141 0.45020   1
   3  12 -16 0.53711 0.43178   2
   2 -12 -16 0.14963 0.05610   1
   2 -12 -16 0.11220 0.10291   1
   2 -12 -16 0.11220 0.14025   1
   2 -12 -16 0.12158 0.08415   1
   2  12 -16 0.07566 0.07566   1
   2  12 -16 0.00948 0.04721   1
   2  12 -16 0.00948 0.08504   1
   1 -12 -16 5.36649 1.02088   1
   1 -12 -16 5.43206 0.79607   1
   1 -12 -16 1.26111 1.90176   4
   1  12 -16 7.62460 0.75388   1
   1  12 -16 7.61503 0.92560   1
   0 -12 -16 0.30790 0.20524   2
   0 -12 -16 0.71838 1.20364   2
   0  12  16 0.12960 0.23930   4
   0  12 -16 0.34997 0.29165   2
   0  12  16 0.14950 0.40870   4
   1 -12  16 0.59822 0.54831   2
   1  12  16 0.44520 0.64934   2
   1  12  16 0.43661 0.24150   4
   1  12  16 0.71419 0.33393   2
   2 -12  16 -0.0203 0.08141   3
   2  12  16 0.00944 0.05646   2
   2  12  16 0.00000 0.04722   1
   2  12  16 0.07534 0.07534   2
   3 -12  16 -0.3245 0.32447   3
   3 -12  16 -0.1926 0.26364   3
   3 -12  16 0.04682 0.29242   1
   3  12  16 0.25130 0.20471   3
   3  12  16 0.05062 0.17231   2
   4 -12  16 0.25217 0.16140   3
   4  12  16 0.13724 0.13724   3
   4 -13 -16 0.46970 0.39451   3
   4 -13 -16 0.32874 0.14086   3
   4  13 -16 0.13392 0.20081   4
   4  13 -16 0.09950 0.24161   1
   3 -13 -16 0.47383 0.33163   1
   3 -13 -16 1.08026 0.63495   1
   3  13 -16 0.60238 0.34562   1
   3  13 -16 0.79011 0.36543   1
   3  13 -16 0.66172 0.23705   1
   2 -13 -16 0.59470 0.35309   1
   2 -13 -16 0.60402 0.31599   1
   2 -13 -16 0.15800 0.49254   1
   2 -13 -16 0.62266 0.18587   1
   2  13 -16 0.05124 0.29746   3
   2  13 -16 0.07182 0.17440   3
   2  13 -16 0.71546 0.30524   1
   1 -13 -16 8.97821 1.12105   4
   1 -13 -16 7.79713 1.21110   4
   1  13 -16 12.0809 1.17836   1
   1  13 -16 9.71461 0.99635   1
   0 -13 -16 0.51834 0.37875   4
   0  13 -16 0.77167 0.26057   2
   0  13  16 0.60803 0.29907   4
   1 -13  16 6.33137 1.16061   1
   1  13  16 7.38278 0.94250   2
   1  13  16 8.90732 0.88707   2
   2 -13  16 0.56994 0.50419   1
   2  13  16 0.99477 0.43168   1
   2  13  16 0.47436 0.22732   4
   2  13  16 0.59303 0.37552   4
   3 -13  16 0.13194 0.10150   3
   3 -13  16 0.03044 0.05070   3
   3  13  16 -0.0370 0.03699   3
   3  13  16 -0.0554 0.05544   3
   4 -13  16 0.23951 0.23951   1
   4  13  16 0.43621 0.19090   3
   4 -14 -16 0.63462 0.45001   1
   4  14 -16 0.68756 0.36775   1
   4  14 -16 0.94528 0.27576   4
   3 -14 -16 0.09433 0.05658   1
   3 -14 -16 0.36785 0.11316   1
   3  14 -16 0.01986 0.03982   1
   3  14 -16 0.08953 0.03982   1
   2 -14 -16 0.43468 0.25889   1
   2 -14 -16 0.05547 0.13868   1
   2 -14 -16 0.10176 0.09248   1
   2 -14 -16 -0.1572 0.15723   1
   2  14 -16 0.06783 0.14527   1
   2  14 -16 0.01031 0.09245   3
   2  14 -16 0.15499 0.15499   1
   1 -14 -16 2.02239 0.45043   1
   1 -14 -16 1.88445 0.56071   1
   1  14 -16 2.24816 0.55960   1
   1  14 -16 2.09380 0.40523   1
   0 -14 -16 -0.1009 0.28422   1
   0  14  16 0.44917 0.22914   1
   0  14 -16 0.17587 0.20690   3
   1 -14  16 0.05082 0.16277   2
   1  14  16 0.23878 0.12860   1
   1  14  16 0.21123 0.12860   1
   2 -14  16 0.48876 0.40736   3
   2  14  16 0.68943 0.34476   1
   2  14  16 0.30747 0.18635   1
   3 -14  16 0.00000 0.05956   1
   3  14  16 0.00000 0.03105   1
   3  14  16 -0.0367 0.03673   3
   4 -15 -16 0.96684 0.44457   4
   4  15 -16 1.00293 0.20858   4
   3 -15 -16 -0.0094 0.03749   3
   3 -15 -16 0.01870 0.11237   3
   3  15 -16 0.02992 0.03992   4
   2 -15 -16 2.48276 0.54454   1
   2 -15 -16 2.51970 0.55380   1
   2 -15 -16 2.65810 0.84913   1
   1 -15 -16 1.08527 0.38301   1
   1 -15 -16 1.82394 0.64747   1
   1  15 -16 1.15194 0.49783   1
   0 -15 -16 5.10327 0.81734   4
   0  15 -16 6.52912 0.72100   1
   0  15  16 4.71455 0.65787   4
   1  15  16 0.10970 0.05485   1
   1  15  16 0.11887 0.06402   1
   2 -15  16 0.35655 0.46866   3
   2  15  16 0.16895 0.15898   2
   2  15  16 0.15898 0.26832   2
   3 -15  16 0.00000 0.06019   1
   3  15  16 -0.0182 0.03645   3
   3 -16 -16 -0.0464 0.08363   3
   3  16 -16 0.01001 0.02992   4
   2 -16 -16 0.81436 0.54600   1
   2 -16 -16 0.56447 0.25908   1
   2  16 -16 0.01087 0.20590   2
   1 -16 -16 0.07262 0.07262   1
   1  16 -16 0.14855 0.07930   1
   0 -16 -16 0.16947 0.32894   4
   0  16 -16 0.38306 0.29235   1
   0  16  16 0.19887 0.28928   1
   2 -16  16 0.27522 0.31601   3
   2  16  16 0.57807 0.31200   3
   2  16  16 0.35783 0.15600   3
   3 -16  16 -0.0712 0.30513   3
   3  16  16 0.35388 0.30961   1
   3 -17 -16 0.35959 0.45180   3
   3  17 -16 0.04114 0.16457   1
   2 -17 -16 1.56841 0.59392   1
   2  17 -16 0.28232 0.30498   2
   2  17 -16 0.13549 0.23723   2
   1 -17 -16 0.60767 0.29929   1
   1 -17 -16 0.34459 0.54418   1
   1  17 -16 0.18157 0.22431   2
   1  17 -16 0.25633 0.44850   2
   0 -17 -16 10.0510 1.11987   4
   0  17 -16 12.2150 1.21337   1
  -1  17 -16 -0.3564 0.35645   4
   2 -17  16 0.28543 0.30589   4
   2  17  16 0.11170 0.24366   2
   3 -17  16 0.24418 0.23397   1
   3  17  16 0.08110 0.25479   1
   3 -18 -16 -0.0182 0.33831   3
   3  18 -16 0.33936 0.10982   4
   3  18 -16 0.21953 0.17959   4
   2 -18 -16 0.56171 0.51571   3
   2  18 -16 0.05931 0.20187   2
   2  18 -16 -0.0602 0.23082   4
   1  18 -16 0.59914 0.33291   2
   1  18 -16 0.90540 0.43262   1
   0  18 -16 0.24322 0.20267   1
  -1  18 -16 -0.0305 0.05088   4
   2 -18  16 0.06134 0.35611   2
   2  18  16 0.38800 0.21658   3
   3  18  16 0.05738 0.11475   3
   3  19 -16 0.90013 0.30638   1
   3  19 -16 1.05322 0.24895   1
   2 -19 -16 0.56581 0.54760   3
   2  19 -16 0.12041 0.13048   4
   2  19 -16 0.05099 0.24204   1
   1  19 -16 3.21048 0.46441   4
   1  19 -16 4.68442 0.65621   4
   0 -19  16 0.38969 0.43544   2
   0  19 -16 0.25209 0.32083   2
   1 -19  16 0.40300 0.41476   2
   1  19  16 1.06796 0.28959   3
  -1  19 -16 0.60437 0.29624   2
   2 -19  16 0.01290 0.18003   2
   2  19  16 -0.1163 0.11626   3
   2 -20 -16 0.01070 0.19191   1
   2  20 -16 -0.0101 0.05014   4
   2  20 -16 0.04018 0.06021   4
   2  20 -16 0.04018 0.06021   4
   1  20 -16 0.98938 0.29276   4
   1  20 -16 0.65189 0.24600   2
   0  20 -16 0.00000 0.09416   1
   0  20 -16 0.11166 0.07105   4
   1 -20  16 0.18659 0.28620   2
   1 -20  16 0.29559 0.26150   4
   1  20  16 0.21560 0.13343   2
   1  20  16 0.21560 0.23608   2
  -1  20 -16 -0.0713 0.26478   4
   2 -20  16 0.16276 0.24414   2
   2 -20  16 0.02708 0.28497   2
   2  20  16 0.29657 0.19771   4
   2 -21 -16 0.10235 0.30706   2
   2  21 -16 0.01735 0.13847   1
   1 -21 -16 0.80746 0.45755   3
   1  21 -16 0.32509 0.27089   1
   0 -21  16 0.77098 0.40384   4
   0  21  16 0.62219 0.26960   1
   0  21 -16 0.10223 0.19152   2
   0  21 -16 0.52358 0.25545   2
   1 -21  16 0.60651 0.21094   2
   1 -21  16 0.50097 0.42189   2
   1  21  16 0.71721 0.25482   4
  -1  21 -16 0.39557 0.26371   2
   1 -22 -16 1.21569 0.48255   3
   1  22 -16 1.55473 0.28263   4
   0 -22  16 0.03043 0.03043   4
   0  22  16 -0.0089 0.01768   3
   0  22 -16 0.02025 0.02025   4
   1 -22  16 0.07097 0.12783   1
   1  22  16 0.12787 0.17426   1
  -1  22 -16 -0.0102 0.12215   4
   5   0 -17 1.75235 0.50875   1
   3   0 -17 0.43159 0.39320   1
   3   0 -17 0.41245 0.24937   1
   3   0 -17 0.11996 0.58997   3
   1   0 -17 27.1921 2.39514   4
   1   0 -17 26.2663 2.70716   4
   1   0 -17 27.6248 3.41156   4
   1   0 -17 27.6047 2.59642   4
   3   0  17 2.23336 0.63241   3
   5  -1 -17 1.58716 0.40165   4
   5   1 -17 1.04863 0.48844   1
   4  -1 -17 0.21671 0.45319   1
   4   1 -17 0.51450 0.35620   1
   3  -1 -17 0.34991 0.74986   2
   3  -1 -17 1.65175 0.62421   1
   3  -1 -17 0.69992 0.33998   2
   3   1 -17 1.00149 0.34056   3
   3   1 -17 1.39843 0.76633   1
   3   1 -17 1.18182 0.77114   3
   2  -1 -17 1.56865 1.33765   2
   2  -1 -17 1.25987 0.52329   4
   2  -1 -17 1.50127 0.46191   2
   2  -1 -17 1.17254 0.37084   4
   2   1 -17 1.25728 0.62864   4
   2   1 -17 0.78391 1.21609   4
   2   1 -17 2.21506 0.66166   2
   2   1 -17 1.19603 0.46232   4
   2   1 -17 0.95479 0.35173   4
   1  -1 -17 3.82878 1.34662   4
   1  -1 -17 5.84517 0.86377   2
   1  -1 -17 4.14091 0.70797   4
   1  -1 -17 4.77980 0.67190   2
   1   1 -17 5.82782 0.81340   2
   1   1 -17 3.08433 1.16929   4
   1   1 -17 4.90912 0.66030   2
   0  -1 -17 1.96186 0.51007   4
   0   1 -17 2.75044 0.53669   2
   1  -1  17 0.47048 0.21121   2
   2  -1  17 0.68606 0.37334   1
   2   1  17 0.41157 0.74288   1
   3  -1  17 1.22018 0.62502   3
   3   1  17 -0.2460 0.58069   3
   3   1  17 0.27775 0.29907   1
   4  -1  17 -0.0489 0.06856   3
   4   1  17 0.02912 0.05823   3
   4   1  17 0.01938 0.06797   3
   5   2 -17 2.41753 0.57558   4
   4  -2 -17 0.31262 0.66684   2
   4   2 -17 1.77272 0.68336   1
   3  -2 -17 0.20192 0.19228   1
   3  -2 -17 0.08650 0.37491   1
   3   2 -17 -0.1244 0.39217   1
   3   2 -17 -0.0478 0.17214   1
   3   2 -17 -0.1913 0.27741   1
   2  -2 -17 1.11831 0.41454   2
   2  -2 -17 0.59769 0.60736   2
   2  -2 -17 0.83866 0.30846   2
   2  -2 -17 0.40080 0.95185   4
   2   2 -17 1.03399 0.54576   2
   2   2 -17 -0.5649 0.98606   2
   2   2 -17 0.67021 0.28723   2
   2   2 -17 0.68932 0.38298   2
   1  -2 -17 3.34391 0.65338   2
   1  -2 -17 2.38818 0.51172   4
   1  -2 -17 1.93665 1.20410   4
   1  -2 -17 3.74747 0.54775   2
   1   2 -17 2.96179 1.02227   2
   1   2 -17 2.73477 1.07402   4
   0   2 -17 17.0606 1.67873   4
   1  -2  17 15.6725 1.61792   4
   2  -2  17 2.80050 0.56593   2
   2  -2  17 1.53083 0.46635   1
   2   2  17 2.60518 0.87171   1
   3  -2  17 0.74680 0.54764   3
   3  -2  17 0.45805 0.29874   3
   3   2  17 0.31359 0.54884   3
   3   2  17 0.44100 0.34299   3
   4  -2  17 0.83567 0.55057   3
   4   2  17 0.56733 0.48626   1
   5   3 -17 -0.1288 0.12877   4
   4  -3 -17 0.30174 0.61391   2
   4   3 -17 1.41707 0.23787   1
   4   3 -17 2.30901 0.57474   1
   3   3 -17 0.00000 0.08599   1
   3   3 -17 0.02866 0.03825   1
   3   3 -17 0.02866 0.05732   1
   2  -3 -17 3.28657 0.62123   4
   2  -3 -17 3.93786 1.01200   4
   2  -3 -17 4.04085 0.76314   4
   2  -3 -17 3.31663 0.63128   4
   2   3 -17 3.74220 0.84725   3
   2   3 -17 3.59084 0.45387   3
   2   3 -17 3.50009 0.70611   3
   2   3 -17 3.29834 0.57499   3
   2   3 -17 2.20898 1.34149   3
   2   3 -17 2.97559 1.30123   3
   1  -3 -17 2.98099 0.62504   2
   1  -3 -17 3.49067 1.13472   2
   1  -3 -17 1.13327 1.13327   4
   1  -3 -17 1.59462 0.42122   4
   1  -3 -17 3.45218 0.54816   2
   1   3 -17 0.88996 0.98095   4
   1   3 -17 2.83340 0.56287   2
   1   3 -17 2.38508 0.43885   2
   0   3 -17 13.4744 1.35993   2
   1  -3  17 1.58025 0.44324   2
   1   3  17 0.30002 0.57004   4
   2  -3  17 1.53923 0.53005   1
   2  -3  17 0.63199 0.42811   1
   2  -3  17 0.86644 0.83587   1
   2  -3  17 1.87563 0.66256   1
   2   3  17 1.46045 0.32008   1
   2   3  17 -0.0287 0.72820   2
   3  -3  17 0.08991 0.12991   3
   3  -3  17 0.07999 0.07999   3
   3   3  17 -0.0487 0.13663   3
   3   3  17 0.00000 0.08447   1
   4  -3  17 0.00990 0.04930   3
   4   3  17 0.00965 0.04804   3
   5   4 -17 0.37677 0.28755   4
   5   4 -17 0.03153 0.30008   1
   4  -4 -17 1.86964 0.35239   1
   4  -4 -17 2.20238 0.51881   1
   4   4 -17 2.21159 0.27764   1
   4   4 -17 2.26113 0.76359   1
   3  -4 -17 -0.0962 0.10589   1
   3  -4 -17 0.09624 0.05772   1
   3   4 -17 -0.0286 0.04772   1
   3   4 -17 -0.0669 0.11460   1
   3   4 -17 0.05730 0.07647   1
   2  -4 -17 4.63613 0.66646   2
   2  -4 -17 2.20457 1.46298   4
   2  -4 -17 5.69865 0.84026   2
   2  -4 -17 6.94456 1.94144   2
   2  -4 -17 4.11462 0.73408   2
   2   4 -17 4.65949 1.36535   1
   2   4 -17 5.01270 0.74474   1
   2   4 -17 4.76446 0.94529   1
   2   4 -17 3.74025 1.39063   3
   2   4 -17 4.00066 0.61104   1
   2   4 -17 4.08657 0.51555   1
   2   4 -17 4.72634 0.62061   1
   1  -4 -17 0.48099 0.26929   2
   1  -4 -17 0.40399 0.24044   2
   1  -4 -17 -0.4521 0.81762   2
   1  -4 -17 1.01002 0.42329   2
   1  -4 -17 0.28859 0.50018   2
   1   4 -17 0.99097 0.25730   2
   1   4 -17 0.53362 0.37161   2
   1   4 -17 0.04055 0.24321   4
   1   4 -17 -0.0381 0.72421   2
   0   4 -17 24.6736 2.36585   4
   1   4  17 1.16026 0.35190   2
   1   4  17 0.24964 0.56932   4
   2  -4  17 4.33633 0.77859   2
   2  -4  17 2.22871 0.54435   1
   2  -4  17 3.18431 0.66720   4
   2   4  17 3.32477 0.57326   2
   2   4  17 2.94668 0.54936   1
   2   4  17 1.96779 0.85906   1
   3  -4  17 -0.0702 0.33081   3
   3  -4  17 0.13337 0.44472   1
   3  -4  17 0.00000 0.41138   1
   3   4  17 0.15737 0.45128   1
   3   4  17 0.25191 0.29380   1
   4  -4  17 2.95377 0.58469   3
   4   4  17 3.30133 0.58369   3
   5   5 -17 0.40655 0.36697   4
   5   5 -17 0.28758 0.26779   4
   4  -5 -17 0.30263 0.15616   1
   4  -5 -17 0.09348 0.41561   2
   4   5 -17 0.16877 0.35734   1
   4   5 -17 0.68492 0.38711   1
   4   5 -17 0.29780 0.12904   1
   3  -5 -17 0.29036 0.32039   2
   3  -5 -17 0.16019 0.59076   2
   3   5 -17 0.03028 0.27263   3
   3   5 -17 0.35364 0.24848   1
   3   5 -17 1.06083 0.59253   1
   3   5 -17 1.04175 0.23889   1
   3   5 -17 0.48737 0.54480   1
   2  -5 -17 4.48965 0.78166   4
   2  -5 -17 8.09152 2.11460   1
   2  -5 -17 2.82610 1.32288   4
   2  -5 -17 5.32025 0.92699   1
   2   5 -17 5.20750 0.73398   3
   2   5 -17 6.49547 0.60093   1
   2   5 -17 6.59085 1.03969   1
   2   5 -17 5.17453 1.55945   3
   2   5 -17 3.86820 1.48855   3
   2   5 -17 7.21082 0.82977   1
   1  -5 -17 3.10656 0.60131   1
   1  -5 -17 3.57759 1.52328   1
   1  -5 -17 3.53749 0.82175   1
   1  -5 -17 3.79872 0.63474   2
   1   5 -17 4.02781 1.19972   2
   0  -5 -17 -0.0860 0.44921   2
   0   5 -17 0.12451 0.12451   2
   1  -5  17 3.33980 0.61952   2
   1   5  17 0.72098 0.60708   2
   2  -5  17 0.03106 0.50747   1
   2  -5  17 1.38795 0.95179   2
   2  -5  17 0.15530 0.46602   1
   2  -5  17 0.39351 0.37284   1
   2  -5  17 0.36245 0.38323   1
   2   5  17 0.00000 0.67015   1
   2   5  17 0.33921 0.37903   1
   2   5  17 0.32920 0.37903   1
   3  -5  17 0.11222 0.41523   1
   3  -5  17 -0.2310 0.23101   3
   3  -5  17 -0.1306 0.34152   3
   3  -5  17 0.54230 0.34152   3
   3   5  17 -0.2223 0.50255   3
   3   5  17 0.01048 0.27148   1
   4  -5  17 0.14493 0.38656   1
   4   5  17 0.44745 0.40935   3
   5  -6 -17 0.36130 0.50585   1
   5   6 -17 0.95222 0.29757   4
   4  -6 -17 1.92134 0.36347   2
   3  -6 -17 1.43318 0.64452   1
   3  -6 -17 1.20204 0.41066   2
   3   6 -17 2.15420 0.67975   1
   3   6 -17 1.67546 0.30636   1
   3   6 -17 1.03206 0.35410   3
   3   6 -17 1.34999 0.35428   1
   2  -6 -17 1.09923 1.37885   1
   2  -6 -17 -0.2990 1.12815   1
   2  -6 -17 0.30980 0.30980   4
   2   6 -17 -0.6191 0.96199   1
   2   6 -17 0.80005 0.97155   1
   2   6 -17 0.77149 0.28576   1
   2   6 -17 0.40958 0.34289   1
   2   6 -17 1.01913 0.36190   1
   2   6 -17 0.78104 0.19051   1
   1  -6 -17 7.08264 0.93171   1
   1  -6 -17 7.48338 1.42258   1
   1  -6 -17 5.95056 1.80322   1
   1   6 -17 7.80908 0.83016   4
   1   6 -17 5.48340 0.86473   4
   1   6 -17 5.94118 1.54640   4
   1   6 -17 8.65524 1.00934   2
   1   6 -17 7.84019 1.10050   4
   0  -6 -17 6.04808 1.49951   4
   1  -6  17 15.1767 1.54220   1
   1   6  17 12.4865 1.55455   4
   1   6  17 12.9249 1.37522   4
   2  -6  17 -0.2695 0.71868   2
   2  -6  17 0.80849 0.49911   2
   2  -6  17 0.33442 0.38674   1
   2  -6  17 0.33442 0.36577   1
   2  -6  17 1.17784 0.49911   2
   2   6  17 0.47549 0.27575   2
   2   6  17 -0.0761 0.66569   2
   2   6  17 0.30892 0.26904   1
   2   6  17 0.40846 0.28893   1
   3  -6  17 1.03630 0.44276   3
   3  -6  17 1.51933 0.51310   3
   3  -6  17 0.54375 0.47579   1
   3  -6  17 1.28790 0.49302   3
   3   6  17 1.38459 0.35579   3
   3   6  17 1.45191 0.62498   3
   3   6  17 0.99599 0.35278   2
   4  -6  17 0.02991 0.05981   3
   4  -6  17 0.12962 0.10972   3
   4   6  17 -0.0473 0.13257   3
   4   6  17 0.03789 0.09468   3
   4   6  17 0.08518 0.06629   3
   5   7 -17 0.37838 0.37838   4
   4  -7 -17 1.23974 0.25181   3
   4  -7 -17 1.11985 0.64417   4
   4   7 -17 1.05680 0.20231   2
   4   7 -17 1.71941 0.48700   1
   3  -7 -17 0.02000 0.50113   2
   3  -7 -17 0.32068 0.32068   2
   3   7 -17 1.03789 0.29796   1
   3   7 -17 0.40361 0.22104   1
   3   7 -17 0.87450 0.39397   1
   3   7 -17 1.00907 0.24986   1
   2  -7 -17 0.87203 1.77423   4
   2  -7 -17 1.60600 0.41353   1
   2  -7 -17 1.44249 0.93279   1
   2  -7 -17 1.91371 0.54820   1
   2   7 -17 1.53177 0.53279   1
   2   7 -17 1.33193 0.38058   1
   2   7 -17 1.41753 0.43765   1
   2   7 -17 0.34579 1.34237   3
   2   7 -17 1.30167 0.24410   3
   2   7 -17 0.52879 1.12877   3
   1  -7 -17 10.7660 1.30192   4
   1  -7 -17 14.2703 2.37034   2
   1  -7 -17 13.4165 1.94067   4
   1   7 -17 10.4101 1.27451   3
   1   7 -17 11.7457 2.15129   3
   1   7 -17 12.3982 1.65169   3
   1   7 -17 13.4269 1.29748   3
   1   7 -17 14.2960 1.40100   2
   0  -7 -17 0.06662 0.13324   2
   0   7  17 -0.0095 0.06662   2
   0   7 -17 0.02879 0.02879   2
   1   7  17 3.58439 0.59743   1
   1   7  17 3.03680 0.84631   1
   2  -7  17 -0.1609 0.20121   2
   2  -7  17 -0.1107 0.36216   2
   2  -7  17 -0.2113 0.21131   2
   2  -7  17 0.22129 0.22129   2
   2   7  17 -0.0569 0.10447   2
   2   7  17 0.16142 0.31332   2
   2   7  17 0.11390 0.11390   2
   2   7  17 -0.0189 0.11390   2
   3  -7  17 -0.2015 0.20154   3
   3  -7  17 0.22166 0.15111   3
   3  -7  17 -0.0201 0.15111   3
   3  -7  17 -0.1713 0.17132   3
   3   7  17 0.02868 0.10524   3
   3   7  17 -0.1339 0.13392   3
   3   7  17 0.07655 0.11473   3
   4  -7  17 0.29960 0.23712   2
   4  -7  17 0.75011 0.31010   3
   4   7  17 0.18655 0.22152   2
   4   7  17 0.48008 0.26355   3
   4   7  17 0.45475 0.31486   2
   4  -8 -17 0.22173 0.11565   3
   4  -8 -17 0.30847 0.32781   3
   4   8 -17 0.00000 0.09053   1
   4   8 -17 0.16898 0.20876   4
   4   8 -17 -0.0596 0.07956   4
   3  -8 -17 1.78679 0.42273   1
   3   8 -17 1.33115 0.35562   3
   3   8 -17 1.45076 0.27077   1
   3   8 -17 1.26001 0.49791   3
   3   8 -17 1.39275 0.29017   1
   2  -8 -17 -0.0479 0.26824   1
   2  -8 -17 -0.0191 1.27433   1
   2  -8 -17 0.12027 0.37096   4
   2  -8 -17 -0.1533 0.64202   1
   2   8 -17 0.54218 0.94163   1
   2   8 -17 0.17115 0.19023   1
   2   8 -17 0.63729 0.26627   1
   2   8 -17 1.13186 0.27581   1
   1  -8 -17 5.16287 1.73377   2
   1  -8 -17 4.01346 0.83330   2
   1   8 -17 2.38118 0.58256   3
   1   8 -17 3.70966 0.70160   3
   1   8 -17 4.47977 0.74501   2
   1   8 -17 3.79205 0.55397   2
   1   8 -17 2.33002 1.33877   3
   0  -8 -17 -0.6547 1.08170   2
   0  -8 -17 0.98681 0.38899   2
   0   8  17 0.69896 0.56916   4
   0   8 -17 1.24169 0.30798   2
   1  -8  17 11.0803 1.22320   1
   1   8  17 9.85958 1.40284   1
   2  -8  17 1.07212 0.44506   3
   2  -8  17 1.20360 0.52591   3
   2   8  17 0.98420 0.33804   1
   2   8  17 0.57656 0.32807   1
   2   8  17 1.36599 0.42685   2
   2   8  17 1.36599 0.40791   2
   3  -8  17 2.57313 0.53483   3
   3  -8  17 1.17776 0.45030   1
   3  -8  17 2.10141 0.65820   1
   3  -8  17 2.23664 0.52755   3
   3   8  17 2.15669 0.41279   1
   3   8  17 1.16602 0.53659   1
   3   8  17 2.81484 0.63720   3
   3   8  17 2.83392 0.42791   3
   4  -8  17 0.33099 0.33099   3
   4  -8  17 0.46138 0.22063   3
   4  -8  17 0.30091 0.20061   3
   4   8  17 0.05899 0.28349   2
   4   8  17 0.04727 0.12996   2
   4  -9 -17 0.04791 0.09592   3
   4  -9 -17 0.43159 0.27814   3
   4   9 -17 0.05961 0.08941   4
   4   9 -17 -0.0596 0.05961   4
   4   9 -17 0.11922 0.22857   4
   3  -9 -17 0.03838 0.13429   1
   3  -9 -17 0.02002 0.11039   4
   3  -9 -17 0.93020 0.36439   1
   3   9 -17 -0.0584 0.10720   1
   3   9 -17 0.09743 0.20464   1
   3   9 -17 -0.0292 0.08766   1
   2  -9 -17 1.91438 0.37885   4
   2  -9 -17 1.85485 0.61158   4
   2  -9 -17 1.80477 0.40108   4
   2  -9 -17 2.23190 0.77257   1
   2   9 -17 1.08278 0.48012   3
   2   9 -17 1.51177 0.34733   3
   2   9 -17 2.28500 0.48551   1
   2   9 -17 0.93975 1.51177   3
   2   9 -17 1.71607 0.57202   3
   1  -9 -17 1.62413 0.48720   2
   1  -9 -17 1.79615 1.23247   2
   1  -9 -17 2.19739 0.43948   2
   1   9 -17 1.60693 1.22202   3
   1   9 -17 0.04100 1.25992   3
   1   9 -17 1.37264 0.48149   3
   1   9 -17 2.30119 0.56570   2
   0  -9 -17 0.49189 0.26483   2
   0  -9 -17 1.53241 0.96490   2
   0   9 -17 0.22226 0.18358   2
   0   9  17 0.49189 0.43515   2
   1  -9  17 4.02377 0.77913   2
   1   9  17 2.29667 0.85508   1
   1   9  17 3.23769 0.55370   2
   2  -9  17 0.69963 0.44619   3
   2  -9  17 0.51864 0.52885   4
   2   9  17 0.20859 0.22841   1
   2   9  17 0.75898 0.39843   2
   2   9  17 0.11914 0.33769   1
   2   9  17 -0.0569 0.25617   2
   3  -9  17 1.66630 0.50108   1
   3  -9  17 1.06037 0.61762   1
   3  -9  17 1.50325 0.43119   1
   3   9  17 1.58593 0.36040   1
   3   9  17 1.71430 0.56457   4
   3   9  17 1.76782 0.40652   3
   3   9  17 1.32852 0.37074   1
   4  -9  17 0.02006 0.06028   3
   4  -9  17 0.02006 0.06028   3
   4  -9  17 0.00000 0.07335   1
   4   9  17 -0.0279 0.03723   3
   4   9  17 0.00000 0.06947   1
   4 -10 -17 1.85179 0.68389   4
   4 -10 -17 1.81615 0.33320   1
   4  10 -17 1.87922 0.35460   4
   3 -10 -17 1.21549 0.67000   1
   3 -10 -17 0.48387 0.24684   4
   3 -10 -17 0.60299 0.32545   1
   3  10 -17 0.68562 0.35259   1
   3  10 -17 0.34418 0.35464   2
   3  10 -17 0.32336 0.27116   2
   2 -10 -17 1.30945 0.99632   1
   2 -10 -17 1.47078 0.55031   1
   2 -10 -17 1.06300 0.47135   4
   2 -10 -17 1.78391 0.36053   1
   2  10 -17 2.11979 0.46788   1
   2  10 -17 1.38459 0.49652   1
   2  10 -17 2.29172 0.48694   1
   2  10 -17 1.52778 0.32469   1
   1 -10 -17 9.57773 0.99868   2
   1 -10 -17 7.78968 1.16983   2
   1 -10 -17 6.77192 2.10192   2
   1  10 -17 7.98504 0.98250   1
   1  10 -17 8.64967 1.09806   1
   0 -10 -17 11.3427 2.41419   4
   0 -10 -17 11.9513 1.27694   4
   0  10  17 10.0757 1.44655   4
   0  10 -17 13.3631 1.28692   1
   1 -10  17 1.05386 0.56672   2
   1  10  17 0.81466 0.30903   2
   1  10  17 0.10934 0.67566   1
   2 -10  17 1.81911 0.71895   1
   2  10  17 2.30559 0.50585   1
   2  10  17 1.75611 0.46635   1
   2  10  17 1.94460 0.32742   1
   2  10  17 1.39894 0.32742   1
   3 -10  17 0.00000 0.09409   1
   3 -10  17 0.12136 0.08098   3
   3 -10  17 0.05053 0.07083   3
   3 -10  17 0.08098 0.07083   3
   3  10  17 0.03760 0.04693   3
   3  10  17 0.02818 0.05635   3
   3  10  17 0.02818 0.07520   3
   4 -10  17 0.59382 0.24159   3
   4 -10  17 0.54502 0.27251   3
   4 -10  17 0.56363 0.23149   3
   4  10  17 0.54441 0.15120   4
   4  10  17 0.88723 0.25872   3
   4  11 -17 0.01983 0.03977   4
   3 -11 -17 0.79258 0.65887   1
   3 -11 -17 0.72572 0.32469   1
   3 -11 -17 0.99304 0.32469   1
   3  11 -17 0.33044 0.35171   2
   3  11 -17 0.93650 0.27598   1
   3  11 -17 0.25582 0.38368   2
   2 -11 -17 9.00228 1.50981   1
   2 -11 -17 6.71966 0.93278   4
   2 -11 -17 5.97752 0.81235   4
   2  11 -17 6.82872 0.97277   3
   2  11 -17 6.37140 0.75919   3
   2  11 -17 6.83516 0.87604   2
   1 -11 -17 2.40892 0.47237   2
   1 -11 -17 0.82183 1.03911   2
   1 -11 -17 2.06884 0.55736   2
   1  11 -17 1.06390 0.46423   1
   1  11 -17 0.63838 1.11232   1
   0 -11 -17 2.45337 1.40998   2
   0 -11 -17 0.85538 0.37602   2
   0  11  17 1.04339 0.49822   2
   0  11  17 1.07158 0.44183   2
   0  11 -17 2.59530 0.48971   2
   1 -11  17 -0.0602 0.17073   2
   1  11  17 0.19639 0.10289   2
   2 -11  17 2.12156 0.75920   3
   2  11  17 1.20946 0.37667   1
   2  11  17 2.27373 0.40738   3
   2  11  17 2.09167 0.46597   1
   2  11  17 1.59608 0.31721   1
   3 -11  17 -0.0405 0.34437   3
   3 -11  17 -0.0506 0.43549   3
   3  11  17 0.33777 0.25584   3
   3  11  17 0.50398 0.20532   3
   3  11  17 0.28891 0.40247   2
   4 -11  17 -0.0302 0.06041   1
   4 -11  17 -0.0503 0.13093   1
   4  11  17 -0.0092 0.09181   3
   4  11  17 0.05507 0.05507   3
   4 -12 -17 0.41733 0.57514   1
   4  12 -17 0.28850 0.36055   1
   3 -12 -17 0.48515 0.22836   1
   3 -12 -17 -0.3044 0.57084   1
   3 -12 -17 0.24232 0.27140   4
   3  12 -17 0.76386 0.38691   1
   3  12 -17 0.88298 0.24798   1
   3  12 -17 -0.1290 0.21823   1
   2 -12 -17 0.77915 0.42239   1
   2 -12 -17 0.25347 0.34735   1
   2 -12 -17 0.88235 0.20649   1
   2  12 -17 -0.0872 0.19394   1
   2  12 -17 0.31026 0.33934   1
   2  12 -17 0.52356 0.34907   1
   1 -12 -17 4.65902 0.75929   1
   1  12 -17 7.12539 0.88458   1
   1  12 -17 5.93941 0.69990   1
   0 -12 -17 8.77427 1.00703   4
   0  12  17 8.57484 0.96713   4
   0  12 -17 9.51889 1.00930   2
   1 -12  17 1.02388 0.61836   2
   1  12  17 1.81287 0.40183   2
   1  12  17 1.11204 0.32703   2
   2 -12  17 -0.0712 0.39649   3
   2  12  17 -0.0847 0.18822   3
   2  12  17 0.16000 0.22588   3
   2  12  17 0.11289 0.12233   3
   3 -12  17 -0.1014 0.33454   3
   3 -12  17 -0.2332 0.30414   3
   3  12  17 0.48205 0.21322   3
   3  12  17 -0.2132 0.25032   3
   4  12  17 0.53038 0.29757   2
   4 -13 -17 0.29027 0.08424   3
   4 -13 -17 -0.0281 0.23402   3
   4  13 -17 -0.0398 0.12918   4
   4  13 -17 -0.0398 0.08940   4
   3 -13 -17 -0.0473 0.22711   1
   3 -13 -17 0.22146 0.22146   4
   3 -13 -17 -0.0284 0.54874   1
   3  13 -17 0.35877 0.22922   1
   3  13 -17 0.55811 0.23922   1
   3  13 -17 0.29900 0.21922   1
   2 -13 -17 0.58894 0.38322   1
   2 -13 -17 -0.2337 0.23366   1
   2 -13 -17 -0.0187 0.11214   1
   2 -13 -17 0.15893 0.28983   1
   2  13 -17 0.09812 0.16682   1
   2  13 -17 0.45135 0.25510   1
   2  13 -17 0.05147 0.14428   3
   1 -13 -17 1.02300 0.29759   1
   1 -13 -17 1.07889 0.46505   1
   1  13 -17 1.62619 0.50941   1
   0 -13 -17 0.26947 0.22306   2
   0  13 -17 0.32087 0.22058   2
   0  13  17 0.15799 0.16722   2
   1 -13  17 0.88516 0.55959   2
   1  13  17 0.37571 0.30995   4
   1  13  17 0.87779 0.34555   2
   2 -13  17 0.28481 0.49850   3
   2  13  17 0.11894 0.24782   2
   2  13  17 0.04952 0.28750   2
   2  13  17 0.21492 0.15887   3
   3 -13  17 -0.0304 0.05068   3
   3 -13  17 0.02025 0.05068   3
   3  13  17 0.03684 0.03684   3
   3  13  17 0.08282 0.04598   3
   4 -14 -17 0.22018 0.34254   1
   4  14 -17 0.23853 0.12918   4
   3 -14 -17 0.03760 0.02818   3
   3 -14 -17 0.02818 0.08454   3
   3  14 -17 -0.0100 0.04986   4
   2 -14 -17 1.35457 0.27094   4
   2 -14 -17 2.22042 0.76503   1
   2 -14 -17 0.71236 0.48158   4
   2 -14 -17 1.79125 0.45715   1
   2  14 -17 1.44430 0.39573   1
   2  14 -17 1.38314 0.36951   2
   1 -14 -17 4.90324 0.71097   1
   1 -14 -17 4.95863 0.92335   1
   1  14 -17 5.11442 0.83255   1
   0 -14 -17 2.05730 0.47972   1
   0  14  17 2.38942 0.50738   1
   0  14 -17 2.75046 0.52581   1
   1  14  17 3.04696 0.56577   4
   1  14  17 3.97002 0.67488   4
   2 -14  17 0.67187 0.35625   3
   2  14  17 0.44517 0.25966   3
   2  14  17 0.12950 0.17926   2
   2  14  17 -0.0371 0.28758   3
   3 -14  17 -0.2133 0.32493   3
   3 -14  17 0.11313 0.38984   2
   3  14  17 0.20644 0.23903   2
   3  14  17 0.44769 0.34715   3
   3 -15 -17 1.16576 0.57820   3
   3  15 -17 0.08648 0.33352   1
   2 -15 -17 0.19630 0.18692   1
   2 -15 -17 -0.0841 0.08409   1
   2  15 -17 0.02988 0.04977   1
   2  15 -17 0.04977 0.06977   1
   1 -15 -17 2.12201 0.45191   4
   1 -15 -17 2.59050 0.72572   1
   1  15 -17 3.51147 0.67834   1
   0 -15 -17 0.72467 0.33942   1
   0  15  17 0.68795 0.24769   1
   0  15 -17 0.73918 0.31393   1
   1  15  17 0.86344 0.32490   1
   2 -15  17 0.00000 0.13886   1
   2  15  17 -0.0092 0.09204   3
   2  15  17 0.03683 0.05520   3
   3 -15  17 0.50981 0.39514   4
   3  15  17 0.56210 0.24481   3
   3 -16 -17 -0.3331 0.39788   3
   3  16 -17 0.36944 0.21962   4
   2 -16 -17 1.01273 0.52623   4
   2 -16 -17 -0.6612 0.66122   1
   2 -16 -17 1.09898 0.44701   1
   2  16 -17 0.74791 0.36259   2
   2  16 -17 0.82725 0.30599   2
   1 -16 -17 4.01296 0.79061   4
   1 -16 -17 4.53079 0.63285   1
   1  16 -17 4.34203 0.78214   1
   0 -16 -17 2.77587 0.51329   4
   2 -16  17 0.66228 0.40759   3
   2  16  17 0.08144 0.32554   2
   2  16  17 0.11195 0.16277   2
   3 -16  17 0.04076 0.33974   2
   3  16  17 -0.0539 0.19784   3
   3 -17 -17 0.02752 0.08256   3
   3  17 -17 0.01002 0.02995   4
   2  17 -17 0.51200 0.26104   4
   2  17 -17 0.33143 0.24300   4
   1  17 -17 -0.0705 0.11083   1
   0 -17 -17 0.07344 0.08254   1
   2 -17  17 0.38729 0.28536   3
   2  17  17 -0.0181 0.19913   3
   3 -17  17 0.09982 0.25654   2
   3  17  17 0.37631 0.27916   1
   3 -18 -17 0.11826 0.20923   3
   3  18 -17 -0.0300 0.07994   4
   2 -18 -17 1.05329 0.44879   3
   1  18 -17 0.30294 0.18170   1
   0  18 -17 1.82589 0.43634   2
   1  18  17 -0.0181 0.20887   3
   2 -18  17 -0.0714 0.10197   4
   2  18  17 0.01791 0.05383   3
   2 -19 -17 1.31076 0.59666   4
   2  19 -17 1.31731 0.27863   4
   2  19 -17 0.91649 0.39474   1
   1 -19 -17 0.08183 0.13638   3
   1  19 -17 0.05045 0.07071   4
   0 -19  17 0.28887 0.43324   2
   0  19 -17 0.59156 0.22324   4
   1 -19  17 0.04076 0.10184   4
   1 -19  17 0.00000 0.09708   1
   1  19  17 0.12599 0.08095   3
  -1  19 -17 0.08152 0.09163   4
   2 -19  17 0.13625 0.29970   2
   2  19  17 0.46240 0.19561   3
   2 -20 -17 0.87182 0.38650   3
   2  20 -17 0.20441 0.20441   4
   2  20 -17 0.03279 0.19708   1
   1 -20 -17 1.76526 0.54936   3
   1  20 -17 0.42295 0.33040   1
   1  20 -17 1.11087 0.36357   4
   0  20 -17 0.78911 0.30551   2
   0  20 -17 0.31814 0.20363   2
   1 -20  17 0.07902 0.36880   2
   1  20  17 0.44308 0.24265   1
   1 -21 -17 0.27646 0.27646   3
   1  21 -17 0.04497 0.12001   1
   0 -21  17 0.11167 0.07105   4
   0  21 -17 -0.0203 0.04062   4
   0  21 -17 -0.0102 0.05069   4
   1 -21  17 0.37979 0.19695   2
  -1  21 -17 0.14066 0.18284   2
   1  21  17 0.11165 0.20090   1
   4   0 -18 -0.1389 0.35715   1
   2   0 -18 2.23985 1.24546   4
   2   0 -18 3.33841 0.89027   4
   2   0 -18 3.33459 0.62273   4
   2   0 -18 5.46130 0.74424   2
   2   0 -18 3.85676 0.94727   2
   0   0 -18 12.9692 1.39066   1
   4   0  18 0.26309 0.28254   3
   4  -1 -18 2.84903 0.85078   1
   4   1 -18 4.01806 0.72608   1
   3  -1 -18 0.59255 0.38860   1
   3   1 -18 0.01006 0.21065   2
   3   1 -18 0.09023 0.47139   2
   3   1 -18 0.40776 0.48548   1
   2  -1 -18 1.98346 0.52243   2
   2  -1 -18 1.47391 0.74193   4
   2  -1 -18 1.44384 0.41104   4
   2  -1 -18 1.86738 0.61919   2
   2   1 -18 2.00850 0.73391   1
   2   1 -18 1.53534 0.40556   1
   2   1 -18 2.23060 0.51181   1
   2   1 -18 -0.4924 1.20708   1
   1  -1 -18 1.60611 1.05787   2
   1  -1 -18 1.75998 0.53859   2
   1   1 -18 1.66119 0.38412   2
   1   1 -18 1.57480 0.51848   2
   0  -1 -18 37.5767 3.79089   1
   0   1 -18 43.2314 3.82819   1
   1  -1  18 3.76487 0.65641   2
   2  -1  18 2.59553 0.52734   1
   3  -1  18 4.25421 0.75368   3
   3   1  18 4.12004 0.76696   3
   4  -1  18 2.12647 0.56324   4
   4   1  18 2.13453 0.54247   3
   4  -2 -18 1.69637 0.68055   1
   4   2 -18 1.59211 0.73632   1
   3  -2 -18 2.25157 0.88061   2
   3   2 -18 2.46644 0.44669   1
   3   2 -18 2.82576 0.83514   1
   3   2 -18 3.05885 0.85452   1
   2  -2 -18 0.91195 0.72156   4
   2  -2 -18 0.64134 0.37083   4
   2   2 -18 1.41829 0.48244   1
   2   2 -18 0.78659 0.48403   4
   2   2 -18 1.02276 0.35702   1
   2   2 -18 0.83707 1.29086   4
   1  -2 -18 4.07889 0.66017   1
   1  -2 -18 3.37240 1.39509   1
   1   2 -18 2.93236 1.31449   1
   1   2 -18 6.11250 0.84442   2
   0  -2 -18 4.82630 0.71000   2
   1  -2  18 0.75927 0.34425   1
   1   2  18 0.79184 0.29065   1
   2  -2  18 1.50297 0.46476   2
   2  -2  18 1.59194 0.52407   2
   3  -2  18 0.47785 0.35842   3
   3   2  18 0.35240 0.25450   3
   4  -2  18 0.11791 0.04909   3
   4   2  18 0.05789 0.06757   3
   5   3 -18 2.91508 0.65154   1
   4  -3 -18 0.21627 0.25562   1
   4   3 -18 0.30864 0.30864   1
   4   3 -18 0.11942 0.10954   1
   3  -3 -18 3.18353 0.98108   2
   3   3 -18 3.48578 0.94698   3
   3   3 -18 3.95532 0.53448   1
   3   3 -18 3.60675 0.83623   3
   2  -3 -18 0.48447 0.56193   2
   2  -3 -18 0.60071 0.38758   2
   2   3 -18 1.23434 0.21212   1
   2   3 -18 1.74545 0.95470   1
   2   3 -18 1.86114 0.32791   1
   2   3 -18 1.62010 0.39532   1
   2   3 -18 0.84859 0.37608   1
   1  -3 -18 34.0296 4.17346   1
   1  -3 -18 31.9729 3.03975   1
   1   3 -18 35.1321 3.34397   1
   1   3 -18 33.3790 3.75949   1
   1   3 -18 37.5618 3.34754   2
   0  -3 -18 0.31082 0.24063   1
   0   3 -18 0.47131 0.24043   2
   1  -3  18 7.45261 0.96072   2
   2  -3  18 0.17822 0.35643   1
   2  -3  18 0.89480 0.38776   2
   2  -3  18 0.27253 0.34592   1
   3  -3  18 0.75956 0.28981   3
   3  -3  18 1.01940 0.60959   3
   3   3  18 0.46579 0.34660   1
   3   3  18 0.42244 0.40082   1
   3   3  18 -0.0682 0.61382   3
   4  -3  18 0.51687 0.65229   2
   4   3  18 0.64365 0.60789   2
   5   4 -18 1.31001 0.30769   4
   4  -4 -18 0.17629 0.28409   4
   4   4 -18 0.30866 0.48781   1
   4   4 -18 -0.0497 0.09956   1
   3  -4 -18 -0.5348 0.53475   1
   3  -4 -18 0.37919 0.28196   1
   3   4 -18 0.02016 0.50500   3
   3   4 -18 0.36988 0.24333   1
   3   4 -18 -0.3797 0.37965   1
   2  -4 -18 0.36812 0.64918   2
   2   4 -18 0.34707 0.34707   1
   2   4 -18 0.28360 1.07386   3
   2   4 -18 1.07014 0.39523   1
   2   4 -18 0.06076 0.26338   3
   2   4 -18 0.12153 0.28360   3
   1  -4 -18 12.6353 2.53711   1
   1  -4 -18 15.1723 1.74489   1
   1  -4 -18 12.9160 1.54432   1
   1   4 -18 16.9690 1.56355   2
   1   4 -18 16.1136 2.33722   1
   1   4 -18 19.3479 1.73626   2
   0   4 -18 1.64647 0.41403   2
   1  -4  18 1.65085 0.55025   1
   2  -4  18 0.26410 0.47543   1
   2  -4  18 0.29579 0.38037   1
   2  -4  18 -0.0900 0.36020   2
   2   4  18 -0.1740 0.19338   2
   2   4  18 -0.2031 0.72513   2
   3  -4  18 -0.0101 0.27063   3
   3  -4  18 0.91203 0.43098   3
   3   4  18 0.44597 0.28114   3
   3   4  18 -0.0679 0.43625   3
   4  -4  18 0.02971 0.04948   3
   4   4  18 -0.0191 0.03823   3
   4  -5 -18 0.03177 0.18010   1
   4   5 -18 0.03383 0.25941   2
   4   5 -18 0.17910 0.29860   4
   4   5 -18 0.11940 0.06968   4
   3  -5 -18 0.05832 0.10700   1
   3  -5 -18 -0.1945 0.20424   1
   3   5 -18 -0.0586 0.09765   1
   3   5 -18 -0.0391 0.20510   1
   3   5 -18 0.06837 0.14643   1
   3   5 -18 -0.0098 0.08786   1
   2  -5 -18 -0.1937 1.50086   1
   2   5 -18 0.89664 0.41457   1
   2   5 -18 1.00262 0.19283   1
   2   5 -18 0.60740 1.09904   1
   2   5 -18 0.20309 0.30464   3
   2   5 -18 0.15226 0.31482   3
   2   5 -18 1.23404 0.41457   1
   1  -5 -18 3.08924 0.67370   2
   1  -5 -18 1.06258 1.32320   1
   1  -5 -18 2.81016 0.82767   2
   1   5 -18 3.68619 0.65274   2
   1   5 -18 3.11020 0.51832   2
   1   5 -18 1.21910 1.13273   2
   0   5 -18 5.29414 0.74249   2
   1  -5  18 19.7604 1.84702   2
   1   5  18 14.4254 1.82816   1
   2  -5  18 2.34476 0.67147   1
   2  -5  18 2.88673 0.68395   3
   2  -5  18 2.82639 0.53312   3
   2   5  18 2.31824 0.49388   1
   2   5  18 1.51186 0.36285   1
   3  -5  18 2.16695 0.54177   1
   3  -5  18 2.16695 0.58778   1
   3  -5  18 2.79169 0.56237   3
   3   5  18 2.30517 0.70412   3
   3   5  18 1.89517 0.42831   1
   4  -5  18 2.08805 0.46736   3
   4   5  18 2.08579 0.46591   4
   4   5  18 2.08889 0.39167   1
   4   6 -18 -0.1095 0.36819   4
   4   6 -18 0.38805 0.38805   4
   4   6 -18 0.44774 0.12935   4
   3  -6 -18 -0.2135 0.35920   1
   3  -6 -18 0.17043 0.32074   2
   3   6 -18 0.55822 0.28397   1
   3   6 -18 0.09155 0.19330   2
   3   6 -18 0.19330 0.19330   2
   3   6 -18 0.23402 0.41711   2
   2  -6 -18 8.12188 1.09254   1
   2  -6 -18 6.01349 0.95215   4
   2  -6 -18 6.17394 2.26511   4
   2   6 -18 10.0466 1.02206   1
   2   6 -18 8.14723 0.89672   1
   2   6 -18 7.03300 0.98723   3
   2   6 -18 7.86838 1.26290   3
   2   6 -18 8.12788 0.76171   1
   1  -6 -18 1.35588 1.10587   2
   1  -6 -18 0.67317 0.57700   2
   1   6 -18 -0.2403 1.13459   2
   1   6 -18 0.29812 0.38463   2
   1   6 -18 0.24034 0.25963   2
   1   6 -18 1.03843 0.43266   2
   0   6 -18 2.82238 0.56058   2
   1  -6  18 6.54877 0.92289   2
   1   6  18 4.88543 0.96950   2
   2  -6  18 0.01013 0.09083   3
   2  -6  18 0.08081 0.13123   3
   2  -6  18 0.07068 0.10095   3
   2   6  18 0.00966 0.09634   2
   2   6  18 -0.0097 0.05778   2
   3  -6  18 -0.2113 0.21128   3
   3  -6  18 -0.1107 0.34204   3
   3  -6  18 -0.0603 0.31187   3
   3  -6  18 0.23136 0.44264   3
   3   6  18 -0.0384 0.31658   3
   3   6  18 0.06390 0.35157   1
   4  -6  18 -0.0699 0.11970   3
   4  -6  18 -0.0100 0.05985   3
   4   6  18 -0.0472 0.04718   3
   4   6  18 -0.0850 0.08499   3
   4   6  18 0.05666 0.08499   3
   4  -7 -18 0.79537 0.68788   1
   4  -7 -18 1.51560 0.26868   1
   4   7 -18 2.01951 0.53716   4
   4   7 -18 1.71066 0.22810   3
   4   7 -18 1.25574 0.57507   2
   3  -7 -18 1.01702 0.39707   1
   3  -7 -18 1.07512 0.59080   1
   3   7 -18 1.29527 0.52982   1
   3   7 -18 1.51111 0.29439   1
   3   7 -18 1.56013 0.37283   1
   2  -7 -18 9.18132 1.08252   4
   2  -7 -18 9.47198 1.13258   4
   2   7 -18 10.6934 1.11958   1
   2   7 -18 8.70274 1.03044   3
   2   7 -18 9.83522 1.39774   3
   2   7 -18 9.24350 1.13248   3
   1  -7 -18 1.28696 1.41182   2
   1  -7 -18 1.85362 0.81636   2
   1   7 -18 2.49739 0.46280   2
   1   7 -18 2.33345 1.53310   2
   1   7 -18 3.10489 0.58815   2
   1   7 -18 1.69704 0.55923   2
   0   7 -18 21.9847 2.16260   2
   1  -7  18 2.94255 0.63191   2
   1  -7  18 3.91022 0.75047   2
   1   7  18 2.80717 0.87253   2
   1   7  18 2.57962 0.46471   2
   2  -7  18 1.56439 0.52143   1
   2  -7  18 2.44666 0.62683   3
   2  -7  18 2.34659 0.70613   1
   2   7  18 2.77233 0.51021   2
   2   7  18 2.15934 0.40177   1
   3  -7  18 -0.2317 0.23170   3
   3  -7  18 0.08210 0.28148   1
   3  -7  18 -0.0403 0.27201   3
   3  -7  18 -0.1713 0.17127   3
   3   7  18 0.09540 0.31479   3
   3   7  18 0.12400 0.23844   3
   3   7  18 0.05298 0.13789   1
   4  -7  18 0.24853 0.28402   4
   4  -7  18 0.24853 0.16569   4
   4   7  18 0.18360 0.26932   2
   4   7  18 0.25355 0.15023   3
   4   7  18 0.25222 0.21017   3
   4  -8 -18 0.33677 0.19247   3
   4  -8 -18 0.43300 0.51003   3
   4   8 -18 0.97478 0.45756   4
   4   8 -18 1.59147 0.41775   4
   3  -8 -18 2.04879 0.37690   1
   3  -8 -18 1.04373 0.37690   1
   3   8 -18 0.43763 0.37513   2
   3   8 -18 0.89607 0.33484   1
   3   8 -18 1.65436 0.61052   1
   2  -8 -18 2.83538 0.54789   1
   2  -8 -18 3.08527 0.56708   1
   2   8 -18 3.01809 0.54171   1
   2   8 -18 1.78976 0.54208   3
   2   8 -18 3.54039 0.74479   1
   2   8 -18 4.36261 0.64816   1
   1  -8 -18 0.26843 0.80540   2
   1  -8 -18 0.48897 0.42194   2
   1   8 -18 0.28083 0.18398   2
   1   8 -18 0.03075 0.17432   3
   1   8 -18 0.34864 0.20341   2
   1   8 -18 -0.3680 0.63919   2
   0  -8 -18 0.39961 0.32967   1
   1  -8  18 6.27049 0.96394   1
   1   8  18 5.38085 0.73733   1
   1   8  18 4.82282 1.06617   1
   2  -8  18 0.07088 0.05057   3
   2  -8  18 -0.0102 0.08103   3
   2  -8  18 -0.0506 0.06072   3
   2   8  18 -0.0385 0.05766   2
   2   8  18 0.00000 0.02986   1
   2   8  18 0.00000 0.03985   1
   2   8  18 0.03847 0.05766   2
   3  -8  18 -0.3833 0.38328   3
   3  -8  18 0.26065 0.34412   3
   3  -8  18 0.23647 0.44921   1
   3  -8  18 0.33290 0.35303   3
   3   8  18 0.35089 0.30342   3
   3   8  18 0.36030 0.24654   3
   3   8  18 0.01061 0.20084   1
   3   8  18 -0.2086 0.20859   3
   4  -8  18 1.07600 0.39001   2
   4  -8  18 0.99519 0.33618   2
   4   8  18 1.20338 0.30351   4
   4   8  18 0.93164 0.22353   2
   4  -9 -18 0.48808 0.41157   3
   4  -9 -18 0.20103 0.13402   3
   4   9 -18 0.25858 0.12929   4
   4   9 -18 0.38787 0.26856   4
   3  -9 -18 0.68680 0.36756   4
   3  -9 -18 1.88804 0.92480   1
   3  -9 -18 0.99214 0.32756   1
   3   9 -18 0.70142 0.31612   1
   3   9 -18 0.89902 0.40501   1
   3   9 -18 0.64639 0.38150   2
   2  -9 -18 1.18296 0.48117   4
   2  -9 -18 1.38820 0.52653   1
   2  -9 -18 2.26898 0.93820   1
   2  -9 -18 1.10271 0.48117   4
   2  -9 -18 1.41691 0.31594   1
   2   9 -18 1.00475 0.41013   3
   2   9 -18 0.71772 0.33834   3
   2   9 -18 0.42031 0.36909   3
   1  -9 -18 1.09117 1.69173   1
   1  -9 -18 3.13804 0.80361   2
   1  -9 -18 2.61187 0.50708   2
   1  -9 -18 3.08066 0.72712   2
   1   9 -18 3.16689 0.54568   1
   1   9 -18 1.97807 0.49691   1
   1   9 -18 1.29510 1.43903   3
   1   9 -18 3.31301 0.50669   1
   0  -9 -18 1.05239 0.38868   2
   0  -9 -18 1.64972 1.36527   2
   0   9 -18 1.62728 0.40188   2
   1   9  18 0.04973 0.44803   1
   1   9  18 0.29298 0.20786   2
   1   9  18 0.29298 0.18900   2
   2  -9  18 11.0232 1.37925   3
   2  -9  18 9.72655 1.19780   1
   2   9  18 8.64971 1.03110   1
   2   9  18 11.0105 1.06553   4
   2   9  18 10.3616 1.02116   1
   2   9  18 9.23034 1.03110   1
   3  -9  18 0.59568 0.45264   1
   3  -9  18 0.50032 0.40509   1
   3  -9  18 0.72664 0.53605   1
   3  -9  18 0.77769 0.41407   3
   3   9  18 0.71747 0.26375   1
   3   9  18 0.25327 0.30598   1
   3   9  18 0.39044 0.33762   1
   3   9  18 0.95180 0.40524   3
   4  -9  18 0.40180 0.21097   1
   4  -9  18 0.50224 0.20090   1
   4   9  18 0.03794 0.24035   2
   4   9  18 0.22766 0.15177   2
   4 -10 -18 0.39402 0.19142   1
   4 -10 -18 0.80884 0.42819   3
   4  10 -18 0.24601 0.20501   1
   4  10 -18 0.42914 0.36789   4
   3 -10 -18 1.51792 1.03534   4
   3 -10 -18 1.73308 0.37630   4
   3 -10 -18 1.75598 0.35507   1
   3  10 -18 0.78996 0.59513   2
   3  10 -18 1.59067 0.37870   2
   3  10 -18 1.42840 0.36796   2
   2 -10 -18 0.26688 0.14295   1
   2 -10 -18 -0.2097 0.20970   1
   2 -10 -18 0.21926 0.32416   1
   2 -10 -18 0.26688 0.37178   1
   2 -10 -18 0.43852 0.28600   1
   2  10 -18 -0.1271 0.17597   1
   2  10 -18 0.16626 0.20540   1
   2  10 -18 0.37156 0.25424   1
   2  10 -18 0.07828 0.18578   1
   1 -10 -18 5.76496 0.95082   4
   1 -10 -18 6.44552 0.89079   4
   1  10 -18 6.83217 0.89649   3
   1  10 -18 7.65230 0.80449   1
   0 -10 -18 0.01001 0.12973   1
   0 -10 -18 0.13245 0.73774   2
   0  10  18 0.41622 0.22704   2
   0  10 -18 0.33608 0.17785   2
   1 -10  18 1.84038 0.65728   2
   1  10  18 2.16160 0.43421   2
   1  10  18 1.85956 0.37759   2
   2 -10  18 2.43244 0.58287   1
   2 -10  18 2.46606 0.66135   1
   2  10  18 2.63957 0.41992   1
   2  10  18 3.28681 0.62699   3
   2  10  18 3.09681 0.56048   3
   2  10  18 2.97851 0.40702   3
   3 -10  18 0.51571 0.30340   3
   3 -10  18 -0.2933 0.32358   3
   3 -10  18 0.39439 0.29325   3
   3  10  18 0.10554 0.18990   1
   3  10  18 0.23214 0.27438   1
   3  10  18 0.31838 0.22474   3
   4  10  18 0.00000 0.05985   1
   4  10  18 -0.0460 0.10135   3
   4 -11 -18 0.22701 0.06622   3
   4 -11 -18 0.13243 0.02836   3
   3 -11 -18 3.09411 0.78308   1
   3 -11 -18 0.87566 0.41264   4
   3 -11 -18 1.49971 0.35226   4
   3  11 -18 1.58283 0.36528   1
   3  11 -18 1.48765 0.45512   2
   3  11 -18 1.57669 0.44576   1
   2 -11 -18 1.99370 0.55061   1
   2 -11 -18 1.33863 0.44624   1
   2 -11 -18 1.47157 0.27530   1
   2 -11 -18 1.19616 0.94933   1
   2  11 -18 0.86690 0.31522   1
   2  11 -18 1.13291 0.37431   1
   2  11 -18 1.74368 0.45316   1
   1 -11 -18 8.34048 1.07095   2
   1  11 -18 5.52022 0.86892   2
   1  11 -18 6.83775 0.77072   1
   0 -11 -18 1.91593 0.42469   2
   0  11  18 1.68002 0.44363   2
   0  11 -18 1.74797 0.40949   2
   1 -11  18 5.20942 0.88065   1
   1  11  18 6.20370 0.83508   1
   1  11  18 6.81022 0.81524   1
   1  11  18 6.87972 0.80527   1
   2 -11  18 1.40970 0.45950   3
   2  11  18 1.67034 0.44357   3
   2  11  18 1.48159 0.34920   3
   2  11  18 1.27890 0.50951   1
   2  11  18 1.17898 0.35969   1
   2  11  18 1.89686 0.29259   3
   3 -11  18 -0.1215 0.33410   3
   3 -11  18 0.58716 0.41503   3
   3  11  18 0.66024 0.25111   3
   3  11  18 0.51146 0.23246   3
   4 -11  18 -0.0601 0.06011   1
   4 -12 -18 0.15975 0.07521   3
   4 -12 -18 0.03580 0.31035   1
   4  12 -18 0.08203 0.21347   1
   4  12 -18 0.18893 0.14912   4
   3 -12 -18 -0.3417 0.45551   3
   3 -12 -18 0.04036 0.18147   4
   3 -12 -18 -0.1139 0.18030   3
   3  12 -18 0.09168 0.22908   2
   3  12 -18 0.16038 0.19473   2
   3  12 -18 0.08019 0.25194   2
   2 -12 -18 1.29099 0.50040   4
   2 -12 -18 2.29935 0.29338   1
   2 -12 -18 2.07223 0.56777   1
   2 -12 -18 1.97760 1.01243   1
   2  12 -18 2.91026 0.54442   1
   2  12 -18 1.49475 0.41574   1
   1 -12 -18 0.42373 0.33901   1
   1 -12 -18 0.44263 0.28252   1
   1  12 -18 0.64774 0.41853   1
   0 -12 -18 0.50854 0.27918   4
   0  12  18 0.39891 0.27918   4
   0  12 -18 0.97950 0.35341   2
   1  12  18 0.35767 0.33784   1
   1  12  18 0.36764 0.34770   1
   2 -12  18 2.45178 0.85924   1
   2  12  18 2.96855 0.54065   4
   2  12  18 2.75835 0.42975   1
   2  12  18 2.79825 0.53962   1
   3 -12  18 0.06079 0.11152   3
   3 -12  18 0.06079 0.15197   3
   3  12  18 -0.0184 0.10161   3
   3  12  18 0.07391 0.07391   3
   3  12  18 0.15700 0.16616   3
   4 -13 -18 0.11194 0.17727   3
   4  13 -18 -0.0398 0.06963   4
   3 -13 -18 1.21595 0.56557   3
   3 -13 -18 0.51839 0.18852   3
   3 -13 -18 0.43737 0.24414   1
   3  13 -18 -0.0100 0.35954   4
   3  13 -18 0.60919 0.31957   4
   3  13 -18 0.49944 0.20219   2
   2 -13 -18 0.85922 0.16054   1
   2 -13 -18 0.97249 0.42487   1
   2 -13 -18 -0.2833 0.89701   1
   2 -13 -18 1.48242 0.49098   1
   2  13 -18 -0.1691 0.34810   1
   2  13 -18 0.61735 0.33401   4
   1 -13 -18 0.22463 0.21524   1
   1 -13 -18 0.14972 0.27138   1
   1  13 -18 0.20007 0.33010   1
   0 -13 -18 3.24123 0.60889   2
   0  13 -18 2.73882 0.55790   2
   0  13  18 2.87589 0.56210   2
   1  13  18 0.69676 0.34843   3
   1  13  18 0.72500 0.32954   3
   2 -13  18 0.39411 0.66068   1
   2  13  18 0.44104 0.21052   2
   2  13  18 0.30069 0.34081   2
   2  13  18 0.39087 0.28058   2
   3 -13  18 0.10243 0.39676   2
   3 -13  18 0.31986 0.33270   2
   3  13  18 0.76992 0.27500   3
   3  13  18 0.53035 0.27620   2
   3 -14 -18 0.87025 0.24328   3
   3 -14 -18 0.97312 0.61759   3
   3  14 -18 0.45003 0.31247   1
   2 -14 -18 0.57390 0.32927   1
   2 -14 -18 0.92205 0.40459   1
   2  14 -18 0.41811 0.36314   2
   2  14 -18 0.72969 0.30990   1
   1 -14 -18 1.80676 0.36320   1
   1 -14 -18 1.04308 0.60534   1
   0 -14 -18 3.73691 0.65237   1
   0  14  18 2.96026 0.58436   4
   1  14  18 2.16790 0.39245   3
   1  14  18 1.39219 0.43271   2
   1  14  18 1.41102 0.34577   3
   2 -14  18 2.66762 0.72957   3
   2  14  18 3.44358 0.53544   3
   2  14  18 2.56784 0.55602   2
   3 -14  18 1.23380 0.46427   2
   3  14  18 1.83735 0.30930   3
   3  14  18 0.98489 0.29434   2
   3 -15 -18 -0.0093 0.14855   3
   3 -15 -18 0.08354 0.08354   3
   3  15 -18 -0.0599 0.05992   4
   2 -15 -18 0.10285 0.21498   1
   2 -15 -18 0.62630 0.50469   1
   2  15 -18 0.27089 0.19059   1
   1 -15 -18 2.19328 0.41818   1
   1 -15 -18 0.78062 0.55764   1
   0 -15 -18 3.88754 0.72770   4
   1  15  18 0.03983 0.21890   2
   1  15  18 0.12980 0.15760   3
   2 -15  18 1.84242 0.56603   2
   2  15  18 2.39035 0.46704   3
   3 -15  18 1.06475 0.33345   1
   3  15  18 0.57119 0.31477   2
   3 -16 -18 -0.2302 0.34994   3
   3  16 -18 -0.0999 0.11986   4
   2 -16 -18 -0.0093 0.11123   3
   2 -16 -18 0.14834 0.07422   3
   2  16 -18 -0.0200 0.05017   4
   1  16 -18 0.01124 0.35842   2
   0 -16 -18 -0.1111 0.21301   1
   0  16  18 1.14838 0.30563   1
   1  16  18 0.28500 0.20220   3
   2 -16  18 1.96590 0.44823   3
   2  16  18 1.08710 0.34167   2
   3 -16  18 1.30415 0.40569   2
   3  16  18 1.40060 0.31391   1
   3 -17 -18 0.33102 0.54788   1
   3  17 -18 0.16081 0.37541   1
   2 -17 -18 0.00000 0.56128   1
   2  17 -18 0.39057 0.23932   1
   1 -17 -18 2.55143 0.71845   1
   1 -17 -18 2.17382 0.42371   1
   0 -17 -18 0.25002 0.34012   2
   1  17  18 0.21191 0.26230   2
   2 -17  18 0.11213 0.26494   3
   2  17  18 -0.1350 0.13502   3
   2 -18 -18 0.48279 0.46452   3
   2  18 -18 0.00000 0.22250   1
   1 -18 -18 0.07056 0.56435   2
   1  18 -18 0.55286 0.34397   2
   0 -18  18 0.19330 0.62825   2
   1 -18  18 0.62106 0.34623   4
   1  18  18 0.50049 0.27581   2
   2 -18  18 0.23404 0.26595   3
   2  18  18 0.23466 0.19553   3
   2 -19 -18 0.11730 0.12636   3
   1 -19 -18 0.02058 0.45379   1
   1  19 -18 0.03920 0.13070   1
   0  19 -18 0.80307 0.26773   2
   1 -19  18 0.18517 0.27775   2
   1  19  18 0.03137 0.23008   1
   1 -20 -18 0.37596 0.37596   3
   1  20 -18 0.24779 0.20408   1
   0 -20  18 0.36681 0.27170   2
   0 -20  18 0.16296 0.27170   2
   0  20 -18 0.05437 0.19022   2
   1  20  18 0.10883 0.22857   1
   0 -21 -18 1.35289 0.41214   2
   0  21  18 1.25034 0.28770   1
   3   0 -19 -0.0988 0.74093   1
   1   0 -19 13.3406 1.53703   2
   3   0  19 11.3987 1.30274   3
   4  -1 -19 1.00018 0.47531   4
   4   1 -19 0.16730 0.73633   2
   3  -1 -19 1.06642 0.71095   1
   3   1 -19 0.70118 0.50364   1
   3   1 -19 1.15549 0.53326   1
   3   1 -19 0.41553 0.33450   2
   2  -1 -19 0.81969 0.60503   1
   2  -1 -19 1.76635 1.24912   1
   2  -1 -19 -0.0585 0.55629   1
   2   1 -19 0.01011 0.29216   4
   2   1 -19 1.24897 1.18065   1
   2   1 -19 0.08065 0.56421   4
   1   1 -19 9.63914 0.99577   2
   1   1 -19 7.51212 1.03446   2
   0   1 -19 30.4979 2.93441   1
   2  -1  19 1.63926 0.53225   1
   3  -1  19 1.26882 0.50550   3
   3   1  19 1.78789 0.52068   3
   4  -1  19 0.50861 0.32279   3
   4   1  19 0.30183 0.41497   2
   4  -2 -19 2.05257 0.53284   4
   4   2 -19 2.52041 0.58776   4
   4   2 -19 1.75328 0.25901   4
   3  -2 -19 10.1021 1.22209   1
   3   2 -19 6.79018 0.88131   4
   3   2 -19 7.79195 1.36287   1
   3   2 -19 8.11786 1.20487   1
   2  -2 -19 8.76435 1.12241   2
   2  -2 -19 5.24232 1.10255   4
   2   2 -19 1.97984 1.66675   4
   2   2 -19 6.09071 0.81018   1
   2   2 -19 7.20343 0.94676   1
   2   2 -19 6.52023 1.22012   1
   2   2 -19 6.51044 0.66371   1
   1   2 -19 20.0692 2.11815   2
   1   2 -19 20.9880 1.96341   2
   1   2 -19 15.9844 2.76542   1
   0   2 -19 0.62923 0.17420   2
   1  -2  19 0.03056 0.23438   1
   2  -2  19 0.97275 0.29082   3
   2  -2  19 0.91260 0.26074   3
   3  -2  19 -0.1194 0.35837   3
   3   2  19 0.73326 0.54752   3
   4  -2  19 0.02947 0.06879   3
   4   2  19 0.05781 0.04814   3
   4  -3 -19 4.00159 0.77673   4
   4   3 -19 4.62373 0.91679   4
   4   3 -19 4.20522 0.79725   4
   4   3 -19 3.93521 0.41535   4
   3  -3 -19 0.09837 0.08850   1
   3  -3 -19 -0.0295 0.11801   1
   3   3 -19 -0.0692 0.16796   1
   3   3 -19 0.19759 0.07908   1
   3   3 -19 0.23713 0.14814   1
   2  -3 -19 1.25880 0.74162   3
   2  -3 -19 0.46107 0.39089   4
   2   3 -19 1.16245 0.47864   1
   2   3 -19 0.11144 1.33691   3
   2   3 -19 1.95365 0.64472   1
   2   3 -19 1.13316 0.21487   1
   2   3 -19 0.56717 0.37476   3
   1   3 -19 13.2616 1.49074   2
   1   3 -19 12.8066 2.32325   2
   1   3 -19 17.3563 1.66493   2
   0   3 -19 11.1722 1.18036   1
   1  -3  19 7.81173 1.01076   2
   1   3  19 7.47345 0.92578   2
   2  -3  19 0.15066 0.19086   3
   2  -3  19 0.08042 0.17081   3
   3  -3  19 0.39983 0.11991   3
   3   3  19 0.26269 0.11670   3
   4  -3  19 -0.0790 0.11838   3
   4   3  19 0.04789 0.11502   3
   4  -4 -19 0.03308 0.30879   1
   4   4 -19 0.45826 0.40840   4
   3  -4 -19 1.98262 0.58894   1
   3   4 -19 0.20573 0.79198   2
   3   4 -19 1.63544 0.33945   2
   3   4 -19 1.44003 0.33945   2
   2   4 -19 0.28362 0.14666   1
   2   4 -19 0.70420 0.38143   1
   2   4 -19 -0.2445 0.26410   1
   2   4 -19 0.67486 0.48905   1
   1  -4 -19 5.59857 1.89628   1
   1   4 -19 7.61989 0.93071   2
   1   4 -19 6.78992 2.12757   1
   1   4 -19 9.73325 1.12461   2
   0  -4 -19 5.50808 0.82672   2
   0   4 -19 7.13459 0.83596   2
   1  -4  19 7.08753 0.87734   2
   1   4  19 4.67469 0.66223   2
   2  -4  19 5.46629 1.00182   1
   2  -4  19 6.16830 0.94584   3
   2   4  19 5.11884 0.75646   1
   3  -4  19 2.16573 0.57364   1
   3  -4  19 2.88595 0.58117   3
   3   4  19 2.76786 0.58070   3
   4  -4  19 2.56627 0.42607   3
   4   4  19 0.71818 0.37798   2
   4   5 -19 0.46814 0.32867   4
   3  -5 -19 0.15090 0.27172   2
   3  -5 -19 0.13081 0.36226   2
   3   5 -19 0.56427 0.18805   1
   3   5 -19 0.30691 0.17812   1
   3   5 -19 0.26729 0.50479   1
   2  -5 -19 -0.0098 0.05845   3
   2   5 -19 0.14691 0.05876   1
   2   5 -19 0.00983 0.04894   1
   2   5 -19 0.00000 0.09797   1
   2   5 -19 0.09797 0.07842   1
   1  -5 -19 3.02875 1.82521   1
   1   5 -19 7.73516 0.93291   2
   1   5 -19 5.13302 1.82815   3
   1   5 -19 7.80309 0.86488   2
   0  -5 -19 7.30549 0.92197   1
   0   5 -19 9.48000 1.01355   1
   1  -5  19 10.0761 1.14830   1
   1   5  19 9.81029 1.04320   1
   2  -5  19 3.92706 0.70170   3
   2  -5  19 3.07580 0.65915   1
   3  -5  19 0.44830 0.41291   1
   3  -5  19 1.07429 0.41161   3
   3   5  19 0.78927 0.36572   3
   3   5  19 0.13149 0.59181   1
   4  -5  19 0.73639 0.41514   2
   4   5  19 0.50707 0.24082   2
   4   5  19 0.97883 0.32987   3
   4   5  19 0.87466 0.36759   2
   4  -6 -19 3.24907 0.37966   1
   4   6 -19 3.31602 0.77378   1
   4   6 -19 3.94313 0.66719   4
   3  -6 -19 0.48786 0.25367   1
   3  -6 -19 0.80984 0.57564   1
   3   6 -19 0.74304 0.23781   1
   3   6 -19 0.72327 0.61425   1
   2  -6 -19 15.0040 1.51345   4
   2   6 -19 14.5576 1.55178   3
   2   6 -19 14.7618 1.44968   3
   2   6 -19 15.5275 1.88857   3
   1  -6 -19 4.42919 1.01322   2
   1  -6 -19 3.81922 1.75421   1
   1   6 -19 4.67111 0.81911   2
   1   6 -19 3.33548 0.62409   1
   1   6 -19 3.75503 0.72642   1
   0  -6 -19 3.16246 0.51745   2
   1  -6  19 0.40635 0.56260   1
   2  -6  19 -0.1816 0.21198   3
   2  -6  19 0.28254 0.28254   3
   2  -6  19 0.45413 0.30279   3
   3  -6  19 3.42172 0.61363   3
   3  -6  19 3.98213 0.62346   3
   3  -6  19 2.87666 0.58246   1
   3   6  19 4.78529 0.83260   3
   3   6  19 3.41253 0.51185   3
   3   6  19 3.53154 0.49766   3
   4  -6  19 0.00000 0.04830   1
   4  -6  19 -0.0199 0.04987   1
   4   6  19 0.03772 0.02826   3
   4   6  19 0.01881 0.03772   3
   4   6  19 0.00000 0.04692   1
   4  -7 -19 0.09031 0.12414   1
   4  -7 -19 0.56979 0.37663   3
   4   7 -19 -0.2887 0.28870   4
   3  -7 -19 0.45303 0.40274   2
   3  -7 -19 0.67459 0.28185   2
   3   7 -19 0.96261 0.61529   1
   3   7 -19 0.59492 0.26555   2
   3   7 -19 -0.0496 0.26798   1
   2  -7 -19 2.35937 0.55347   1
   2   7 -19 4.48311 0.82762   1
   2   7 -19 3.04451 0.56166   1
   2   7 -19 2.20701 0.43358   1
   1  -7 -19 4.99277 1.80241   2
   1  -7 -19 4.39866 1.14223   1
   1   7 -19 3.46729 1.62082   3
   1   7 -19 4.94912 0.82318   2
   1   7 -19 4.41179 0.86275   3
   1   7 -19 4.49831 0.62717   2
   0   7 -19 0.43305 0.32477   2
   1  -7  19 6.32512 0.97718   1
   1  -7  19 7.06053 1.00869   1
   2  -7  19 0.33351 0.19199   3
   2  -7  19 0.21227 0.20213   3
   2  -7  19 0.22230 0.14151   3
   2   7  19 -0.0289 0.12536   3
   2   7  19 0.17352 0.13503   3
   3  -7  19 -0.0403 0.17122   3
   3  -7  19 -0.1712 0.17122   3
   3  -7  19 -0.0302 0.21152   3
   3  -7  19 0.09061 0.16111   3
   3   7  19 0.09514 0.15221   3
   3   7  19 -0.0381 0.12368   3
   3   7  19 0.09514 0.11413   3
   4  -7  19 0.12563 0.30715   2
   4  -7  19 0.26527 0.20939   2
   4   7  19 0.60897 0.22027   2
   4   7  19 0.73096 0.23302   3
   4  -8 -19 -0.0384 0.04798   3
   4  -8 -19 -0.1633 0.16331   3
   4   8 -19 0.05971 0.11942   4
   3  -8 -19 2.63372 0.40666   1
   3  -8 -19 2.89518 0.51321   1
   3   8 -19 1.93343 0.36729   2
   3   8 -19 1.52302 0.60490   2
   2  -8 -19 8.41957 1.26289   4
   2  -8 -19 8.45969 1.67390   4
   2  -8 -19 8.13896 1.07247   4
   2  -8 -19 9.61267 1.19066   1
   2   8 -19 10.4711 1.08865   1
   2   8 -19 8.85756 0.97506   3
   2   8 -19 10.4316 1.32621   1
   1  -8 -19 1.50145 0.62560   2
   1  -8 -19 1.96351 0.81811   2
   1   8 -19 1.93382 0.56243   2
   1   8 -19 2.45677 0.44397   2
   1   8 -19 1.13466 0.49335   2
   0  -8 -19 0.13372 0.05728   2
   0   8 -19 0.03966 0.04949   2
   1  -8  19 0.73745 0.39396   2
   2  -8  19 5.98025 1.02872   1
   2  -8  19 6.83495 0.85845   3
   2  -8  19 6.84186 1.03395   3
   2   8  19 5.69733 0.74272   1
   2   8  19 6.83168 0.90768   2
   2   8  19 6.52138 0.84446   1
   2   8  19 7.38156 0.69984   3
   3  -8  19 3.86401 0.71788   3
   3  -8  19 3.89700 0.71273   3
   3  -8  19 3.93284 0.61510   3
   3  -8  19 3.87233 0.61995   3
   3   8  19 4.19802 0.73748   3
   3   8  19 3.79422 0.65935   1
   3   8  19 3.86200 0.54571   4
   3   8  19 3.99952 0.46330   3
   4   8  19 0.09220 0.14491   2
   4  -9 -19 0.72260 0.18068   2
   4  -9 -19 0.72339 0.56138   3
   4   9 -19 0.19969 0.49907   1
   3  -9 -19 0.51458 0.30274   4
   3  -9 -19 0.78705 0.36326   4
   3   9 -19 0.92707 0.54822   1
   3   9 -19 0.76071 0.37488   2
   3   9 -19 0.61739 0.26463   2
   2  -9 -19 2.42009 1.02208   1
   2  -9 -19 1.78371 0.70389   1
   2  -9 -19 2.38150 0.33744   1
   2  -9 -19 2.14049 0.51104   1
   2  -9 -19 2.26583 0.50137   1
   2   9 -19 1.56432 0.47340   3
   2   9 -19 1.55400 0.38081   3
   2   9 -19 2.06235 0.59496   1
   2   9 -19 3.62900 0.59496   1
   1  -9 -19 4.87182 0.71104   2
   1  -9 -19 4.62199 0.84559   2
   1  -9 -19 4.28528 1.18147   1
   1   9 -19 3.59983 0.82523   3
   1   9 -19 4.55915 0.86641   3
   1   9 -19 5.25513 0.63693   1
   0  -9 -19 0.21984 0.31978   1
   0   9  19 0.30501 0.21925   2
   0   9 -19 0.23992 0.28984   2
   1  -9  19 8.52030 1.03823   1
   1   9  19 7.51114 0.86893   1
   1   9  19 8.78964 0.92895   1
   2  -9  19 3.93569 0.66632   3
   2  -9  19 4.82203 0.80032   3
   2   9  19 5.92584 0.77167   3
   2   9  19 3.81035 0.65869   1
   2   9  19 4.26811 0.67639   3
   2   9  19 5.31605 0.54308   3
   3  -9  19 0.06049 0.48444   1
   3  -9  19 0.48444 0.35118   1
   3  -9  19 0.49647 0.39965   1
   3  -9  19 0.47229 0.44812   1
   3   9  19 0.32418 0.43223   2
   3   9  19 0.27009 0.29177   2
   3   9  19 0.32418 0.23768   2
   3   9  19 0.72400 0.31334   2
   4  -9  19 1.03279 0.26548   2
   4 -10 -19 0.69328 0.14709   2
   4 -10 -19 0.69373 0.46245   3
   4  10 -19 1.05501 0.30858   4
   3 -10 -19 4.17390 0.52533   4
   3 -10 -19 4.51260 0.49820   3
   3  10 -19 3.82033 0.67820   2
   3  10 -19 4.20353 0.46932   1
   3  10 -19 3.59427 0.73466   2
   2 -10 -19 2.23548 1.09270   4
   2 -10 -19 2.38580 0.33082   4
   2 -10 -19 3.29025 0.65419   4
   2 -10 -19 2.62642 0.57144   4
   2 -10 -19 2.59636 0.72176   4
   2  10 -19 1.99014 0.40425   3
   2  10 -19 1.89688 0.61157   3
   2  10 -19 2.22855 0.46642   3
   1 -10 -19 1.56158 0.52690   2
   1 -10 -19 1.67652 0.68979   2
   1 -10 -19 2.08849 0.45031   2
   1  10 -19 2.77740 0.46124   1
   0 -10 -19 1.50805 0.45941   1
   0  10  19 1.99093 0.48777   4
   1 -10  19 7.59191 0.98448   3
   1  10  19 6.29359 0.76407   2
   1  10  19 5.10936 0.67804   2
   2 -10  19 5.31678 0.83039   1
   2  10  19 6.31534 0.81976   1
   2  10  19 5.79922 0.76920   1
   2  10  19 7.63815 0.84240   3
   2  10  19 6.57848 0.84006   1
   3 -10  19 2.61363 0.52273   3
   3 -10  19 2.26912 0.49331   2
   3 -10  19 2.91148 0.47518   3
   3  10  19 3.00449 0.49454   3
   3  10  19 2.86448 0.34526   3
   4 -11 -19 0.23575 0.32070   3
   4  11 -19 0.59717 0.29858   4
   3 -11 -19 0.93302 0.36174   3
   3 -11 -19 0.80925 0.21898   3
   3 -11 -19 2.14212 0.64738   3
   3  11 -19 0.76603 0.30239   1
   3  11 -19 0.95931 0.46968   4
   3  11 -19 0.32610 0.30285   2
   2 -11 -19 0.00959 0.08601   1
   2 -11 -19 0.00000 0.01915   1
   2 -11 -19 0.09560 0.05734   1
   2 -11 -19 0.12427 0.06693   1
   2  11 -19 0.00000 0.03075   1
   2  11 -19 -0.0199 0.04978   1
   2  11 -19 0.05978 0.04978   1
   1 -11 -19 0.49622 0.72529   2
   1 -11 -19 0.33023 0.53037   4
   1 -11 -19 0.11011 0.32019   4
   1  11 -19 0.43220 0.46235   1
   0 -11 -19 0.18060 0.12358   2
   0  11 -19 -0.0202 0.11147   2
   0  11  19 -0.0190 0.09507   2
   1  11  19 4.42515 0.60793   1
   1  11  19 3.17930 0.62792   1
   2 -11  19 0.89315 0.57857   3
   2  11  19 0.55460 0.34783   3
   2  11  19 0.30348 0.29334   1
   2  11  19 0.32367 0.13150   1
   2  11  19 0.83662 0.27259   3
   3 -11  19 0.03035 0.03035   3
   3 -11  19 0.00000 0.04885   1
   3  11  19 0.02779 0.03708   3
   3  11  19 0.05557 0.02779   3
   3 -12 -19 0.84042 0.70719   1
   3 -12 -19 1.09703 0.34993   3
   3  12 -19 0.38645 0.38645   2
   3  12 -19 0.83335 0.50723   2
   3  12 -19 0.76091 0.31401   2
   2 -12 -19 7.71018 1.35357   4
   2 -12 -19 6.64735 0.94244   4
   2 -12 -19 8.67271 1.05556   1
   2  12 -19 7.93766 0.86440   4
   2  12 -19 8.41691 0.97964   1
   1 -12 -19 0.30018 0.40024   4
   1 -12 -19 0.30018 0.34022   4
   1 -12 -19 0.33019 0.79044   4
   1  12 -19 0.62375 0.46279   1
   0 -12 -19 3.01024 0.49379   2
   0  12 -19 3.11299 0.54751   4
   0  12  19 1.96518 0.43897   1
   1  12  19 1.01980 0.34940   3
   1  12  19 0.86634 0.39836   1
   1  12  19 0.59754 0.40825   1
   2 -12  19 0.28437 0.40633   3
   2  12  19 0.16793 0.24263   3
   2  12  19 0.17729 0.17729   3
   3 -12  19 0.13085 0.28781   2
   3 -12  19 -0.0304 0.17225   3
   3 -12  19 -0.1722 0.17225   3
   3  12  19 0.37704 0.16550   3
   3  12  19 0.11300 0.21466   2
   3 -13 -19 3.39909 0.88356   1
   3 -13 -19 4.08517 0.55095   1
   3  13 -19 3.68820 0.58705   1
   2 -13 -19 0.17951 0.22680   1
   2 -13 -19 -0.0283 0.16065   1
   2 -13 -19 0.02834 0.15117   1
   2  13 -19 0.07018 0.09018   1
   2  13 -19 -0.0101 0.09018   1
   1 -13 -19 2.23936 0.92596   1
   1 -13 -19 2.07612 0.45916   4
   1 -13 -19 1.82078 0.71029   4
   0 -13 -19 3.19086 0.57832   4
   0  13  19 3.92925 0.60445   3
   1  13  19 0.51544 0.27178   3
   1  13  19 0.30866 0.32853   1
   1  13  19 0.11943 0.33852   1
   2 -13  19 6.20067 0.96569   3
   2  13  19 5.79798 0.66686   3
   2  13  19 6.11282 0.76877   3
   3 -13  19 2.24854 0.46224   1
   3 -13  19 1.88515 0.35262   2
   3 -13  19 1.39689 0.39330   2
   3  13  19 1.74484 0.35827   2
   3 -14 -19 1.03436 0.30752   3
   3 -14 -19 1.66800 0.80143   3
   3  14 -19 0.83208 0.31895   1
   2 -14 -19 0.30950 0.08438   3
   2 -14 -19 0.10320 0.07507   3
   2 -14 -19 0.37516 0.11251   3
   2  14 -19 0.01007 0.04019   1
   1 -14 -19 0.48856 0.62013   1
   1 -14 -19 0.18792 0.23486   1
   1 -14 -19 0.31949 0.43221   1
   0 -14 -19 2.24923 0.46861   3
   0  14  19 1.32595 0.35891   4
   1  14  19 0.05577 0.13021   3
   1  14  19 0.09299 0.10232   3
   1  14  19 0.20454 0.13944   3
   2 -14  19 6.25044 0.67114   3
   2 -14  19 7.80164 0.96632   3
   2  14  19 6.57926 0.67994   3
   2  14  19 6.26679 0.75350   3
   3 -14  19 2.37887 0.49792   1
   3  14  19 2.08933 0.36807   2
   3  14  19 2.24366 0.30865   2
   3 -15 -19 2.09856 0.61943   3
   3 -15 -19 1.47913 0.25881   3
   3  15 -19 1.23407 0.29435   4
   2 -15 -19 0.40939 0.34425   3
   2 -15 -19 0.24210 0.41348   1
   2 -15 -19 1.78619 0.55823   3
   2  15 -19 0.44215 0.24118   4
   1 -15 -19 0.64321 0.27032   1
   1 -15 -19 0.78300 0.48472   1
   1 -15 -19 0.80170 0.48472   1
   0 -15 -19 0.18955 0.24940   2
   0  15  19 0.23950 0.23950   2
   1  15  19 3.21845 0.58101   3
   1  15  19 2.96804 0.45662   3
   2 -15  19 3.15988 0.79952   2
   2  15  19 2.90415 0.45970   2
   3 -16 -19 1.20359 0.58454   1
   3  16 -19 1.51304 0.29999   4
   2 -16 -19 0.41509 0.57193   3
   2  16 -19 -0.0301 0.16077   4
   1 -16 -19 5.90608 0.68392   3
   1 -16 -19 5.62878 1.02593   3
   0 -16 -19 0.66347 0.26722   3
   0  16  19 0.82014 0.32249   3
   1  16  19 1.88068 0.35201   4
   2 -16  19 0.10606 0.37092   2
   2  16  19 0.43368 0.20782   3
   2 -17 -19 0.00000 0.09196   1
   2  17 -19 0.02006 0.03014   4
   1 -17 -19 0.70528 0.45803   3
   1  17 -19 0.11131 0.32165   2
   1  17  19 0.48148 0.27660   2
   2 -17  19 0.03052 0.08146   1
   2  17  19 -0.0896 0.08956   3
   2 -18 -19 1.20483 0.49824   3
   2  18 -19 0.77391 0.21112   4
   1 -18 -19 0.37202 0.37202   3
   1 -18  19 2.61734 0.55239   4
   1  18  19 2.30354 0.36479   2
   1 -19 -19 0.09889 0.27864   3
   1  19 -19 0.09091 0.10105   4
   0  19 -19 2.63186 0.39544   2
   1 -19  19 0.25508 0.25508   2
   1  19  19 0.29034 0.19349   1
   0  20  19 0.86944 0.23041   4
   4   0 -20 0.22876 0.31825   4
   2   0 -20 5.41149 1.10804   1
   2   0  20 5.49163 0.86707   3
   4   0  20 0.98245 0.43771   3
   4  -1 -20 0.59659 0.47959   1
   4   1 -20 1.23526 0.45825   4
   3  -1 -20 0.81399 0.56667   2
   3   1 -20 0.49822 0.77852   2
   2  -1 -20 0.02003 0.48172   4
   2   1 -20 0.47541 0.26747   1
   2   1 -20 1.67394 0.65376   1
   1   1 -20 6.53824 0.88935   2
   1   1  20 0.04120 0.17502   1
   2  -1  20 1.27063 0.55026   3
   2   1  20 0.40678 0.30765   3
   3  -1  20 1.68051 0.56013   1
   3   1  20 1.96578 0.71272   1
   4  -1  20 0.14869 0.35131   2
   4   1  20 0.34906 0.34906   1
   4  -2 -20 1.74862 0.55953   1
   4   2 -20 2.24370 0.25338   1
   4   2 -20 2.96206 0.85809   4
   3  -2 -20 0.35702 0.33722   1
   3   2 -20 0.12952 0.15940   1
   3   2 -20 0.65758 0.31879   1
   2  -2 -20 1.45176 0.73078   3
   2   2 -20 0.58679 0.17202   4
   2   2 -20 0.73862 0.41477   4
   2   2 -20 2.15323 0.55568   1
   1   2 -20 8.19346 0.97887   2
   1   2 -20 8.46751 1.16494   2
   0   2 -20 9.60582 1.11154   1
   2  -2  20 0.59154 0.42108   3
   3  -2  20 0.08955 0.05970   3
   3   2  20 0.09765 0.05857   3
   4  -2  20 -0.0295 0.03931   1
   4   2  20 -0.0097 0.03852   3
   4  -3 -20 0.30483 0.26548   4
   4   3 -20 0.75780 0.33905   4
   4   3 -20 0.23933 0.07981   4
   3  -3 -20 4.60579 1.15908   2
   3   3 -20 5.85933 0.70748   1
   3   3 -20 6.66646 0.99644   1
   2  -3 -20 0.44404 0.39475   3
   2  -3 -20 0.84869 0.54273   3
   2   3 -20 0.80565 0.36806   1
   2   3 -20 0.15913 0.29841   1
   1   3 -20 9.04602 1.14790   2
   1   3 -20 7.88828 0.95166   2
   0  -3 -20 0.61109 0.25218   2
   0   3 -20 0.07165 0.22509   1
   2  -3  20 1.71747 0.63277   3
   3  -3  20 0.22992 0.13998   3
   3  -3  20 -0.0100 0.05996   3
   3   3  20 -0.0583 0.09714   3
   4  -3  20 0.51149 0.41471   2
   4   3  20 0.60039 0.37354   2
   4  -4 -20 -0.1077 0.23498   4
   4   4 -20 -0.0798 0.20938   4
   4   4 -20 0.28906 0.31896   4
   3  -4 -20 0.23643 0.57125   1
   3   4 -20 0.02116 0.42408   2
   3   4 -20 0.25912 0.19934   1
   2   4 -20 0.43838 0.08963   1
   2   4 -20 0.56788 0.08963   1
   2   4 -20 0.34864 0.06975   1
   1  -4 -20 -0.0486 0.21409   2
   1   4 -20 0.11807 0.21650   2
   1   4 -20 0.47239 0.19685   2
   0   4 -20 6.90055 0.88716   2
   1  -4  20 8.09507 1.05328   2
   2  -4  20 0.59481 0.56115   1
   2  -4  20 0.66584 0.57222   4
   3  -4  20 -0.0200 0.06009   3
   3  -4  20 0.08020 0.09014   3
   3   4  20 0.07733 0.05794   3
   4  -4  20 0.00000 0.24894   1
   4   4  20 0.18759 0.18759   2
   4   4  20 -0.1523 0.15226   3
   4   5 -20 0.89688 0.39866   4
   3  -5 -20 1.69754 0.69665   1
   3   5 -20 1.65514 0.37885   1
   3   5 -20 1.22638 0.54838   1
   2  -5 -20 3.72092 0.70876   3
   2  -5 -20 2.15499 0.45103   1
   2   5 -20 2.23578 0.47986   3
   2   5 -20 2.11330 0.61258   3
   2   5 -20 2.21540 0.43900   3
   2   5 -20 3.39901 0.65789   1
   1   5 -20 3.82887 0.93159   1
   1   5 -20 3.94364 0.84012   2
   1   5 -20 4.53671 0.63252   2
   0   5 -20 4.76145 0.74204   1
   1  -5  20 2.08383 0.61403   2
   2  -5  20 0.50934 0.43009   1
   2  -5  20 0.28294 0.58859   1
   3  -5  20 2.00404 0.74401   1
   3  -5  20 1.87199 0.55202   1
   3   5  20 3.03515 0.57634   3
   4  -5  20 0.14873 0.17848   1
   4  -5  20 -0.0495 0.10914   1
   4   5  20 0.12685 0.18443   3
   4   5  20 -0.0095 0.08511   3
   4  -6 -20 0.49729 0.16581   1
   4   6 -20 0.47211 0.51257   1
   3  -6 -20 0.72540 0.48025   2
   3   6 -20 1.28731 0.36925   1
   3   6 -20 1.92591 0.50888   1
   2  -6 -20 4.51138 1.00038   3
   2  -6 -20 3.42779 0.56130   4
   2  -6 -20 4.68796 1.13771   3
   2   6 -20 4.99869 0.94786   1
   2   6 -20 3.10252 0.52217   3
   2   6 -20 3.09236 0.51200   3
   1   6 -20 5.38722 1.03370   2
   1   6 -20 5.89420 0.74546   2
   1   6 -20 6.59988 0.95424   2
   0   6 -20 1.41497 0.38860   2
   1  -6  20 1.07348 0.60119   1
   2  -6  20 1.72990 0.63393   3
   2  -6  20 1.08492 0.50254   1
   2  -6  20 1.03921 0.47963   1
   3  -6  20 0.03015 0.06030   3
   3  -6  20 0.09045 0.06030   3
   3  -6  20 -0.0502 0.07038   3
   3   6  20 0.03821 0.10506   3
   4  -6  20 0.08767 0.16084   2
   4   6  20 -0.0282 0.10345   3
   4  -7 -20 1.19877 0.20382   1
   4   7 -20 0.75052 0.58050   1
   3  -7 -20 5.83548 1.03918   2
   3  -7 -20 6.30956 0.71938   1
   3   7 -20 6.96997 0.73889   1
   3   7 -20 7.23950 0.98860   1
   2  -7 -20 18.3145 1.84608   3
   2  -7 -20 18.5587 2.13913   3
   2  -7 -20 15.7358 1.62364   4
   2   7 -20 14.8914 1.73558   3
   2   7 -20 15.3432 2.09510   3
   2   7 -20 19.3983 1.79707   1
   2   7 -20 17.2618 1.63734   1
   1  -7 -20 6.21096 1.34890   2
   1   7 -20 6.82867 1.11141   2
   1   7 -20 7.99020 1.05135   2
   1   7 -20 7.44945 0.85109   2
   0   7 -20 2.97151 0.58224   2
   1  -7  20 -0.3238 0.32375   3
   1  -7  20 0.18207 0.42494   3
   2  -7  20 0.83850 0.53543   3
   2  -7  20 0.21893 0.35729   1
   2  -7  20 0.57586 0.43440   3
   3  -7  20 0.40017 0.40017   1
   3  -7  20 0.61405 0.36241   3
   3  -7  20 0.36380 0.48507   1
   3  -7  20 0.63425 0.31213   3
   3   7  20 0.55031 0.31313   3
   3   7  20 0.48480 0.30843   1
   3   7  20 0.46504 0.23258   2
   3   7  20 0.70212 0.23718   3
   4  -8 -20 0.58433 0.46536   3
   4  -8 -20 0.58486 0.10551   3
   4   8 -20 0.86658 0.31874   4
   3  -8 -20 0.16439 0.12569   3
   3  -8 -20 0.22239 0.07740   3
   3  -8 -20 0.09670 0.30939   3
   3   8 -20 0.39974 0.11988   1
   3   8 -20 0.01995 0.09993   1
   3   8 -20 0.25981 0.20989   1
   2  -8 -20 0.99153 0.39850   3
   2  -8 -20 0.91372 0.44716   3
   2  -8 -20 0.61243 0.16527   3
   2  -8 -20 0.76795 0.49571   3
   2   8 -20 0.48951 0.35964   1
   2   8 -20 1.07893 0.33970   1
   2   8 -20 0.08319 0.33253   2
   2   8 -20 0.87912 0.50945   1
   1  -8 -20 4.67010 0.85185   1
   1  -8 -20 5.21475 1.16312   2
   1   8 -20 6.18555 0.72416   2
   1   8 -20 5.31056 0.93542   2
   1   8 -20 6.91980 0.95550   2
   0   8 -20 0.52444 0.30259   2
   0   8  20 0.41408 0.32744   2
   1  -8  20 3.06050 0.62309   1
   2  -8  20 0.04048 0.06067   3
   2  -8  20 0.05052 0.07082   3
   2  -8  20 0.01015 0.08097   3
   2   8  20 -0.0287 0.05732   3
   3  -8  20 0.03023 0.05035   3
   3  -8  20 -0.0403 0.04035   3
   3  -8  20 0.03023 0.05035   3
   3  -8  20 -0.0201 0.04035   3
   3   8  20 0.01882 0.02827   3
   3   8  20 0.04709 0.05655   3
   3   8  20 0.02827 0.03773   3
   4  -9 -20 0.21193 0.41135   1
   4   9 -20 0.38844 0.25896   4
   3  -9 -20 0.18262 0.07695   3
   3  -9 -20 0.23074 0.13461   3
   3  -9 -20 0.31723 0.24028   3
   3   9 -20 -0.1000 0.09998   4
   3   9 -20 0.11001 0.11994   4
   3   9 -20 -0.1400 0.14000   4
   2  -9 -20 0.33833 0.50270   3
   2  -9 -20 0.12025 0.36085   4
   2  -9 -20 0.21054 0.72171   4
   2  -9 -20 0.17042 0.31079   4
   2   9 -20 0.30011 0.29007   1
   2   9 -20 0.17950 0.28508   2
   2   9 -20 -0.2001 0.28004   1
   2   9 -20 0.25341 0.33781   2
   1  -9 -20 0.43554 0.66788   2
   1  -9 -20 0.14026 0.33055   1
   1  -9 -20 0.09012 0.53089   1
   1   9 -20 0.15522 0.30017   3
   1   9 -20 0.40352 0.46402   1
   1   9 -20 0.27951 0.42434   3
   0  -9 -20 -0.0673 0.26928   2
   0   9  20 -0.2212 0.26928   2
   0   9 -20 0.35420 0.19228   2
   1  -9  20 0.13244 0.57406   1
   1   9  20 0.95992 0.37438   3
   2  -9  20 9.01150 1.14990   1
   2  -9  20 10.9641 1.30990   4
   2   9  20 9.96243 1.06551   1
   2   9  20 10.9624 1.15979   3
   2   9  20 9.55898 0.95178   1
   2   9  20 10.9604 1.11776   4
   3  -9  20 -0.0101 0.03027   3
   3  -9  20 0.02015 0.05042   3
   3   9  20 0.00000 0.03294   1
   3   9  20 0.01869 0.03748   3
   3   9  20 -0.0281 0.04677   3
   4 -10 -20 0.13260 0.32199   3
   4  10 -20 -0.0896 0.14935   4
   3 -10 -20 0.18525 0.60737   1
   3 -10 -20 0.63825 0.25732   1
   3  10 -20 0.70885 0.23271   4
   3  10 -20 0.88987 0.48991   4
   3  10 -20 0.36887 0.34500   2
   2 -10 -20 2.52736 0.71107   3
   2 -10 -20 2.47926 0.64389   3
   2 -10 -20 2.29670 0.43241   3
   2 -10 -20 2.52736 0.60543   3
   2  10 -20 1.86249 0.48061   1
   2  10 -20 1.88258 0.45058   1
   2  10 -20 1.76201 0.40185   3
   2  10 -20 2.62354 0.46063   1
   1 -10 -20 0.04810 0.07708   3
   1 -10 -20 -0.0192 0.06742   3
   1 -10 -20 0.00000 0.04844   1
   1  10 -20 -0.0101 0.05039   1
   1  10 -20 0.05039 0.04037   1
   0 -10 -20 1.20996 0.28811   2
   0  10 -20 0.22283 0.17223   3
   0  10  20 0.38415 0.27848   2
   1 -10  20 5.17799 0.90049   3
   1  10  20 4.17689 0.65262   1
   1  10  20 5.17035 0.67094   2
   2 -10  20 -0.1318 0.13176   3
   2 -10  20 0.17233 0.26353   3
   2  10  20 -0.1038 0.12259   3
   2  10  20 0.06603 0.12259   3
   2  10  20 0.13205 0.11313   3
   3 -10  20 -0.0101 0.09093   3
   3 -10  20 -0.0909 0.09093   3
   3  10  20 0.04644 0.06510   3
   3  10  20 0.09298 0.08366   3
   3 -11 -20 10.0359 0.88271   4
   3 -11 -20 6.80619 1.35288   1
   3  11 -20 10.2198 1.07194   4
   3  11 -20 10.1929 1.27987   4
   3  11 -20 9.73240 1.00038   1
   2 -11 -20 15.7804 1.58470   3
   2 -11 -20 12.9929 1.48493   4
   2 -11 -20 16.4105 2.12890   3
   2  11 -20 14.6109 1.54376   4
   1 -11 -20 0.90879 0.36348   3
   1 -11 -20 0.36348 0.15305   3
   1 -11 -20 0.77484 0.46874   3
   1  11 -20 0.18154 0.22192   1
   0 -11 -20 2.53832 0.52968   1
   0  11 -20 2.76611 0.46284   1
   0  11  20 2.43838 0.44968   1
   1 -11  20 -0.2538 0.25377   3
   1  11  20 0.11361 0.15151   3
   1  11  20 -0.0379 0.17042   3
   1  11  20 0.04013 0.16042   1
   2 -11  20 -0.0102 0.18256   3
   2  11  20 0.06555 0.11232   3
   2  11  20 0.15919 0.12172   3
   2  11  20 0.04677 0.16848   3
   3 -11  20 1.31811 0.51105   2
   3 -11  20 0.92807 0.34970   2
   3  11  20 0.93008 0.24418   2
   3  11  20 1.42144 0.26766   3
   3 -12 -20 2.72720 0.76108   1
   3 -12 -20 3.32977 0.53906   1
   3  12 -20 3.79408 0.47431   4
   3  12 -20 3.53331 0.63043   1
   3  12 -20 3.81744 0.61161   4
   2 -12 -20 6.68321 1.19441   3
   2 -12 -20 4.91998 0.71098   3
   2 -12 -20 6.57899 0.85313   3
   2  12 -20 4.46831 0.65266   1
   2  12 -20 4.45964 0.68205   1
   1 -12 -20 2.75456 0.57938   3
   1 -12 -20 2.15952 0.44748   4
   1 -12 -20 2.79258 0.90237   3
   1  12 -20 2.31077 0.50457   1
   0 -12 -20 1.69549 0.35050   3
   0  12  20 1.28821 0.35949   1
   1  12  20 0.15040 0.14097   3
   1  12  20 -0.0376 0.15040   3
   1  12  20 0.16917 0.17860   3
   2 -12  20 0.40616 0.28425   3
   2 -12  20 -0.3351 0.33507   3
   2  12  20 0.07233 0.28921   2
   2  12  20 0.01036 0.26859   2
   3 -12  20 -0.0303 0.06058   1
   3 -12  20 -0.0202 0.05045   1
   3  12  20 -0.0275 0.03666   3
   3  12  20 0.05494 0.05494   3
   3 -13 -20 0.07487 0.04672   3
   3 -13 -20 0.03744 0.09354   3
   3  13 -20 0.00000 0.04263   1
   3  13 -20 0.00000 0.05688   1
   2 -13 -20 2.36419 0.55331   1
   2 -13 -20 3.20864 0.65870   3
   2 -13 -20 2.90746 0.95034   3
   2  13 -20 3.27610 0.48234   4
   1 -13 -20 1.37635 0.35820   3
   1 -13 -20 1.27271 0.60331   3
   1 -13 -20 1.45181 0.79186   3
   0 -13 -20 0.16915 0.09401   3
   0  13  20 0.14096 0.13163   3
   1  13  20 2.51858 0.41049   3
   1  13  20 1.98651 0.38122   1
   1  13  20 1.87622 0.49162   1
   2 -13  20 -0.0711 0.30485   3
   2 -13  20 0.08729 0.36152   2
   2  13  20 0.25117 0.31393   2
   2  13  20 0.34119 0.28588   3
   3 -13  20 0.78422 0.33405   2
   3 -13  20 1.16598 0.34985   3
   3  13  20 0.82751 0.20691   2
   3 -14 -20 0.27836 0.20039   1
   3 -14 -20 0.70998 0.52264   4
   3  14 -20 0.48757 0.28298   1
   2 -14 -20 0.00000 0.10892   1
   2 -14 -20 0.01863 0.05600   3
   2 -14 -20 -0.0186 0.04663   3
   2  14 -20 0.01008 0.03014   4
   1 -14 -20 0.14025 0.17768   3
   1 -14 -20 0.60790 0.45827   3
   1 -14 -20 0.11220 0.32731   3
   0 -14 -20 1.26810 0.30772   3
   0  14  20 0.54993 0.27993   2
   1  14  20 1.53484 0.39379   2
   1  14  20 1.05010 0.25240   2
   1  14  20 2.08186 0.43492   3
   2 -14  20 0.09058 0.43992   2
   2  14  20 0.65924 0.29768   2
   2  14  20 0.90362 0.24994   1
   3 -15 -20 1.69398 0.67294   1
   3 -15 -20 2.40184 0.35975   1
   3  15 -20 3.96914 0.46781   3
   2 -15 -20 1.00921 0.29625   3
   2 -15 -20 0.72215 0.51849   3
   2 -15 -20 0.51849 0.25919   3
   2  15 -20 0.53279 0.29150   4
   2  15 -20 0.95497 0.25127   4
   1 -15 -20 5.68524 0.60282   3
   1 -15 -20 5.64812 1.08508   3
   1 -15 -20 4.75160 0.78355   2
   1  15 -20 4.56276 0.80034   2
   0 -15 -20 0.09247 0.09247   3
   0  15  20 0.05546 0.08319   3
   1  15  20 0.66057 0.33029   3
   1  15  20 0.39452 0.21102   3
   2 -15  20 0.79667 0.58064   2
   2  15  20 0.68330 0.28198   2
   2 -16 -20 1.16563 0.54152   3
   2  16 -20 1.00890 0.26268   4
   1 -16 -20 1.69158 0.58832   3
   1 -16 -20 1.26868 0.23902   3
   1  16 -20 1.17213 0.29301   4
   0 -16 -20 1.24635 0.37570   3
   1  16  20 0.23644 0.25459   3
   1  16  20 0.08240 0.17503   2
   2 -16  20 0.32630 0.34053   2
   2  16  20 0.36626 0.19280   4
   2 -17 -20 1.99186 0.57303   3
   1 -17 -20 1.06576 0.48281   3
   1 -17 -20 0.69006 0.52519   1
   1  17 -20 0.79529 0.36605   4
   0 -17 -20 3.22978 0.69500   2
   1 -17  20 -0.0508 0.19333   4
   1  17  20 0.11714 0.14416   3
   1  17  20 0.01047 0.14616   2
   1 -18 -20 -0.2255 0.25259   3
   1  18 -20 0.03357 0.08959   4
   0 -18 -20 0.38635 0.43850   1
   0  18  20 0.29230 0.20883   1
   0  18 -20 0.39913 0.24768   2
   1 -18  20 0.20087 0.28691   2
   1  18  20 0.16015 0.20289   2
   1  19 -20 0.19200 0.10107   4
   0  19 -20 0.39857 0.20669   2
   3   0 -21 1.14884 0.54942   1
   3   0  21 -0.4534 0.53215   3
   3   0  21 0.18770 0.29326   1
   4  -1 -21 -0.1190 0.13886   4
   4   1 -21 0.02989 0.13957   4
   3  -1 -21 0.41911 0.61870   1
   3   1 -21 0.07483 0.63056   2
   1   1 -21 5.09150 0.91311   2
   0   1 -21 1.26909 0.36688   2
   1  -1  21 0.39540 0.35264   1
   2  -1  21 0.84012 0.51005   3
   2   1  21 0.06663 0.54431   1
   3  -1  21 -0.3368 0.33680   3
   3   1  21 0.31374 0.33341   3
   4  -1  21 0.02915 0.03890   1
   4  -2 -21 0.39522 0.51146   4
   4   2 -21 0.49873 0.35907   4
   3  -2 -21 0.53688 0.61059   2
   3   2 -21 2.69001 0.60003   1
   2  -2 -21 1.42217 0.50434   1
   2  -2 -21 3.15526 0.84874   3
   2   2 -21 2.92801 0.66182   1
   1  -2 -21 1.92406 0.52298   3
   0  -2 -21 2.22305 0.45248   2
   2  -2  21 0.73172 0.54119   3
   2   2  21 1.87441 0.46371   3
   3  -2  21 0.22596 0.38057   1
   3   2  21 0.20800 0.40452   1
   4  -3 -21 0.12512 0.32528   1
   4   3 -21 0.33312 0.38250   4
   3   3 -21 0.44002 0.34995   1
   3   3 -21 0.08004 0.17001   1
   2   3 -21 0.64486 0.69599   2
   2   3 -21 0.40944 0.38891   2
   1   3 -21 0.73952 0.41973   2
   1   3 -21 0.64960 0.27979   2
   0   3 -21 0.97960 0.39986   2
   2  -3  21 0.02004 0.05015   3
   2   3  21 -0.0098 0.07856   3
   3  -3  21 -0.4298 0.42982   3
   3  -3  21 0.07177 0.34699   1
   3   3  21 0.02290 0.35566   1
   4  -4 -21 -0.0587 0.32295   4
   4   4 -21 1.07717 0.36906   4
   3  -4 -21 0.02956 0.06901   3
   3   4 -21 0.04995 0.10000   1
   3   4 -21 0.01003 0.04002   1
   2  -4 -21 3.07913 0.76231   3
   2   4 -21 3.97060 0.88234   1
   2   4 -21 4.24135 0.72193   1
   2   4 -21 3.62965 0.62165   1
   1   4 -21 0.22055 0.24067   2
   1   4 -21 0.15035 0.29075   2
   1   4 -21 0.08222 0.27735   1
   0   4 -21 0.98361 0.29106   2
   1  -4  21 0.32252 0.38297   3
   2  -4  21 2.42334 0.61335   3
   2  -4  21 2.15192 0.63352   3
   3  -4  21 -0.0300 0.06008   3
   3  -4  21 -0.0300 0.03004   3
   3   4  21 -0.0289 0.03859   3
   4   5 -21 0.10973 0.21935   4
   3  -5 -21 0.36294 0.44135   3
   3   5 -21 0.06687 0.20060   2
   3   5 -21 0.01118 0.53506   2
   2  -5 -21 -0.2661 0.26610   3
   2   5 -21 0.25063 0.25063   1
   2   5 -21 0.28071 0.25063   1
   2   5 -21 -0.0803 0.14041   1
   1   5 -21 0.40214 0.48250   2
   1   5 -21 0.32980 0.52561   1
   1   5 -21 0.25763 0.31956   1
   0   5 -21 1.55043 0.42282   2
   1  -5  21 0.06054 0.20186   3
   2  -5  21 0.41283 0.39273   3
   2  -5  21 0.09311 0.32564   1
   2   5  21 0.16088 0.21458   3
   3  -5  21 -0.0101 0.16054   3
   3  -5  21 0.03688 0.24596   2
   3   5  21 0.00000 0.16951   1
   4   6 -21 1.09350 0.48462   4
   3  -6 -21 1.13788 0.48020   1
   3   6 -21 1.54641 0.41465   4
   3   6 -21 1.87056 0.67024   4
   2   6 -21 4.42237 0.65181   1
   2   6 -21 2.37890 0.49258   2
   2   6 -21 3.01846 0.67193   1
   2   6 -21 2.50462 0.47155   2
   1   6 -21 0.35264 0.20154   2
   1   6 -21 0.01040 0.33157   1
   1   6 -21 0.20154 0.32242   2
   0   6 -21 0.04148 0.15541   2
   1  -6  21 0.69714 0.50520   3
   1  -6  21 0.65670 0.46476   3
   2  -6  21 1.34119 0.57485   3
   2  -6  21 1.52276 0.43364   3
   2   6  21 1.35087 0.43419   3
   3  -6  21 0.56278 0.28134   3
   3  -6  21 0.25056 0.28813   2
   3  -6  21 0.17542 0.30069   2
   3   6  21 0.11531 0.24218   2
   3   6  21 -0.0571 0.27621   3
   3   6  21 0.11531 0.21905   2
   4  -7 -21 0.01922 0.03854   3
   4   7 -21 -0.0100 0.03990   4
   3  -7 -21 -0.1746 0.33962   3
   3  -7 -21 0.18436 0.17463   3
   3   7 -21 0.55014 0.41007   4
   3   7 -21 0.21011 0.21011   4
   2  -7 -21 0.24092 0.60225   1
   2  -7 -21 0.59495 0.28285   3
   2  -7 -21 1.44359 0.51697   3
   2   7 -21 1.09340 0.58176   1
   2   7 -21 0.49904 0.25484   2
   2   7 -21 0.88271 0.38113   1
   2   7 -21 0.82254 0.34109   1
   1   7 -21 0.07059 0.05036   4
   1   7 -21 0.03024 0.07059   4
   1   7 -21 0.04035 0.08070   4
   0   7 -21 0.23250 0.27296   3
   1  -7  21 0.40458 0.37424   3
   2  -7  21 0.21210 0.20197   3
   2  -7  21 0.19184 0.18171   3
   2   7  21 0.07676 0.16304   3
   3  -7  21 0.01010 0.03018   3
   3  -7  21 0.00000 0.03642   1
   3  -7  21 0.00000 0.06066   1
   3   7  21 0.02838 0.02838   3
   3   7  21 0.00000 0.03349   1
   3   7  21 0.00949 0.01889   3
   4  -8 -21 0.02871 0.06701   3
   4   8 -21 0.00000 0.06933   1
   3  -8 -21 1.88046 0.40573   1
   3   8 -21 2.13069 0.51012   4
   3   8 -21 2.02062 0.38008   4
   2  -8 -21 0.18425 0.23280   3
   2  -8 -21 -0.0484 0.18425   3
   2  -8 -21 -0.0776 0.29097   3
   2   8 -21 0.31109 0.22071   1
   2   8 -21 -0.0903 0.14050   1
   2   8 -21 0.00000 0.18078   1
   2   8 -21 -0.0602 0.18055   1
   1  -8 -21 1.73913 0.59264   3
   1   8 -21 0.53518 0.30878   4
   1   8 -21 0.78670 0.38323   4
   1   8 -21 0.59509 0.43372   4
   0   8 -21 0.02019 0.05053   3
   1  -8  21 1.85262 0.57709   3
   2  -8  21 -0.0606 0.06065   3
   2  -8  21 0.06065 0.12129   3
   2   8  21 -0.0857 0.09528   3
   3  -8  21 1.86183 0.43268   2
   3  -8  21 1.04895 0.49817   2
   3  -8  21 1.96665 0.38020   2
   3   8  21 1.87429 0.32795   2
   3   8  21 1.30029 0.35145   2
   3  -9 -21 0.01943 0.17521   3
   3  -9 -21 0.25890 0.11502   3
   3   9 -21 0.04004 0.08008   4
   3   9 -21 0.03000 0.18001   4
   3   9 -21 0.07004 0.10004   4
   2  -9 -21 0.07040 0.31176   1
   2  -9 -21 -0.3759 0.42419   3
   2  -9 -21 0.18094 0.28150   1
   2   9 -21 0.47184 0.35131   1
   2   9 -21 0.14301 0.27499   2
   2   9 -21 0.12105 0.30798   2
   2   9 -21 0.14301 0.29706   2
   1  -9 -21 1.38089 0.61799   3
   1  -9 -21 0.64705 0.24138   3
   1  -9 -21 0.47318 0.51183   3
   1   9 -21 0.41363 0.28247   4
   1   9 -21 0.60542 0.34309   4
   0  -9 -21 0.27933 0.22155   3
   0   9 -21 -0.1012 0.15179   3
   1  -9  21 0.31417 0.44589   3
   1   9  21 0.65044 0.29658   3
   2  -9  21 0.00000 0.26405   1
   2   9  21 0.02105 0.14766   1
   2   9  21 0.16089 0.16089   3
   3  -9  21 -0.0807 0.10082   1
   3  -9  21 0.08070 0.10082   1
   3   9  21 0.04662 0.08397   3
   3   9  21 0.12133 0.10270   3
   3 -10 -21 2.47225 0.90972   1
   3 -10 -21 2.66883 0.41944   2
   3  10 -21 2.67306 0.40839   4
   3  10 -21 2.67138 0.37994   4
   3  10 -21 2.27150 0.57746   1
   2 -10 -21 0.48840 0.61290   3
   2 -10 -21 0.34478 0.39262   3
   2 -10 -21 0.49801 0.22989   3
   2 -10 -21 0.41184 0.36390   3
   2  10 -21 0.49216 0.20089   1
   2  10 -21 0.50223 0.28119   1
   2  10 -21 0.32139 0.35151   1
   1 -10 -21 0.28783 0.40293   3
   1 -10 -21 0.05006 0.25051   1
   1 -10 -21 0.43170 0.35501   3
   1  10 -21 0.52482 0.22202   4
   1  10 -21 0.66616 0.38349   4
   0 -10 -21 0.18178 0.23917   3
   0  10  21 0.10529 0.24877   3
   0  10 -21 0.26331 0.17219   3
   1 -10  21 0.17242 0.34484   3
   1  10  21 -0.2090 0.20897   3
   1  10  21 0.17095 0.19001   3
   2 -10  21 0.42550 0.49644   3
   2 -10  21 0.33851 0.35064   1
   2 -10  21 -0.1115 0.20264   3
   2  10  21 0.13648 0.26244   1
   2  10  21 0.44163 0.25371   3
   3 -10  21 0.52862 0.33395   2
   3 -10  21 1.12689 0.43136   2
   3  10  21 1.09591 0.25296   2
   3 -11 -21 0.24201 0.48402   2
   3 -11 -21 0.26482 0.17022   3
   3  11 -21 0.17714 0.19081   1
   3  11 -21 0.19081 0.20434   1
   3  11 -21 0.20434 0.34061   1
   2 -11 -21 0.14263 0.21876   3
   2 -11 -21 0.08077 0.19171   1
   2 -11 -21 0.14263 0.37093   3
   2  11 -21 0.17087 0.22107   1
   2  11 -21 0.15070 0.24123   1
   1 -11 -21 0.06671 0.24771   3
   1 -11 -21 -0.0571 0.10484   3
   1 -11 -21 -0.0381 0.19056   3
   1  11 -21 0.18167 0.18167   4
   0 -11 -21 -0.1805 0.20899   3
   0  11  21 0.01006 0.16049   1
   1 -11  21 0.54795 0.35515   3
  -1  11 -21 0.22323 0.24359   3
   1  11  21 0.22638 0.20746   3
   1  11  21 0.16971 0.26403   3
   2 -11  21 -0.0202 0.04059   3
   2 -11  21 -0.0102 0.04059   3
   2  11  21 0.00936 0.02797   3
   2  11  21 0.02797 0.04658   3
   2  11  21 0.00000 0.03141   1
   3 -11  21 -0.1004 0.13057   1
   3 -11  21 -0.0301 0.14065   1
   3  11  21 0.13788 0.10118   3
   3 -12 -21 0.07761 0.15523   1
   3 -12 -21 -0.1315 0.35678   3
   3  12 -21 -0.0100 0.11010   4
   3  12 -21 0.14766 0.14766   4
   2 -12 -21 1.86010 0.44381   3
   2 -12 -21 2.33213 0.63266   3
   2 -12 -21 2.87036 0.53824   3
   2  12 -21 1.65449 0.39660   4
   2  12 -21 2.65366 0.45231   4
   2  12 -21 1.16301 0.45558   2
   1 -12 -21 0.23065 0.26073   1
   1 -12 -21 0.12030 0.35095   1
   1 -12 -21 0.30261 0.58635   3
   0 -12 -21 0.56582 0.33001   3
   0  12  21 0.15035 0.24066   1
   0  12 -21 0.32883 0.24944   1
   1 -12  21 0.16535 0.49594   1
   1  12  21 -0.1497 0.23395   3
   1  12  21 0.31413 0.30397   1
  -1  12 -21 0.08268 0.35428   1
   1  12  21 0.63642 0.33694   3
   2 -12  21 0.56205 0.47263   2
   2 -12  21 0.58755 0.56205   2
   2  12  21 0.77156 0.25722   2
   2  12  21 0.86065 0.35161   3
   3 -13 -21 0.04562 0.38761   1
   3 -13 -21 0.36338 0.13048   3
   3  13 -21 0.20014 0.15006   4
   3  13 -21 -0.0900 0.16009   4
   2 -13 -21 0.01027 0.14329   1
   2 -13 -21 0.23420 0.18740   3
   2 -13 -21 0.52469 0.15930   3
   2  13 -21 0.03015 0.08047   4
   2  13 -21 -0.1106 0.11063   4
   1 -13 -21 0.15013 0.27212   3
   1 -13 -21 -0.0281 0.47853   3
   1 -13 -21 -0.0563 0.18769   3
   0 -13 -21 0.00939 0.02806   3
   0  13  21 -0.0094 0.02806   3
   1 -13  21 0.04066 0.18283   3
   1  13  21 0.04638 0.06501   3
   1  13  21 0.25993 0.14855   3
   1  13  21 0.19502 0.12070   3
   2 -13  21 0.13199 0.25380   1
   2  13  21 0.07616 0.13050   2
   2  13  21 0.04354 0.14141   2
   3  14 -21 -0.0200 0.10008   4
   2 -14 -21 0.97422 0.30055   1
   2 -14 -21 1.34756 0.31601   3
   2 -14 -21 1.32891 0.54831   3
   2  14 -21 1.05577 0.31175   4
   2  14 -21 1.02699 0.28886   4
   1 -14 -21 0.19158 0.64536   2
   1 -14 -21 0.54912 0.24198   3
   1 -14 -21 0.48396 0.33505   3
   1  14 -21 0.49502 0.15150   4
   1  14 -21 0.46473 0.31323   4
   0 -14 -21 0.05565 0.09279   3
   0  14  21 0.01852 0.05565   3
   1 -14  21 0.26341 0.46405   2
   1  14  21 0.26687 0.24638   2
   1  14  21 0.21560 0.28736   2
   1  14  21 0.60771 0.33147   3
   2 -14  21 -0.2841 0.28406   1
   2  14  21 0.02212 0.16616   2
   2  14  21 0.13650 0.12746   3
   2 -15 -21 0.35010 0.30408   3
   2 -15 -21 0.16581 0.20269   3
   2 -15 -21 -0.1567 0.15666   3
   2  15 -21 0.05694 0.17066   1
   1 -15 -21 0.05085 0.46832   1
   1 -15 -21 0.55992 0.24437   1
   1 -15 -21 0.78431 0.35059   3
   1  15 -21 -0.0101 0.30314   4
   0 -15 -21 0.08276 0.07363   3
   0 -15 -21 0.05517 0.04594   3
   0  15  21 0.01836 0.01836   3
   0  15  21 0.00923 0.03681   3
   1  15  21 -0.0365 0.23731   3
   1  15  21 0.13687 0.13687   3
   2 -15  21 0.32391 0.21263   1
   2 -15  21 0.24299 0.19232   1
   2  15  21 0.15868 0.14731   2
   2 -16 -21 0.43832 0.20088   3
   2 -16 -21 0.22697 0.37826   2
   2  16 -21 0.18901 0.25207   1
   2  16 -21 0.37216 0.15082   4
   1 -16 -21 0.83212 0.18290   3
   1 -16 -21 0.68582 0.43890   3
   1  16 -21 0.51058 0.26877   2
   0 -16 -21 0.37980 0.23607   2
   0 -16 -21 0.37980 0.41058   2
   0  16  21 0.19499 0.26685   2
   1  16  21 0.23566 0.22630   4
   1  16  21 0.20989 0.22042   2
   1 -17 -21 0.29895 0.33521   3
   1  17 -21 0.35370 0.22232   4
   0 -17 -21 0.18966 0.14446   3
   0 -17 -21 -0.0271 0.24382   3
   0  17  21 0.12526 0.15658   2
   0  17 -21 -0.1217 0.12173   4
   1 -17  21 0.46773 0.24407   1
   1  17  21 0.14961 0.19227   2
   1  18 -21 0.30337 0.27294   4
   0  18 -21 0.26908 0.19439   2
   4   0 -22 0.59778 0.40841   4
   2   0 -22 1.35320 0.57138   3
   2   0  22 0.41817 0.29872   3
   4  -1 -22 0.74312 0.44192   3
   4   1 -22 0.74578 0.38489   4
   3  -1 -22 2.46657 0.59922   3
   3   1 -22 2.59172 0.63044   4
   2  -1 -22 0.77076 0.24029   3
   2  -1 -22 0.63069 0.40044   3
   2   1 -22 -0.1805 0.36116   3
   2  -1  22 1.59972 0.54989   3
   2   1  22 0.90061 0.64170   2
   3  -1  22 -0.1386 0.17816   3
   3   1  22 0.39184 0.18609   3
   4  -2 -22 0.09590 0.39718   1
   4   2 -22 0.53885 0.25947   4
   3  -2 -22 0.03260 0.22832   1
   3   2 -22 0.01122 0.32426   2
   2  -2 -22 0.20971 0.25958   3
   2   2 -22 0.06019 0.25084   3
   0   2 -22 0.04265 0.23441   1
   2  -2  22 0.25567 0.54631   1
   2   2  22 1.34998 0.41385   3
   3  -2  22 0.09952 0.20901   3
   3   2  22 0.08764 0.19482   3
   4  -3 -22 0.34134 0.36874   1
   4   3 -22 0.21039 0.42063   1
   3  -3 -22 -0.1683 0.40582   3
   3   3 -22 0.22636 0.64514   2
   2  -3 -22 3.81646 0.74539   3
   1   3 -22 1.22751 0.63389   3
   1   3 -22 0.68414 0.34212   3
   2  -3  22 -0.0301 0.25089   3
   2   3  22 0.15679 0.25479   3
   3  -3  22 0.66914 0.56808   2
   3   3  22 1.18851 0.38627   4
   4   4 -22 -0.0199 0.17957   4
   3  -4 -22 0.17725 0.18713   3
   3   4 -22 0.07007 0.14014   4
   3   4 -22 0.16011 0.20017   4
   2  -4 -22 0.55391 0.33633   3
   2   4 -22 0.79310 0.46180   1
   2   4 -22 0.27108 0.27108   1
   1   4 -22 0.11078 0.17116   3
   1   4 -22 -0.0806 0.11078   3
   1   4 -22 0.12077 0.13087   3
   0   4 -22 -0.0101 0.27221   3
   2  -4  22 0.63330 0.23120   3
   2   4  22 0.38000 0.24356   3
   3  -4  22 0.12823 0.50004   2
   3  -4  22 0.16668 0.26931   2
   3   4  22 0.27778 0.33810   2
   4   5 -22 0.17367 0.26056   4
   3  -5 -22 1.63955 0.62364   2
   3   5 -22 2.20173 0.52039   4
   3   5 -22 1.47254 0.42074   2
   2  -5 -22 1.52479 0.52188   1
   2  -5 -22 2.24368 0.67903   3
   2   5 -22 2.77122 0.53217   1
   2   5 -22 3.49414 0.80329   1
   2   5 -22 4.61860 0.66269   1
   1   5 -22 1.48070 0.40294   3
   1   5 -22 2.10521 0.61441   3
   1   5 -22 1.49080 0.62451   3
   0   5 -22 -0.0201 0.16143   3
   1  -5  22 2.02644 0.48682   1
   1  -5  22 1.89062 0.62264   1
   2  -5  22 0.13086 0.22143   3
   2   5  22 0.00000 0.08813   1
   2   5  22 0.55213 0.24211   3
   3  -5  22 0.01310 0.26115   2
   3  -5  22 0.01310 0.31340   2
   3   5  22 0.68862 0.27735   3
   3   5  22 0.35641 0.14677   3
   4   6 -22 -0.0998 0.09977   4
   3  -6 -22 -0.0194 0.03900   3
   3   6 -22 0.04005 0.04999   4
   3   6 -22 0.00000 0.03590   1
   2  -6 -22 0.00000 0.10210   1
   2  -6 -22 0.05871 0.07835   3
   2   6 -22 0.06024 0.09035   1
   2   6 -22 -0.0101 0.05016   1
   2   6 -22 0.04019 0.09035   1
   1   6 -22 0.44347 0.47369   3
   1   6 -22 0.60470 0.29224   3
   1   6 -22 0.23524 0.49193   1
   0   6 -22 -0.0909 0.27268   3
   1  -6  22 0.11417 0.42244   1
   1  -6  22 0.78774 0.40400   3
   2  -6  22 0.01011 0.04035   3
   2  -6  22 0.10081 0.07058   3
   2  -6  22 -0.0201 0.04035   3
   2  -6  22 0.02012 0.03023   3
   2   6  22 0.02887 0.04808   3
   3  -6  22 -0.0301 0.03011   1
   3  -6  22 0.00000 0.04799   1
   3  -6  22 0.01007 0.03011   1
   3   6  22 0.03803 0.04746   3
   3   6  22 -0.0190 0.01896   3
   3  -7 -22 1.41972 0.52088   3
   3  -7 -22 1.42104 0.30453   3
   3   7 -22 1.41956 0.28616   4
   3   7 -22 1.18432 0.72784   1
   2  -7 -22 0.58096 0.30577   1
   2  -7 -22 1.33329 0.62281   3
   2  -7 -22 1.16182 0.70323   1
   2   7 -22 1.28571 0.46205   1
   2   7 -22 0.99575 0.44261   2
   2   7 -22 0.50897 0.30975   2
   2   7 -22 1.12860 0.64171   2
   1  -7 -22 0.03034 0.25288   1
   1   7 -22 -0.2017 0.20166   3
   1   7 -22 0.28226 0.23190   3
   1   7 -22 0.05036 0.13107   3
   0   7 -22 0.03031 0.06062   3
   1  -7  22 0.53584 0.38413   3
   2  -7  22 2.85460 0.40956   1
   2  -7  22 1.98740 0.62630   1
   2  -7  22 2.73415 0.62630   1
   2   7  22 2.96000 0.55291   1
   3  -7  22 -0.0501 0.20079   1
   3  -7  22 0.31419 0.28693   2
   3  -7  22 0.53030 0.21434   1
   3   7  22 0.11037 0.26984   2
   3   7  22 0.68895 0.22653   3
   3  -8 -22 0.03853 0.05774   3
   3  -8 -22 0.02887 0.03853   3
   3   8 -22 0.01004 0.01998   4
   3   8 -22 -0.0401 0.04006   4
   2  -8 -22 0.08703 0.18377   3
   2  -8 -22 0.03053 0.21378   1
   2  -8 -22 -0.0387 0.11604   3
   2   8 -22 0.20096 0.16075   1
   2   8 -22 0.05019 0.13062   1
   2   8 -22 -0.1205 0.12054   1
   2   8 -22 -0.0603 0.16075   1
   1  -8 -22 0.79435 0.58126   3
   1   8 -22 0.85734 0.40348   4
   1   8 -22 0.91785 0.32274   4
   1   8 -22 0.78181 0.46709   3
   0   8 -22 -0.0505 0.05051   3
   1  -8  22 -0.0910 0.16190   3
   1   8  22 0.04167 0.16655   1
   2  -8  22 0.38402 0.32339   3
   2  -8  22 0.27870 0.41203   1
   2  -8  22 0.31560 0.19167   4
   2   8  22 0.11846 0.41985   1
   2   8  22 0.76932 0.35146   3
   3  -8  22 0.01005 0.03006   1
   3   8  22 -0.0094 0.02810   3
   3   8  22 0.02810 0.02810   3
   3  -9 -22 0.48759 0.22162   1
   3  -9 -22 -0.1147 0.53559   3
   3   9 -22 0.54043 0.42036   4
   3   9 -22 0.38946 0.22834   1
   2  -9 -22 2.21056 0.41329   3
   2  -9 -22 1.22111 0.44780   1
   2  -9 -22 1.67975 0.56957   1
   2   9 -22 1.57178 0.41607   2
   2   9 -22 2.17079 0.38186   4
   2   9 -22 1.43312 0.46233   2
   2   9 -22 1.14423 0.43914   2
   1  -9 -22 0.25023 0.09625   3
   1  -9 -22 0.16364 0.12512   3
   1   9 -22 0.01012 0.08077   4
   1   9 -22 -0.1009 0.15131   4
   0  -9 -22 3.28269 0.56632   3
   1  -9  22 0.26334 0.38485   3
   1   9  22 -0.0382 0.17153   3
   2  -9  22 2.48748 0.60922   3
   2  -9  22 2.48888 0.45900   3
   2   9  22 2.86697 0.51868   3
   2   9  22 1.99111 0.55183   2
   3  -9  22 0.02893 0.21737   2
   3   9  22 0.16347 0.16347   2
   3 -10 -22 0.08546 0.13300   3
   3 -10 -22 -0.0190 0.20893   3
   3  10 -22 0.07008 0.08012   4
   3  10 -22 0.06004 0.19016   4
   2 -10 -22 -0.0096 0.28638   3
   2 -10 -22 0.14314 0.22913   3
   2 -10 -22 0.42953 0.20050   3
   2 -10 -22 -0.0955 0.15272   3
   2  10 -22 0.05021 0.09044   4
   2  10 -22 0.12059 0.12059   4
   2  10 -22 -0.0805 0.12059   4
   2  10 -22 0.07038 0.15073   4
   1 -10 -22 0.13385 0.16252   3
   1 -10 -22 0.74556 0.40145   3
   1  10 -22 -0.0707 0.34322   4
   1  10 -22 -0.0605 0.16148   4
   0 -10 -22 0.09111 0.18222   1
   0  10  22 0.07090 0.25312   1
   0  10 -22 0.27341 0.17215   3
   1 -10  22 0.17235 0.26356   3
   1  10  22 0.18929 0.17030   3
  -1  10 -22 0.07060 0.22362   3
   1  10  22 0.08515 0.17030   3
   2 -10  22 0.14181 0.24309   3
   2 -10  22 0.47601 0.32404   3
   2  10  22 0.05452 0.18557   2
   2  10  22 -0.0187 0.14977   3
   3 -11 -22 0.27485 0.28622   1
   3 -11 -22 1.15647 0.54958   1
   3  11 -22 0.85938 0.24552   1
   3  11 -22 1.12029 0.32233   1
   2 -11 -22 0.36959 0.40752   3
   2 -11 -22 0.40752 0.21797   3
   2 -11 -22 0.58756 0.33166   3
   2  11 -22 0.28468 0.20339   3
   2  11 -22 0.50271 0.29154   4
   2  11 -22 0.07377 0.20910   2
   1 -11 -22 0.66430 0.42700   3
   1 -11 -22 0.74968 0.31316   3
   1 -11 -22 0.60728 0.51238   3
   1  11 -22 0.62597 0.46444   4
   1  11 -22 0.99957 0.26250   4
   0 -11  22 0.06076 0.13169   4
   0 -11 -22 -0.0851 0.08513   3
   0  11 -22 0.03038 0.06076   4
   0  11  22 -0.0379 0.05675   3
   1 -11  22 -0.0202 0.40579   3
   1  11  22 1.23043 0.39447   3
  -1  11 -22 0.53766 0.30434   3
   1  11  22 0.49783 0.19729   3
   2 -11  22 0.84120 0.28372   1
   2 -11  22 0.35530 0.42102   2
   2  11  22 0.36421 0.32004   2
   2  11  22 0.41934 0.25384   2
   3 -12 -22 -0.0187 0.04674   3
   3  12 -22 0.00000 0.05052   1
   2 -12 -22 0.19635 0.24808   1
   2 -12 -22 0.40442 0.40442   3
   2 -12 -22 0.96865 0.33857   3
   2  12 -22 0.33279 0.35834   2
   2  12 -22 0.34605 0.22671   4
   2  12 -22 0.34594 0.30888   4
   1 -12 -22 -0.0188 0.01880   3
   1 -12 -22 0.00000 0.07979   1
   1 -12 -22 -0.0470 0.04704   3
   1  12 -22 0.02016 0.02016   4
   1  12 -22 0.07071 0.06058   4
   0 -12 -22 0.19719 0.25350   3
   0 -12  22 0.38506 0.27365   4
   0  12  22 0.17835 0.16894   3
   0  12 -22 0.32427 0.23309   4
   1 -12  22 0.53800 0.37561   3
   1  12  22 0.37062 0.38094   2
   1  12  22 0.24711 0.24711   2
  -1  12 -22 0.11143 0.35914   2
   2 -12  22 0.08109 0.07092   1
   2 -12  22 0.05060 0.07092   1
   2  12  22 0.03688 0.05527   3
   2 -13 -22 0.21459 0.23321   3
   2 -13 -22 0.19596 0.30789   3
   2 -13 -22 -0.1306 0.15862   3
   2  13 -22 0.13375 0.17020   4
   2  13 -22 0.29163 0.17099   4
   2  13 -22 0.13366 0.16708   4
   1 -13 -22 0.55113 0.33628   3
   1 -13 -22 0.39231 0.20548   3
   1 -13 -22 0.38294 0.53249   3
   1  13 -22 0.37236 0.33746   4
   1  13 -22 0.37813 0.42399   4
   0 -13  22 0.29283 0.32431   4
   0 -13 -22 0.27469 0.31541   2
   0  13  22 0.22377 0.20347   2
   0  13 -22 0.08618 0.30768   2
   1 -13  22 1.32028 0.52819   3
   1  13  22 1.57111 0.42513   3
  -1  13 -22 2.46805 0.43674   3
   1  13  22 1.98696 0.30499   3
   2 -13  22 0.21375 0.31355   2
   2 -13  22 0.44469 0.24257   1
   2  13  22 0.28333 0.20101   3
   2 -14 -22 0.35119 0.20217   1
   2 -14 -22 -0.0277 0.21279   3
   2 -14 -22 0.58287 0.49035   3
   2  14 -22 1.00579 0.25142   4
   2  14 -22 0.45260 0.18100   4
   1 -14 -22 0.58355 0.30566   3
   1 -14 -22 0.52799 0.34273   3
   1 -14 -22 0.14358 0.16405   2
   1  14 -22 0.06499 0.33826   2
   0 -14  22 0.08117 0.16223   4
   0 -14 -22 -0.1384 0.14771   3
   0  14  22 0.10159 0.12928   3
   1  14  22 0.03152 0.08414   2
   1  14  22 0.22903 0.17407   3
   2 -14  22 -0.0101 0.05033   1
   2 -14  22 0.02011 0.04033   1
   2  14  22 0.01808 0.02717   3
   2 -15 -22 0.86200 0.23843   3
   2 -15 -22 0.60214 0.43796   1
   2  15 -22 0.49698 0.28844   1
   2  15 -22 0.64119 0.36867   1
   1 -15 -22 0.38557 0.27543   3
   1 -15 -22 0.33050 0.12855   3
   1 -15 -22 0.45905 0.33050   3
   1  15 -22 0.70741 0.19198   4
   0 -15 -22 0.69544 0.21964   3
   0  15  22 0.34085 0.20658   2
   0  15 -22 0.68969 0.23329   4
  -1 -15 -22 -0.0363 0.18163   3
   1  15  22 0.17252 0.13617   3
   1 -16 -22 0.12737 0.23649   3
   1 -16 -22 0.03174 0.21166   1
   1  16 -22 0.10238 0.19009   1
   0 -16 -22 0.00000 0.08243   1
   0  16  22 0.10876 0.06347   3
   1 -16  22 0.09134 0.06089   1
   1 -16  22 0.12179 0.10153   1
   1  17 -22 0.03443 0.06886   4
   0 -17 -22 0.59645 0.15903   3
   0  17 -22 0.38105 0.30490   2
   3   0 -23 0.23159 0.70625   1
   3   0  23 0.98638 0.40188   1
   3  -1 -23 1.40824 0.42948   3
   3   1 -23 0.54050 0.39039   4
   2  -1 -23 0.17044 0.46879   1
   2   1 -23 -0.0803 0.42140   3
   0   1  23 0.56069 0.30038   3
   2  -1  23 0.19990 0.25985   3
   2   1  23 0.15836 0.26728   3
   3  -1  23 0.18394 0.38093   2
   3   1  23 0.45965 0.30320   1
   3  -2 -23 1.42236 0.45756   3
   3   2 -23 0.28436 0.72260   1
   2  -2 -23 1.32770 0.68883   3
   2   2 -23 0.56402 0.70503   2
   1  -2 -23 1.74882 0.49971   3
   1   2 -23 2.15181 0.57318   3
   2  -2  23 0.49081 0.46077   3
   2   2  23 0.41563 0.40477   3
   3  -2  23 0.24835 0.21855   1
   3   2  23 0.24299 0.21384   1
   3  -3 -23 0.11873 0.20788   3
   3   3 -23 0.09008 0.23028   4
   2  -3 -23 1.06284 0.41718   3
   2   3 -23 0.28189 0.35780   3
   2   3 -23 0.02184 0.62380   2
   1   3 -23 0.06035 0.06035   3
   0   3 -23 0.09060 0.13090   3
   2  -3  23 0.09028 0.29096   3
   3  -3  23 0.21915 0.21915   1
   3   3  23 0.00000 0.24889   1
   3  -4 -23 -0.0196 0.06892   3
   3   4 -23 0.03003 0.03003   4
   3   4 -23 -0.0701 0.07010   4
   2  -4 -23 1.94669 0.56329   3
   2   4 -23 2.04862 0.70299   4
   2   4 -23 1.21653 0.37608   2
   1   4 -23 -0.0201 0.16106   3
   1   4 -23 0.00000 0.14153   1
   1   4 -23 0.10068 0.10068   3
   0   4 -23 0.00000 0.18893   1
   1  -4  23 0.09570 0.24465   3
   2  -4  23 1.96310 0.63137   3
   2   4  23 2.51913 0.48634   3
   3  -4  23 -0.0199 0.07978   1
   3   4  23 -0.0864 0.08635   1
   3  -5 -23 0.28300 0.48685   3
   3   5 -23 0.23930 0.45346   1
   3   5 -23 0.45052 0.24032   4
   2  -5 -23 -0.1376 0.13761   3
   2   5 -23 0.10045 0.14065   4
   2   5 -23 0.03012 0.11052   4
   2   5 -23 0.01124 0.21287   2
   1   5 -23 0.01010 0.04031   3
   1   5 -23 0.01010 0.05031   3
   1   5 -23 0.06042 0.07052   3
   0   5 -23 0.02235 0.26883   1
   1  -5  23 0.18148 0.16135   3
   2  -5  23 -0.0604 0.16099   3
   2  -5  23 0.10063 0.08055   3
   2  -5  23 0.21136 0.26162   3
   2   5  23 -0.0193 0.17392   3
   3  -5  23 -0.0996 0.10962   1
   3   5  23 -0.0190 0.12391   1
   3  -6 -23 0.75266 0.39909   1
   3  -6 -23 0.81730 0.23356   3
   3   6 -23 0.97115 0.27036   4
   3   6 -23 1.28158 0.43054   4
   2  -6 -23 2.11045 0.48856   3
   2  -6 -23 2.37428 0.58627   3
   2   6 -23 2.06233 0.40244   3
   2   6 -23 3.44592 0.57269   4
   2   6 -23 2.77286 0.60282   4
   1   6 -23 0.20157 0.21168   3
   1   6 -23 0.13815 0.42511   3
   1   6 -23 0.16123 0.28213   3
   0   6 -23 0.45429 0.30289   3
   0   6 -23 0.09043 0.22595   1
   1  -6  23 1.35282 0.37357   3
   1  -6  23 1.05559 0.39885   1
   2  -6  23 1.33013 0.38287   3
   2  -6  23 0.35506 0.36734   2
   2   6  23 1.03597 0.41218   2
   3  -6  23 0.27273 0.25833   2
   3   6  23 0.61968 0.24341   1
   3   6  23 0.29831 0.22051   2
   3  -7 -23 -0.0097 0.10640   3
   3  -7 -23 0.02288 0.14904   1
   3   7 -23 -0.0401 0.14021   4
   3   7 -23 0.08015 0.10013   4
   2  -7 -23 -0.0680 0.16511   3
   2  -7 -23 -0.0485 0.07773   3
   2   7 -23 -0.0101 0.07036   4
   2   7 -23 0.12055 0.16077   4
   2   7 -23 0.27134 0.12055   4
   1  -7 -23 0.05149 0.30925   1
   1   7 -23 0.01125 0.15700   1
   1   7 -23 -0.2420 0.24201   3
   1   7 -23 0.08071 0.28226   3
   0  -7  23 -0.0505 0.07074   3
   0   7 -23 0.01014 0.04044   3
   1  -7  23 -0.1819 0.40426   3
  -1   7 -23 0.05909 0.34304   1
   2  -7  23 -0.0303 0.10091   3
   2  -7  23 0.28247 0.23207   3
   2   7  23 0.16214 0.20031   3
   3   7  23 -0.0939 0.09389   1
   3  -8 -23 2.10448 0.35852   1
   3  -8 -23 2.34387 0.49951   3
   3   8 -23 2.33641 0.34934   4
   3   8 -23 2.35305 0.53373   4
   2  -8 -23 0.10617 0.08681   3
   2  -8 -23 -0.0193 0.12543   3
   2  -8 -23 0.05787 0.13511   3
   2   8 -23 -0.0101 0.12057   4
   2   8 -23 0.19094 0.13066   4
   2   8 -23 0.04023 0.06029   4
   2   8 -23 0.06029 0.11060   4
   1  -8 -23 1.03349 0.51195   3
   1   8 -23 0.76660 0.35300   4
   1   8 -23 0.38665 0.27294   2
   1   8 -23 -0.1614 0.40349   4
   0  -8  23 0.03459 0.27683   1
   0   8 -23 -0.0101 0.22240   3
   1  -8  23 0.23266 0.36416   3
  -1   8 -23 -0.0910 0.19218   3
   1   8  23 0.63149 0.25835   3
   2  -8  23 -0.0909 0.09090   3
   2  -8  23 0.02016 0.06060   3
   2   8  23 -0.0095 0.06630   3
   2   8  23 -0.0568 0.06630   3
   3  -9 -23 0.00957 0.03818   3
   3  -9 -23 0.01904 0.02861   3
   3   9 -23 0.01005 0.03003   4
   3   9 -23 0.00000 0.04504   1
   2  -9 -23 -0.0191 0.03835   3
   2  -9 -23 -0.0191 0.06710   3
   2  -9 -23 0.00000 0.06279   1
   2  -9 -23 0.02874 0.06710   3
   2   9 -23 0.04023 0.05021   4
   2   9 -23 0.06030 0.06030   4
   2   9 -23 0.13068 0.06030   4
   2   9 -23 -0.0101 0.04023   4
   1  -9 -23 0.24942 0.26857   3
   1  -9 -23 0.13433 0.14386   3
   1   9 -23 0.28248 0.19169   4
   1   9 -23 0.20182 0.25222   4
   0  -9  23 0.29338 0.20235   3
   0   9 -23 0.03034 0.13152   3
   0   9  23 -0.1339 0.13395   3
   1  -9  23 0.02021 0.10125   3
  -1   9 -23 0.07089 0.08104   3
   1   9  23 0.04745 0.10453   3
   1   9  23 -0.0855 0.08547   3
   2  -9  23 0.03031 0.06063   1
   2  -9  23 0.01014 0.06063   1
   2   9  23 0.00943 0.03762   3
   2   9  23 0.00943 0.05638   3
   3 -10 -23 1.11802 0.21454   4
   3  10 -23 1.09881 0.24232   1
   2 -10 -23 0.71358 0.27591   3
   2 -10 -23 0.59281 0.36395   3
   2 -10 -23 0.50418 0.39913   1
   2  10 -23 0.41839 0.31691   2
   2  10 -23 0.69378 0.31175   4
   2  10 -23 1.07582 0.32173   4
   1 -10 -23 0.67620 0.27619   3
   1 -10 -23 1.06676 0.51427   3
   1  10 -23 1.38282 0.46431   4
   0 -10  23 0.15416 0.49803   2
   0 -10 -23 0.54130 0.22793   3
   0  10  23 0.37985 0.29441   3
   0  10 -23 0.42515 0.27335   3
   1 -10  23 0.50669 0.27362   3
   1  10  23 0.73538 0.24513   3
   1  10  23 0.77312 0.29232   3
  -1  10 -23 0.42008 0.25948   2
   2 -10  23 1.04572 0.28701   2
   2 -10  23 1.02304 0.40924   2
   2  10  23 0.78945 0.36609   2
   2  10  23 0.77797 0.27463   2
   2 -11 -23 0.08465 0.16919   1
   2 -11 -23 -0.1039 0.15108   3
   2 -11 -23 -0.1039 0.33995   3
   2  11 -23 0.15080 0.13073   4
   2  11 -23 0.10759 0.15545   4
   2  11 -23 -0.1911 0.19105   4
   1 -11 -23 0.14174 0.13236   3
   1 -11 -23 0.14174 0.06618   3
   1  11 -23 0.03028 0.06056   4
   1  11 -23 -0.0101 0.12113   4
   0 -11  23 0.05059 0.08107   3
   0 -11 -23 -0.0188 0.03771   3
   0  11  23 0.01881 0.04707   3
   0  11 -23 0.08107 0.05059   3
   1 -11  23 -0.1116 0.11158   3
   1  11  23 0.09355 0.10293   3
  -1  11 -23 0.15206 0.14199   3
   1  11  23 -0.1497 0.15905   3
   2 -11  23 0.04248 0.19832   2
   2 -11  23 0.04248 0.33996   2
   2  11  23 -0.0185 0.16650   3
   2 -12 -23 1.62071 0.54334   3
   2 -12 -23 1.84558 0.29046   3
   2 -12 -23 1.65820 0.28107   3
   2  12 -23 1.10637 0.24143   4
   2  12 -23 1.02491 0.37046   4
   1 -12 -23 -0.0281 0.06565   3
   1 -12 -23 0.00000 0.13260   1
   1 -12 -23 -0.0094 0.10319   3
   1  12 -23 -0.0909 0.15145   4
   1  12 -23 0.03029 0.07071   4
   0 -12  23 0.69913 0.45592   4
   0 -12 -23 0.74781 0.25240   3
   0  12 -23 1.11449 0.30398   4
   0  12  23 0.78512 0.30846   3
   1 -12  23 -0.0304 0.03042   1
  -1  12 -23 -0.0202 0.02025   1
   1  12  23 0.00000 0.05177   1
   2 -12  23 0.34008 0.41394   2
   2 -13 -23 0.30455 0.25021   1
   2  13 -23 0.31516 0.33006   1
   2  13 -23 0.37111 0.16863   4
   2  13 -23 0.19505 0.21011   1
   1 -13 -23 0.33477 0.13022   3
   1 -13 -23 0.28940 0.32051   2
   1  13 -23 1.48497 0.36367   4
   1  13 -23 0.70717 0.19192   4
   0 -13  23 0.10136 0.11153   4
   0 -13 -23 0.06489 0.05559   3
   0  13  23 0.02780 0.06489   3
   0  13 -23 0.00000 0.05065   1
  -1 -13 -23 0.04595 0.05518   3
   1 -13  23 0.00000 0.06326   1
   1  13  23 0.03682 0.05518   3
  -1  13 -23 0.03041 0.03041   1
   2 -14 -23 0.35698 0.21195   1
   2  14 -23 0.37790 0.26286   1
   1 -14 -23 0.30305 0.33439   2
   1  14 -23 0.64136 0.22451   4
   0 -14  23 0.52720 0.38523   4
   0 -14 -23 0.68903 0.25720   3
   0  14  23 0.66148 0.18375   3
   0  14 -23 0.52063 0.16610   4
   1 -14  23 0.24705 0.21790   2
  -1  14 -23 0.28437 0.15792   3
   1  14  23 0.28431 0.22969   2
   1 -15 -23 -0.0456 0.10958   3
   1  15 -23 -0.0202 0.07076   4
   0 -15 -23 0.00913 0.01817   3
   0  15  23 0.00913 0.01817   3
   0  15 -23 0.02024 0.02024   4
   1 -15  23 -0.0202 0.16181   1
   0  16 -23 0.01018 0.02025   4
   2   0 -24 0.02001 0.07019   3
   2   0  24 0.02983 0.07962   3
   3  -1 -24 0.19978 0.29967   3
   3   1 -24 0.90118 0.32041   4
   2  -1 -24 1.03086 0.48039   3
   2   1 -24 1.14396 0.48164   3
   1   1 -24 0.54237 0.56252   3
   0  -1  24 3.13340 0.54226   3
   2  -1  24 1.33874 0.38962   3
   2   1  24 0.79032 0.42462   4
   3  -1  24 0.26357 0.19523   1
   3   1  24 0.31913 0.19342   1
   3  -2 -24 0.04970 0.04970   3
   3   2 -24 -0.0500 0.05003   4
   2  -2 -24 0.34003 0.62517   1
   2   2 -24 0.59229 0.42161   3
   1   2 -24 0.83328 0.49784   3
   2  -2  24 0.31046 0.16020   3
   2   2  24 0.15729 0.22613   3
   3  -2  24 0.27417 0.18606   1
   3   2  24 0.23447 0.23447   4
   3  -3 -24 1.79105 0.42550   3
   3   3 -24 1.17178 0.55083   4
   2  -3 -24 0.41697 0.53607   3
   2   3 -24 0.58238 0.38154   3
   1   3 -24 3.19932 0.69420   3
   1  -3  24 1.86015 0.55301   3
   2  -3  24 0.01237 0.25902   2
   2   3  24 0.09376 0.26940   2
   3   3  24 0.43092 0.25617   4
   3  -4 -24 0.92474 0.27542   3
   3   4 -24 0.22031 0.21037   4
   3   4 -24 0.04004 0.17354   1
   2  -4 -24 0.11843 0.09873   3
   2   4 -24 -0.0602 0.07032   4
   2   4 -24 0.12049 0.08040   4
   1   4 -24 0.65431 0.45297   3
   0  -4  24 0.16121 0.19143   3
   0   4 -24 0.23175 0.18132   3
   1  -4  24 0.02010 0.08060   3
  -1   4 -24 0.05029 0.05029   3
   2  -4  24 -0.1506 0.15062   3
   2   4  24 0.05840 0.22212   2
   3  -5 -24 1.39888 0.44622   1
   3   5 -24 1.56245 0.43070   4
   2  -5 -24 0.75565 0.43187   3
   2   5 -24 0.64293 0.26120   4
   2   5 -24 1.48690 0.40188   4
   1   5 -24 0.21629 0.52370   1
   1   5 -24 -0.0101 0.45323   3
   1   5 -24 0.88636 0.23167   3
   0  -5  24 0.02304 0.23086   1
   0   5 -24 0.25209 0.15123   3
   0   5 -24 0.12099 0.11098   3
   1  -5  24 1.49639 0.37927   3
  -1   5 -24 1.47313 0.46332   1
   2  -5  24 -0.0502 0.20119   3
   2   5  24 0.32796 0.24108   3
   3  -6 -24 0.05828 0.04854   3
   3   6 -24 0.08018 0.07013   4
   3   6 -24 0.00000 0.04299   1
   2  -6 -24 0.54622 0.27306   3
   2  -6 -24 0.38038 0.40964   3
   2   6 -24 0.26126 0.25118   4
   2   6 -24 0.07220 0.30088   2
   2   6 -24 0.02403 0.33698   2
   1   6 -24 0.01156 0.29960   1
   1   6 -24 0.32246 0.28213   3
   1   6 -24 0.10368 0.18436   1
   0  -6  24 -0.0504 0.12109   3
   0   6 -24 -0.0404 0.12109   3
   1  -6  24 0.15563 0.41898   1
  -1   6 -24 0.32292 0.21198   3
   2  -6  24 0.10067 0.07048   1
   2   6  24 0.07667 0.10540   3
   3  -7 -24 0.92761 0.19713   2
   3   7 -24 0.55661 0.22557   1
   3   7 -24 0.69195 0.43620   1
   2  -7 -24 4.15720 0.47483   3
   2  -7 -24 3.78796 0.66909   1
   2   7 -24 3.84945 0.54292   2
   2   7 -24 3.38053 0.70331   2
   1   7 -24 0.14118 0.21177   3
   1   7 -24 0.11094 0.10083   3
   1   7 -24 0.05036 0.14118   3
   0  -7  24 0.41409 0.42422   3
   0   7 -24 0.36363 0.28278   3
   1  -7  24 0.43440 0.24249   3
  -1   7 -24 0.03641 0.18204   2
   2  -7  24 1.79724 0.42359   4
   2   7  24 1.65927 0.41184   2
   3  -8 -24 -0.0287 0.02875   3
   3   8 -24 0.06009 0.03004   4
   2  -8 -24 0.01083 0.23749   1
   2  -8 -24 0.09341 0.32191   4
   2  -8 -24 0.16364 0.17319   3
   2   8 -24 0.49260 0.19099   4
   2   8 -24 0.42221 0.29153   4
   2   8 -24 0.12060 0.15075   4
   1  -8 -24 0.12521 0.06744   3
   1  -8 -24 -0.0192 0.14443   3
   1   8 -24 0.36312 0.15125   4
   0  -8  24 0.04046 0.06063   3
   0   8 -24 0.00000 0.03576   1
   1  -8  24 -0.0607 0.21239   3
   1   8  24 0.19478 0.18403   2
  -1   8 -24 0.18655 0.33591   2
   2  -8  24 0.76413 0.28147   1
   2   8  24 -0.0283 0.30188   1
   2   8  24 0.43832 0.26057   2
   2  -9 -24 0.77399 0.23886   3
   2  -9 -24 0.64956 0.27059   1
   2  -9 -24 0.81223 0.41091   3
   2   9 -24 1.08597 0.28150   4
   2   9 -24 0.65962 0.24081   3
   1  -9 -24 0.11472 0.20086   3
   1  -9 -24 -0.0765 0.11472   3
   1   9 -24 0.01235 0.22151   2
   1   9 -24 0.13117 0.12105   4
   0  -9 -24 0.40038 0.18111   3
   0  -9  24 0.14203 0.29593   3
   0   9  24 0.28602 0.18111   3
   0   9 -24 0.13462 0.19573   2
   1  -9  24 0.35824 0.40945   2
   1   9  24 0.32608 0.31518   2
  -1   9 -24 0.57693 0.30364   3
   1   9  24 0.21739 0.18479   2
   2  -9  24 0.96867 0.56986   2
   2   9  24 1.90061 0.37063   2
   2   9  24 2.28308 0.41175   1
   2 -10 -24 -0.1138 0.17066   3
   2 -10 -24 0.01092 0.27213   1
   2  10 -24 0.28156 0.17099   4
   2  10 -24 -0.0201 0.16090   4
   1 -10 -24 0.01894 0.05693   3
   1 -10 -24 -0.0189 0.02846   3
   1  10 -24 -0.0303 0.03027   4
   1  10 -24 -0.0201 0.05042   4
   0 -10 -24 0.01052 0.11544   2
   0 -10  24 0.05055 0.10121   3
   0  10  24 0.01888 0.09461   3
   0  10 -24 0.10121 0.07086   3
  -1 -10 -24 -0.0094 0.02817   3
   1 -10  24 -0.0405 0.04052   1
  -1  10 -24 0.02021 0.03036   1
   1  10  24 0.02817 0.03759   3
   2 -11 -24 0.70354 0.21989   1
   2  11 -24 0.52172 0.27532   1
   1 -11 -24 1.30878 0.45194   3
   1 -11 -24 0.60634 0.44956   2
   1  11 -24 0.82795 0.30292   4
   1  11 -24 0.72036 0.29030   4
   0 -11 -24 0.09386 0.10327   3
   0 -11  24 0.07090 0.10126   3
   0  11 -24 -0.0202 0.08105   3
   0  11  24 -0.0281 0.09386   3
  -1 -11 -24 0.38194 0.21429   1
   1 -11  24 0.42499 0.19224   1
  -1  11 -24 0.67804 0.20240   1
   1  11  24 0.20937 0.26454   2
   2 -12 -24 0.09333 0.10269   3
   1 -12 -24 0.10305 0.28849   2
   1  12 -24 0.16158 0.16158   4
   1  12 -24 0.08292 0.20731   2
   0 -12 -24 -0.0093 0.08374   3
   0 -12  24 0.20256 0.09112   1
   0  12  24 0.01062 0.06352   2
   0  12 -24 0.18224 0.05059   1
  -1 -12 -24 -0.0093 0.02769   1
   1  12  24 0.03696 0.02769   1
  -1  12 -24 0.01013 0.03030   1
   1  12  24 0.00000 0.02088   1
   1 -13 -24 0.30690 0.26454   2
   1  13 -24 0.44454 0.23235   4
   1  13 -24 0.67690 0.23235   4
   0 -13  24 0.51828 0.31899   1
   0 -13 -24 0.20267 0.18138   2
   0  13  24 0.09598 0.17068   2
   0  13 -24 0.50828 0.20329   4
   1 -13  24 1.35001 0.33443   3
  -1  13 -24 0.85934 0.25631   2
   1  14 -24 0.03092 0.17049   2
   1  14 -24 0.06201 0.32544   2
   0 -14 -24 0.01825 0.02742   1
   0 -14  24 0.02022 0.03038   1
   0  14 -24 0.00000 0.02741   1
   0  14 -24 0.01016 0.02022   1
   0  14  24 0.01825 0.01825   1
   3   0 -25 1.79056 0.42012   3
   1   0 -25 2.38748 0.57184   3
   3  -1 -25 0.11853 0.31621   1
   3   1 -25 0.21040 0.23039   4
   2  -1 -25 0.21020 0.31029   3
   2   1 -25 1.00353 0.46165   3
   1  -1 -25 0.65830 0.64711   1
   1   1 -25 0.54402 0.48740   1
   1  -1  25 -0.0601 0.24060   3
   2  -1  25 0.02557 0.43556   2
   2   1  25 -0.2467 0.24673   1
   3  -2 -25 0.39139 0.33918   1
   3   2 -25 0.09718 0.40248   1
   2  -2 -25 0.74859 0.35933   3
   2   2 -25 -0.0402 0.35138   3
   1  -2 -25 0.26964 0.32954   3
   1   2 -25 0.59318 0.45239   3
   1  -2  25 1.22059 0.42212   3
   2  -2  25 0.24661 0.35052   2
   2   2  25 0.45118 0.28442   1
   3  -3 -25 0.00000 0.09075   1
   3   3 -25 0.01005 0.08020   4
   2  -3 -25 0.31753 0.27781   3
   2   3 -25 0.30131 0.29123   3
   1   3 -25 0.03017 0.22130   3
   1   3 -25 0.11070 0.08053   3
   1  -3  25 0.13067 0.09044   3
  -1   3 -25 0.01110 0.07747   3
   2  -3  25 -0.2299 0.22987   1
   2   3  25 0.16162 0.29843   2
   3  -4 -25 0.04911 0.04911   3
   3   4 -25 -0.0500 0.05005   4
   3   4 -25 0.00000 0.02941   1
   2  -4 -25 2.28643 0.59697   1
   2   4 -25 2.84295 0.54243   4
   1   4 -25 0.21143 0.18114   3
   1   4 -25 0.13086 0.22143   3
   1   4 -25 0.07048 0.09057   3
   0   4 -25 0.84617 0.35255   3
   1  -4  25 0.01010 0.05028   3
   2  -4  25 0.91389 0.49732   2
   2   4  25 1.43949 0.40950   2
   3  -5 -25 0.01950 0.04880   3
   3   5 -25 0.03005 0.06010   4
   3   5 -25 0.11025 0.10020   4
   2  -5 -25 -0.0980 0.15681   3
   2  -5 -25 0.02239 0.16824   1
   2   5 -25 -0.0603 0.14071   4
   2   5 -25 0.05019 0.17084   4
   1   5 -25 0.03021 0.05031   3
   1   5 -25 0.02010 0.05031   3
   1   5 -25 0.00000 0.02361   1
   0  -5  25 0.64525 0.30250   3
   0   5 -25 0.94775 0.30250   3
   0   5 -25 0.56465 0.30250   3
   1  -5  25 -0.1209 0.17135   3
  -1   5 -25 0.15113 0.16124   3
   2  -5  25 0.02742 0.17859   2
   2   5  25 -0.0384 0.13434   1
   2  -6 -25 0.91526 0.36997   3
   2  -6 -25 0.76925 0.34077   3
   2   6 -25 0.77248 0.29256   4
   2   6 -25 0.74141 0.40776   4
   1   6 -25 1.31003 0.46356   3
   1   6 -25 1.01780 0.35268   3
   1   6 -25 0.92713 0.20156   3
   0  -6  25 0.30275 0.21196   3
   0   6 -25 0.08078 0.14131   3
  -1   6 -25 0.61969 0.30357   2
   2   6  25 1.53174 0.33295   1
   2  -7 -25 0.02900 0.03870   3
   2  -7 -25 0.01930 0.05801   3
   2  -7 -25 0.00000 0.03354   1
   2   7 -25 -0.0201 0.04024   4
   2   7 -25 0.00000 0.03950   1
   2   7 -25 0.01009 0.03015   4
   1  -7 -25 0.17409 0.12577   3
   1   7 -25 0.29237 0.25201   3
   1   7 -25 0.07456 0.39776   2
   0  -7  25 0.21211 0.15143   3
   0   7 -25 0.04345 0.10856   1
  -1   7 -25 0.34322 0.26242   1
   1   7  25 0.12425 0.15811   2
   2  -7  25 0.01456 0.14511   2
   2   7  25 0.04265 0.09587   4
   2   7  25 -0.0660 0.09432   1
   2  -8 -25 -0.0096 0.03843   3
   2  -8 -25 0.03843 0.05759   3
   2  -8 -25 -0.0192 0.03843   3
   2   8 -25 -0.0101 0.05023   4
   2   8 -25 0.00000 0.05466   1
   2   8 -25 -0.0302 0.05023   4
   1  -8 -25 0.91249 0.35542   3
   1  -8 -25 0.94129 0.33615   3
   1  -8 -25 0.77799 0.19211   3
   1   8 -25 0.47332 0.37093   2
   1   8 -25 0.37093 0.28137   2
   0  -8  25 -0.1011 0.15154   3
   0   8 -25 0.02537 0.12710   2
   0   8  25 0.24894 0.17230   3
   1  -8  25 0.95080 0.30373   1
   1   8  25 0.82697 0.24918   2
  -1   8 -25 1.13059 0.26245   1
   2   8  25 0.01265 0.07562   2
   2  -9 -25 0.12387 0.10485   3
   2   9 -25 0.12065 0.13074   4
   1  -9 -25 1.04858 0.40993   3
   1  -9 -25 0.55288 0.11436   3
   1  -9 -25 1.29643 0.39080   3
   1   9 -25 0.47428 0.36325   4
   1   9 -25 0.41365 0.17155   4
   0  -9  25 0.04046 0.05050   1
   0  -9 -25 0.00000 0.04230   1
   0   9  25 0.00953 0.03803   3
   0   9 -25 0.02018 0.02018   1
   1  -9  25 0.27595 0.24826   2
  -1  -9 -25 0.39587 0.26388   1
   1   9  25 0.62212 0.32052   1
  -1   9 -25 0.70574 0.19153   1
   2 -10 -25 0.94538 0.20797   3
   1 -10 -25 0.33098 0.24588   1
   1 -10 -25 0.05386 0.28033   2
   1  10 -25 0.47444 0.31295   4
   1  10 -25 0.25959 0.18174   4
   0 -10  25 0.31281 0.50325   2
   0  10  25 0.65961 0.20727   1
  -1 -10 -25 0.22428 0.16814   1
   1  10  25 0.24293 0.19626   1
  -1  10 -25 0.16494 0.15402   2
   1  10  25 0.10318 0.20636   2
   1 -11 -25 -0.0094 0.07507   1
   1  11 -25 0.29280 0.10097   4
   1  11 -25 0.04041 0.06056   4
   0 -11 -25 0.09341 0.08404   1
   0 -11  25 0.20222 0.13143   1
   0  11 -25 -0.0101 0.04047   1
   0  11  25 0.06540 0.08404   1
  -1  11 -25 0.10045 0.09037   1
   1 -12 -25 -0.0093 0.03721   1
   1  12 -25 -0.0202 0.03029   4
   0 -12 -25 0.96262 0.18513   1
   0 -12  25 0.93355 0.41768   1
   2   0 -26 0.60152 0.36089   3
   2   0  26 0.30004 0.31373   2
   2  -1 -26 0.78046 0.38019   3
   2   1 -26 1.23442 0.39141   3
   1  -1 -26 0.51043 0.37037   3
   1   1 -26 0.49207 0.37159   3
   1  -1  26 0.09902 0.24743   2
   1   1  26 0.14535 0.29084   2
   2   1  26 1.42205 0.32144   1
   2  -2 -26 0.65873 0.45911   3
   2   2 -26 0.10075 0.39025   2
   1  -2 -26 0.93827 0.56901   3
   1   2 -26 0.91478 0.17092   3
   1   2 -26 1.11584 0.43228   3
   0   2 -26 -0.0704 0.24122   3
   1  -2  26 0.38098 0.21061   1
   1   2  26 0.18526 0.25733   1
   2  -2  26 -0.0885 0.10822   1
   2   2  26 0.07745 0.11607   1
   2  -3 -26 -0.0694 0.29758   3
   2   3 -26 0.27292 0.23571   3
   2   3 -26 0.19245 0.37216   2
   1  -3 -26 2.37091 0.53563   3
   1   3 -26 2.00184 0.50301   3
   0   3 -26 -0.0201 0.06035   3
   1  -3  26 1.32490 0.32116   1
   2   3  26 0.08640 0.13447   1
   2  -4 -26 0.23655 0.12811   3
   2   4 -26 0.04021 0.07035   3
   2   4 -26 0.07035 0.12053   3
   1  -4 -26 0.50263 0.34494   3
   1   4 -26 0.77499 0.43283   3
   0   4 -26 -0.0201 0.05031   3
   1  -4  26 0.16120 0.20153   3
   2   4  26 0.01336 0.13319   2
   2  -5 -26 1.40020 0.54454   2
   2   5 -26 1.95971 0.28135   4
   2   5 -26 1.41180 0.39156   4
   1  -5 -26 0.03384 0.31584   2
   1   5 -26 0.26185 0.25175   3
   0  -5  26 0.14113 0.17136   1
   0   5 -26 -0.0302 0.11090   1
   1   5  26 1.64632 0.29545   4
   2  -6 -26 0.59294 0.27214   3
   2   6 -26 0.40355 0.48702   1
   2   6 -26 0.48248 0.19098   4
   2   6 -26 0.41594 0.22809   4
   1  -6 -26 -0.0194 0.06806   1
   1   6 -26 0.10078 0.05034   3
   0  -6  26 0.06458 0.28442   2
   0   6 -26 0.05175 0.18105   2
   1  -6  26 0.00000 0.02400   1
   1   6  26 0.00000 0.02159   1
  -1   6 -26 0.01007 0.02003   1
   2  -7 -26 2.30701 0.34801   2
   1  -7 -26 -0.1062 0.10616   1
   1   7 -26 0.06047 0.09070   1
   0  -7  26 0.13110 0.15123   1
   0   7 -26 -0.0404 0.11097   1
   1  -7  26 0.08416 0.15439   2
   1   7  26 0.11918 0.21445   2
   1   7  26 0.03574 0.14297   2
  -1   7 -26 0.08416 0.25247   2
   2  -8 -26 0.30398 0.19879   2
   1  -8 -26 -0.1148 0.17224   1
   1  -8 -26 0.20105 0.19144   1
   1   8 -26 0.04152 0.31843   2
   0  -8 -26 0.33365 0.13350   1
   0  -8  26 -0.0807 0.13108   1
   0   8  26 0.02260 0.12461   2
   1  -8  26 -0.0100 0.08996   1
   1   8  26 -0.0377 0.16965   1
  -1   8 -26 0.06461 0.09692   3
   1  -9 -26 0.42718 0.30377   1
   1  -9 -26 0.15704 0.24669   2
   1   9 -26 0.50452 0.27245   1
   0  -9 -26 0.00000 0.12738   1
   0  -9  26 0.26198 0.19143   1
   0   9 -26 0.00000 0.07655   1
   0   9  26 0.04544 0.11353   2
   1   9  26 0.10830 0.24075   2
   1  10 -26 0.59552 0.27255   4
   0 -10  26 0.16110 0.18120   1
   0 -10 -26 0.15918 0.13110   1
   0  10  26 0.05694 0.12544   2
   1   0 -27 1.09631 0.41111   2
   1   0  27 1.29836 0.31713   1
   2  -1 -27 -0.1601 0.19006   3
   2   1 -27 0.11687 0.25980   3
   1  -1 -27 1.36956 0.38987   1
   1   1 -27 1.00318 0.38119   1
   0  -1 -27 0.15956 0.29463   2
   0   1 -27 0.32049 0.25036   1
   1  -1  27 0.06953 0.12910   1
   1   1  27 -0.0197 0.14809   1
   2  -2 -27 1.49697 0.35928   3
   2   2 -27 0.69339 0.44418   3
   1  -2 -27 0.82028 0.42120   1
   1   2 -27 1.59674 0.38158   1
   0  -2  27 2.17145 0.45984   2
   0   2 -27 2.78686 0.53133   1
   1  -2  27 0.62109 0.31055   2
   1   2  27 0.91212 0.27456   1
   2  -3 -27 0.35691 0.23797   3
   1  -3 -27 0.07925 0.10895   1
   1   3 -27 0.04022 0.10050   1
   0   3 -27 0.63199 0.25074   1
   1   3  27 0.01943 0.02919   1
   1  -4 -27 0.13767 0.20650   1
   1   4 -27 0.11063 0.25132   1
   0   4 -27 0.58190 0.15045   1
   1   4  27 0.05534 0.15515   1
   1  -5 -27 0.03312 0.14357   2
   1   5 -27 0.06034 0.10060   1
   0   5 -27 0.31104 0.13041   1
   1  -5  27 0.03962 0.04945   1
   1   5  27 -0.0383 0.11477   1
   1  -6 -27 1.33648 0.35836   1
   0   6 -27 0.05009 0.06015   1
   1   6  27 0.83839 0.27246   4
   1  -7 -27 0.01917 0.02881   1
   1  -7 -27 -0.0384 0.04798   1
   1   7 -27 0.03019 0.03019   1
   0  -7  27 0.10023 0.09017   1
   0  -7 -27 0.21937 0.07635   1
   0   7  27 0.05721 0.06678   1
   0   7 -27 0.01454 0.07238   2
   0  -8 -27 0.02384 0.07166   2
   0   8  27 0.01198 0.07166   2
   0   0  28 0.21348 0.29351   2
   0   0 -28 0.90220 0.26772   1
   1  -1 -28 -0.0497 0.14927   1
   0  -1 -28 2.10672 0.39565   1
   1  -2 -28 0.64504 0.30769   1
   0  -2 -28 0.15622 0.29952   2
   0  -3 -28 0.01949 0.05858   1
   0   0   0    0.00    0.00   0
;
_shelx_hkl_checksum   10234

