data_x15143 
 
_audit_creation_method            'SHELXL-2014/7 and CIFFIX' 
# CIF edited on-the-fly by script CIFFIX (S. Parkin, 2000-2014). 
# CIFFIX: http://xray.uky.edu/people/parkin/programs/ciffix 
_audit_update_record              ? 
 
_shelx_SHELXL_version_number      '2014/7' 
 
_publ_section_exptl_refinement 
; 
H atoms were found in difference Fourier maps, but subsequently included 
in the refinement using riding models, with constrained distances set to 
0.95 %A (C~sp2~H), 0.98 %A (RCH~3~) and 0.99 %A (R~2~CH~2~).  U~iso~(H) 
parameters were set to values of either 1.2U~eq~ or 1.5U~eq~ (RCH~3~ only) 
of the attached atom. 
 
To ensure satisfactory refinement for disordered groups in the structure, 
a combination of constraints and restraints were employed. The constraints 
(SHELXL commands EXYZ and EADP) were used to fix overlapping fragments. 
Restraints were used to ensure the integrity of ill-defined or disordered 
groups (SHELXL commands SAME, SIMU, and RIGU). 
 
The crystal was twinned by inversion, which was dealt with using standard 
SHELXL methods (TWIN and BASF commands). 

The space group for this structure cannot be P2~1~/c because the disorder
component fractions are not exactly 50:50, which they would have to be for 
this molecule because it is the pure syn isomer.  Similarly, when refined 
as an inversion twin, the twin component fractions are not exactly 50:50,
but refine to 0.18(6) and 0.82(6).  When refined with separate FVARs, the 
disorder component fractions are 0.54166 and 0.54275. Since this compound 
is the pure syn isomer, these values should be equal, which they are - well 
within uncertainty, thus only one FVAR is needed. Perhaps not surprisingly, 
Platon's ADDSYM routine suggests to add an inversion centre and make it 
P2~1~/c, but that can't be right because of the above arguments.
; 
 
_publ_section_references 
; 
Bruker-AXS (2006). 
  <i>APEX2</i> Bruker-AXS Inc., Madison, WI, USA. 
 
Hope, H. (1994). 
  <i>Prog. Inorg. Chem.</i> <b>41</b>, 1--19. 
 
Krause, L., Herbst-Irmer, R., Sheldrick, G.M. & Stalke, D. (2015). 
  <i>J. Appl. Cryst.</i> <b>48</b>, 3--10. 
 
Parkin, S. & Hope, H. (1998). 
  <i>J. Appl. Cryst.</i> <b>31</b>, 945--953. 
 
Parkin, S. (2000). 
  <i>Acta Cryst.</i> A<b>56</b>, 157--162. 
 
Parkin, S. (2013). 
  <i>CIFFIX</i>, http://xray.uky.edu/people/parkin/programs/ciffix 
 
Sheldrick, G.M. (2008). 
  <i>Acta Cryst.</i> A<b>64</b>, 112--122. 
 
Sheldrick, G.M. (2015a). 
  <i>Acta Cryst.</i> A<b>71</b>, 3--8. 
 
Sheldrick, G.M. (2015b). 
  <i>Acta Cryst.</i> C<b>71</b>, 3--8. 
 
Spek, A.L. (2009). 
  <i>Acta Cryst.</i> D<b>65</b>, 148--155. 
; 
 
_publ_section_acknowledgements 
; 
The X8 Proteum diffractometer was funded by the NSF (MRI CHE0319176, 70%), 
and by the University of Kentucky (cost share, 30%). 
; 
 
_chemical_name_systematic         ? 
_chemical_name_common             ? 
_chemical_melting_point           ? 
_chemical_formula_moiety          'C34 H38 S2 Si2' 
_chemical_formula_sum             'C34 H38 S2 Si2' 
_chemical_formula_weight          566.94 
 
loop_ 
 _atom_type_symbol 
 _atom_type_description 
 _atom_type_scat_dispersion_real 
 _atom_type_scat_dispersion_imag 
 _atom_type_scat_source 
 'C'  'C'   0.0181   0.0091 
 'International Tables Vol C Tables 4.2.6.8 and 6.1.1.4' 
 'H'  'H'   0.0000   0.0000 
 'International Tables Vol C Tables 4.2.6.8 and 6.1.1.4' 
 'Si'  'Si'   0.2541   0.3302 
 'International Tables Vol C Tables 4.2.6.8 and 6.1.1.4' 
 'S'  'S'   0.3331   0.5567 
 'International Tables Vol C Tables 4.2.6.8 and 6.1.1.4' 
 
_space_group_crystal_system       monoclinic 
_space_group_IT_number            7 
_space_group_name_H-M_alt         'P c' 
_space_group_name_Hall            'P -2yc' 
 
_shelx_space_group_comment 
; 
The symmetry employed for this shelxl refinement is uniquely defined 
by the following loop, which should always be used as a source of 
symmetry information in preference to the above space-group names. 
They are only intended as comments. 
; 
 
loop_ 
 _space_group_symop_operation_xyz 
 'x, y, z' 
 'x, -y, z+1/2' 
 
_cell_length_a                    6.3015(2) 
_cell_length_b                    17.8388(4) 
_cell_length_c                    13.7739(3) 
_cell_angle_alpha                 90 
_cell_angle_beta                  91.803(1) 
_cell_angle_gamma                 90 
_cell_volume                      1547.57(7) 
_cell_formula_units_Z             2 
_cell_measurement_temperature     90.0(2) 
_cell_measurement_reflns_used     9054 
_cell_measurement_theta_min       2.48 
_cell_measurement_theta_max       68.16 
 
_exptl_crystal_description        'irregular block' 
_exptl_crystal_colour             red 
_exptl_crystal_density_meas       ? 
_exptl_crystal_density_method     ? 
_exptl_crystal_density_diffrn     1.217 
_exptl_crystal_F_000              604 
_exptl_transmission_factor_min    ? 
_exptl_transmission_factor_max    ? 
_exptl_crystal_size_max           0.220 
_exptl_crystal_size_mid           0.180 
_exptl_crystal_size_min           0.150 
_exptl_absorpt_coefficient_mu     2.450 
_shelx_estimated_absorpt_T_min    0.615 
_shelx_estimated_absorpt_T_max    0.710 
_exptl_absorpt_correction_type    multi-scan 
_exptl_absorpt_correction_T_min   0.620 
_exptl_absorpt_correction_T_max   0.714 
_exptl_absorpt_process_details    '<i>SADABS</i> (Krause et al., 2015)' 
_exptl_absorpt_special_details 
; 
In addition to absorption, multi-scan techniques also correct other slowly 
varying changes in scale factor over reciprocal space, such as those caused 
by x-ray beam inhomogeneity, goniometer imperfection, crystal decomposition, 
crystal longer than the x-ray beam cross section, absorption by the crystal 
mount etc.  These account, by and large, for much of the difference between 
estimated values of Tmin and Tmax and the _exptl_absorpt_correction_ values. 
; 
 
_exptl_special_details 
; 
The crystal was mounted using polyisobutene oil on the tip of a fine glass 
fibre, which was fastened in a copper mounting pin with electrical solder. 
It was placed directly into the cold gas stream of a liquid-nitrogen based 
cryostat (Hope, 1994; Parkin & Hope, 1998). 
 
Diffraction data were collected with the crystal at 90K, which is standard 
practice in this laboratory for the majority of flash-cooled crystals. 
; 
 
_diffrn_ambient_temperature       90.0(2) 
_diffrn_radiation_wavelength      1.54178 
_diffrn_radiation_type            CuK\a 
_diffrn_source                    'fine-focus rotating anode' 
_diffrn_measurement_device_type   'Bruker X8 Proteum diffractometer' 
_diffrn_measurement_method        '\f and \w scans' 
_diffrn_detector_area_resol_mean  5.6 
_diffrn_reflns_number             20274 
_diffrn_reflns_av_unetI/netI      0.0272 
_diffrn_reflns_av_R_equivalents   0.0371 
_diffrn_reflns_limit_h_min        -4 
_diffrn_reflns_limit_h_max        7 
_diffrn_reflns_limit_k_min        -21 
_diffrn_reflns_limit_k_max        20 
_diffrn_reflns_limit_l_min        -16 
_diffrn_reflns_limit_l_max        16 
_diffrn_reflns_theta_min          2.477 
_diffrn_reflns_theta_max          68.158 
_diffrn_reflns_theta_full         67.679 
_diffrn_measured_fraction_theta_max                0.993 
_diffrn_measured_fraction_theta_full               0.996 
_diffrn_reflns_Laue_measured_fraction_max          0.993 
_diffrn_reflns_Laue_measured_fraction_full         0.996 
_diffrn_reflns_point_group_measured_fraction_max   0.993 
_diffrn_reflns_point_group_measured_fraction_full  0.996 
 
_reflns_number_total              3832 
_reflns_number_gt                 3754 
_reflns_threshold_expression      'I > 2\s(I)' 
_reflns_Friedel_coverage          0.993 
_reflns_Friedel_fraction_max      0.993 
_reflns_Friedel_fraction_full     0.996 
_reflns_special_details 
; 
Reflections were merged by SHELXL according to the crystal 
class for the calculation of statistics and refinement. 
 
_reflns_Friedel_fraction is defined as the number of unique 
Friedel pairs measured divided by the number that would be 
possible theoretically, ignoring centric projections and 
systematic absences. 
; 
 
_computing_data_collection        '<i>APEX2</i> (Bruker-AXS, 2006)' 
_computing_cell_refinement        '<i>APEX2</i> (Bruker-AXS, 2006)' 
_computing_data_reduction         '<i>APEX2</i> (Bruker-AXS, 2006)' 
_computing_structure_solution     '<i>SHELXT</i> (Sheldrick, 2015a)' 
_computing_structure_refinement   '<i>SHELXL-2014/7</i> (Sheldrick, 2015b)' 
_computing_molecular_graphics     '<i>XP in SHELXTL</i> (Sheldrick, 2008)' 
_computing_publication_material 
'<i>SHELX</i> (Sheldrick, 2008) and <i>CIFFIX</i> (Parkin, 2013)' 
 
_refine_special_details 
; 
Refined as a 2-component inversion twin. 
; 
_refine_ls_structure_factor_coef  Fsqd 
_refine_ls_matrix_type            full 
_refine_ls_weighting_scheme       calc 
_refine_ls_weighting_details 
'w=1/[\s^2^(Fo^2^)+(0.0574P)^2^+0.8011P] where P=(Fo^2^+2Fc^2^)/3' 
_atom_sites_solution_primary      direct 
_atom_sites_solution_secondary    difmap 
_atom_sites_solution_hydrogens    difmap 
_refine_ls_hydrogen_treatment     constr 
_refine_ls_extinction_method      none 
_refine_ls_extinction_coef        . 
_refine_ls_abs_structure_details 
; 
Refined as an inversion twin. 
; 
_refine_ls_abs_structure_Flack    0.19(6) 
#_chemical_absolute_configuration  . 
# There are several reasons why "absolute configuration" has no relevance here. 
# 1) The molecule is achiral.
# 2) The space group has a glide plane.
# 3) The crystal was twinned by inversion.
_refine_ls_number_reflns          3832 
_refine_ls_number_parameters      381 
_refine_ls_number_restraints      154 
_refine_ls_R_factor_all           0.0395 
_refine_ls_R_factor_gt            0.0389 
_refine_ls_wR_factor_ref          0.1058 
_refine_ls_wR_factor_gt           0.1050 
_refine_ls_goodness_of_fit_ref    1.071 
_refine_ls_restrained_S_all       1.067 
_refine_ls_shift/su_max           0.004 
_refine_ls_shift/su_mean          0.001 
 
loop_ 
 _atom_site_label 
 _atom_site_type_symbol 
 _atom_site_fract_x 
 _atom_site_fract_y 
 _atom_site_fract_z 
 _atom_site_U_iso_or_equiv 
 _atom_site_adp_type 
 _atom_site_occupancy 
 _atom_site_site_symmetry_order 
 _atom_site_calc_flag 
 _atom_site_refinement_flags_posn 
 _atom_site_refinement_flags_adp 
 _atom_site_refinement_flags_occupancy 
 _atom_site_disorder_assembly 
 _atom_site_disorder_group 
Si1 Si 0.2166(2) 1.05031(7) 0.61116(9) 0.0256(3) Uani 1 1 d . . . . . 
Si2 Si 0.7735(2) 0.44829(7) 0.38438(9) 0.0246(3) Uani 1 1 d . . . . . 
C1 C 0.4360(9) 0.8237(3) 0.5217(4) 0.0220(11) Uani 1 1 d . . . . . 
C2 C 0.6275(10) 0.7927(3) 0.5638(4) 0.0244(11) Uani 1 1 d . . . . . 
C3 C 0.7524(10) 0.8342(3) 0.6309(4) 0.0266(12) Uani 1 1 d . . . . . 
H3 H 0.7136 0.8838 0.6479 0.032 Uiso 1 1 calc R U . A 1 
C4 C 0.9336(10) 0.8012(3) 0.6716(4) 0.0297(12) Uani 0.554(5) 1 d D U P B 1 
S5 S 1.1008(7) 0.83750(19) 0.7598(2) 0.0367(8) Uani 0.554(5) 1 d D U P B 1 
C6 C 1.257(2) 0.7593(6) 0.7585(11) 0.036(2) Uani 0.554(5) 1 d D U P B 1 
H6 H 1.3801 0.7516 0.7987 0.044 Uiso 0.554(5) 1 calc R U P B 1 
C7 C 1.179(2) 0.7097(7) 0.6915(10) 0.0276(9) Uani 0.554(5) 1 d D U P B 1 
H7 H 1.2516 0.6643 0.6781 0.033 Uiso 0.554(5) 1 calc R U P B 1 
C8 C 0.9940(9) 0.7280(3) 0.6444(4) 0.0276(11) Uani 0.554(5) 1 d D U P B 1 
C4' C 0.9336(10) 0.8012(3) 0.6716(4) 0.0297(12) Uani 0.446(5) 1 d D U P B 2 
C5' C 1.080(4) 0.8341(10) 0.7354(15) 0.0367(8) Uani 0.446(5) 1 d D U P B 2 
H5' H 1.0667 0.8841 0.7582 0.044 Uiso 0.446(5) 1 calc R U P B 2 
C6' C 1.248(3) 0.7871(7) 0.7629(15) 0.040(3) Uani 0.446(5) 1 d D U P B 2 
H6' H 1.3588 0.8012 0.8074 0.047 Uiso 0.446(5) 1 calc R U P B 2 
S7' S 1.2319(6) 0.7004(2) 0.7076(3) 0.0276(9) Uani 0.446(5) 1 d D U P B 2 
C8' C 0.9940(9) 0.7280(3) 0.6444(4) 0.0276(11) Uani 0.446(5) 1 d D U P B 2 
C9 C 0.8732(10) 0.6866(3) 0.5786(4) 0.0265(12) Uani 1 1 d . . . . . 
H9 H 0.9172 0.6377 0.5608 0.032 Uiso 1 1 calc R U . B 1 
C10 C 0.6856(9) 0.7169(3) 0.5382(4) 0.0234(11) Uani 1 1 d . . . . . 
C11 C 0.5516(10) 0.6756(3) 0.4737(4) 0.0261(12) Uani 1 1 d . . . . . 
C12 C 0.3684(9) 0.7064(3) 0.4312(4) 0.0229(11) Uani 1 1 d . . . . . 
C13 C 0.2356(11) 0.6667(3) 0.3629(4) 0.0282(13) Uani 1 1 d . . . . . 
H13 H 0.2733 0.6171 0.3452 0.034 Uiso 1 1 calc R U . B 1 
C14 C 0.0581(9) 0.6975(3) 0.3226(4) 0.0277(12) Uani 0.554(5) 1 d D U P B 1 
C15 C -0.105(6) 0.6631(19) 0.251(2) 0.0375(12) Uani 0.554(5) 1 d D U P B 1 
H15 H -0.0978 0.6136 0.2256 0.045 Uiso 0.554(5) 1 calc R U P B 1 
C16 C -0.2597(19) 0.7119(5) 0.2286(8) 0.028(2) Uani 0.554(5) 1 d D U P B 1 
H16 H -0.3719 0.7004 0.1834 0.034 Uiso 0.554(5) 1 calc R U P B 1 
S17 S -0.2421(8) 0.7989(3) 0.2881(5) 0.0338(9) Uani 0.554(5) 1 d D U P B 1 
C18 C -0.0065(9) 0.7727(3) 0.3494(4) 0.0262(11) Uani 0.554(5) 1 d D U P B 1 
C14' C 0.0581(9) 0.6975(3) 0.3226(4) 0.0277(12) Uani 0.446(5) 1 d D U P B 2 
S15' S -0.1080(16) 0.6619(5) 0.2359(6) 0.0375(12) Uani 0.446(5) 1 d D U P B 2 
C16' C -0.270(3) 0.7423(7) 0.2388(13) 0.038(3) Uani 0.446(5) 1 d D U P B 2 
H16' H -0.4002 0.7452 0.2020 0.045 Uiso 0.446(5) 1 calc R U P B 2 
C17' C -0.204(5) 0.7980(19) 0.294(3) 0.0338(9) Uani 0.446(5) 1 d D U P B 2 
H17' H -0.2685 0.8460 0.2984 0.041 Uiso 0.446(5) 1 calc R U P B 2 
C18' C -0.0065(9) 0.7727(3) 0.3494(4) 0.0262(11) Uani 0.446(5) 1 d D U P B 2 
C19 C 0.1150(9) 0.8122(3) 0.4147(4) 0.0254(12) Uani 1 1 d . . . . . 
H19 H 0.0715 0.8610 0.4331 0.030 Uiso 1 1 calc R U . B 1 
C20 C 0.3058(9) 0.7819(3) 0.4560(4) 0.0240(11) Uani 1 1 d . . . . . 
C21 C 0.3803(9) 0.8986(3) 0.5449(4) 0.0250(11) Uani 1 1 d . . . . . 
C22 C 0.327(1) 0.9616(3) 0.5645(4) 0.0269(12) Uani 1 1 d . . . . . 
C23 C -0.0724(12) 1.0518(3) 0.5808(6) 0.0405(17) Uani 1 1 d . . . . . 
H23A H -0.1390 1.0075 0.6106 0.049 Uiso 1 1 calc R U . . . 
H23B H -0.1350 1.0971 0.6100 0.049 Uiso 1 1 calc R U . . . 
C24 C -0.1266(13) 1.0516(5) 0.4727(7) 0.076(4) Uani 1 1 d . . . . . 
H24A H -0.0906 1.1004 0.4449 0.114 Uiso 1 1 calc R U . . . 
H24B H -0.2788 1.0421 0.4623 0.114 Uiso 1 1 calc R U . . . 
H24C H -0.0454 1.0122 0.4411 0.114 Uiso 1 1 calc R U . . . 
C25 C 0.3520(9) 1.1310(3) 0.5552(4) 0.0301(12) Uani 1 1 d . . . . . 
H25A H 0.5026 1.1316 0.5779 0.036 Uiso 1 1 calc R U . . . 
H25B H 0.3486 1.1245 0.4838 0.036 Uiso 1 1 calc R U . . . 
C26 C 0.2477(12) 1.2070(3) 0.5804(6) 0.0415(15) Uani 1 1 d . . . . . 
H26A H 0.0958 1.2051 0.5630 0.062 Uiso 1 1 calc R U . . . 
H26B H 0.3149 1.2472 0.5440 0.062 Uiso 1 1 calc R U . . . 
H26C H 0.2665 1.2166 0.6502 0.062 Uiso 1 1 calc R U . . . 
C27 C 0.2648(16) 1.0535(4) 0.7444(5) 0.080(3) Uani 1 1 d . . . . . 
H27A H 0.2693 1.1067 0.7645 0.096 Uiso 1 1 calc R U . . . 
H27B H 0.1414 1.0303 0.7755 0.096 Uiso 1 1 calc R U . . . 
C28 C 0.4666(13) 1.0152(4) 0.7851(5) 0.0443(16) Uani 1 1 d . . . . . 
H28A H 0.4574 0.9611 0.7731 0.066 Uiso 1 1 calc R U . . . 
H28B H 0.4807 1.0244 0.8551 0.066 Uiso 1 1 calc R U . . . 
H28C H 0.5906 1.0356 0.7529 0.066 Uiso 1 1 calc R U . . . 
C29 C 0.6163(10) 0.6001(3) 0.4481(4) 0.0265(12) Uani 1 1 d . . . . . 
C30 C 0.6690(11) 0.5380(3) 0.4274(4) 0.0278(12) Uani 1 1 d . . . . . 
C31 C 0.7345(10) 0.4485(3) 0.2476(4) 0.0339(13) Uani 1 1 d . . . . . 
H31A H 0.8561 0.4752 0.2197 0.041 Uiso 1 1 calc R U . . . 
H31B H 0.7403 0.3959 0.2248 0.041 Uiso 1 1 calc R U . . . 
C32 C 0.5403(14) 0.4820(3) 0.2079(5) 0.052(2) Uani 1 1 d . . . . . 
H32A H 0.4174 0.4571 0.2355 0.077 Uiso 1 1 calc R U . . . 
H32B H 0.5347 0.4761 0.1371 0.077 Uiso 1 1 calc R U . . . 
H32C H 0.5377 0.5354 0.2243 0.077 Uiso 1 1 calc R U . . . 
C33 C 0.6441(10) 0.3677(2) 0.4442(5) 0.0345(14) Uani 1 1 d . . . . . 
H33A H 0.6507 0.3757 0.5153 0.041 Uiso 1 1 calc R U . . . 
H33B H 0.4925 0.3663 0.4231 0.041 Uiso 1 1 calc R U . . . 
C34 C 0.7443(11) 0.2922(3) 0.4219(7) 0.050(2) Uani 1 1 d . . . . . 
H34A H 0.7663 0.2883 0.3520 0.075 Uiso 1 1 calc R U . . . 
H34B H 0.6500 0.2519 0.4422 0.075 Uiso 1 1 calc R U . . . 
H34C H 0.8812 0.2879 0.4573 0.075 Uiso 1 1 calc R U . . . 
C35 C 1.0621(11) 0.4471(3) 0.4162(6) 0.0422(18) Uani 1 1 d . . . . . 
H35A H 1.1251 0.4013 0.3884 0.051 Uiso 1 1 calc R U . . . 
H35B H 1.1295 0.4908 0.3855 0.051 Uiso 1 1 calc R U . . . 
C36 C 1.1150(13) 0.4489(5) 0.5248(7) 0.070(3) Uani 1 1 d . . . . . 
H36A H 1.0674 0.4966 0.5520 0.105 Uiso 1 1 calc R U . . . 
H36B H 1.2688 0.4439 0.5357 0.105 Uiso 1 1 calc R U . . . 
H36C H 1.0429 0.4073 0.5566 0.105 Uiso 1 1 calc R U . . . 
 
loop_ 
 _atom_site_aniso_label 
 _atom_site_aniso_U_11 
 _atom_site_aniso_U_22 
 _atom_site_aniso_U_33 
 _atom_site_aniso_U_23 
 _atom_site_aniso_U_13 
 _atom_site_aniso_U_12 
Si1 0.0340(9) 0.0169(6) 0.0260(8) -0.0036(5) 0.0027(6) 0.0061(5) 
Si2 0.0343(8) 0.0169(6) 0.0226(7) -0.0029(5) 0.0021(6) 0.0067(5) 
C1 0.026(3) 0.013(2) 0.028(3) -0.0025(19) 0.014(2) 0.002(2) 
C2 0.034(3) 0.017(2) 0.023(3) 0.0041(19) 0.010(2) 0.002(2) 
C3 0.028(3) 0.020(2) 0.032(3) -0.001(2) 0.008(2) -0.002(2) 
C4 0.037(3) 0.029(2) 0.023(3) 0.0075(19) 0.004(2) -0.004(2) 
S5 0.0442(16) 0.0349(11) 0.0303(19) 0.0062(12) -0.0103(13) -0.0152(11) 
C6 0.035(4) 0.039(5) 0.035(4) 0.021(4) -0.002(4) -0.003(4) 
C7 0.026(2) 0.0294(15) 0.0274(18) 0.0114(12) 0.0059(14) 0.0046(14) 
C8 0.031(3) 0.027(2) 0.025(3) 0.0069(18) 0.009(2) -0.003(2) 
C4' 0.037(3) 0.029(2) 0.023(3) 0.0075(19) 0.004(2) -0.004(2) 
C5' 0.0442(16) 0.0349(11) 0.0303(19) 0.0062(12) -0.0103(13) -0.0152(11) 
C6' 0.044(5) 0.038(6) 0.037(6) 0.003(5) -0.005(5) 0.005(5) 
S7' 0.026(2) 0.0294(15) 0.0274(18) 0.0114(12) 0.0059(14) 0.0046(14) 
C8' 0.031(3) 0.027(2) 0.025(3) 0.0069(18) 0.009(2) -0.003(2) 
C9 0.034(3) 0.024(2) 0.021(3) 0.004(2) 0.010(2) 0.001(2) 
C10 0.029(3) 0.021(2) 0.021(2) 0.006(2) 0.009(2) 0.001(2) 
C11 0.044(3) 0.016(2) 0.019(3) 0.0041(19) 0.012(2) -0.003(2) 
C12 0.031(3) 0.015(2) 0.024(3) -0.0021(19) 0.015(2) -0.002(2) 
C13 0.050(4) 0.016(2) 0.020(3) 0.0003(19) 0.013(2) -0.002(2) 
C14 0.037(3) 0.018(2) 0.029(3) 0.0004(18) 0.014(2) -0.004(2) 
C15 0.0435(16) 0.0342(13) 0.035(3) 0.0033(19) 0.0049(19) -0.0111(12) 
C16 0.034(4) 0.019(4) 0.031(5) 0.007(3) 0.006(3) -0.007(3) 
S17 0.038(2) 0.028(1) 0.0352(16) 0.0081(10) 0.0046(16) 0.0010(15) 
C18 0.032(3) 0.022(2) 0.025(3) 0.0074(18) 0.013(2) 0.0013(19) 
C14' 0.037(3) 0.018(2) 0.029(3) 0.0004(18) 0.014(2) -0.004(2) 
S15' 0.0435(16) 0.0342(13) 0.035(3) 0.0033(19) 0.0049(19) -0.0111(12) 
C16' 0.035(5) 0.038(6) 0.040(6) 0.006(5) 0.002(4) 0.000(5) 
C17' 0.038(2) 0.028(1) 0.0352(16) 0.0081(10) 0.0046(16) 0.0010(15) 
C18' 0.032(3) 0.022(2) 0.025(3) 0.0074(18) 0.013(2) 0.0013(19) 
C19 0.032(3) 0.0130(18) 0.031(3) 0.004(2) 0.014(2) 0.003(2) 
C20 0.037(3) 0.014(2) 0.022(3) -0.0006(19) 0.018(2) 0.000(2) 
C21 0.032(3) 0.022(2) 0.021(3) -0.0016(19) 0.012(2) -0.005(2) 
C22 0.036(3) 0.015(2) 0.030(3) 0.003(2) 0.005(2) 0.004(2) 
C23 0.032(3) 0.034(3) 0.057(5) -0.012(3) 0.022(3) -0.001(3) 
C24 0.027(4) 0.120(8) 0.081(7) -0.068(6) -0.015(4) 0.014(4) 
C25 0.028(3) 0.031(2) 0.032(3) 0.000(2) 0.000(2) 0.006(2) 
C26 0.054(4) 0.017(2) 0.054(4) 0.005(2) 0.010(3) 0.008(3) 
C27 0.148(8) 0.059(4) 0.032(3) -0.019(3) -0.023(4) 0.070(4) 
C28 0.059(4) 0.047(3) 0.026(3) -0.005(3) -0.007(3) 0.007(3) 
C29 0.039(3) 0.017(2) 0.023(3) 0.0037(19) 0.005(2) 0.007(2) 
C30 0.038(3) 0.030(2) 0.017(2) -0.005(2) 0.006(2) 0.002(3) 
C31 0.049(3) 0.026(2) 0.027(3) 0.0048(19) 0.023(2) 0.003(2) 
C32 0.099(6) 0.028(3) 0.026(3) 0.001(2) -0.011(3) -0.009(3) 
C33 0.026(3) 0.011(2) 0.067(4) 0.003(2) 0.010(3) -0.002(2) 
C34 0.024(3) 0.022(2) 0.105(6) 0.001(3) 0.012(3) 0.001(2) 
C35 0.033(4) 0.033(3) 0.061(5) -0.020(3) 0.014(3) -0.005(3) 
C36 0.035(4) 0.098(7) 0.077(6) -0.047(5) -0.016(4) 0.022(4) 
 
_geom_special_details 
; 
 All esds (except the esd in the dihedral angle between two l.s. planes) 
 are estimated using the full covariance matrix.  The cell esds are taken 
 into account individually in the estimation of esds in distances, angles 
 and torsion angles; correlations between esds in cell parameters are only 
 used when they are defined by crystal symmetry.  An approximate (isotropic) 
 treatment of cell esds is used for estimating esds involving l.s. planes. 
; 
 
loop_ 
 _geom_bond_atom_site_label_1 
 _geom_bond_atom_site_label_2 
 _geom_bond_distance 
 _geom_bond_site_symmetry_2 
 _geom_bond_publ_flag 
Si1 C22 1.852(5) . ? 
Si1 C27 1.852(7) . ? 
Si1 C25 1.853(6) . ? 
Si1 C23 1.856(8) . ? 
Si2 C30 1.836(6) . ? 
Si2 C35 1.857(8) . ? 
Si2 C33 1.858(5) . ? 
Si2 C31 1.892(6) . ? 
C1 C20 1.415(8) . ? 
C1 C21 1.420(7) . ? 
C1 C2 1.433(8) . ? 
C2 C3 1.405(8) . ? 
C2 C10 1.448(7) . ? 
C3 C4' 1.387(8) . ? 
C3 C4 1.387(8) . ? 
C3 H3 0.9500 . ? 
C4 C8 1.414(8) . ? 
C4 S5 1.710(6) . ? 
S5 C6 1.708(12) . ? 
C6 C7 1.358(17) . ? 
C6 H6 0.9500 . ? 
C7 C8 1.358(12) . ? 
C7 H7 0.9500 . ? 
C8 C9 1.380(8) . ? 
C4' C5' 1.383(16) . ? 
C4' C8' 1.414(8) . ? 
C5' C6' 1.39(2) . ? 
C5' H5' 0.9500 . ? 
C6' S7' 1.725(14) . ? 
C6' H6' 0.9500 . ? 
S7' C8' 1.779(6) . ? 
C8' C9 1.380(8) . ? 
C9 C10 1.399(8) . ? 
C9 H9 0.9500 . ? 
C10 C11 1.414(8) . ? 
C11 C12 1.391(8) . ? 
C11 C29 1.453(7) . ? 
C12 C13 1.428(8) . ? 
C12 C20 1.447(7) . ? 
C13 C14' 1.350(8) . ? 
C13 C14 1.350(8) . ? 
C13 H13 0.9500 . ? 
C14 C18 1.453(7) . ? 
C14 C15 1.53(3) . ? 
C15 C16 1.33(3) . ? 
C15 H15 0.9500 . ? 
C16 S17 1.757(11) . ? 
C16 H16 0.9500 . ? 
S17 C18 1.748(8) . ? 
C18 C19 1.359(8) . ? 
C14' C18' 1.453(7) . ? 
C14' S15' 1.687(10) . ? 
S15' C16' 1.763(15) . ? 
C16' C17' 1.31(3) . ? 
C16' H16' 0.9500 . ? 
C17' C18' 1.51(3) . ? 
C17' H17' 0.9500 . ? 
C18' C19 1.359(8) . ? 
C19 C20 1.422(8) . ? 
C19 H19 0.9500 . ? 
C21 C22 1.206(8) . ? 
C23 C24 1.516(11) . ? 
C23 H23A 0.9900 . ? 
C23 H23B 0.9900 . ? 
C24 H24A 0.9800 . ? 
C24 H24B 0.9800 . ? 
C24 H24C 0.9800 . ? 
C25 C26 1.551(7) . ? 
C25 H25A 0.9900 . ? 
C25 H25B 0.9900 . ? 
C26 H26A 0.9800 . ? 
C26 H26B 0.9800 . ? 
C26 H26C 0.9800 . ? 
C27 C28 1.534(10) . ? 
C27 H27A 0.9900 . ? 
C27 H27B 0.9900 . ? 
C28 H28A 0.9800 . ? 
C28 H28B 0.9800 . ? 
C28 H28C 0.9800 . ? 
C29 C30 1.194(8) . ? 
C31 C32 1.454(10) . ? 
C31 H31A 0.9900 . ? 
C31 H31B 0.9900 . ? 
C32 H32A 0.9800 . ? 
C32 H32B 0.9800 . ? 
C32 H32C 0.9800 . ? 
C33 C34 1.522(7) . ? 
C33 H33A 0.9900 . ? 
C33 H33B 0.9900 . ? 
C34 H34A 0.9800 . ? 
C34 H34B 0.9800 . ? 
C34 H34C 0.9800 . ? 
C35 C36 1.522(11) . ? 
C35 H35A 0.9900 . ? 
C35 H35B 0.9900 . ? 
C36 H36A 0.9800 . ? 
C36 H36B 0.9800 . ? 
C36 H36C 0.9800 . ? 
 
loop_ 
 _geom_angle_atom_site_label_1 
 _geom_angle_atom_site_label_2 
 _geom_angle_atom_site_label_3 
 _geom_angle 
 _geom_angle_site_symmetry_1 
 _geom_angle_site_symmetry_3 
 _geom_angle_publ_flag 
C22 Si1 C27 108.5(3) . . ? 
C22 Si1 C25 109.6(3) . . ? 
C27 Si1 C25 109.0(3) . . ? 
C22 Si1 C23 108.1(3) . . ? 
C27 Si1 C23 110.6(4) . . ? 
C25 Si1 C23 110.9(3) . . ? 
C30 Si2 C35 107.0(3) . . ? 
C30 Si2 C33 111.4(3) . . ? 
C35 Si2 C33 109.1(3) . . ? 
C30 Si2 C31 106.5(3) . . ? 
C35 Si2 C31 109.3(3) . . ? 
C33 Si2 C31 113.4(3) . . ? 
C20 C1 C21 119.8(5) . . ? 
C20 C1 C2 121.3(4) . . ? 
C21 C1 C2 118.9(5) . . ? 
C3 C2 C1 120.6(4) . . ? 
C3 C2 C10 120.8(5) . . ? 
C1 C2 C10 118.6(5) . . ? 
C4' C3 C2 118.6(5) . . ? 
C4 C3 C2 118.6(5) . . ? 
C4 C3 H3 120.7 . . ? 
C2 C3 H3 120.7 . . ? 
C3 C4 C8 120.7(5) . . ? 
C3 C4 S5 127.4(4) . . ? 
C8 C4 S5 111.9(4) . . ? 
C6 S5 C4 91.4(5) . . ? 
C7 C6 S5 110.2(8) . . ? 
C7 C6 H6 124.9 . . ? 
S5 C6 H6 124.9 . . ? 
C6 C7 C8 116.9(11) . . ? 
C6 C7 H7 121.6 . . ? 
C8 C7 H7 121.6 . . ? 
C7 C8 C9 129.2(8) . . ? 
C7 C8 C4 109.3(7) . . ? 
C9 C8 C4 121.4(5) . . ? 
C5' C4' C3 126.8(9) . . ? 
C5' C4' C8' 112.4(9) . . ? 
C3 C4' C8' 120.7(5) . . ? 
C4' C5' C6' 113.7(14) . . ? 
C4' C5' H5' 123.2 . . ? 
C6' C5' H5' 123.2 . . ? 
C5' C6' S7' 112.8(11) . . ? 
C5' C6' H6' 123.6 . . ? 
S7' C6' H6' 123.6 . . ? 
C6' S7' C8' 90.2(5) . . ? 
C9 C8' C4' 121.4(5) . . ? 
C9 C8' S7' 127.7(5) . . ? 
C4' C8' S7' 110.9(4) . . ? 
C8' C9 C10 119.7(5) . . ? 
C8 C9 C10 119.7(5) . . ? 
C8 C9 H9 120.1 . . ? 
C10 C9 H9 120.1 . . ? 
C9 C10 C11 121.9(5) . . ? 
C9 C10 C2 118.7(5) . . ? 
C11 C10 C2 119.3(5) . . ? 
C12 C11 C10 122.0(4) . . ? 
C12 C11 C29 120.0(5) . . ? 
C10 C11 C29 117.9(5) . . ? 
C11 C12 C13 122.8(4) . . ? 
C11 C12 C20 119.8(5) . . ? 
C13 C12 C20 117.3(5) . . ? 
C14' C13 C12 122.0(5) . . ? 
C14 C13 C12 122.0(5) . . ? 
C14 C13 H13 119.0 . . ? 
C12 C13 H13 119.0 . . ? 
C13 C14 C18 120.5(5) . . ? 
C13 C14 C15 129.3(13) . . ? 
C18 C14 C15 110.2(13) . . ? 
C16 C15 C14 111(2) . . ? 
C16 C15 H15 124.5 . . ? 
C14 C15 H15 124.6 . . ? 
C15 C16 S17 115.8(14) . . ? 
C15 C16 H16 122.1 . . ? 
S17 C16 H16 122.1 . . ? 
C18 S17 C16 91.7(5) . . ? 
C19 C18 C14 119.3(5) . . ? 
C19 C18 S17 129.3(5) . . ? 
C14 C18 S17 111.4(4) . . ? 
C13 C14' C18' 120.5(5) . . ? 
C13 C14' S15' 128.7(5) . . ? 
C18' C14' S15' 110.8(5) . . ? 
C14' S15' C16' 91.5(7) . . ? 
C17' C16' S15' 117.0(15) . . ? 
C17' C16' H16' 121.5 . . ? 
S15' C16' H16' 121.5 . . ? 
C16' C17' C18' 108(2) . . ? 
C16' C17' H17' 126.0 . . ? 
C18' C17' H17' 126.0 . . ? 
C19 C18' C14' 119.3(5) . . ? 
C19 C18' C17' 128.2(14) . . ? 
C14' C18' C17' 112.4(14) . . ? 
C18' C19 C20 121.3(5) . . ? 
C18 C19 C20 121.3(5) . . ? 
C18 C19 H19 119.3 . . ? 
C20 C19 H19 119.3 . . ? 
C1 C20 C19 121.4(4) . . ? 
C1 C20 C12 119.0(5) . . ? 
C19 C20 C12 119.5(5) . . ? 
C22 C21 C1 178.1(6) . . ? 
C21 C22 Si1 169.9(5) . . ? 
C24 C23 Si1 114.2(5) . . ? 
C24 C23 H23A 108.7 . . ? 
Si1 C23 H23A 108.7 . . ? 
C24 C23 H23B 108.7 . . ? 
Si1 C23 H23B 108.7 . . ? 
H23A C23 H23B 107.6 . . ? 
C23 C24 H24A 109.5 . . ? 
C23 C24 H24B 109.5 . . ? 
H24A C24 H24B 109.5 . . ? 
C23 C24 H24C 109.5 . . ? 
H24A C24 H24C 109.5 . . ? 
H24B C24 H24C 109.5 . . ? 
C26 C25 Si1 112.4(5) . . ? 
C26 C25 H25A 109.1 . . ? 
Si1 C25 H25A 109.1 . . ? 
C26 C25 H25B 109.1 . . ? 
Si1 C25 H25B 109.1 . . ? 
H25A C25 H25B 107.8 . . ? 
C25 C26 H26A 109.5 . . ? 
C25 C26 H26B 109.5 . . ? 
H26A C26 H26B 109.5 . . ? 
C25 C26 H26C 109.5 . . ? 
H26A C26 H26C 109.5 . . ? 
H26B C26 H26C 109.5 . . ? 
C28 C27 Si1 117.2(5) . . ? 
C28 C27 H27A 108.0 . . ? 
Si1 C27 H27A 108.0 . . ? 
C28 C27 H27B 108.0 . . ? 
Si1 C27 H27B 108.0 . . ? 
H27A C27 H27B 107.3 . . ? 
C27 C28 H28A 109.5 . . ? 
C27 C28 H28B 109.5 . . ? 
H28A C28 H28B 109.5 . . ? 
C27 C28 H28C 109.5 . . ? 
H28A C28 H28C 109.5 . . ? 
H28B C28 H28C 109.5 . . ? 
C30 C29 C11 179.7(7) . . ? 
C29 C30 Si2 172.5(6) . . ? 
C32 C31 Si2 117.2(4) . . ? 
C32 C31 H31A 108.0 . . ? 
Si2 C31 H31A 108.0 . . ? 
C32 C31 H31B 108.0 . . ? 
Si2 C31 H31B 108.0 . . ? 
H31A C31 H31B 107.2 . . ? 
C31 C32 H32A 109.5 . . ? 
C31 C32 H32B 109.5 . . ? 
H32A C32 H32B 109.5 . . ? 
C31 C32 H32C 109.5 . . ? 
H32A C32 H32C 109.5 . . ? 
H32B C32 H32C 109.5 . . ? 
C34 C33 Si2 113.8(5) . . ? 
C34 C33 H33A 108.8 . . ? 
Si2 C33 H33A 108.8 . . ? 
C34 C33 H33B 108.8 . . ? 
Si2 C33 H33B 108.8 . . ? 
H33A C33 H33B 107.7 . . ? 
C33 C34 H34A 109.5 . . ? 
C33 C34 H34B 109.5 . . ? 
H34A C34 H34B 109.5 . . ? 
C33 C34 H34C 109.5 . . ? 
H34A C34 H34C 109.5 . . ? 
H34B C34 H34C 109.5 . . ? 
C36 C35 Si2 114.5(5) . . ? 
C36 C35 H35A 108.6 . . ? 
Si2 C35 H35A 108.6 . . ? 
C36 C35 H35B 108.6 . . ? 
Si2 C35 H35B 108.6 . . ? 
H35A C35 H35B 107.6 . . ? 
C35 C36 H36A 109.5 . . ? 
C35 C36 H36B 109.5 . . ? 
H36A C36 H36B 109.5 . . ? 
C35 C36 H36C 109.5 . . ? 
H36A C36 H36C 109.5 . . ? 
H36B C36 H36C 109.5 . . ? 
 
_refine_diff_density_max    0.410 
_refine_diff_density_min   -0.406 
_refine_diff_density_rms    0.048 
 
_iucr_refine_instructions_details 
; 
 
    x15143.res created by SHELXL-2014/7 
 
 
TITL x15143 : space group Pc 
CELL  1.54178   6.3015  17.8388  13.7739   90.000   91.803   90.000 
ZERR    2.000   0.0002   0.0004   0.0003    0.000    0.001    0.000 
LATT -1 
SYMM X, -Y, 1/2+Z 
SFAC C H SI S 
UNIT 68 76 4 4 
TEMP -183 
SIZE 0.22 0.18 0.15 
REM COLR red 
REM FORM irregular block 
TWIN -1 0 0 0 -1 0 0 0 -1 
REM The space group for this structure cannot be P21/c because the disorder 
REM component fractions are not exactly 50:50.  Similarly, when refined as 
REM an inversion twin, the twin component fractions are not exactly 50:50, 
REM but refine to 0.18(6) and 0.82(6). 
REM When refined with separate FVARs, the disorder component fractions are 
REM 0.54166 and 0.54275. Since this compound is the pure syn isomer, these 
REM values should be equal, which they are - well within uncertainty, thus 
REM only one FVAR is needed. 
REM Perhaps not surprisingly, Platon's ADDSYM routine suggests to add an 
REM inversion centre and make it P21/c, but that can't be right because of 
REM the above arguments. 
L.S. 10 
BOND $H 
ACTA 
LIST 4 
FMAP 2 
PLAN 5 
REM EXTI    0.000496 : not needed. 
WGHT    0.057400    0.801100 
BASF   0.18881 
FVAR       0.83844   0.55388 
SI1   3    0.216573    1.050311    0.611157    11.00000    0.03399    0.01692 = 
         0.02603   -0.00357    0.00269    0.00606 
SI2   3    0.773523    0.448288    0.384382    11.00000    0.03426    0.01689 = 
         0.02262   -0.00289    0.00213    0.00670 
C1    1    0.436048    0.823696    0.521741    11.00000    0.02601    0.01333 = 
         0.02750   -0.00250    0.01434    0.00191 
C2    1    0.627454    0.792683    0.563844    11.00000    0.03381    0.01665 = 
         0.02335    0.00414    0.00979    0.00160 
C3    1    0.752380    0.834208    0.630861    11.00000    0.02829    0.01977 = 
         0.03219   -0.00094    0.00818   -0.00152 
AFIX  43 
H3    2    0.713568    0.883841    0.647912    11.00000   -1.20000 
AFIX   0 
EXYZ C4 C4' 
EXYZ C8 C8' 
EADP C4 C4' 
EADP S5 C5' 
SIMU 0.010 C6 C6' 
EADP C7 S7' 
EADP C8 C8' 
SAME C8' S7' C6' C5' C4' 
RIGU C4 > C8 
RIGU C4' > C8' 
PART 1 
C4    1    0.933567    0.801214    0.671601    21.00000    0.03696    0.02944 = 
         0.02299    0.00746    0.00417   -0.00394 
S5    4    1.100753    0.837501    0.759807    21.00000    0.04417    0.03491 = 
         0.03033    0.00616   -0.01030   -0.01517 
C6    1    1.256843    0.759282    0.758454    21.00000    0.03535    0.03925 = 
         0.03451    0.02061   -0.00160   -0.00306 
AFIX  43 
H6    2    1.380051    0.751585    0.798744    21.00000   -1.20000 
AFIX   0 
C7    1    1.179439    0.709673    0.691476    21.00000    0.02621    0.02941 = 
         0.02742    0.01136    0.00595    0.00461 
AFIX  43 
H7    2    1.251624    0.664250    0.678133    21.00000   -1.20000 
AFIX   0 
C8    1    0.993965    0.728029    0.644444    21.00000    0.03080    0.02711 = 
         0.02542    0.00692    0.00870   -0.00261 
PART 2 
C4'   1    0.933567    0.801214    0.671601   -21.00000    0.03696    0.02944 = 
         0.02299    0.00746    0.00417   -0.00394 
C5'   1    1.079619    0.834138    0.735362   -21.00000    0.04417    0.03491 = 
         0.03033    0.00616   -0.01030   -0.01517 
AFIX  43 
H5'   2    1.066715    0.884120    0.758239   -21.00000   -1.20000 
AFIX   0 
C6'   1    1.247628    0.787064    0.762917   -21.00000    0.04369    0.03772 = 
         0.03692    0.00294   -0.00456    0.00469 
AFIX  43 
H6'   2    1.358817    0.801211    0.807369   -21.00000   -1.20000 
AFIX   0 
S7'   4    1.231894    0.700412    0.707640   -21.00000    0.02621    0.02941 = 
         0.02742    0.01136    0.00595    0.00461 
C8'   1    0.993965    0.728029    0.644444   -21.00000    0.03080    0.02711 = 
         0.02542    0.00692    0.00870   -0.00261 
PART 0 
C9    1    0.873182    0.686574    0.578605    11.00000    0.03432    0.02430 = 
         0.02138    0.00369    0.00955    0.00064 
AFIX  43 
H9    2    0.917233    0.637672    0.560797    11.00000   -1.20000 
AFIX   0 
C10   1    0.685581    0.716872    0.538195    11.00000    0.02945    0.02062 = 
         0.02051    0.00634    0.00888    0.00081 
C11   1    0.551569    0.675562    0.473657    11.00000    0.04362    0.01605 = 
         0.01933    0.00405    0.01207   -0.00257 
C12   1    0.368361    0.706409    0.431219    11.00000    0.03072    0.01534 = 
         0.02354   -0.00211    0.01486   -0.00151 
C13   1    0.235581    0.666716    0.362852    11.00000    0.04959    0.01585 = 
         0.01992    0.00029    0.01301   -0.00247 
AFIX  43 
H13   2    0.273283    0.617107    0.345181    11.00000   -1.20000 
AFIX   0 
EXYZ C14 C14' 
EXYZ C18 C18' 
EADP C14 C14' 
EADP C15 S15' 
SIMU 0.010 C16 C16' 
EADP S17 C17' 
EADP C18 C18' 
SAME C18' C17' C16' S15' C14' 
RIGU C14 > C18 
RIGU C14' > C18' 
PART 1 
C14   1    0.058137    0.697539    0.322573    21.00000    0.03727    0.01801 = 
         0.02858    0.00043    0.01358   -0.00444 
C15   1   -0.105383    0.663104    0.250819    21.00000    0.04353    0.03420 = 
         0.03511    0.00334    0.00490   -0.01113 
AFIX  43 
H15   2   -0.097802    0.613640    0.225608    21.00000   -1.20000 
AFIX   0 
C16   1   -0.259659    0.711919    0.228563    21.00000    0.03445    0.01895 = 
         0.03128    0.00684    0.00562   -0.00651 
AFIX  43 
H16   2   -0.371938    0.700393    0.183378    21.00000   -1.20000 
AFIX   0 
S17   4   -0.242060    0.798904    0.288120    21.00000    0.03825    0.02801 = 
         0.03521    0.00807    0.00459    0.00098 
C18   1   -0.006506    0.772731    0.349409    21.00000    0.03153    0.02235 = 
         0.02548    0.00736    0.01268    0.00133 
PART 2 
C14'  1    0.058137    0.697539    0.322573   -21.00000    0.03727    0.01801 = 
         0.02858    0.00043    0.01358   -0.00444 
S15'  4   -0.108048    0.661932    0.235914   -21.00000    0.04353    0.03420 = 
         0.03511    0.00334    0.00490   -0.01113 
C16'  1   -0.270329    0.742335    0.238798   -21.00000    0.03508    0.03829 = 
         0.03965    0.00632    0.00155   -0.00039 
AFIX  43 
H16'  2   -0.400155    0.745219    0.202018   -21.00000   -1.20000 
AFIX   0 
C17'  1   -0.203714    0.798047    0.294052   -21.00000    0.03825    0.02801 = 
         0.03521    0.00807    0.00459    0.00098 
AFIX  43 
H17'  2   -0.268530    0.845962    0.298381   -21.00000   -1.20000 
AFIX   0 
C18'  1   -0.006506    0.772731    0.349409   -21.00000    0.03153    0.02235 = 
         0.02548    0.00736    0.01268    0.00133 
PART 0 
C19   1    0.114965    0.812208    0.414703    11.00000    0.03246    0.01297 = 
         0.03147    0.00367    0.01366    0.00321 
AFIX  43 
H19   2    0.071454    0.861044    0.433073    11.00000   -1.20000 
AFIX   0 
C20   1    0.305831    0.781865    0.456049    11.00000    0.03707    0.01384 = 
         0.02229   -0.00064    0.01776   -0.00034 
C21   1    0.380335    0.898602    0.544898    11.00000    0.03218    0.02234 = 
         0.02131   -0.00158    0.01241   -0.00508 
C22   1    0.327002    0.961604    0.564538    11.00000    0.03621    0.01460 = 
         0.03029    0.00267    0.00523    0.00405 
C23   1   -0.072396    1.051803    0.580761    11.00000    0.03249    0.03350 = 
         0.05687   -0.01184    0.02249   -0.00133 
AFIX  23 
H23A  2   -0.138996    1.007528    0.610634    11.00000   -1.20000 
H23B  2   -0.134973    1.097093    0.609971    11.00000   -1.20000 
AFIX   0 
C24   1   -0.126596    1.051591    0.472725    11.00000    0.02713    0.11956 = 
         0.08088   -0.06818   -0.01486    0.01447 
AFIX 137 
H24A  2   -0.090603    1.100365    0.444938    11.00000   -1.50000 
H24B  2   -0.278803    1.042121    0.462307    11.00000   -1.50000 
H24C  2   -0.045415    1.012152    0.441105    11.00000   -1.50000 
AFIX   0 
C25   1    0.352025    1.130962    0.555196    11.00000    0.02779    0.03053 = 
         0.03183    0.00010   -0.00019    0.00608 
AFIX  23 
H25A  2    0.502634    1.131631    0.577915    11.00000   -1.20000 
H25B  2    0.348551    1.124538    0.483772    11.00000   -1.20000 
AFIX   0 
C26   1    0.247739    1.206975    0.580407    11.00000    0.05370    0.01723 = 
         0.05410    0.00485    0.01012    0.00814 
AFIX 137 
H26A  2    0.095850    1.205139    0.562968    11.00000   -1.50000 
H26B  2    0.314924    1.247245    0.543981    11.00000   -1.50000 
H26C  2    0.266548    1.216571    0.650203    11.00000   -1.50000 
AFIX   0 
C27   1    0.264799    1.053474    0.744417    11.00000    0.14758    0.05854 = 
         0.03243   -0.01913   -0.02315    0.07005 
AFIX  23 
H27A  2    0.269322    1.106742    0.764545    11.00000   -1.20000 
H27B  2    0.141426    1.030256    0.775493    11.00000   -1.20000 
AFIX   0 
C28   1    0.466607    1.015169    0.785054    11.00000    0.05915    0.04663 = 
         0.02648   -0.00491   -0.00688    0.00746 
AFIX 137 
H28A  2    0.457442    0.961095    0.773085    11.00000   -1.50000 
H28B  2    0.480731    1.024359    0.855106    11.00000   -1.50000 
H28C  2    0.590587    1.035578    0.752934    11.00000   -1.50000 
AFIX   0 
C29   1    0.616305    0.600122    0.448128    11.00000    0.03887    0.01748 = 
         0.02327    0.00366    0.00460    0.00679 
C30   1    0.669028    0.537980    0.427412    11.00000    0.03762    0.02974 = 
         0.01652   -0.00538    0.00616    0.00151 
C31   1    0.734543    0.448479    0.247588    11.00000    0.04936    0.02644 = 
         0.02740    0.00480    0.02290    0.00291 
AFIX  23 
H31A  2    0.856140    0.475193    0.219717    11.00000   -1.20000 
H31B  2    0.740287    0.395907    0.224794    11.00000   -1.20000 
AFIX   0 
C32   1    0.540261    0.481997    0.207898    11.00000    0.09923    0.02826 = 
         0.02639    0.00053   -0.01066   -0.00868 
AFIX 137 
H32A  2    0.417433    0.457065    0.235540    11.00000   -1.50000 
H32B  2    0.534653    0.476078    0.137129    11.00000   -1.50000 
H32C  2    0.537718    0.535446    0.224267    11.00000   -1.50000 
AFIX   0 
C33   1    0.644085    0.367688    0.444193    11.00000    0.02617    0.01144 = 
         0.06659    0.00304    0.01038   -0.00174 
AFIX  23 
H33A  2    0.650665    0.375683    0.515349    11.00000   -1.20000 
H33B  2    0.492467    0.366326    0.423137    11.00000   -1.20000 
AFIX   0 
C34   1    0.744337    0.292237    0.421930    11.00000    0.02449    0.02196 = 
         0.10456    0.00118    0.01243    0.00059 
AFIX 137 
H34A  2    0.766326    0.288329    0.351994    11.00000   -1.50000 
H34B  2    0.650019    0.251857    0.442186    11.00000   -1.50000 
H34C  2    0.881211    0.287947    0.457278    11.00000   -1.50000 
AFIX   0 
C35   1    1.062133    0.447073    0.416217    11.00000    0.03295    0.03316 = 
         0.06138   -0.02001    0.01354   -0.00514 
AFIX  23 
H35A  2    1.125116    0.401320    0.388397    11.00000   -1.20000 
H35B  2    1.129499    0.490839    0.385496    11.00000   -1.20000 
AFIX   0 
C36   1    1.114999    0.448879    0.524808    11.00000    0.03459    0.09767 = 
         0.07723   -0.04656   -0.01639    0.02213 
AFIX 137 
H36A  2    1.067381    0.496553    0.551976    11.00000   -1.50000 
H36B  2    1.268786    0.443901    0.535707    11.00000   -1.50000 
H36C  2    1.042860    0.407346    0.556642    11.00000   -1.50000 
 
AFIX   0 
HKLF 4 
 
REM  x15143 : space group Pc 
REM R1 =  0.0389 for    3754 Fo > 4sig(Fo)  and  0.0395 for all    3832 data 
REM    381 parameters refined using    154 restraints 
 
END 
 
WGHT      0.0574      0.8054 
 
REM Highest difference peak  0.410,  deepest hole -0.406,  1-sigma level  0.048 
Q1    1   0.3054  1.0789  0.5824  11.00000  0.05    0.41 
Q2    1   0.6860  0.4194  0.4178  11.00000  0.05    0.41 
Q3    1   0.5752  0.4146  0.2811  11.00000  0.05    0.35 
Q4    1   0.4172  1.0885  0.7124  11.00000  0.05    0.32 
Q5    1   0.2510  0.9979  0.5766  11.00000  0.05    0.25 
; 
_shelx_res_checksum   37668 
 
_shelx_hkl_file
;
   1   0   0 819.609 38.1466   1
   1   0   0 798.795 38.0986   1
   1   0   0 746.262 37.4883   2
   1   0   0 715.763 37.4274   2
   1   0   0 776.451 37.6601   3
   1   0   0 800.721 37.7761   3
   1   0   0 767.786 37.9619   4
   1   0   0 737.023 37.5881   5
   1   0   0 696.247 37.2724   6
   1   0   0 760.118 37.4888   7
  -1   0   0 822.538 38.0130   1
  -1   0   0 834.913 38.3804   1
   2   0   0 4246.61 204.957   1
   2   0   0 4178.34 204.178   3
  -2   0   0 4274.27 205.127   1
   3   0   0 81.2631 4.20468   5
  -3   0   0 85.9391 4.79834   1
   3   0   0 85.5156 4.48967   4
   3   0   0 75.8121 4.14888   3
   3   0   0 81.5554 4.13458   3
   3   0   0 80.0396 4.76324   1
   3   0   0 73.3745 4.52319   1
   3   0   0 85.1363 4.07056   2
   3   0   0 71.6157 4.01780   2
   4   0   0 164.690 8.50887   9
   4   0   0 174.039 8.67527  12
   4   0   0 183.611 8.69717  18
   4   0   0 183.086 8.65362   2
   4   0   0 183.005 8.71812   3
   4   0   0 180.091 8.99389   5
   4   0   0 183.594 8.69398  17
   4   0   0 174.329 8.57065  10
   4   0   0 181.291 8.65379  11
   4   0   0 164.167 8.63029   2
   4   0   0 170.192 8.74540   3
   4   0   0 170.086 8.66319  13
   4   0   0 190.880 9.49608   4
   5   0   0 8.25778 0.94508  11
   5   0   0 7.54006 1.09541   5
   5   0   0 9.23059 0.82548  12
   5   0   0 8.70942 1.53008   4
   5   0   0 7.50818 0.88566  13
   5   0   0 9.93627 1.06650  18
   5   0   0 8.36804 0.61241  10
   6   0   0 608.123 28.1053  12
   6   0   0 581.365 28.0099  11
   6   0   0 572.516 27.9154  13
   6   0   0 548.672 27.7281  10
   7   0   0 202.223 9.85189  11
   0  -1   0 2.12150 0.17355   2
   0  -1   0 2.47785 0.29285   1
   0  -1   0 1.48742 0.20034   3
   0  -1   0 1.85107 0.20477   3
   0   1   0 2.06197 0.34309   1
   0   1   0 1.60155 0.20690   3
   0   1   0 2.42324 0.28680   1
   0   1   0 1.93815 0.18940   2
   2  -1   0 1747.35 82.5564   2
   2  -1   0 1677.28 82.9434   5
   2  -1   0 1807.91 82.9146   3
  -2  -1   0 1740.47 84.6004   1
  -2  -1   0 1739.32 83.7781   1
   2  -1   0 1624.16 82.4157   2
   2  -1   0 1676.55 82.8098   3
   2  -1   0 1739.72 83.2140   1
   2  -1   0 1509.61 82.4468   6
   2  -1   0 1791.18 83.3556   1
   2  -1   0 1767.79 83.7594   4
  -2   1   0 1796.46 83.3272   1
   2   1   0 1455.59 82.5045   2
   2   1   0 1730.86 83.1708   2
  -2   1   0 1832.27 83.6519   1
   2   1   0 1656.62 83.4757   3
   2   1   0 1780.84 83.9390   4
   2   1   0 1724.39 84.3334   1
   2   1   0 1678.56 83.3875   1
   2   1   0 1806.41 83.4660   3
   2   1   0 1614.53 83.0440   5
   3  -1   0 183.700 9.14652   2
   3  -1   0 190.512 9.21839   3
   3  -1   0 199.808 9.69505   4
   3  -1   0 183.702 9.23582   3
   3  -1   0 182.913 9.53696   1
   3  -1   0 187.398 9.54747   1
   3  -1   0 193.826 9.15718   2
   3  -1   0 190.857 9.36862   5
   3   1   0 179.001 9.92916   1
  -3   1   0 177.022 9.64978   1
   3   1   0 197.835 9.66485   4
   3   1   0 198.970 9.31508   2
   3   1   0 196.909 9.40847   3
   3   1   0 166.751 9.24425   2
   3   1   0 175.141 9.43414   3
   3   1   0 208.515 9.37990   5
   4  -1   0 130.070 6.62762  12
   4  -1   0 135.516 6.62579  11
   4  -1   0 145.218 7.44307   4
   4  -1   0 129.488 6.63741  13
   4  -1   0 127.707 6.51391  10
   4  -1   0 139.417 6.98324   5
   4  -1   0 132.825 6.65404  18
   4   1   0 142.310 6.76605   2
   4   1   0 130.231 6.61221  11
   4   1   0 132.051 6.55578  10
   4   1   0 143.905 7.46667   4
   4   1   0 126.170 6.62290  13
   4   1   0 127.386 6.50239   9
   4   1   0 136.744 6.98079   5
   4   1   0 131.484 6.63621  18
   4   1   0 137.051 6.65035  12
   4   1   0 140.739 6.85068   3
   5  -1   0 4.27794 0.65359  18
   5  -1   0 5.59380 0.82841  11
   5  -1   0 5.57970 0.86610   5
   5  -1   0 4.15115 0.44859  10
   5  -1   0 4.97527 0.76644  13
   5  -1   0 5.56647 1.40328   4
   5  -1   0 5.78469 0.69638  12
   5   1   0 4.68154 1.18232   4
   5   1   0 4.01720 0.59247  11
   5   1   0 5.07632 0.73433  18
   5   1   0 4.43398 0.69008  12
   5   1   0 4.58677 0.52980  10
   5   1   0 4.67056 0.61353  13
   5   1   0 4.62118 0.90105   5
   6  -1   0 24.6082 1.47042  11
   6  -1   0 23.7854 1.67796  12
   6  -1   0 24.0780 1.63236  13
   6   1   0 22.4465 1.53857  12
   6   1   0 22.5705 1.58580  11
   6   1   0 24.0375 1.24995  10
   6   1   0 22.3139 1.60704  13
   7  -1   0 0.35053 0.33845  13
   7  -1   0 1.23634 0.39170  12
   7  -1   0 1.38450 0.35138  11
   7   1   0 0.93500 0.33720  11
   7   1   0 0.36924 0.31578  13
   0  -2   0 2253.69 106.501   3
   0  -2   0 2103.61 106.080   6
   0   2   0 2254.64 106.285   2
   0   2   0 2207.50 106.527   3
   1  -2   0 686.131 31.5998   1
   1  -2   0 635.777 31.0381   2
   1  -2   0 619.827 31.1936   3
   1  -2   0 598.303 31.0494   7
  -1  -2   0 664.847 32.0681   1
  -1  -2   0 672.449 31.3883   1
  -1  -2   0 577.847 31.0807   2
   1  -2   0 662.935 31.2289   3
   1  -2   0 602.055 31.3007   6
  -1  -2   0 632.364 30.9115   3
   1  -2   0 599.189 31.0401   2
   1  -2   0 624.394 31.3973   5
   1  -2   0 611.546 31.6007   4
   1  -2   0 677.911 31.5321   1
   1   2   0 639.478 31.6954   4
   1   2   0 637.129 31.6283   3
   1   2   0 685.391 32.2530   1
   1   2   0 615.956 30.9130   3
  -1   2   0 697.084 31.6729   1
  -1   2   0 657.659 31.4210   1
   1   2   0 674.038 31.4306   1
   1   2   0 623.292 31.1567   2
   2  -2   0 143.931 7.14579   7
   2  -2   0 144.891 7.04216   2
   2  -2   0 150.737 7.38110   4
  -2  -2   0 148.848 7.91798   1
   2  -2   0 153.325 7.08786   3
   2  -2   0 135.396 7.14367   6
   2  -2   0 147.254 7.21476   5
  -2  -2   0 147.490 8.03404   1
   2  -2   0 151.824 7.08347   3
   2  -2   0 149.127 7.26153   1
   2  -2   0 135.768 7.25175   1
   2  -2   0 139.229 7.03808   2
   2   2   0 150.349 7.32087   3
   2   2   0 150.542 7.40030   4
   2   2   0 144.802 7.97103   1
   2   2   0 129.261 7.19188   2
   2   2   0 134.867 7.33846   3
   2   2   0 147.795 7.81478   1
   2   2   0 151.398 7.24717   2
  -2   2   0 154.034 7.36415   1
  -2   2   0 146.417 7.33807   1
   3  -2   0 477.126 23.8348   1
   3  -2   0 507.355 23.8609   2
   3  -2   0 429.907 23.8593   6
   3  -2   0 503.366 23.8476   3
   3  -2   0 510.143 24.0250   5
   3  -2   0 467.499 23.8243   1
   3  -2   0 541.971 24.3404   4
   3  -2   0 481.945 23.8208   2
   3  -2   0 484.740 23.8749   3
   3   2   0 507.848 24.1303   3
   3   2   0 520.936 24.3314   4
   3   2   0 509.325 24.0154   2
   3   2   0 501.385 24.0008   5
  -3   2   0 478.710 23.8614   1
   4  -2   0 20.2677 1.53116   5
   4  -2   0 18.2937 1.07238  10
   4  -2   0 20.8136 1.30099  12
   4  -2   0 19.5502 1.27523  13
   4  -2   0 20.4994 1.20257  11
   4  -2   0 20.4969 1.33042  18
   4   2   0 20.3402 1.18639  10
   4   2   0 20.6802 1.64173   5
   4   2   0 21.5571 1.26035  11
   4   2   0 22.8911 1.96631   4
   4   2   0 21.8578 1.34665  18
   4   2   0 21.7178 1.53215   2
   4   2   0 21.6266 1.56845   3
   4   2   0 20.7117 1.23961  12
   4   2   0 19.1958 1.20521  13
   4   2   0 18.4609 1.13374   9
   5  -2   0 13.4187 0.98927  12
   5  -2   0 14.5866 1.09161  11
   5  -2   0 10.5360 1.24509   5
   5  -2   0 11.3786 0.72003  10
   5  -2   0 13.7025 1.05042  18
   5  -2   0 12.2193 1.10031  13
   5  -2   0 12.5097 1.70848   4
   5   2   0 11.9944 0.98960  12
   5   2   0 13.3943 1.24188  18
   5   2   0 13.5842 1.83232   4
   5   2   0 12.2422 1.06913  13
   5   2   0 12.1896 1.08742  11
   5   2   0 12.5333 0.88046  10
   6  -2   0 24.6970 1.61081  13
   6  -2   0 27.7565 1.59119  11
   6  -2   0 26.5812 1.64544  12
   6   2   0 25.5918 1.58123  11
   6   2   0 25.9238 1.43525  10
   6   2   0 25.4317 1.83383  12
   6   2   0 23.9034 1.70660  13
   7  -2   0 63.3227 3.10052  11
   7  -2   0 61.4684 3.11894  13
   7  -2   0 65.2927 3.20716  12
   7   2   0 56.7479 3.08241  13
   7   2   0 56.0663 3.05767  11
   0  -3   0 2.11090 0.46140   3
   0  -3   0 2.40635 0.41506   3
   0  -3   0 2.85525 0.43287   2
   0  -3   0 3.34779 0.84763   1
   0  -3   0 3.15704 0.40957   6
   0  -3   0 3.68853 0.75459   1
   0   3   0 2.67190 0.41554   2
   0   3   0 4.16812 0.82508   1
   0   3   0 2.65074 0.77860   1
   0   3   0 2.26344 0.45117   3
   1  -3   0 52.0793 2.76959   3
  -1  -3   0 54.6600 3.60449   1
   1  -3   0 51.7528 2.80812   6
   1  -3   0 53.4060 2.70994   2
  -1  -3   0 48.6841 2.70617   6
   1  -3   0 58.7764 2.78857   3
  -1  -3   0 51.1031 2.83559   2
  -1  -3   0 53.0763 3.01917   3
   1  -3   0 55.4721 2.74279   2
   1  -3   0 53.7548 2.79193   5
   1  -3   0 57.9263 3.00357   1
   1  -3   0 48.9373 2.69207   7
   1  -3   0 60.0221 3.11563   1
  -1  -3   0 57.4888 3.44945   1
   1   3   0 52.2973 2.88726   4
  -1   3   0 58.0377 3.14624   1
   1   3   0 55.3994 3.39103   1
   1   3   0 55.3405 2.96752   3
   1   3   0 57.1537 3.71657   1
  -1   3   0 58.5888 3.01727   1
   1   3   0 53.6843 2.91217   2
   2  -3   0 514.572 24.5560   4
   2  -3   0 481.879 24.3926   6
   2  -3   0 509.961 24.6022   3
   2  -3   0 517.225 24.4821   1
   2  -3   0 515.422 24.4237   5
   2  -3   0 501.172 24.4207   1
  -2  -3   0 512.324 25.5167   1
  -2  -3   0 457.950 24.6406   3
   2  -3   0 491.515 24.5422   3
   2  -3   0 470.729 24.3149   7
   2  -3   0 508.943 24.5195   2
  -2  -3   0 545.380 25.3943   1
   2  -3   0 488.831 24.4567   2
   2   3   0 504.290 24.5802   3
  -2   3   0 524.092 24.4639   1
   2   3   0 522.019 24.6280   4
  -2   3   0 521.544 24.5097   1
   3  -3   0 2949.98 161.204   6
   3  -3   0 3316.19 161.874   5
   3  -3   0 3302.85 163.090   4
   3   3   0 3611.96 163.743   3
   3   3   0 3377.27 161.902   5
   3   3   0 3419.33 162.370   2
   3   3   0 3394.79 164.057   4
   4  -3   0 429.904 20.2478   4
   4  -3   0 408.049 19.4674  11
   4  -3   0 385.884 19.4748  18
   4  -3   0 424.456 19.4977  12
   4  -3   0 404.494 19.4893  13
   4  -3   0 379.683 19.4818  14
   4  -3   0 392.766 19.8088   5
   4  -3   0 388.024 19.5145  10
   4   3   0 374.485 19.4690  13
   4   3   0 401.088 19.4451   9
   4   3   0 395.025 19.4538  11
   4   3   0 391.853 19.4819  12
   4   3   0 427.721 19.7926   2
   4   3   0 389.668 19.4281  10
   4   3   0 407.585 19.8074   5
   4   3   0 414.328 20.2761   4
   4   3   0 410.925 19.4895  18
   4   3   0 429.900 19.9644   3
   5  -3   0 259.843 13.8711   5
   5  -3   0 286.340 13.4603  11
   5  -3   0 276.494 13.4783  12
   5  -3   0 282.867 13.4986  13
   5  -3   0 247.248 13.4219  14
   5  -3   0 258.159 13.2529  10
   5  -3   0 289.462 13.5073  18
   5   3   0 292.519 13.5112  12
   5   3   0 278.127 13.4363  11
   5   3   0 283.707 13.2922   9
   5   3   0 256.379 13.6731   3
   5   3   0 290.745 13.5067  18
   5   3   0 277.618 13.5641   2
   5   3   0 284.008 13.3898  10
   5   3   0 280.899 13.4809  13
   5   3   0 270.993 14.4621   4
   6  -3   0 534.835 25.8599  12
   6  -3   0 517.349 25.8148  11
   6  -3   0 547.835 25.8858  13
   6   3   0 530.881 25.8061  11
   6   3   0 536.968 25.8550  13
   6   3   0 555.737 25.8901  12
   6   3   0 519.159 25.7070  10
   7  -3   0 10.9468 0.88699  12
   7  -3   0 9.34697 0.81814  13
   7   3   0 10.4464 0.74353  11
   7   3   0 11.8363 0.90099  12
   0  -4   0 3057.01 152.553   2
   0  -4   0 3205.94 155.052   1
   0  -4   0 3316.52 153.438   3
   0  -4   0 3173.37 153.922   1
   0   4   0 3287.57 154.408   1
   0   4   0 2929.81 152.507   2
   0   4   0 3360.20 154.728   1
   0   4   0 2966.66 153.078   3
  -1  -4   0 48.5907 3.23010   1
   1  -4   0 47.0338 2.88177   1
   1  -4   0 46.6478 2.30656   7
   1  -4   0 47.5128 2.45981   3
  -1  -4   0 41.0945 2.68721   3
  -1  -4   0 40.8652 2.34307   6
   1  -4   0 44.5649 2.46515   6
   1  -4   0 51.9381 2.78848   1
   1  -4   0 48.5767 2.36982   2
  -1  -4   0 43.1592 2.49291   2
   1  -4   0 42.4295 2.43037   3
  -1  -4   0 43.4351 3.39263   1
   1  -4   0 47.9823 2.42234   5
   1  -4   0 43.4093 2.40654   2
  -1   4   0 45.5296 2.74369   1
  -1   4   0 47.6534 2.94170   1
   1   4   0 46.7422 3.11443   1
   1   4   0 45.3646 2.66432   3
   1   4   0 50.4296 2.62568   2
   1   4   0 49.9293 2.55334   4
   2  -4   0 331.305 15.6641   3
   2  -4   0 335.523 15.7700   4
   2  -4   0 293.527 15.4430   2
   2  -4   0 331.702 15.6548   5
   2  -4   0 317.774 15.4775   3
   2  -4   0 310.972 15.7049   1
   2  -4   0 298.167 15.5010   7
   2  -4   0 329.131 15.6781   1
   2  -4   0 306.997 15.6428   6
  -2  -4   0 335.450 16.7678   1
   2  -4   0 320.252 15.6482   2
  -2  -4   0 311.695 16.9198   1
   2   4   0 331.165 15.8934   3
   2   4   0 338.449 15.8726   4
  -2   4   0 324.552 15.7132   1
  -2   4   0 334.323 15.7730   1
   2   4   0 307.681 16.5838   1
   3  -4   0 5.44163 0.74113   6
   3  -4   0 6.27791 0.91210   5
   3  -4   0 5.79296 0.98647   4
   3   4   0 8.26805 1.04350   2
   3   4   0 6.19478 0.99601   4
   3   4   0 6.92496 1.15381   3
   3   4   0 6.43361 0.92904   5
   4  -4   0 820.597 39.3039   5
   4  -4   0 761.091 38.9702  10
   4  -4   0 808.294 39.5791  12
   4  -4   0 759.984 38.9423  14
   4  -4   0 850.149 39.6792   4
   4  -4   0 826.047 39.3033  11
   4  -4   0 822.180 39.0447  13
   4  -4   0 795.016 38.9391  18
   4   4   0 869.209 39.8136   4
   4   4   0 774.559 38.9053  11
   4   4   0 827.532 39.2852   5
   4   4   0 837.425 39.3223   2
   4   4   0 862.920 39.5353   3
   4   4   0 779.975 38.9438  13
   4   4   0 803.692 39.3452  12
   4   4   0 845.207 39.0780  10
   4   4   0 786.195 39.2011   9
   4   4   0 724.554 38.8341   8
   4   4   0 835.996 38.9435  18
   5  -4   0 23.1361 1.51395  14
   5  -4   0 24.9438 1.60680  12
   5  -4   0 24.8529 1.50580  13
   5  -4   0 25.0977 1.57838  11
   5  -4   0 24.6538 1.52302  18
   5  -4   0 21.5902 1.83959   5
   5   4   0 23.6302 1.64506  18
   5   4   0 21.3767 1.89932   3
   5   4   0 25.7325 1.54185  11
   5   4   0 23.2814 1.44874  10
   5   4   0 24.4380 2.64571   4
   5   4   0 25.8609 1.52590  12
   5   4   0 22.9355 1.46332  13
   5   4   0 25.1814 1.35624   9
   5   4   0 24.5148 1.74935   2
   6  -4   0 9.15264 1.00427  13
   6  -4   0 10.4946 1.02365  12
   6  -4   0 12.6239 1.18823  11
   6   4   0 11.0216 0.90235  10
   6   4   0 9.57956 1.08720  11
   6   4   0 10.2606 1.05525  12
   6   4   0 8.30048 1.11817  13
   7  -4   0 4.78710 0.67688  12
   7  -4   0 4.87259 0.58426  13
   7   4   0 4.95584 0.66988  12
   0  -5   0 12.7626 1.21128   3
   0  -5   0 12.7317 1.85831   1
   0  -5   0 14.6086 0.97824   6
   0  -5   0 15.0433 1.01212   2
   0  -5   0 16.2772 1.58581   1
   0   5   0 11.0534 1.09656   2
   0   5   0 14.4213 1.64590   1
   0   5   0 11.9783 1.17238   3
   0   5   0 13.5725 1.86370   1
   1  -5   0 25.5121 2.03760   1
   1  -5   0 22.3796 1.33300   7
   1  -5   0 26.5313 1.86901   1
  -1  -5   0 23.7064 2.44050   1
   1  -5   0 23.9804 1.50062   3
  -1  -5   0 24.8114 1.59681   2
  -1  -5   0 25.8492 1.76944   3
   1  -5   0 27.8166 1.52378   5
   1  -5   0 25.4899 1.57293   6
   1  -5   0 27.6230 1.56903   3
  -1  -5   0 23.0505 1.41407   6
   1  -5   0 26.7024 1.43798   2
   1  -5   0 22.7970 1.49224   2
  -1  -5   0 26.4122 2.38193   1
   1   5   0 26.2926 1.61539   4
  -1   5   0 25.8508 2.08668   1
   1   5   0 27.5277 1.75872   2
   1   5   0 25.6762 1.73969   3
   1   5   0 25.5902 2.24438   1
   1   5   0 27.2073 2.79157   1
  -1   5   0 24.4716 1.93950   1
   2  -5   0 216.197 10.7212   3
   2  -5   0 218.983 11.0726   1
   2  -5   0 227.488 10.8904   5
   2  -5   0 199.244 10.6915   7
  -2  -5   0 226.536 12.1571   1
   2  -5   0 218.433 10.9801   1
   2  -5   0 228.100 10.7517   3
   2  -5   0 218.130 10.9136   6
   2  -5   0 210.338 10.6845   2
  -2  -5   0 211.655 12.3922   1
   2  -5   0 224.571 10.6786   2
  -2   5   0 225.584 11.1219   1
  -2   5   0 226.940 11.0621   1
   2   5   0 229.912 12.4540   1
   2   5   0 231.088 11.0576   2
   2   5   0 223.929 11.0903   4
   2   5   0 210.964 12.0059   1
   2   5   0 225.543 11.2041   3
   3  -5   0 33.5167 2.20365   6
   3  -5   0 39.0346 2.32855   5
   3   5   0 34.6257 2.60720   3
   3   5   0 37.9899 2.46335   2
   3   5   0 37.9350 2.62795   4
   4  -5   0 6.92947 1.03515   5
   4  -5   0 6.61892 0.38837  10
   4  -5   0 7.10307 0.75539  11
   4  -5   0 5.18855 0.78744  18
   4  -5   0 5.64625 0.73824  14
   4  -5   0 6.76799 0.64951  13
   4  -5   0 6.51907 0.65866  12
   4   5   0 8.89789 1.48816   4
   4   5   0 6.33306 0.85256  12
   4   5   0 6.07727 0.72909  11
   4   5   0 6.85863 0.82533  18
   4   5   0 6.91597 0.77802  10
   4   5   0 7.34091 1.30472   3
   4   5   0 6.94868 0.74249   9
   4   5   0 5.63913 0.53231   8
   4   5   0 7.97199 1.24516   2
   4   5   0 8.14405 1.13652   5
   5  -5   0 0.50915 0.45714  11
   5  -5   0 1.04869 0.37717  13
   5  -5   0 0.49399 0.49578  18
   5  -5   0 0.59355 0.71852   5
   5  -5   0 0.72415 0.48357  12
   5   5   0 -0.0942 0.42406  13
   5   5   0 0.07523 0.63903   2
   5   5   0 1.17281 0.90612   4
   5   5   0 0.51891 0.42104  11
   5   5   0 1.75120 0.42846  10
   5   5   0 0.17826 0.34540   9
   6  -5   0 622.170 29.3920  13
   6  -5   0 643.694 29.3811  12
   6  -5   0 523.869 29.3116  14
   6  -5   0 643.918 29.6070  11
   6   5   0 643.791 29.5376  10
   6   5   0 574.828 29.2838  11
   6   5   0 577.875 29.3388  13
   6   5   0 638.492 29.3955  12
   7  -5   0 11.1358 0.89092  13
   7  -5   0 14.9031 0.95456  12
   0  -6   0 963.966 45.2711   1
   0  -6   0 902.439 45.6071   1
   0  -6   0 901.569 45.4569   6
   0  -6   0 945.119 45.9777   2
   0  -6   0 986.697 46.3034   3
   0   6   0 929.133 45.3209   1
   0   6   0 813.340 44.4789   2
   0   6   0 878.651 44.5862   3
   0   6   0 988.410 45.6389   1
   1  -6   0 9.96766 0.65913   7
   1  -6   0 10.4385 1.05787   3
   1  -6   0 12.8335 0.91376   5
   1  -6   0 10.8751 1.35890   1
  -1  -6   0 9.59790 1.09678   3
   1  -6   0 11.0260 1.58664   1
  -1  -6   0 9.07025 1.97491   1
  -1  -6   0 9.66128 0.97211   2
  -1  -6   0 12.0416 1.78805   1
  -1  -6   0 9.66783 0.78408   6
   1  -6   0 8.81968 0.91052   3
   1  -6   0 9.83408 0.85291   6
   1  -6   0 10.8919 0.83950   2
   1  -6   0 9.14274 0.88490   2
   1   6   0 9.33122 1.07643   3
   1   6   0 10.0192 1.17169   2
  -1   6   0 10.7797 1.75624   1
   1   6   0 11.3057 2.21293   1
  -1   6   0 9.96928 1.40529   1
   1   6   0 10.3092 1.76266   1
   2  -6   0 357.290 16.5191   5
   2  -6   0 324.969 16.8140   1
   2  -6   0 344.676 16.2972   2
   2  -6   0 341.347 16.5593   6
  -2  -6   0 308.802 18.2220   1
   2  -6   0 354.152 16.3909   3
   2  -6   0 323.992 16.7048   1
   2  -6   0 320.690 16.3566   3
   2  -6   0 319.303 16.3213   2
   2   6   0 313.795 17.8220   1
   2   6   0 345.125 18.3364   1
   2   6   0 350.836 16.9038   3
   2   6   0 357.283 16.7242   4
  -2   6   0 331.797 16.9017   1
   2   6   0 364.448 16.7305   2
   3  -6   0 655.156 33.3776   6
   3  -6   0 688.154 33.4004   5
   3   6   0 700.165 33.8209   3
   3   6   0 704.439 33.5787   2
   3   6   0 692.474 33.6768   4
   4  -6   0 128.939 6.68141  10
   4  -6   0 142.116 6.93200  14
   4  -6   0 126.708 6.84802  18
   4  -6   0 144.332 6.88172  11
   4  -6   0 145.174 6.91626  12
   4  -6   0 118.925 6.84222  15
   4  -6   0 141.309 6.92173  13
   4  -6   0 137.875 7.29298   5
   4   6   0 145.373 7.80542   4
   4   6   0 144.525 6.87408   9
   4   6   0 147.828 7.70607   3
   4   6   0 144.011 6.93947  12
   4   6   0 132.770 6.87042  18
   4   6   0 143.892 7.47720   2
   4   6   0 140.721 6.75868   8
   4   6   0 138.874 7.28176   5
   4   6   0 143.319 6.89771  10
   5  -6   0 146.759 8.54372   5
   5  -6   0 169.413 8.09651  12
   5  -6   0 167.963 8.06415  11
   5  -6   0 166.451 8.11718  13
   5  -6   0 165.297 8.12752  14
   5   6   0 169.259 8.06643  10
   5   6   0 148.696 9.00272   4
   5   6   0 159.011 8.07116  13
   5   6   0 157.745 8.02792  11
   5   6   0 165.595 7.98106   9
   5   6   0 174.136 8.14899  12
   6  -6   0 49.9065 2.65254  13
   6  -6   0 43.2263 2.55762  14
   6  -6   0 47.9011 2.53416  12
   6   6   0 39.0948 2.50349  13
   6   6   0 46.5472 2.54595  12
   6   6   0 46.4621 2.46653  10
   7  -6   0 1.52009 0.33976  12
   7  -6   0 1.26187 0.36502  13
   7   6   0 1.22452 0.32964  12
   0  -7   0 1.10858 0.65105   3
   0  -7   0 0.66458 0.42456   2
   0  -7   0 0.29656 0.40503   6
   0  -7   0 0.34443 0.94022   1
   0  -7   0 0.65358 0.82193   1
   0   7   0 1.11912 0.93403   1
   0   7   0 0.77317 0.54272   2
   0   7   0 0.51112 0.54349   3
   0   7   0 0.53440 1.11893   1
  -1  -7   0 189.345 10.5952   1
   1  -7   0 196.435 9.42271   3
   1  -7   0 195.436 9.25143   5
   1  -7   0 160.608 9.05134   7
   1  -7   0 189.155 9.33276   6
  -1  -7   0 190.210 9.38336   2
  -1  -7   0 194.978 9.23876   6
   1  -7   0 179.102 10.2193   1
   1  -7   0 190.204 9.21863   2
  -1  -7   0 180.962 10.9599   1
   1  -7   0 160.496 9.26061   2
   1  -7   0 174.735 9.32917   3
  -1  -7   0 201.556 9.69142   3
   1  -7   0 191.216 10.0010   1
  -1   7   0 194.321 10.0622   1
   1   7   0 179.826 9.62386   3
   1   7   0 186.929 11.0093   1
   1   7   0 192.921 9.33787   4
   1   7   0 185.470 9.48289   2
  -1   7   0 204.379 10.4462   1
   1   7   0 179.904 10.5682   1
   2  -7   0 127.672 6.69865   2
   2  -7   0 129.316 6.75819   3
   2  -7   0 134.089 6.94598   6
  -2  -7   0 113.319 8.54863   1
   2  -7   0 136.741 6.86027   5
   2  -7   0 145.238 6.79170   3
   2  -7   0 143.750 6.67425   2
   2  -7   0 130.353 7.34633   1
   2   7   0 130.343 8.78336   1
   2   7   0 141.135 7.09274   4
   2   7   0 141.075 7.32688   3
   2   7   0 142.175 7.14499   2
   3  -7   0 2142.14 117.166  12
   3  -7   0 2480.68 118.772   5
   3  -7   0 2400.34 117.127  13
   3  -7   0 2345.38 117.315  14
   3  -7   0 2394.18 117.534   6
   3   7   0 2614.72 118.628   3
   3   7   0 2487.21 118.606   4
   3   7   0 2538.98 117.359   2
   4  -7   0 57.8248 3.10105  10
   4  -7   0 63.7977 3.32411  12
   4  -7   0 68.5824 3.40480  14
   4  -7   0 65.0433 3.30023  11
   4  -7   0 66.2670 3.84615   5
   4  -7   0 58.5357 3.33274  15
   4  -7   0 68.6654 3.40200  13
   4  -7   0 58.1160 3.31008  18
   4   7   0 63.8920 4.23886   4
   4   7   0 67.9722 3.36159   9
   4   7   0 62.9783 3.74875   5
   4   7   0 65.9575 3.21749   8
   4   7   0 63.7707 3.35492  12
   4   7   0 66.5952 4.03303   2
   4   7   0 64.7676 4.21773   3
   4   7   0 66.1525 3.37897  10
   5  -7   0 54.4066 2.97604  13
   5  -7   0 54.2474 2.96185  14
   5  -7   0 53.8405 2.83852  11
   5  -7   0 46.1512 3.35693   5
   5  -7   0 55.1309 2.94372  12
   5   7   0 53.3811 2.89611  13
   5   7   0 55.1803 2.91130  12
   5   7   0 56.8699 2.92125  10
   5   7   0 49.2496 3.76786   4
   5   7   0 53.9205 2.82732   9
   6  -7   0 20.1689 1.34951  12
   6  -7   0 22.0627 1.51246  13
   6  -7   0 18.2147 1.27946  14
   6   7   0 20.9768 1.54880  12
   6   7   0 19.7175 1.31704  10
   7  -7   0 0.33954 0.30338  13
   7  -7   0 0.42872 0.27890  12
   7   7   0 -0.1575 0.24451  12
   0  -8   0 7289.44 322.518   3
   0  -8   0 6842.49 323.414   1
   0  -8   0 6063.78 323.637   1
   0   8   0 6315.35 322.736   1
   1  -8   0 899.184 50.3953   7
  -1  -8   0 1104.12 52.0128   6
  -1  -8   0 1066.39 52.2792   1
   1  -8   0 1044.54 51.1710   3
  -1  -8   0 1107.02 51.1117   3
   1  -8   0 1128.35 52.2083   6
   1  -8   0 1105.20 52.4509   2
  -1  -8   0 976.726 52.6577   1
  -1  -8   0 1079.64 50.7749   2
   1   8   0 1021.56 52.2545   1
   1   8   0 1043.13 52.6878   1
   1   8   0 1019.92 51.0416   3
   1   8   0 1039.53 50.8713   2
   1   8   0 1079.75 50.6981   4
   2  -8   0 1312.51 64.6106   5
   2  -8   0 1389.89 65.1741   3
   2  -8   0 1312.46 64.7825   2
   2  -8   0 1237.91 64.0315   2
   2  -8   0 1355.73 66.0224   6
   2   8   0 1387.77 64.6956   3
   2   8   0 1322.99 64.3912   2
   2   8   0 1334.55 64.3101   4
   3  -8   0 581.703 28.2458   6
   3  -8   0 569.789 27.8113  13
   3  -8   0 536.588 27.7533  11
   3  -8   0 604.023 28.2014   5
   3  -8   0 586.654 27.9504  14
   3  -8   0 568.903 27.9170  10
   3  -8   0 547.217 27.8079  15
   3  -8   0 578.214 27.8036  12
   3   8   0 614.507 28.4939   2
   3   8   0 541.524 27.7499   8
   3   8   0 586.103 28.4484   4
   3   8   0 613.984 28.7934   3
   4  -8   0 174.973 8.35762  13
   4  -8   0 174.294 8.35289  12
   4  -8   0 154.302 8.10111  10
   4  -8   0 175.167 8.30648  11
   4  -8   0 164.929 8.33215  15
   4  -8   0 171.767 8.36766  14
   4  -8   0 167.410 8.80912   5
   4   8   0 161.446 9.01008   2
   4   8   0 163.649 9.16515   4
   4   8   0 171.102 8.33513   9
   4   8   0 170.839 9.32386   3
   4   8   0 174.317 8.37440  12
   4   8   0 170.196 8.22093   8
   4   8   0 168.736 8.35823  10
   5  -8   0 4.53164 0.78336  15
   5  -8   0 4.80911 0.65323  11
   5  -8   0 6.89368 0.97040  13
   5  -8   0 5.93026 0.91318  14
   5  -8   0 5.43172 0.70630  12
   5   8   0 4.49973 0.75559  12
   5   8   0 3.47296 0.57096  13
   5   8   0 5.42446 0.84897   9
   5   8   0 4.26553 0.64676  10
   6  -8   0 460.155 22.6288  12
   6  -8   0 486.787 22.6662  13
   6  -8   0 451.713 22.6441  14
   6   8   0 474.217 22.5808  10
   6   8   0 467.608 22.6373  12
   7  -8   0 46.5372 2.39646  13
   0  -9   0 0.21778 0.97339   1
   0  -9   0 -0.1160 0.33094   6
   0  -9   0 0.16411 0.50116   2
   0  -9   0 0.35685 0.73620   3
  -1  -9   0 354.881 17.8875   3
  -1  -9   0 359.186 17.3947   6
  -1  -9   0 349.834 19.2000   1
   1  -9   0 366.074 17.6044   3
   1  -9   0 370.451 17.3739   2
   1  -9   0 352.478 17.4897   6
  -1  -9   0 373.136 17.5724   2
   1   9   0 353.059 17.4235   4
   1   9   0 306.126 18.9614   1
   2  -9   0 498.834 24.4364   3
   2  -9   0 523.644 24.6298   6
   2  -9   0 497.038 24.4688   5
   2  -9   0 513.213 24.2759   2
   2   9   0 489.137 24.6243   4
   2   9   0 515.319 25.0938   3
   2   9   0 471.524 24.7498   2
   3  -9   0 7.15096 0.93640  16
   3  -9   0 9.83476 0.88522  14
   3  -9   0 9.38144 0.74294  12
   3  -9   0 8.50997 1.33062   6
   3  -9   0 8.42781 1.06880   5
   3  -9   0 9.97101 0.90163  15
   3  -9   0 8.79500 0.60211  10
   3   9   0 7.90965 0.89270   8
   3   9   0 8.98355 1.58427   3
   3   9   0 10.1519 1.66280   2
   3   9   0 9.15261 1.04374   9
   3   9   0 10.8030 1.53465   4
   4  -9   0 226.117 10.6568  13
   4  -9   0 194.215 10.3608  10
   4  -9   0 230.129 10.6311  12
   4  -9   0 226.923 10.6572  14
   4  -9   0 206.339 11.0441   5
   4  -9   0 221.724 10.6276  15
   4   9   0 226.780 10.6471  12
   4   9   0 208.639 10.6129  10
   4   9   0 203.001 11.3515   2
   4   9   0 228.576 10.6298   9
   4   9   0 213.946 11.6893   3
   4   9   0 218.824 10.5015   8
   4   9   0 202.245 11.3554   4
   5  -9   0 30.1488 1.80398  12
   5  -9   0 31.0825 1.93520  13
   5  -9   0 28.5627 1.76215  15
   5  -9   0 32.3036 1.93858  14
   5   9   0 29.8045 1.83427   9
   5   9   0 31.1138 1.93040  10
   5   9   0 32.1787 1.95239  12
   6  -9   0 18.1851 1.35116  13
   6  -9   0 18.8169 1.32554  14
   6  -9   0 17.9205 1.20713  12
   6   9   0 19.0901 1.27233  10
   6   9   0 17.6510 1.24343  12
   0 -10   0 64.9108 3.69158   2
   0 -10   0 65.9344 4.12031   3
   0 -10   0 63.5436 3.68690   6
   1 -10   0 345.459 17.2499   3
  -1 -10   0 341.333 17.5972   3
   1 -10   0 357.431 16.9888   2
  -1 -10   0 347.040 17.0227   6
   1 -10   0 346.566 17.1284   6
  -1 -10   0 332.048 17.1648   2
   2 -10   0 88.7744 4.59330   2
   2 -10   0 91.0760 4.81577   3
   2 -10   0 89.6273 4.44906  13
   2 -10   0 86.0997 4.46402  15
   2 -10   0 90.5442 4.35694  10
   2 -10   0 91.8173 4.98055   6
   2 -10   0 88.5011 4.45125  14
   2 -10   0 81.6202 4.32013   9
   3 -10   0 54.1935 3.34951   6
   3 -10   0 54.3055 2.87752  15
   3 -10   0 55.5067 2.80453  12
   3 -10   0 57.6295 2.83478  13
   3 -10   0 54.4981 2.83450  14
   3 -10   0 54.5822 3.33649   5
   3 -10   0 55.0953 2.66457  10
   3 -10   0 45.9655 2.89232  16
   3  10   0 54.4001 3.83844   3
   3  10   0 52.8706 2.83229   8
   3  10   0 49.5968 3.66276   2
   3  10   0 47.9975 2.95197   9
   4 -10   0 32.2244 2.46412   5
   4 -10   0 37.0287 2.17232  14
   4 -10   0 37.9183 2.06478  12
   4 -10   0 37.8393 2.17002  13
   4 -10   0 36.9821 2.09151  15
   4  10   0 37.1970 2.00857   8
   4  10   0 35.7652 2.19742  10
   4  10   0 32.2877 2.91712   2
   4  10   0 37.5882 2.19172   9
   5 -10   0 15.4810 1.12119  13
   5 -10   0 14.2552 1.20772  12
   5 -10   0 12.8446 1.03317  15
   5 -10   0 16.1070 1.12926  14
   5  10   0 14.7439 1.24998  12
   5  10   0 13.2604 1.29278  10
   5  10   0 12.8792 1.21427   9
   6 -10   0 3.41679 0.57252  14
   6 -10   0 2.70589 0.48791  13
   6  10   0 2.68410 0.51148  10
   6  10   0 3.08808 0.45923  12
   0 -11   0 1.11805 0.68087   2
   0 -11   0 0.68612 0.50108   6
   0 -11   0 0.00116 0.84689   3
  -1 -11   0 1228.85 61.1381   2
   1 -11   0 1311.80 61.2668   3
   1 -11   0 1231.51 61.1634   9
   1 -11   0 1185.26 60.7663   8
   1 -11   0 1292.57 62.4071   2
   1 -11   0 1288.68 61.3158  13
   1 -11   0 1209.52 61.4412  15
  -1 -11   0 1332.28 61.7283   3
   1 -11   0 1193.74 61.1478  10
   1 -11   0 1306.32 61.1146   6
  -1 -11   0 1308.20 60.9827   6
   2 -11   0 46.7354 2.53567  14
   2 -11   0 46.6184 2.90219   3
   2 -11   0 48.7468 2.58973  13
   2 -11   0 50.1593 3.15403   6
   2 -11   0 46.2460 2.54136  15
   2 -11   0 52.4791 2.77872   2
   2 -11   0 48.5455 2.45058  10
   2 -11   0 47.5421 2.41073   9
   2 -11   0 44.1994 2.60545  16
   3 -11   0 1750.34 87.9250   6
   3 -11   0 1636.50 88.0693  16
   3 -11   0 1943.50 88.6842  15
   3 -11   0 1833.93 88.7620  14
   3 -11   0 1884.55 88.5159  13
   3 -11   0 1860.89 87.7121  10
   3  11   0 1834.55 87.8629   8
   4 -11   0 3.08041 0.63558  15
   4 -11   0 3.15301 0.50922  14
   4 -11   0 4.54784 0.69283  13
   4 -11   0 3.44026 0.58526  12
   4  11   0 3.58756 0.50698   8
   4  11   0 3.79932 0.55964   9
   5 -11   0 76.7421 4.10101  15
   5 -11   0 81.3969 4.13662  13
   5 -11   0 80.1548 4.15255  14
   5  11   0 78.6174 4.11525  12
   5  11   0 82.6512 4.11625   9
   5  11   0 79.5732 4.12136  10
   6 -11   0 187.766 8.86775  13
   6 -11   0 179.205 8.87192  14
   6  11   0 182.021 8.84524  12
   6  11   0 174.555 8.81741  10
   0 -12   0 2210.89 116.176  10
   0 -12   0 2568.20 117.577   6
   0 -12   0 2174.53 116.275  15
   0 -12   0 2495.26 116.471   3
   0 -12   0 2499.79 116.107   8
   0 -12   0 2356.25 116.331   9
   0 -12   0 2563.11 118.374   2
   1 -12   0 6.14218 1.08639   6
   1 -12   0 4.50642 1.09489   3
  -1 -12   0 3.42137 1.08499   3
   1 -12   0 4.87509 0.58472   9
   1 -12   0 4.88650 0.86544   2
   1 -12   0 4.51423 0.49390  14
  -1 -12   0 5.02023 0.86094   6
  -1 -12   0 3.57082 0.58716   8
   1 -12   0 4.54434 0.66758  15
  -1 -12   0 3.76343 0.96990   2
   1 -12   0 5.55385 0.62463  10
   2 -12   0 1342.68 66.1698   9
   2 -12   0 1377.09 66.0201   2
   2 -12   0 1394.55 66.6632  13
   2 -12   0 1331.52 66.7057  16
   2 -12   0 1422.65 66.4639   6
   2 -12   0 1379.52 66.3391  10
   2 -12   0 1337.43 66.2130   3
   2 -12   0 1379.34 67.1915  15
   2 -12   0 1374.95 66.9340  14
   3 -12   0 132.444 6.38553  15
   3 -12   0 132.453 6.36818  13
   3 -12   0 122.537 7.04466   6
   3 -12   0 113.038 6.42712  16
   3 -12   0 132.062 6.40540  14
   3 -12   0 129.359 6.19137  10
   3  12   0 124.026 6.34712   8
   4 -12   0 244.146 11.8537  15
   4 -12   0 243.258 11.8529  14
   4 -12   0 237.537 11.8479  13
   4  12   0 236.097 11.8462   9
   4  12   0 243.784 11.7230   8
   5 -12   0 143.701 6.87485  15
   5 -12   0 136.671 6.86923  14
   5 -12   0 139.947 6.87750  13
   5  12   0 129.243 6.85868  10
   5  12   0 140.325 6.86714  12
   5  12   0 133.836 6.80837   9
   6 -12   0 0.79492 0.36531  13
   6 -12   0 1.77322 0.37555  14
   6  12   0 2.08027 0.34350  10
   6  12   0 1.24572 0.44138  12
   0 -13   0 3.48740 0.49340  15
   0 -13   0 3.37024 0.80319   6
   0 -13   0 3.54100 0.55297   8
   0 -13   0 2.68450 0.97232   3
   0 -13   0 2.90748 0.40711   9
   0 -13   0 2.97179 0.49445  10
   0 -13   0 2.98321 0.96312   2
   1 -13   0 29.2489 2.66102   3
   1 -13   0 32.7699 1.70697   8
  -1 -13   0 34.5574 2.64855   2
   1 -13   0 33.7872 1.88054  15
   1 -13   0 35.9884 1.84057   9
  -1 -13   0 29.7407 3.07420   3
  -1 -13   0 32.7036 2.33273   6
   1 -13   0 32.7794 2.40963   6
   1 -13   0 35.1950 1.87253  10
  -1 -13   0 33.8033 1.83880   8
   2 -13   0 63.5017 3.67060   2
   2 -13   0 66.9991 3.31014   9
   2 -13   0 70.8797 3.53318  15
   2 -13   0 67.1851 3.47739  13
   2 -13   0 72.0986 3.40336  10
   2 -13   0 66.6106 4.17352   6
  -2 -13   0 59.5080 3.41064   8
   2 -13   0 61.0015 3.86092   3
   2 -13   0 66.9678 3.46088  14
   2 -13   0 66.7986 3.58088  16
   3 -13   0 150.107 7.31305  13
   3 -13   0 149.384 7.12070  10
   3 -13   0 140.276 7.99507   6
   3 -13   0 131.413 7.32171  16
   3 -13   0 149.328 7.31906  14
   3 -13   0 149.111 7.30670  15
   3  13   0 149.998 7.26718   8
   4 -13   0 129.391 6.35943  15
   4 -13   0 125.499 6.37216  14
   4 -13   0 124.263 6.31780  13
   4  13   0 124.633 6.38210   9
   4  13   0 125.305 6.23144   8
   5 -13   0 32.4734 1.83366  13
   5 -13   0 33.5496 1.93420  14
   5 -13   0 31.2526 1.82515  15
   5  13   0 33.4085 1.88928   9
   5  13   0 31.0002 1.80632  12
   5  13   0 28.4105 1.90587  10
   6 -13   0 8.30921 0.65132  14
   0 -14   0 19.3748 1.19705  10
   0 -14   0 17.6644 1.91249   2
   0 -14   0 18.5122 1.85791   6
   0 -14   0 19.1619 1.11030   8
   0 -14   0 17.4858 1.23428  15
   0 -14   0 13.2864 2.18597   3
   0 -14   0 18.3833 1.25249   9
   1 -14   0 15.9861 1.02771   9
   1 -14   0 13.4710 1.76228   6
   1 -14   0 12.9748 1.12559  15
  -1 -14   0 12.9834 0.99848   8
  -1 -14   0 11.6085 1.15070   9
   1 -14   0 14.4127 1.60167   2
   1 -14   0 13.1557 1.03773  10
   1 -14   0 10.4668 1.84031   3
   1 -14   0 14.2015 1.37605  16
   1 -14   0 13.1127 0.73969   8
   2 -14   0 20.8181 2.25866   6
   2 -14   0 21.8529 1.51283  14
   2 -14   0 23.1571 1.69545   2
   2 -14   0 24.1988 1.59458  15
  -2 -14   0 23.2582 1.38894   8
   2 -14   0 23.9416 1.62672  16
   2 -14   0 23.6808 1.31918   9
   2 -14   0 23.1914 1.40835  10
   3 -14   0 160.569 8.59644  16
   3 -14   0 168.243 8.52806  14
   3 -14   0 173.443 8.53363  15
   3 -14   0 175.751 8.51272  13
   3 -14   0 181.126 8.34635  10
   3  14   0 169.172 8.48938   8
   4 -14   0 69.2324 3.66704  14
   4 -14   0 66.3438 3.59755  13
   4 -14   0 70.6361 3.64151  15
   4  14   0 65.1443 3.62144   9
   4  14   0 73.1478 3.54910   8
   4  14   0 68.3427 3.58740  12
   5 -14   0 3.41079 0.59082  14
   5 -14   0 3.55149 0.60151  15
   5  14   0 2.77774 0.52723  12
   5  14   0 3.36209 0.54463   9
   0 -15   0 2.33805 0.49462   9
   0 -15   0 3.23528 0.52972   8
   0 -15   0 2.08558 0.49389  10
   0 -15   0 1.40929 0.88102   2
   0 -15   0 1.78738 0.83213   6
   1 -15   0 175.428 8.51562  15
   1 -15   0 179.518 8.68790  16
   1 -15   0 170.794 8.43017   9
  -1 -15   0 163.591 8.51252   9
   1 -15   0 160.739 9.12664   6
   1 -15   0 178.260 8.46542  10
  -1 -15   0 172.379 8.42008   8
   2 -15   0 14.3885 0.91038   9
   2 -15   0 15.2641 1.06845  10
  -2 -15   0 13.0534 1.13228   8
   2 -15   0 15.3373 1.27889  16
   2 -15   0 15.0806 1.12035  15
   2 -15   0 14.1892 1.03787  14
   3 -15   0 269.082 12.3343  15
   3 -15   0 250.431 12.2697  14
   3 -15   0 237.506 12.3503  16
   3 -15   0 243.354 12.0986  10
   3  15   0 251.781 12.2521   8
   4 -15   0 2.00982 0.43024  14
   4 -15   0 1.72546 0.46893  15
   4  15   0 1.94632 0.45151   8
   4  15   0 1.17210 0.53351  12
   4  15   0 2.07313 0.64326   9
   5 -15   0 0.07680 0.40494  15
   5 -15   0 0.06923 0.31616  14
   5  15   0 -0.1281 0.38863  12
   5  15   0 0.39835 0.28752   9
   0 -16   0 15.3256 1.18094   9
   0 -16   0 14.9977 0.93670   8
   0 -16   0 14.7954 1.17906  10
  -1 -16   0 3.39104 0.60937   9
   1 -16   0 3.47810 0.49099   9
   1 -16   0 3.92267 0.61493  15
  -1 -16   0 3.87928 0.54890   8
   1 -16   0 3.82497 0.60859  16
   1 -16   0 3.38404 0.52172  10
   2 -16   0 9.91517 0.83404  10
  -2 -16   0 5.40975 0.93959   8
   2 -16   0 8.47249 0.84473  15
   2 -16   0 7.23675 0.86931  14
   2 -16   0 7.84258 0.99697  16
   2 -16   0 8.30917 0.54671   9
  -3 -16   0 96.5448 4.86735   8
   3 -16   0 92.4706 4.87953  14
   3 -16   0 84.8855 4.88945  16
   3 -16   0 100.290 4.90092  15
   3  16   0 102.908 4.90279   8
   4 -16   0 11.5994 0.92605  14
   4 -16   0 13.7627 1.16787  15
   4  16   0 11.7040 0.95395  12
   4  16   0 13.0152 1.27641   9
   4  16   0 13.5141 0.85489   8
   5 -16   0 3.13575 0.46756  15
   0 -17   0 1.12339 0.47572  10
   0 -17   0 0.37001 0.22679   8
   0 -17   0 0.26748 0.39550  16
   0 -17   0 0.36110 0.44951   9
   1 -17   0 292.219 13.6927  10
   1 -17   0 286.588 13.6299   9
  -1 -17   0 275.497 13.7206   9
   1 -17   0 265.223 13.6992  15
  -1 -17   0 263.613 13.6046   8
   1 -17   0 303.707 13.9148  16
   2 -17   0 8.31200 0.79439  10
   2 -17   0 6.73475 0.97166  15
  -2 -17   0 7.30634 0.93724   8
   2 -17   0 6.94214 1.17399  16
  -3 -17   0 28.1804 1.70039   8
   3 -17   0 22.7643 1.51825  14
   3 -17   0 26.1975 1.36753  10
   3 -17   0 27.2406 1.75605  15
   3  17   0 27.3629 1.61917   8
   4 -17   0 124.635 5.56786  15
   4 -17   0 107.573 5.50240  14
   4  17   0 98.3523 5.51940   9
   4  17   0 113.890 5.51425  12
   0 -18   0 457.448 22.2354  10
   0 -18   0 461.771 22.3779  16
  -1 -18   0 55.7118 2.79862   8
   1 -18   0 59.6885 2.82465   9
   1 -18   0 51.5022 2.92261  15
   1 -18   0 55.4603 3.15677  16
  -1 -18   0 54.1517 2.93409   9
   1 -18   0 53.6742 2.91775  10
   2 -18   0 94.2457 4.72649  16
   2 -18   0 83.4576 4.55309  15
  -2 -18   0 91.9143 4.47663   8
   3 -18   0 9.17523 0.99938  15
  -4 -18   0 82.9757 3.86703   8
   4  18   0 72.2541 3.74827   8
   0 -19   0 -0.0280 0.40852  16
   0 -19   0 0.40059 0.31360   9
   1 -19   0 126.688 6.80036  15
  -1 -19   0 142.675 6.87558   9
   1 -19   0 141.346 7.00039  16
  -1 -19   0 132.552 6.66544   8
   1 -19   0 137.833 6.69164   9
  -1 -19   0 147.853 7.01256  16
  -2 -19   0 53.1316 2.84931  16
  -2 -19   0 54.5414 2.66031   8
  -2 -19   0 50.1973 2.76998   9
   2 -19   0 51.5169 2.64231  10
   2 -19   0 50.4670 2.72827  15
   2 -19   0 52.4104 2.90403  16
  -3 -19   0 230.895 10.7257   8
   3 -19   0 224.572 10.7859  15
  -3 -19   0 209.396 10.8099  16
   0 -20   0 480.124 23.3863   9
   0 -20   0 505.773 23.5720  16
   0 -20   0 472.949 23.4460  10
   1 -20   0 60.1075 3.19955  16
  -1 -20   0 61.5263 3.23214  16
  -1 -20   0 60.1216 3.14381   9
   1 -20   0 60.6509 3.08720  10
   2 -20   0 357.137 17.3846  16
  -2 -20   0 348.868 17.2048   8
   2 -20   0 360.375 17.3329  15
  -2 -20   0 385.298 17.4342  16
   2 -20   0 368.425 17.2565  10
   2  20   0 334.509 17.3240   8
   0 -21   0 0.10416 0.33231  16
   0 -21   0 0.43658 0.36166  10
   0 -21   0 0.65657 0.20178   9
  -1 -21   0 97.8132 4.89043  16
   1 -21   0 95.8182 4.78335  10
  -1 -21   0 98.5672 4.77814   9
   7   0  -1 0.93028 0.49687  11
   7   0  -1 0.72313 0.39677  12
   6   0  -1 0.15162 0.50618  13
   6   0  -1 0.37638 0.36564  11
   6   0  -1 0.37695 0.40373  12
   5   0  -1 0.58088 0.37433  18
   5   0  -1 0.63548 0.33277  11
   5   0  -1 0.41128 0.40124  13
   5   0  -1 0.23876 0.46046  12
   5   0  -1 0.53568 0.21805  10
   5   0  -1 0.87468 0.84669   4
   4   0  -1 0.48249 0.28618  12
   4   0  -1 1.30578 0.60042   5
   4   0  -1 0.94191 1.00515   4
   3   0  -1 7.30041 1.18079   4
   2   0  -1 0.14290 0.25292   6
   2   0  -1 0.76669 0.19759   2
  -2   0   1 1.73479 0.54657   1
   2   0  -1 0.34983 0.51817   4
   2   0  -1 0.55785 0.37678   7
   2   0  -1 0.22954 0.27894   5
   2   0  -1 0.21635 0.37431   1
   2   0  -1 0.82155 0.27277   3
  -2   0   1 1.07520 0.54817   1
   1   0  -1 0.70585 0.29926   1
   1   0  -1 1.01160 0.39575   1
   1   0  -1 -0.0234 0.36288   4
   1   0  -1 0.70599 0.20548   3
   1   0  -1 1.03647 0.20792   2
   1   0  -1 0.74608 0.15501   2
   1   0  -1 0.14180 0.27684   7
   1   0  -1 1.22724 0.24347   3
  -1   0   1 1.03838 0.31489   1
  -1   0   1 0.70316 0.38332   1
   1   0   1 1.62466 0.30483   2
   1   0   1 1.68098 0.58403   1
   1   0   1 2.16445 0.33852   5
  -1   0  -1 1.78049 0.61004   1
  -2   0  -1 0.49076 0.81089   1
   2   0   1 0.66389 0.29562   5
   2   0   1 1.26519 0.35053   2
   2   0   1 0.88526 0.39312   3
   2   0   1 1.96537 0.73557   1
   2   0   1 0.82297 0.49254   3
   2   0   1 0.85944 0.67325   1
   2   0   1 2.00703 0.61520   4
   2   0   1 0.34298 0.31161   2
  -2   0  -1 1.43987 0.74468   1
   2   0   1 1.15728 0.18119   6
   3   0   1 0.43290 0.71338   4
   3   0   1 3.12969 0.82004   1
   4   0   1 0.66876 0.37279  13
   4   0   1 1.00889 0.38815  12
   4   0   1 0.76226 0.23765  10
   4   0   1 0.88284 0.91642   4
   4   0   1 1.93344 0.61528   3
   4   0   1 0.68705 0.22857   9
   4   0   1 0.73147 0.27083  11
   4   0   1 0.66389 0.68954   5
   4   0   1 0.85508 0.31806  18
   4   0   1 0.95470 0.47345   2
   5   0   1 -0.1358 0.49497  18
   5   0   1 -0.5387 0.28555  11
   5   0   1 0.22758 0.23193  10
   5   0   1 -0.2678 0.30763  12
   5   0   1 0.01931 1.00643   4
   5   0   1 -0.6148 0.69067   5
   6   0   1 -0.3462 0.52485  13
   6   0   1 -0.0375 0.20003  10
   6   0   1 -0.8703 0.51259  12
   7   0   1 -0.2981 0.36181  13
   7  -1  -1 1.65442 0.40526  11
   7  -1  -1 1.50420 0.56367  12
   7  -1  -1 1.06496 0.32822  13
   7   1  -1 2.03687 0.44061  12
   7   1  -1 1.75932 0.38981  11
   6  -1  -1 3.13777 0.47608  11
   6  -1  -1 3.33534 0.68733  18
   6  -1  -1 2.83960 0.47966  13
   6  -1  -1 2.63226 0.50967  12
   6   1  -1 3.39142 0.60245  11
   6   1  -1 1.67016 0.56896  13
   6   1  -1 2.69240 0.26823  10
   6   1  -1 2.48937 0.63367  12
   5  -1  -1 38.3464 2.15617  18
   5  -1  -1 38.6165 2.11269  11
   5  -1  -1 36.8754 3.13839   4
   5  -1  -1 40.4430 2.22636  12
   5  -1  -1 37.2238 1.90605  10
   5  -1  -1 36.6462 2.14920  13
   5   1  -1 39.6986 2.23048  12
   5   1  -1 38.2116 2.11388  11
   5   1  -1 40.1733 2.25520  18
   5   1  -1 37.7951 3.20592   4
   5   1  -1 35.1822 2.08792  13
   5   1  -1 38.6143 1.97547  10
   4  -1  -1 137.980 7.28404   4
   4  -1  -1 135.073 6.55520  17
   4  -1  -1 136.875 6.57529  18
   4  -1  -1 129.751 6.55276  12
   4  -1  -1 127.486 6.40765  10
   4  -1  -1 131.150 6.80013   5
   4  -1  -1 129.069 6.53054  11
   4  -1  -1 122.066 6.53843  13
   4   1  -1 131.648 6.56092  12
   4   1  -1 130.105 6.63384   3
   4   1  -1 138.734 7.38211   4
   4   1  -1 138.940 6.57216  17
   4   1  -1 123.491 6.38406   9
   4   1  -1 133.818 6.52515  11
   4   1  -1 143.142 6.57456   2
   4   1  -1 122.611 6.65903   3
   4   1  -1 134.652 6.45942  10
   4   1  -1 140.614 6.57937  18
   4   1  -1 129.885 6.82062   5
  -3  -1   1 143.193 8.23029   1
   3  -1  -1 137.074 7.53309   6
   3  -1  -1 155.054 7.65423   5
   3  -1  -1 158.509 7.97564   4
   3   1  -1 156.201 7.64299   5
   3   1  -1 162.267 7.59129   2
   3   1  -1 150.561 7.68277   3
   3   1  -1 167.070 8.03671   4
   3   1  -1 140.972 7.52834   2
   3   1  -1 146.760 8.10653   1
   3   1  -1 166.186 7.66633   3
   2  -1  -1 1038.16 52.5610   5
  -2  -1   1 1114.67 53.2610   1
   2  -1  -1 1073.53 52.2105   3
   2  -1  -1 1121.44 52.8254   7
  -2  -1   1 1100.20 52.6736   1
   2  -1  -1 1127.62 52.3737   1
   2  -1  -1 1086.39 52.3745   1
   2  -1  -1 983.372 52.6390   6
   2  -1  -1 1084.72 53.5115   4
   2  -1  -1 1123.56 52.2259   3
   2   1  -1 1003.77 52.7444   2
   2   1  -1 1130.19 53.5859   1
   2   1  -1 1076.48 52.8907   7
   2   1  -1 1009.60 52.5323   5
   2   1  -1 1106.79 53.5444   4
  -2   1   1 1100.87 52.4889   1
  -2   1   1 1135.94 52.4799   1
   2   1  -1 1078.46 53.3550   3
   1  -1  -1 18.6373 1.03796   5
   1  -1  -1 18.0216 1.17674   4
   1  -1  -1 20.2473 1.10397   7
   1  -1  -1 17.8917 1.08704   6
   1   1  -1 18.8034 1.18957   4
   1   1  -1 19.0671 1.12021   7
   1   1  -1 21.1204 1.51388   1
   1   1  -1 20.4200 1.10713   2
   1   1  -1 20.9671 1.40983   1
   1   1  -1 18.2486 1.05080   2
   1   1  -1 18.3903 1.16596   3
   1   1  -1 18.7038 1.13174   3
   1  -1   1 426.517 22.5231   3
   1  -1   1 492.947 23.3891   1
   1  -1   1 484.763 23.0404   2
   1  -1   1 434.956 22.7806   4
  -1  -1  -1 430.680 22.4211   2
   1  -1   1 480.927 22.7739   1
  -1  -1  -1 508.796 22.9185   1
   1  -1   1 473.312 23.2332   3
   1  -1   1 422.666 22.7232   2
   1  -1   1 436.257 22.6717   5
  -1   1  -1 493.354 23.3837   1
   1   1   1 430.579 22.4879   3
   1   1   1 468.392 23.0849   2
   1   1   1 446.662 22.8265   1
   1   1   1 511.543 22.9236   1
   1   1   1 485.991 23.0826   3
   1   1   1 442.205 22.9343   4
  -1   1  -1 511.265 23.0599   1
   2  -1   1 1.77849 0.34991   2
   2  -1   1 1.99503 0.44370   5
   2  -1   1 2.36237 0.47825   3
   2  -1   1 2.11601 0.68065   1
   2  -1   1 2.92667 0.75715   1
   2  -1   1 1.84986 0.42891   3
   2  -1   1 2.38647 0.39737   2
   2  -1   1 1.98080 0.29620   6
   2   1   1 2.12888 0.44183   2
   2   1   1 2.97372 0.64896   4
   2   1   1 2.19953 0.83947   1
   2   1   1 1.79018 0.60681   3
   2   1   1 1.25456 0.45722   3
   2   1   1 1.83180 0.39727   2
   2   1   1 2.19519 0.82574   1
   3  -1   1 122.677 7.25411   1
   3  -1   1 136.481 6.81769   3
   3  -1   1 125.019 6.82413   3
   3  -1   1 136.341 6.88248   5
   3  -1   1 145.424 7.18356   4
   3  -1   1 118.913 6.67600   2
   3  -1   1 141.737 6.72278   2
   3   1   1 143.415 6.94771   3
   3   1   1 141.488 7.17636   4
  -3   1  -1 136.994 7.79092   1
   3   1   1 140.155 6.83509   2
   3   1   1 135.020 6.86763   5
   4  -1   1 6.76459 0.78484   3
   4  -1   1 6.97040 0.70827  18
   4  -1   1 8.43707 0.69194  12
   4  -1   1 7.69635 0.77966  13
   4  -1   1 7.81334 0.73026  11
   4  -1   1 8.04889 0.68751   2
   4  -1   1 8.62909 0.56848  10
   4  -1   1 7.11558 1.01565   5
   4  -1   1 8.34495 1.51208   4
   4  -1   1 6.79230 0.47108   9
   4   1   1 7.93625 0.63561  11
   4   1   1 7.85496 0.95035   2
   4   1   1 9.87416 1.02654   5
   4   1   1 6.64628 1.08386   3
   4   1   1 9.34869 0.82397  12
   4   1   1 7.11201 0.62332  10
   4   1   1 7.44385 0.54808   9
   4   1   1 8.36962 1.42082   4
   4   1   1 7.07913 0.86126  18
   4   1   1 8.02791 0.77382  13
   5  -1   1 6.62522 1.07604   5
   5  -1   1 3.49544 1.27213   4
   5  -1   1 5.30462 0.66659  13
   5  -1   1 4.30590 0.63578  11
   5  -1   1 5.18902 0.52723  10
   5  -1   1 3.99487 0.61806  12
   5  -1   1 3.65517 0.64851  18
   5   1   1 4.84038 0.81365  13
   5   1   1 4.54531 0.67475  12
   5   1   1 5.99869 1.26824   4
   5   1   1 3.48141 0.95493   5
   5   1   1 3.86773 0.49326  11
   5   1   1 4.62840 0.65416  10
   6  -1   1 43.1462 2.40073  11
   6  -1   1 45.7043 2.49137  13
   6  -1   1 42.0350 2.15972  10
   6  -1   1 41.7820 2.44798  12
   6   1   1 46.4486 2.47348  13
   6   1   1 44.2675 2.24454  10
   6   1   1 44.8985 2.39206  11
   6   1   1 44.9957 2.45456  12
   7  -1   1 113.726 5.50984  12
   7  -1   1 108.476 5.51493  13
   7   1   1 114.261 5.51140  13
   7   1   1 105.572 5.44771  11
   7  -2  -1 0.14942 0.30754  13
   7  -2  -1 0.72505 0.34663  11
   7  -2  -1 -0.0912 0.36731  12
   7   2  -1 0.57654 0.31800  11
   6  -2  -1 134.163 6.84935  11
   6  -2  -1 139.648 6.91525  13
   6  -2  -1 138.813 6.89837  12
   6   2  -1 130.213 6.87065  13
   6   2  -1 139.605 6.84577  11
   6   2  -1 143.143 6.92626  12
   6   2  -1 139.142 6.69056  10
   5  -2  -1 53.4613 2.92176  18
   5  -2  -1 55.1012 2.89377  12
   5  -2  -1 54.4411 2.85037  11
   5  -2  -1 52.1661 2.81809  13
   5  -2  -1 51.7134 3.77301   4
   5  -2  -1 51.1167 2.86662  17
   5   2  -1 52.8249 3.94741   4
   5   2  -1 56.3218 2.86084  18
   5   2  -1 51.8476 2.71834  10
   5   2  -1 50.2515 2.82355  13
   5   2  -1 54.6998 2.91226  12
   5   2  -1 51.0924 2.79973  11
   4  -2  -1 653.588 33.1552  13
   4  -2  -1 704.715 33.1799  18
   4  -2  -1 702.895 33.8954   4
   4  -2  -1 692.763 33.1557  11
   4  -2  -1 655.164 33.1465  17
   4  -2  -1 642.684 33.1990  10
   4  -2  -1 696.701 33.4512   5
   4  -2  -1 686.663 33.3249  12
   4   2  -1 691.655 33.1811  12
   4   2  -1 716.189 33.4294   3
   4   2  -1 691.209 33.3017  10
   4   2  -1 741.284 33.3312   2
   4   2  -1 666.872 33.4219   5
   4   2  -1 744.027 34.0073   4
   4   2  -1 710.898 33.1784  18
   4   2  -1 673.478 33.1485  11
   4   2  -1 699.288 33.1698  17
   4   2  -1 637.281 33.3361   9
   3  -2  -1 1141.26 54.7300   7
   3  -2  -1 1019.92 54.9361   6
   3  -2  -1 1185.56 55.4219   4
   3  -2  -1 1158.97 55.6575   5
   3   2  -1 1113.20 56.0033   3
   3   2  -1 1214.90 56.9297   4
   3   2  -1 1177.39 56.0306   2
   3   2  -1 1091.41 55.2215   5
  -2  -2   1 509.519 24.7803   1
  -2  -2   1 534.593 24.6118   1
   2  -2  -1 470.336 23.8584   6
   2  -2  -1 508.062 24.0180   4
   2  -2  -1 502.852 23.8534   5
   2  -2  -1 489.439 23.8335   7
   2   2  -1 515.744 24.7175   1
   2   2  -1 513.361 24.4450   2
   2   2  -1 490.178 23.9678   3
   2   2  -1 444.607 23.9872   3
   2   2  -1 503.525 24.0908   4
   2   2  -1 438.948 23.8351   2
   2   2  -1 524.640 24.5237   1
   2   2  -1 474.934 23.8223   5
   1  -2  -1 928.433 46.8523   4
   1  -2  -1 938.188 46.6119   5
   1  -2  -1 926.031 46.6854   6
  -1  -2   1 1053.04 47.8316   1
  -1  -2   1 906.107 46.7049   2
  -1  -2   1 934.182 46.8767   3
  -1  -2   1 1051.99 48.1581   1
   1  -2  -1 915.376 46.5112   7
   1   2  -1 920.035 46.6485   7
   1   2  -1 1056.80 47.6838   1
   1   2  -1 992.985 46.8516   2
   1   2  -1 921.064 47.2433   3
   1   2  -1 914.779 46.9831   4
   0  -2   1 116.766 5.60284   1
   0  -2   1 100.366 5.20340   5
   0  -2  -1 99.9761 5.23636   6
   0  -2  -1 98.8054 5.28775   3
   0  -2   1 111.108 5.34336   3
   0  -2  -1 112.384 5.55574   1
   0  -2  -1 105.237 5.31732   3
   0  -2   1 116.594 5.73137   1
   0  -2   1 100.130 5.25516   2
   0  -2  -1 103.625 5.24596   2
   0   2   1 102.072 5.25502   2
   0   2  -1 116.892 5.74504   1
   0   2   1 117.410 5.62710   1
   0   2  -1 105.341 5.28972   2
   0   2   1 106.049 5.54611   1
   0   2   1 100.461 5.30258   3
   0   2  -1 108.543 5.34125   3
   0   2  -1 113.435 5.59179   1
   1  -2   1 13.0023 0.75703   5
   1  -2   1 12.1000 0.82287   3
   1  -2   1 10.4025 0.78335   2
  -1  -2  -1 10.4828 0.82280   2
  -1  -2  -1 12.5096 1.34357   1
  -1  -2  -1 9.54545 1.00474   3
   1  -2   1 11.9651 0.83152   3
  -1  -2  -1 10.0469 1.48514   1
   1  -2   1 12.1138 1.19819   1
   1   2   1 10.4429 0.83957   4
   1   2   1 10.6197 1.00377   3
  -1   2  -1 12.2382 1.16362   1
   1   2   1 11.5565 0.89236   2
  -1   2  -1 13.4230 1.26306   1
   1   2   1 13.2399 1.47167   1
   1   2   1 12.1886 1.35525   1
   2  -2   1 1134.64 62.6634   2
   2  -2   1 1229.77 63.1037   6
   2  -2   1 1347.88 63.3934   5
  -2  -2  -1 1368.49 63.1748   1
  -2  -2  -1 1398.42 63.4282   1
   2  -2   1 1218.63 63.0550   3
   2  -2   1 1249.85 62.7454   1
  -2  -2  -1 1223.65 62.4395   3
   2  -2   1 1289.02 63.4171   3
   2  -2   1 1277.22 62.9853   2
   2  -2   1 1369.61 63.5778   1
   2  -2   1 1365.50 64.5258   4
   2   2   1 1315.72 63.8524   2
  -2   2  -1 1341.01 63.4646   1
   2   2   1 1130.36 62.3400   2
   2   2   1 1315.96 63.8773   3
   2   2   1 1347.49 63.8290   1
   2   2   1 1331.42 63.6706   4
  -2   2  -1 1373.91 63.9201   1
   2   2   1 1309.84 63.1257   1
   3  -2   1 1936.34 93.3174   2
   3  -2   1 1821.61 93.2275   3
   3  -2   1 2003.82 95.5765   4
   3  -2   1 1939.25 94.1740   5
   3  -2   1 1844.02 92.7848   1
   3  -2   1 1912.04 93.6910   3
   3  -2   1 1820.65 92.9901   2
   3   2   1 2025.04 95.8525   4
   3   2   1 1971.66 94.1061   5
   3   2   1 2105.18 94.3237   2
   3   2   1 1958.02 94.8675   3
  -3   2  -1 1775.69 92.9559   1
   4  -2   1 299.018 14.5909  18
   4  -2   1 323.465 15.3591   4
   4  -2   1 291.581 14.5938  13
   4  -2   1 286.825 14.4694  10
   4  -2   1 304.847 14.9679   5
   4  -2   1 295.865 14.5631  11
   4  -2   1 304.651 14.6013  12
   4   2   1 279.666 14.5460  11
   4   2   1 289.309 14.4951   9
   4   2   1 316.603 14.8869   2
   4   2   1 295.374 14.5297  10
   4   2   1 292.000 14.5825  12
   4   2   1 296.603 14.6036  13
   4   2   1 317.032 15.0036   5
   4   2   1 301.095 15.0287   3
   4   2   1 316.002 15.3943   4
   4   2   1 305.339 14.6019  18
   5  -2   1 403.409 19.6263  10
   5  -2   1 389.528 20.0119   5
   5  -2   1 410.675 19.5515  12
   5  -2   1 415.478 19.5766  13
   5  -2   1 412.497 19.5252  11
   5   2   1 409.060 19.5740  13
   5   2   1 400.900 20.5592   4
   5   2   1 425.930 19.5582  10
   5   2   1 396.919 19.5485  12
   5   2   1 392.553 19.6013   2
   5   2   1 404.860 19.4651   9
   5   2   1 407.707 19.5151  11
   5   2   1 369.523 19.6986   3
   6  -2   1 262.790 12.6881  13
   6  -2   1 249.945 12.5939  11
   6  -2   1 263.300 12.6440  12
   6   2   1 254.283 12.4876  10
   6   2   1 258.554 12.6522  13
   6   2   1 255.703 12.5895  11
   6   2   1 262.769 12.6682  12
   7  -2   1 27.5188 1.67317  13
   7   2   1 28.0254 1.62710  13
   7   2   1 28.8630 1.60533  12
   7   2   1 25.0183 1.49607  11
   7  -3  -1 121.031 6.27005  13
   7  -3  -1 137.808 6.31488  12
   7  -3  -1 129.315 6.27314  11
   7   3  -1 108.132 6.22106  11
   7   3  -1 140.224 6.36449  12
   6  -3  -1 9.85626 1.05421  11
   6  -3  -1 7.68882 0.86221  13
   6  -3  -1 7.63096 1.11714  12
   6   3  -1 6.85532 0.91156  13
   6   3  -1 11.0631 1.06722  11
   6   3  -1 8.65016 0.94276  12
   6   3  -1 8.42369 0.67857  10
   5  -3  -1 213.646 10.4373  13
   5  -3  -1 207.496 11.2897   4
   5  -3  -1 223.647 10.4751  18
   5  -3  -1 203.750 10.4112  17
   5  -3  -1 220.499 10.4507  12
   5  -3  -1 214.780 10.4184  11
   5   3  -1 201.680 10.3203   2
   5   3  -1 209.227 10.2045   9
   5   3  -1 221.906 10.4671  12
   5   3  -1 222.232 10.3444  10
   5   3  -1 211.161 11.4499   4
   5   3  -1 186.971 10.3623   3
   5   3  -1 230.865 10.4792  18
   5   3  -1 215.786 10.4227  11
   5   3  -1 204.755 10.4169  13
   4  -3  -1 179.389 8.57593  12
   4  -3  -1 191.576 9.36418   4
   4  -3  -1 169.086 8.56551  13
   4  -3  -1 177.667 8.56343  11
   4  -3  -1 151.717 8.38355  10
   4  -3  -1 173.390 8.85460   5
   4  -3  -1 165.588 8.55027  17
   4  -3  -1 174.764 8.58662  18
   4   3  -1 180.234 8.59734  12
   4   3  -1 178.056 8.82014   2
   4   3  -1 172.936 8.84560   5
   4   3  -1 174.767 8.56907  18
   4   3  -1 170.867 8.55247  11
   4   3  -1 183.753 8.97801   3
   4   3  -1 171.681 8.47486   9
   4   3  -1 173.835 8.51345  10
   4   3  -1 185.092 9.43420   4
   3  -3  -1 1741.13 94.1131   6
   3  -3  -1 1914.04 93.9761   7
   3  -3  -1 1951.38 94.1267   5
   3  -3  -1 2021.44 95.1039   4
   3   3  -1 1992.70 95.0715   2
   3   3  -1 1875.13 94.3230   5
   3   3  -1 1990.42 95.2913   4
   3   3  -1 2021.50 95.0275   3
  -2  -3   1 1.47946 1.00134   1
   2  -3  -1 2.61307 0.40409   7
   2  -3  -1 4.10438 0.49753   5
  -2  -3   1 3.08241 1.03209   1
   2  -3  -1 3.09344 0.47387   6
   2  -3  -1 2.73896 0.57464   4
   2   3  -1 2.26929 0.40670   2
   2   3  -1 3.90314 0.77845   4
   2   3  -1 3.15023 0.64056   3
   2   3  -1 4.71301 1.36414   1
   2   3  -1 3.05205 0.60948   3
   2   3  -1 4.45196 0.69712   2
   2   3  -1 3.32739 0.90290   1
  -1  -3   1 6496.87 308.710   3
   1   3  -1 6303.20 309.880   1
   0  -3  -1 5153.15 248.065   3
   1  -3   1 27.7518 1.67296   2
  -1  -3  -1 33.0096 2.40163   1
   1  -3   1 28.2222 1.69885   6
  -1  -3  -1 29.9949 1.76731   2
  -1  -3  -1 30.4954 1.92959   3
   1  -3   1 30.6102 1.74795   3
   1  -3   1 34.2361 1.77609   3
  -1  -3  -1 30.8188 2.61687   1
  -1  -3  -1 28.3349 1.58020   6
   1  -3   1 33.5309 2.04839   1
   1  -3   1 31.8217 1.65786   2
   1  -3   1 29.4360 1.68896   5
   1  -3   1 32.1067 2.18083   1
   1   3   1 31.7054 1.76283   4
  -1   3  -1 35.3585 2.26766   1
   1   3   1 30.2145 2.36738   1
  -1   3  -1 33.5519 2.09259   1
   1   3   1 29.5596 1.91802   3
   2  -3   1 22.4779 1.57271   4
   2  -3   1 21.7528 1.35688   3
   2  -3   1 22.7152 1.33960   3
   2  -3   1 22.7162 1.25707   2
   2  -3   1 21.5797 1.40833   5
   2  -3   1 22.1868 1.73046   1
   2  -3   1 20.9603 1.33314   6
   2  -3   1 22.8034 1.67601   1
  -2  -3  -1 20.3905 1.44610   2
   2  -3   1 20.4129 1.26282   2
  -2  -3  -1 25.7593 2.31269   1
   2   3   1 17.6403 1.60691   3
   2   3   1 21.2319 1.51014   2
   2   3   1 23.0335 1.59462   4
  -2   3  -1 25.1215 1.80860   1
  -2   3  -1 25.4270 1.92356   1
   2   3   1 21.7725 2.29331   1
   3  -3   1 1315.94 70.0174   6
   3  -3   1 1532.69 71.3920   4
   3  -3   1 1472.70 69.9830   2
   3  -3   1 1398.03 70.0353   3
   3  -3   1 1338.92 69.7452   2
   3  -3   1 1495.55 70.3007   3
   3  -3   1 1506.46 70.9272   5
   3  -3   1 1307.37 69.6281   1
   3   3   1 1520.09 71.5826   4
  -3   3  -1 1333.27 69.7633   1
   3   3   1 1528.78 70.4240   5
   3   3   1 1485.94 72.1123   3
   3   3   1 1552.33 71.4953   2
   4  -3   1 454.920 21.5624  12
   4  -3   1 449.134 21.5754  13
   4  -3   1 453.413 21.5431  11
   4  -3   1 443.397 21.5601  18
   4  -3   1 465.761 22.2978   4
   4  -3   1 453.672 21.9456   5
   4  -3   1 407.330 21.5451  14
   4  -3   1 426.309 21.5952  10
   4   3   1 465.345 21.9647   5
   4   3   1 382.858 21.3703   8
   4   3   1 439.202 21.6401   9
   4   3   1 453.485 22.1136   3
   4   3   1 467.809 21.5707  18
   4   3   1 460.573 21.5201  10
   4   3   1 474.157 22.3879   4
   4   3   1 490.463 21.9586   2
   4   3   1 440.498 21.5751  13
   4   3   1 426.002 21.5159  11
   4   3   1 429.727 21.5515  12
   5  -3   1 107.828 5.40860  10
   5  -3   1 117.066 5.62231  11
   5  -3   1 101.080 5.57554  14
   5  -3   1 105.189 6.10464   5
   5  -3   1 115.781 5.62371  12
   5  -3   1 113.352 5.63945  13
   5   3   1 111.729 5.83294   2
   5   3   1 114.597 5.64893  12
   5   3   1 115.478 5.66774  13
   5   3   1 114.706 5.54376  10
   5   3   1 108.561 5.55294  11
   5   3   1 118.010 5.46321   9
   5   3   1 108.815 6.67200   4
   5   3   1 107.707 5.96056   3
   5   3   1 107.904 6.13975   5
   6  -3   1 32.3023 1.95007  11
   6  -3   1 34.2569 2.02567  13
   6  -3   1 35.5029 2.14505  12
   6   3   1 33.0364 1.99838  13
   6   3   1 34.1281 1.86917  10
   6   3   1 34.9026 2.00840  11
   6   3   1 35.1099 2.02979  12
   7  -3   1 0.96575 0.37718  13
   7  -3   1 0.57094 0.35497  12
   7   3   1 0.40345 0.29101  13
   7   3   1 0.65154 0.35505  12
   7  -4  -1 138.382 6.91200  13
   7  -4  -1 142.336 6.91747  12
   7   4  -1 150.502 6.96713  12
   7   4  -1 130.375 6.84841  11
   6  -4  -1 46.9576 2.58876  11
   6  -4  -1 47.3112 2.69183  13
   6  -4  -1 48.9357 2.73634  12
   6   4  -1 46.8513 2.75117  12
   6   4  -1 50.0982 2.48779  10
   6   4  -1 47.2320 2.63704  11
   5  -4  -1 93.8046 5.04232  14
   5  -4  -1 102.895 5.10737  18
   5  -4  -1 108.617 5.08899  11
   5  -4  -1 92.1255 5.03016  17
   5  -4  -1 88.5127 5.42623   5
   5  -4  -1 99.8171 5.06060  13
   5  -4  -1 105.277 5.07304  12
   5   4  -1 110.341 5.14577  12
   5   4  -1 108.251 5.11565  18
   5   4  -1 94.9313 5.01537  13
   5   4  -1 101.627 4.87594   9
   5   4  -1 98.8181 5.01350  11
   5   4  -1 96.3721 5.17675   2
   5   4  -1 89.8542 5.29321   3
   5   4  -1 94.1539 6.13236   4
   5   4  -1 106.895 4.99679  10
   4  -4  -1 361.386 17.4510  12
   4  -4  -1 342.863 17.4398  14
   4  -4  -1 358.206 17.4553  13
   4  -4  -1 363.529 17.7828   5
   4  -4  -1 368.937 17.4335  11
   4  -4  -1 337.695 17.4092  17
   4  -4  -1 383.551 18.1787   4
   4  -4  -1 355.952 17.4469  18
   4   4  -1 358.277 17.7184   5
   4   4  -1 364.402 17.4487  18
   4   4  -1 384.709 17.4893  12
   4   4  -1 347.265 17.4010  10
   4   4  -1 377.278 17.8122   2
   4   4  -1 395.200 18.3486   4
   4   4  -1 337.573 17.4056  11
   4   4  -1 357.413 17.3740   9
   4   4  -1 324.559 17.4147  13
   4   4  -1 370.970 17.9440   3
   3  -4  -1 55.8353 3.30717   4
   3  -4  -1 55.4500 3.09042   5
   3  -4  -1 50.8391 3.04704   6
   3  -4  -1 51.8506 2.97118   7
   3   4  -1 56.1214 3.30946   3
   3   4  -1 58.5873 3.50634   4
   3   4  -1 52.9335 2.99234   5
   3   4  -1 61.5816 3.20352   2
  -2  -4   1 4.14220 1.10775   1
   2  -4  -1 5.02190 0.56099   5
  -2  -4   1 2.47637 1.21384   1
   2  -4  -1 4.15674 0.51078   7
   2  -4  -1 4.70243 0.65704   6
   2  -4  -1 3.94757 0.71995   4
   2   4  -1 6.30455 0.90724   2
   2   4  -1 3.74364 1.01543   1
   2   4  -1 5.27314 1.46917   1
   2   4  -1 3.49404 0.71994   3
   2   4  -1 3.78729 0.67222   4
  -1  -4   1 1903.54 87.6346   1
   1  -4  -1 1736.30 85.2961   5
   1  -4  -1 1854.71 85.4264   3
   1  -4  -1 1747.24 85.4823   6
   1  -4  -1 1745.83 85.2477   3
   1  -4  -1 1817.78 85.8915   1
  -1  -4   1 1681.65 85.7139   2
  -1  -4   1 1735.66 86.6806   1
   1  -4  -1 1790.33 86.1375   1
   1  -4  -1 1569.37 84.7862   7
   1  -4  -1 1530.04 84.8648   2
  -1  -4   1 1841.35 86.7551   3
   1   4  -1 1632.81 85.9124   1
   1   4  -1 1898.46 87.4706   1
  -1   4   1 1807.43 85.9986   1
  -1   4   1 1815.22 85.7047   1
   1   4  -1 1740.08 86.3799   3
   1   4  -1 1731.90 85.7259   4
   1   4  -1 1823.38 86.1470   2
   0  -4  -1 3124.94 152.272   3
   0  -4   1 3251.04 153.514   1
   0  -4   1 3203.52 152.443   3
   0  -4  -1 3152.47 153.196   1
   0  -4   1 3265.90 154.375   1
   0  -4  -1 3120.98 153.610   1
   0  -4  -1 2931.65 151.860   3
   0   4   1 3091.30 153.192   1
   0   4   1 2903.85 151.461   2
   0   4  -1 3159.74 152.128   3
   0   4   1 3319.09 153.835   1
   0   4  -1 3375.24 154.227   1
   0   4  -1 2939.70 151.603   2
   0   4  -1 3228.05 153.359   1
   0   4   1 2977.00 151.858   3
   1  -4   1 136.389 6.56677   3
  -1  -4  -1 127.352 6.70875   3
  -1  -4  -1 124.647 7.47012   1
   1  -4   1 134.070 6.44728   2
   1  -4   1 137.977 6.47800   5
   1  -4   1 129.549 7.09994   1
   1  -4   1 117.720 6.46855   2
   1  -4   1 125.562 6.52125   3
  -1  -4  -1 114.309 6.52305   2
   1  -4   1 142.471 6.97887   1
  -1  -4  -1 131.747 7.30951   1
  -1  -4  -1 114.634 6.37838   6
   1  -4   1 129.921 6.49225   6
   1   4   1 147.023 6.54556   4
   1   4   1 145.950 7.63353   1
   1   4   1 130.150 6.59070   2
  -1   4  -1 119.827 6.92390   1
   1   4   1 141.031 7.33757   1
   1   4   1 139.549 6.70940   3
  -1   4  -1 127.406 7.14162   1
   2  -4   1 39.9384 2.24429   5
   2  -4   1 39.2402 2.52218   1
   2  -4   1 39.1371 2.08443   2
  -2  -4  -1 42.3514 3.46936   1
   2  -4   1 43.0533 2.21249   3
  -2  -4  -1 33.4293 2.28677   2
   2  -4   1 36.8012 2.08849   2
   2  -4   1 35.3824 2.13307   3
  -2  -4  -1 42.2400 2.60486   3
   2  -4   1 38.0319 2.21146   6
   2  -4   1 39.6631 2.62608   1
  -2  -4  -1 40.1059 3.23347   1
   2   4   1 41.6985 2.40768   4
   2   4   1 40.5264 2.38134   2
  -2   4  -1 39.3786 2.74778   1
  -2   4  -1 38.6042 2.61282   1
   2   4   1 45.2290 2.54563   3
   2   4   1 38.8975 3.37041   1
   2   4   1 39.7260 3.10706   1
   3  -4   1 488.709 24.8320   6
   3  -4   1 527.226 24.9541   5
   3  -4   1 540.020 24.6989   3
   3  -4   1 491.093 24.6274   2
   3  -4   1 471.486 24.9828   1
   3  -4   1 538.010 24.8904   2
   3  -4   1 519.500 24.6910   3
   3   4   1 555.654 25.2493   4
   3   4   1 532.457 25.2228   3
  -3   4  -1 434.771 25.0842   1
   3   4   1 538.104 25.0787   2
   4  -4   1 457.703 21.8812  13
   4  -4   1 475.683 22.2908   5
   4  -4   1 462.219 21.8702  12
   4  -4   1 425.204 21.8509  18
   4  -4   1 441.592 21.8604  10
   4  -4   1 446.749 21.8771  14
   4  -4   1 456.937 21.8438  11
   4   4   1 460.048 22.5437   3
   4   4   1 456.110 21.8402  10
   4   4   1 477.216 22.7295   4
   4   4   1 476.251 22.2974   5
   4   4   1 473.218 22.3018   2
   4   4   1 451.290 21.8644  18
   4   4   1 443.988 21.8668  12
   4   4   1 439.911 21.7819   8
   4   4   1 417.566 21.8108  11
   4   4   1 436.066 21.8589   9
   5  -4   1 0.57958 0.45062  11
   5  -4   1 0.25693 0.34366  13
   5  -4   1 0.39537 0.77732   5
   5  -4   1 0.09987 0.32902  12
   5  -4   1 -0.3149 0.38828  14
   5  -4   1 0.37421 0.14822  10
   5   4   1 0.65832 0.37084  10
   5   4   1 0.76408 0.47404  13
   5   4   1 0.91472 0.65952   2
   5   4   1 0.82961 0.37185  12
   5   4   1 0.15701 0.33979   9
   5   4   1 0.71090 0.41165  11
   5   4   1 0.66421 0.78254   5
   5   4   1 -0.0603 0.77389   4
   6  -4   1 218.431 10.5685  12
   6  -4   1 218.942 10.5270  11
   6  -4   1 215.842 10.5721  13
   6   4   1 220.093 10.5543  12
   6   4   1 209.980 10.5424  13
   6   4   1 214.616 10.4333  10
   6   4   1 202.783 10.4674  11
   7  -4   1 4.81670 0.64502  12
   7  -4   1 5.63319 0.77329  13
   7   4   1 5.65996 0.64213  12
   7   4   1 4.37522 0.51906  13
   7  -5  -1 68.9800 3.55860  13
   7  -5  -1 69.3531 3.57361  12
   7   5  -1 73.1995 3.59220  12
   6  -5  -1 331.384 16.5672  13
   6  -5  -1 343.980 16.5707  12
   6  -5  -1 343.027 16.5426  11
   6   5  -1 352.895 16.6062  12
   6   5  -1 326.903 16.5031  11
   6   5  -1 344.640 16.4544  10
   5  -5  -1 126.288 5.94240  11
   5  -5  -1 101.951 6.29403   5
   5  -5  -1 124.689 5.96979  12
   5  -5  -1 120.987 5.97020  13
   5  -5  -1 116.153 5.91651  18
   5  -5  -1 116.407 5.93699  14
   5   5  -1 111.086 5.88095  13
   5   5  -1 123.398 5.88634  10
   5   5  -1 114.372 5.86962  11
   5   5  -1 111.031 6.88108   4
   5   5  -1 125.992 6.00702  12
   5   5  -1 121.351 5.77896   9
   5   5  -1 113.812 6.19179   2
   5   5  -1 120.019 5.91866  18
   4  -5  -1 37.3937 2.06446  13
   4  -5  -1 38.2219 2.06089  14
   4  -5  -1 38.8113 2.04004  11
   4  -5  -1 37.6130 2.44657   5
   4  -5  -1 32.3872 2.02031  15
   4  -5  -1 40.5433 2.08291  12
   4  -5  -1 33.4325 2.06466  18
   4  -5  -1 33.1644 2.01793  17
   4   5  -1 38.9020 2.05647  10
   4   5  -1 36.9625 1.82425   8
   4   5  -1 37.0606 2.65499   3
   4   5  -1 32.1005 2.00393  13
   4   5  -1 36.5392 2.04080  11
   4   5  -1 35.5789 2.06836  18
   4   5  -1 39.3777 2.63163   2
   4   5  -1 38.5672 2.05544   9
   4   5  -1 38.6926 2.06763  12
   4   5  -1 41.5755 2.89094   4
   3  -5  -1 1129.60 55.0420   4
   3  -5  -1 1073.64 54.1082   6
   3  -5  -1 1009.53 53.9340   7
   3  -5  -1 1153.72 54.3625   5
   3   5  -1 1172.38 54.4912   4
   3   5  -1 1182.69 54.9053   2
   3   5  -1 1134.94 54.3842   3
  -2  -5   1 52.8896 4.39452   1
   2  -5  -1 54.1293 2.98926   4
   2  -5  -1 57.5793 2.96450   5
  -2  -5   1 54.4075 4.03292   1
   2  -5  -1 48.4440 2.80927   7
   2  -5  -1 55.3503 2.99046   6
   2   5  -1 55.7347 4.01964   1
   2   5  -1 52.5416 3.23561   3
   2   5  -1 55.2294 4.40542   1
   2   5  -1 55.4602 3.21448   4
   2   5  -1 55.7800 3.15714   2
  -1  -5   1 3362.27 165.344   1
   1  -5  -1 3341.86 163.088   1
  -1  -5   1 3471.80 163.621   3
   1  -5  -1 3365.12 161.848   5
   1  -5  -1 3392.28 163.017   1
   1  -5  -1 3334.62 162.332   6
   1  -5  -1 3124.12 161.260   7
   1  -5  -1 3064.80 161.561   2
   1  -5  -1 3080.81 161.972   3
  -1  -5   1 3224.95 162.317   2
  -1  -5   1 3558.10 164.815   1
   1  -5  -1 3267.47 162.141   3
  -1   5   1 3414.73 162.950   1
   1   5  -1 3637.79 164.447   1
   1   5  -1 3488.20 162.745   2
   1   5  -1 3405.79 164.722   1
  -1   5   1 3459.49 163.419   1
   1   5  -1 3381.43 162.940   4
   1   5  -1 3315.05 163.081   3
   0  -5  -1 1804.02 83.7931   1
   0  -5   1 1662.77 84.2095   1
   0  -5  -1 1728.02 83.0161   1
   0  -5  -1 1642.46 82.0266   6
   0  -5   1 1761.31 83.2227   1
   0  -5  -1 1741.40 82.2546   2
   0  -5  -1 1756.77 82.8917   3
   0  -5   1 1779.77 83.5740   3
   0  -5  -1 1440.12 80.8787   3
   0  -5   1 1623.48 82.0700   2
   0   5  -1 1673.31 82.5852   3
   0   5  -1 1802.82 83.0837   1
   0   5   1 1812.29 83.6743   1
   0   5   1 1560.10 81.7524   2
   0   5  -1 1722.31 83.3314   1
   0   5   1 1503.02 81.5544   3
   0   5  -1 1550.96 81.7500   2
   0   5   1 1756.93 82.8200   1
   1  -5   1 65.1727 4.39736   1
  -1  -5  -1 70.3181 3.57891   6
   1  -5   1 67.3322 4.18264   1
   1  -5   1 68.7113 3.60868   2
   1  -5   1 68.7457 3.75097   3
   1  -5   1 65.7308 3.63046   5
   1  -5   1 63.5134 3.66454   6
   1   5   1 82.1198 5.06896   1
   1   5   1 73.5126 3.82530   2
   1   5   1 78.9069 3.96405   3
   1   5   1 72.1988 4.58096   1
   1   5   1 64.3887 3.64830   4
  -1   5  -1 73.3769 4.30841   1
  -1   5  -1 80.2143 4.60665   1
   2  -5   1 1381.83 67.2796   1
   2  -5   1 1432.81 68.4909   3
  -2  -5  -1 1411.18 68.2332   1
   2  -5   1 1294.10 67.4137   2
   2  -5   1 1353.77 67.8139   6
   2  -5   1 1347.80 67.9105   3
   2  -5   1 1460.96 67.9471   5
   2  -5   1 1397.39 67.3767   1
  -2  -5  -1 1305.99 68.3257   1
   2  -5   1 1436.12 67.7934   2
   2   5   1 1360.17 68.0573   1
   2   5   1 1419.04 68.9465   3
   2   5   1 1444.48 68.6782   4
  -2   5  -1 1419.71 67.3503   1
  -2   5  -1 1428.33 67.5502   1
   2   5   1 1362.84 68.3437   1
   2   5   1 1384.74 67.6650   2
   3  -5   1 1096.39 56.4041   6
   3  -5   1 1173.41 56.6002   3
   3  -5   1 1187.14 56.4850   2
   3  -5   1 1151.09 56.5181   3
   3  -5   1 1073.26 56.3577   2
   3  -5   1 1181.81 56.4956   5
   3   5   1 1222.40 56.8665   3
   3   5   1 1235.48 56.6748   2
   3   5   1 1221.92 57.2854   4
   4  -5   1 362.810 17.7211   5
   4  -5   1 351.115 17.2569  11
   4  -5   1 372.977 17.3023  12
   4  -5   1 357.873 17.3109  13
   4  -5   1 332.817 17.2662  18
   4  -5   1 355.282 17.3080  14
   4  -5   1 336.100 17.2198  10
   4   5   1 368.237 17.7116   5
   4   5   1 366.689 18.1344   4
   4   5   1 368.303 17.7901   2
   4   5   1 362.733 17.2462   9
   4   5   1 349.028 17.1756   8
   4   5   1 363.749 17.3052  12
   4   5   1 335.982 17.2647  10
   4   5   1 369.217 18.0959   3
   5  -5   1 0.61996 0.44694  14
   5  -5   1 1.41223 0.84658   5
   5  -5   1 0.35051 0.47857  11
   5  -5   1 1.33115 0.51738  12
   5  -5   1 0.74344 0.38934  13
   5  -5   1 0.43484 0.10160  10
   5   5   1 0.43846 0.47089  13
   5   5   1 0.69255 0.38174  12
   5   5   1 0.83655 0.62462   2
   5   5   1 0.91855 0.33419   9
   5   5   1 0.70330 1.13763   4
   5   5   1 0.09586 0.41011  11
   5   5   1 0.65277 0.41670  10
   6  -5   1 374.000 17.5710  12
   6  -5   1 334.919 17.5334  14
   6  -5   1 351.071 17.5092  11
   6  -5   1 375.202 17.6103  13
   6   5   1 366.249 17.5631  12
   6   5   1 371.694 17.4705  10
   6   5   1 356.249 17.5656  13
   7  -5   1 0.59962 0.31754  12
   7  -5   1 0.58927 0.36762  13
   7   5   1 0.34187 0.43166  12
   7  -6  -1 14.0141 0.87152  12
   7  -6  -1 10.4040 0.80167  13
   6  -6  -1 657.163 36.9793  14
   6  -6  -1 780.963 37.1474  13
   6  -6  -1 767.473 37.3981  11
   6  -6  -1 827.290 37.3938  12
   6   6  -1 807.110 37.2920  10
   6   6  -1 724.643 36.9514  11
   6   6  -1 819.527 37.3419  12
   5  -6  -1 30.4062 1.85796  18
   5  -6  -1 30.2635 1.87538  13
   5  -6  -1 32.1881 1.83067  11
   5  -6  -1 26.5292 2.19770   5
   5  -6  -1 29.9537 1.83567  14
   5  -6  -1 30.0851 1.76640  12
   5   6  -1 29.0969 2.91794   4
   5   6  -1 28.7058 1.69339  11
   5   6  -1 29.2925 1.70360   9
   5   6  -1 29.7873 1.79210  10
   5   6  -1 30.8180 1.81574  12
   4  -6  -1 2348.73 109.528  12
   4  -6  -1 2345.31 109.330  14
   4  -6  -1 2331.68 109.256  11
   4  -6  -1 2265.00 109.582  13
   4  -6  -1 2072.45 108.857  15
   4  -6  -1 2059.29 108.891  18
   4  -6  -1 2272.92 108.639   5
   4   6  -1 2295.96 108.975   3
   4   6  -1 2274.55 108.483   8
   4   6  -1 2331.62 109.261  10
   4   6  -1 2295.85 109.048   9
   4   6  -1 2336.70 109.477  12
   4   6  -1 2163.84 108.730  11
   4   6  -1 2137.83 109.004  13
   4   6  -1 2369.96 110.803   4
   4   6  -1 2239.04 108.578  18
   3  -6  -1 70.5836 3.92275   5
   3  -6  -1 69.7458 3.93836   6
   3   6  -1 73.4356 4.28803   3
   3   6  -1 70.7213 4.32676   4
   2  -6  -1 1352.75 66.7113   3
  -2  -6   1 1283.09 68.3887   1
  -2  -6   1 1328.55 67.2507   6
   2  -6  -1 1419.54 66.8079   3
   2  -6  -1 1429.99 68.2900   6
   2  -6  -1 1434.81 66.6232   2
   2  -6  -1 1358.54 66.5713   1
   2  -6  -1 1263.42 66.6567   7
   2  -6  -1 1356.10 66.6440   2
   2  -6  -1 1389.93 66.7301   1
   2  -6  -1 1416.34 67.9499   5
   2   6  -1 1439.70 67.7548   3
   2   6  -1 1508.55 68.7356   4
   2   6  -1 1340.48 68.2989   1
   2   6  -1 1334.27 67.8995   1
  -2   6   1 1375.25 66.6408   1
  -2   6   1 1395.49 66.9218   1
   2   6  -1 1473.83 67.9245   2
  -1  -6   1 82.9912 4.54522   2
   1  -6  -1 93.5860 4.46127   5
   1  -6  -1 81.0764 4.33869   7
  -1  -6   1 89.4780 4.83764   3
   1  -6  -1 88.0821 4.52694   6
   1  -6  -1 94.5801 4.39042   2
   1  -6  -1 75.7824 4.40162   2
  -1  -6   1 77.5261 5.83804   1
   1  -6  -1 88.6706 4.52339   3
  -1  -6   1 88.1966 5.51370   1
   1  -6  -1 81.2769 4.46891   3
   1  -6  -1 93.5284 5.03275   1
   1  -6  -1 82.0192 5.11407   1
   1   6  -1 91.3823 4.67044   4
   1   6  -1 82.7315 5.52498   1
   1   6  -1 87.7692 4.76942   3
  -1   6   1 78.9014 4.89215   1
   1   6  -1 92.4763 4.70801   2
   1   6  -1 96.7896 6.00025   1
  -1   6   1 87.9537 5.19580   1
   0  -6  -1 4148.46 192.801   3
   0  -6   1 4004.97 191.732   2
   0  -6   1 3753.36 191.341   6
   0  -6   1 4179.30 193.389   3
   0  -6  -1 4145.51 194.318   1
   0  -6  -1 3792.32 194.732   1
   0  -6   1 3829.03 194.898   1
   0  -6  -1 3995.18 191.401   6
   0  -6   1 4146.06 194.302   1
   0   6   1 4155.29 194.303   1
   0   6   1 3569.02 191.286   2
   0   6   1 3678.63 191.970   3
   0   6  -1 3927.88 193.737   1
   0   6  -1 4330.66 195.139   1
   0   6  -1 3975.38 192.297   3
   0   6  -1 3743.87 191.476   2
   0   6   1 3922.14 193.944   1
  -1  -6  -1 605.654 28.8842   3
  -1  -6  -1 549.137 29.8530   1
   1  -6   1 499.048 28.5219   2
   1  -6   1 597.200 29.3592   6
   1  -6   1 575.638 29.4634   1
   1  -6   1 632.218 28.6591   3
   1  -6   1 587.621 29.2305   1
   1  -6   1 602.103 29.2081   2
   1  -6   1 610.501 28.9175   5
   1  -6   1 514.734 28.5816   3
  -1  -6  -1 590.219 28.4538   6
  -1  -6  -1 639.430 29.8097   1
  -1  -6  -1 602.609 28.6132   2
  -1   6  -1 620.012 29.5777   1
   1   6   1 636.198 30.1228   1
   1   6   1 594.672 28.6670   2
   1   6   1 604.503 28.5147   4
   1   6   1 601.878 28.8133   3
   1   6   1 555.208 29.5891   1
  -1   6  -1 579.475 29.2418   1
   2  -6   1 626.412 28.4247   3
   2  -6   1 603.224 29.1882   2
   2  -6   1 569.073 28.9723   1
  -2  -6  -1 536.700 30.1437   1
   2  -6   1 539.864 28.3109   2
   2  -6   1 561.039 29.0276   1
   2  -6   1 557.758 28.3899   3
   2  -6   1 599.344 28.4851   6
   2  -6   1 620.169 28.4454   5
   2   6   1 636.451 28.8494   3
   2   6   1 581.257 30.1684   1
   2   6   1 548.754 29.7949   1
   2   6   1 639.703 28.6522   2
   2   6   1 601.525 28.5565   4
  -2   6  -1 572.424 29.1643   1
   3  -6   1 1770.39 89.4957   6
   3  -6   1 1809.63 88.0100   3
   3  -6   1 1763.74 87.9606   3
   3  -6   1 1721.45 87.8738   2
   3  -6   1 1873.37 87.9349   2
   3  -6   1 1930.72 89.7512   5
   3   6   1 1824.57 88.8934   2
   3   6   1 1880.90 88.4473   3
   3   6   1 1891.13 90.0844   4
   4  -6   1 9.88366 0.59879  10
   4  -6   1 10.5005 0.80198  13
   4  -6   1 9.31147 0.81802  15
   4  -6   1 10.0210 0.77849  11
   4  -6   1 10.1173 0.81066  12
   4  -6   1 9.02921 0.92677  18
   4  -6   1 10.3903 0.90600  14
   4  -6   1 10.3796 1.40552   5
   4   6   1 9.96788 1.72906   2
   4   6   1 9.67161 1.67520   3
   4   6   1 10.9684 0.78295   8
   4   6   1 9.89350 1.34369   5
   4   6   1 9.97091 0.98045  12
   4   6   1 8.29379 0.93387   9
   4   6   1 10.2145 1.77735   4
   4   6   1 9.01714 0.96778  10
   5  -6   1 752.303 36.6088  13
   5  -6   1 776.333 36.5379  12
   5  -6   1 768.301 36.5073  11
   5  -6   1 755.412 36.4280  14
   5   6   1 771.136 36.0288  13
   5   6   1 749.588 36.3736  10
   5   6   1 649.488 36.8542   4
   5   6   1 739.758 36.2527   9
   5   6   1 758.990 36.4353  12
   6  -6   1 62.4408 3.50755  14
   6  -6   1 69.9217 3.60895  12
   6  -6   1 72.7693 3.63919  13
   6   6   1 66.0107 3.56226  13
   6   6   1 67.2910 3.54445  12
   6   6   1 68.0714 3.49093  10
   7  -6   1 158.541 7.29708  13
   7  -6   1 131.625 7.25115  12
   7   6   1 155.444 7.27344  12
   7  -7  -1 23.8557 1.34730  12
   7   7  -1 23.7330 1.35708  12
   6  -7  -1 8.19645 0.81981  13
   6  -7  -1 7.78423 0.77898  11
   6  -7  -1 7.49043 0.86855  14
   6  -7  -1 6.86386 0.82260  12
   6   7  -1 6.56351 0.66520  10
   6   7  -1 6.57561 0.88354  12
   5  -7  -1 335.214 15.5077  14
   5  -7  -1 332.045 15.4755  12
   5  -7  -1 306.795 15.4480  18
   5  -7  -1 280.647 15.8510   5
   5  -7  -1 336.113 15.5138  13
   5  -7  -1 342.926 15.4641  11
   5  -7  -1 294.600 15.4431  15
   5   7  -1 307.400 15.4080  11
   5   7  -1 322.276 15.5019  12
   5   7  -1 329.736 15.3776   9
   5   7  -1 292.851 16.4690   4
   5   7  -1 327.847 15.4577  10
   4  -7  -1 7.00877 0.87315  18
   4  -7  -1 8.73379 0.90839  15
   4  -7  -1 10.3869 0.93602  14
   4  -7  -1 9.29566 0.77595  12
   4  -7  -1 9.15395 0.72985  11
   4  -7  -1 9.86919 1.33291   5
   4   7  -1 8.76308 0.72682   8
   4   7  -1 8.09409 0.97989  10
   4   7  -1 8.18922 1.42123   3
   4   7  -1 9.90547 1.64742   4
   4   7  -1 8.68613 1.02523  12
   4   7  -1 8.92125 0.93012   9
   4   7  -1 6.77627 0.81989  11
   4   7  -1 9.85146 1.61119   2
   3  -7  -1 441.023 20.9244   5
   3  -7  -1 416.334 20.6050  14
   3  -7  -1 423.414 20.9756   6
   3  -7  -1 412.108 20.5920  13
   3   7  -1 427.260 21.2931   4
   3   7  -1 439.369 21.3650   3
   2  -7  -1 107.558 5.02753   5
   2  -7  -1 94.6000 4.77972   3
  -2  -7   1 92.9430 4.85308   6
   2  -7  -1 101.116 4.72401   2
   2  -7  -1 102.111 4.79679   3
   2  -7  -1 84.3542 4.78116   7
   2  -7  -1 92.8525 4.73846   2
   2  -7  -1 102.022 5.09195   6
  -2  -7   1 82.6099 6.82178   1
   2  -7  -1 91.6065 5.19993   1
   2   7  -1 99.6928 5.28345   2
   2   7  -1 100.688 5.43857   3
   2   7  -1 99.5590 5.26363   4
   2   7  -1 87.0307 6.79618   1
  -2   7   1 88.9217 5.16091   1
  -1  -7   1 1479.93 75.0992   1
   1  -7  -1 1468.38 73.7090   3
   1  -7  -1 1533.69 73.9607   1
  -1  -7   1 1618.05 73.6871   3
  -1  -7   1 1559.12 75.0481   2
   1  -7  -1 1625.01 75.5147   6
   1  -7  -1 1309.77 73.1987   2
  -1  -7   1 1623.59 74.6992   1
   1  -7  -1 1503.20 75.2182   3
   1  -7  -1 1578.02 74.6373   2
   1  -7  -1 1427.05 74.1067   1
  -1  -7   1 1595.26 74.9821   6
   1  -7  -1 1413.50 73.6135   7
   1   7  -1 1510.36 73.9575   2
  -1   7   1 1480.63 73.8950   1
  -1   7   1 1570.35 74.2566   1
   1   7  -1 1505.39 74.6003   1
   1   7  -1 1583.60 74.7446   4
   1   7  -1 1587.77 75.0964   1
   1   7  -1 1521.32 73.5742   3
   0  -7   1 53.8205 3.23557   3
   0  -7   1 54.7764 2.86421   6
   0  -7  -1 50.6454 2.84472   6
   0  -7   1 53.1629 2.92313   2
   0  -7  -1 54.6546 3.13902   3
   0  -7  -1 54.1305 2.88743   2
   0  -7  -1 51.9368 3.75619   1
   0  -7  -1 48.2346 3.98241   1
   0  -7   1 51.8498 3.74208   1
   0  -7   1 54.5530 4.14181   1
   0   7   1 47.6804 3.75116   1
   0   7   1 54.7322 4.14982   1
   0   7  -1 46.3696 2.98302   2
   0   7  -1 49.3616 3.12981   3
   0   7  -1 57.4241 3.93173   1
   0   7  -1 50.8653 4.06818   1
  -1  -7  -1 79.5887 5.22410   1
   1  -7   1 68.9572 4.86852   1
   1  -7   1 78.3680 3.89111   5
  -1  -7  -1 73.0024 3.84283   6
  -1  -7  -1 68.4312 5.34024   1
   1  -7   1 73.7113 4.65973   1
   1  -7   1 74.2209 3.95953   6
  -1  -7  -1 72.8306 4.31719   3
  -1  -7  -1 76.0406 4.03072   2
   1  -7   1 74.2212 4.06301   3
   1  -7   1 75.1299 3.87932   2
   1   7   1 72.4019 5.14377   1
   1   7   1 78.8366 5.62969   1
  -1   7  -1 71.0453 4.69298   1
   1   7   1 74.0981 4.12297   2
   1   7   1 72.1460 3.89293   4
   1   7   1 72.9859 4.28782   3
  -1   7  -1 73.5013 4.99013   1
  -2  -7  -1 34.8425 3.98986   1
   2  -7   1 40.5115 2.37821   3
   2  -7   1 41.5049 2.24045   2
   2  -7   1 42.3505 2.48792   6
   2  -7   1 38.6332 2.39042   5
   2   7   1 40.2213 2.64946   2
   2   7   1 38.5670 2.85643   3
   2   7   1 43.8662 2.54011   4
   2   7   1 35.3632 3.88320   1
   3  -7   1 142.065 7.08269  14
   3  -7   1 137.399 6.93526   2
   3  -7   1 137.105 6.94468   3
   3  -7   1 155.414 7.07998  12
   3  -7   1 142.605 7.07355  13
   3  -7   1 151.124 7.44764   5
   3  -7   1 140.279 6.94650  10
   3  -7   1 142.603 6.93365   2
   3  -7   1 141.151 7.43698   6
   3  -7   1 138.260 6.94827   3
   3   7   1 143.809 7.68777   2
   3   7   1 146.582 7.66542   4
   3   7   1 149.602 8.00307   3
   4  -7   1 277.309 13.6437  10
   4  -7   1 303.920 13.8377  12
   4  -7   1 295.948 13.8591  13
   4  -7   1 290.464 14.3212   5
   4  -7   1 295.959 13.8659  14
   4  -7   1 285.491 13.7843  11
   4  -7   1 251.973 13.7870  15
   4   7   1 279.780 14.4998   2
   4   7   1 274.578 13.7988   9
   4   7   1 284.638 13.7112   8
   4   7   1 288.553 14.3049   5
   4   7   1 282.554 13.8343  10
   4   7   1 279.856 14.6422   4
   4   7   1 280.447 14.7619   3
   4   7   1 285.276 13.8424  12
   5  -7   1 5.58678 0.67948  11
   5  -7   1 5.79713 0.74553  12
   5  -7   1 4.20381 0.90436   5
   5  -7   1 5.76422 0.73899  14
   5  -7   1 5.11661 0.77504  13
   5   7   1 5.43826 0.68096   9
   5   7   1 2.91371 1.27452   4
   5   7   1 5.50182 0.77936  12
   5   7   1 5.04485 0.87455  13
   5   7   1 4.55127 0.64293  10
   6  -7   1 95.0041 4.84077  14
   6  -7   1 96.3663 4.87383  13
   6  -7   1 91.4462 4.79142  12
   6   7   1 98.4641 4.86970  12
   6   7   1 94.2911 4.76606  10
   6   7   1 93.0973 4.80793  13
   7  -7   1 14.1346 0.86162  13
   7  -7   1 13.4227 0.84969  12
   7   7   1 10.7853 0.81733  12
   7   8  -1 11.7181 0.78348  12
   6  -8  -1 9.13866 0.80759  14
   6  -8  -1 10.3391 0.87148  13
   6  -8  -1 9.74039 1.05651  12
   6   8  -1 9.65473 0.89892  10
   6   8  -1 9.58649 1.11373  12
   5  -8  -1 71.4423 4.04028  15
   5  -8  -1 78.9828 4.10333  14
   5  -8  -1 82.1560 4.06473  11
   5  -8  -1 76.4375 4.09013  13
   5  -8  -1 82.1079 4.12029  12
   5   8  -1 78.7475 4.10605  10
   5   8  -1 82.8530 4.02485   9
   5   8  -1 79.8333 4.15984  12
   4  -8  -1 38.1433 2.08741  13
   4  -8  -1 34.6315 1.97106  11
   4  -8  -1 37.6071 2.09341  14
   4  -8  -1 36.2328 2.04641  12
   4  -8  -1 36.2971 2.50069   5
   4   8  -1 36.5670 2.11556  12
   4   8  -1 33.7245 2.79117   2
   4   8  -1 34.1505 2.06050   9
   4   8  -1 34.1467 1.86809   8
   4   8  -1 32.9515 2.99105   4
   4   8  -1 31.6611 2.09032  10
   4   8  -1 35.0412 2.97135   3
   3  -8  -1 142.561 7.12860   5
   3  -8  -1 136.214 6.72170  12
   3  -8  -1 128.018 6.72016  15
   3  -8  -1 128.262 6.56160  10
   3  -8  -1 140.729 6.76763  14
   3  -8  -1 137.020 7.19830   6
   3  -8  -1 139.157 6.73532  13
   3   8  -1 136.275 7.51703   4
   3   8  -1 133.133 6.67909   8
   3   8  -1 140.617 7.65732   3
   2  -8  -1 22.6888 1.45641   3
   2  -8  -1 23.5636 1.57050   5
   2  -8  -1 22.1118 1.40966   3
   2  -8  -1 20.4657 1.36498   2
   2  -8  -1 23.6342 1.75940   6
   2  -8  -1 22.0174 1.34411   2
   2   8  -1 28.0248 2.11612   2
   2   8  -1 23.7846 2.14959   3
   2   8  -1 23.6612 3.47305   1
   2   8  -1 25.9730 1.98398   4
  -1  -8   1 601.670 30.9517   1
  -1  -8   1 622.204 29.5306   2
   1  -8  -1 607.630 29.5318   3
  -1  -8   1 626.337 29.3706   6
  -1  -8   1 632.400 29.8926   3
  -1  -8   1 561.487 31.3836   1
   1  -8  -1 560.826 29.2009   7
   1  -8  -1 629.471 30.0553   2
   1  -8  -1 642.889 29.4827   6
   1   8  -1 599.116 29.7663   3
   1   8  -1 591.585 29.6241   2
   1   8  -1 622.584 29.5469   4
   1   8  -1 604.668 31.4733   1
   1   8  -1 577.529 30.8836   1
   0  -8   1 224.336 10.9093   3
   0  -8  -1 201.330 11.6161   1
   0  -8  -1 234.285 10.8339   3
   0  -8   1 226.546 10.5744   2
   0  -8  -1 207.398 10.5051   2
   0  -8   1 219.374 11.7226   1
   0  -8  -1 218.567 10.5293   6
   0  -8  -1 190.729 11.9412   1
   0  -8   1 193.116 11.9629   1
   0  -8   1 212.557 10.5034   6
   0   8  -1 202.083 11.6786   1
   0   8   1 197.239 11.6711   1
   1  -8   1 520.206 24.5954   2
   1  -8   1 541.524 24.5899   5
  -1  -8  -1 446.201 26.3978   1
  -1  -8  -1 542.483 25.0941   3
  -1  -8  -1 524.645 24.5692   6
   1  -8   1 530.477 24.6922   6
  -1  -8  -1 522.910 24.7501   2
  -1  -8  -1 504.586 26.1773   1
   1  -8   1 520.284 24.8049   3
   1   8   1 482.579 24.7971   2
   1   8   1 500.180 25.0651   3
   1   8   1 457.260 26.0883   1
   1   8   1 478.047 24.5340   4
   2  -8   1 1.99019 0.55465   3
   2  -8   1 1.84240 0.59297   5
   2  -8   1 1.53848 0.63891   6
   2  -8   1 1.58736 0.41715   2
   2   8   1 2.13130 0.65324   4
   2   8   1 1.51748 0.76300   2
   2   8   1 1.48361 0.92889   3
   3  -8   1 185.102 8.86561  13
   3  -8   1 186.445 8.85464  12
   3  -8   1 177.375 8.87382  15
   3  -8   1 174.853 8.81226  11
   3  -8   1 191.044 9.29734   5
   3  -8   1 185.378 8.88563  14
   3  -8   1 178.389 8.73416  10
   3  -8   1 181.255 9.29417   6
   3   8   1 175.402 9.41471   4
   3   8   1 188.017 9.58467   2
   3   8   1 182.228 9.87578   3
   3   8   1 164.023 8.80640   8
   4  -8   1 9.75898 0.97536  12
   4  -8   1 8.84968 0.86187  11
   4  -8   1 8.09560 0.54001  10
   4  -8   1 7.05950 0.73464  15
   4  -8   1 9.78277 0.97822  13
   4  -8   1 8.86803 0.97569  14
   4  -8   1 7.54691 1.16568   5
   4   8   1 8.81411 0.78591   8
   4   8   1 8.68599 0.98436  12
   4   8   1 6.47051 1.37917   4
   4   8   1 6.76717 1.36217   2
   4   8   1 7.32300 1.17155   5
   4   8   1 7.83916 1.03973  10
   4   8   1 8.03103 1.02048   9
   4   8   1 8.07918 1.56661   3
   5  -8   1 51.0099 2.76780  13
   5  -8   1 50.9330 2.75066  12
   5  -8   1 51.2249 2.71618  14
   5   8   1 48.3538 2.65482   9
   5   8   1 47.8588 2.65297  13
   5   8   1 46.8159 2.64715  10
   5   8   1 48.3170 2.67420  12
   6  -8   1 58.7070 3.10568  14
   6  -8   1 58.1895 3.03496  12
   6  -8   1 60.2155 3.13397  13
   6   8   1 56.1317 2.80922   9
   6   8   1 54.4335 3.01866  13
   6   8   1 58.0519 3.03551  10
   6   8   1 57.2921 3.04282  12
   7  -8   1 21.4298 1.22976  13
   6  -9  -1 14.7246 1.05369  12
   6  -9  -1 14.7861 1.05577  13
   6  -9  -1 13.8234 1.00534  14
   6   9  -1 14.6155 1.08447  12
   6   9  -1 15.4648 1.10952  10
   5  -9  -1 78.6339 4.07312  12
   5  -9  -1 79.1123 4.10336  13
   5  -9  -1 80.8050 4.12780  14
   5  -9  -1 74.4595 4.10422  15
   5   9  -1 78.1993 4.10823  12
   5   9  -1 81.5241 4.13869  10
   5   9  -1 81.7965 4.09594   9
   4  -9  -1 894.792 42.0130  14
   4  -9  -1 805.000 41.5079   5
   4  -9  -1 849.622 41.1700  11
   4  -9  -1 862.984 41.7000  12
   4  -9  -1 905.536 41.8769  15
   4  -9  -1 909.316 41.6501  13
   4   9  -1 854.496 41.0739   9
   4   9  -1 807.068 41.9201   4
   4   9  -1 826.221 41.0916  10
   4   9  -1 874.434 41.3400   8
   4   9  -1 799.299 41.7783   2
   3  -9  -1 406.539 19.7735  10
   3  -9  -1 408.733 19.7198  12
   3  -9  -1 433.430 19.7683  13
   3  -9  -1 372.066 19.6622  11
   3  -9  -1 371.294 19.8001  16
   3  -9  -1 423.885 20.1401   5
   3  -9  -1 399.078 19.7489  15
   3  -9  -1 435.044 20.2968   6
   3  -9  -1 425.013 19.7747  14
   3   9  -1 375.733 19.7496   9
   3   9  -1 416.079 20.4554   2
   3   9  -1 402.373 19.6869   8
   3   9  -1 419.686 20.5123   4
   3   9  -1 427.441 20.7872   3
   2  -9  -1 21.8077 1.30036   2
   2  -9  -1 20.4174 1.58095   6
   2  -9  -1 20.5555 1.46197   3
   2   9  -1 20.8205 1.89617   4
   2   9  -1 19.0752 1.99175   2
   2   9  -1 20.4240 2.12873   3
   1  -9  -1 16.7470 1.27891   2
  -1  -9   1 15.5442 1.88820   3
  -1  -9   1 16.0027 1.26230   6
  -1  -9   1 16.3559 1.45728   2
   1  -9  -1 14.1984 1.03236   7
   1  -9  -1 17.1833 1.42695   6
   1  -9  -1 14.9186 1.46196   3
   1   9  -1 14.7578 1.45919   4
   1   9  -1 13.5818 2.45899   1
   0  -9   1 1160.35 57.4924   6
   0  -9  -1 1181.95 56.4955   3
   0  -9   1 1094.46 57.5304   1
   0  -9  -1 1197.19 57.0836   6
   0  -9  -1 1151.61 57.3892   2
   0  -9   1 1202.03 57.5362   2
   0  -9   1 1165.73 56.5752   3
  -1  -9  -1 169.174 8.27974   6
   1  -9   1 173.898 8.43618   6
  -1  -9  -1 166.180 8.47999   2
   1  -9   1 166.646 8.29521   2
   1  -9   1 167.775 8.56067   3
  -1  -9  -1 177.225 8.86502   3
  -1  -9  -1 147.075 9.84821   1
   1   9   1 139.088 9.99719   1
   2  -9   1 22.4458 1.81686   6
   2  -9   1 22.5727 1.54332   2
   2  -9   1 25.1671 1.72803   3
   2  -9   1 22.8574 1.70607   5
   2   9   1 21.0668 2.08278   3
   2   9   1 21.7255 2.00501   2
   3  -9   1 290.262 14.1195  12
   3  -9   1 295.264 14.6322   6
   3  -9   1 285.614 14.1488  15
   3  -9   1 295.987 14.1664  14
   3  -9   1 302.629 14.5728   5
   3  -9   1 290.996 14.1362  13
   3  -9   1 289.637 14.0051  10
   3   9   1 303.044 14.9309   2
   3   9   1 261.747 14.1476   9
   3   9   1 279.066 14.0806   8
   3   9   1 305.210 15.3117   3
   4  -9   1 41.4896 2.14733  13
   4  -9   1 37.5959 1.89168  10
   4  -9   1 41.7298 2.18620  12
   4  -9   1 40.9181 2.16572  14
   4  -9   1 38.5357 2.71079   5
   4  -9   1 37.0233 2.10543  15
   4   9   1 37.7478 2.04999   8
   4   9   1 34.9691 2.20926   9
   4   9   1 36.3555 2.18346  12
   4   9   1 33.8933 2.91746   2
   4   9   1 33.5471 3.12590   3
   4   9   1 34.0202 2.22622  10
   5  -9   1 2.37419 0.54236  12
   5  -9   1 1.05165 0.57876  13
   5  -9   1 1.03095 0.44678  15
   5  -9   1 0.14171 0.52686  14
   5   9   1 1.37028 0.54007  10
   5   9   1 1.66297 0.38480  13
   5   9   1 1.33340 0.51952  12
   5   9   1 1.74121 0.51731   9
   6  -9   1 34.3216 1.93164  12
   6  -9   1 33.9607 1.94479  13
   6  -9   1 28.9897 1.90995  14
   6   9   1 36.4557 1.97513  10
   6   9   1 36.7961 1.73420   9
   6   9   1 35.7182 1.94699  12
   6 -10  -1 0.81032 0.40792  13
   6 -10  -1 0.43740 0.33932  14
   6  10  -1 0.47216 0.31659  10
   6  10  -1 0.11403 0.34753  12
   5 -10  -1 -0.0856 0.37511  13
   5 -10  -1 -0.3715 0.46181  12
   5 -10  -1 -0.1815 0.35373  14
   5 -10  -1 0.04968 0.48956  15
   5  10  -1 0.18419 0.51194  12
   5  10  -1 -0.2710 0.48477   9
   5  10  -1 0.05526 0.37266  10
   4 -10  -1 52.5426 2.68754  12
   4 -10  -1 51.5099 2.72579  13
   4 -10  -1 53.0905 2.81351  15
   4 -10  -1 55.0451 2.75506  14
   4  10  -1 44.9208 2.70846  10
   4  10  -1 48.2228 2.79932   9
   4  10  -1 42.7565 3.57398   2
   4  10  -1 47.3689 2.60936   8
   3 -10  -1 356.486 17.1046  10
   3 -10  -1 363.762 17.2430  15
   3 -10  -1 375.604 17.2409  13
   3 -10  -1 366.754 17.8122   6
   3 -10  -1 340.091 17.2945  16
   3 -10  -1 374.700 17.2592  14
   3 -10  -1 359.942 17.1923  12
   3  10  -1 350.484 17.9492   4
   3  10  -1 350.847 18.2921   3
   3  10  -1 335.272 17.9455   2
   3  10  -1 318.205 17.2216   9
   3  10  -1 363.458 17.1688   8
   2 -10  -1 110.262 5.61290  15
   2 -10  -1 110.291 5.60170  14
   2 -10  -1 118.610 5.70094   2
   2 -10  -1 116.166 5.86970   3
   2 -10  -1 118.711 6.12169   6
   2 -10  -1 112.359 5.49665  10
   2 -10  -1 114.856 5.62334  13
   2 -10  -1 106.569 5.65997  16
   2 -10  -1 106.606 5.45931   9
   2  10  -1 111.394 6.18851   4
  -1 -10   1 63.7399 4.28428   3
   1 -10  -1 70.9958 3.78469   6
   1 -10  -1 65.7850 3.60324   2
   1 -10  -1 60.8461 3.81437   3
  -1 -10   1 65.9786 3.63537   6
  -1 -10   1 62.6304 3.74202   2
   1  10  -1 60.5510 3.73579   4
   0 -10   1 832.056 40.0568   6
   0 -10  -1 821.806 40.3866   3
   0 -10   1 804.495 40.4386   3
   0 -10  -1 836.121 40.0546   2
   0 -10   1 812.256 40.0692   2
   0 -10  -1 845.857 40.0473   6
   1 -10   1 106.821 5.87330   6
  -1 -10  -1 107.787 5.69523   6
  -1 -10  -1 108.801 5.95050   2
   1 -10   1 113.313 6.07175   3
  -1 -10  -1 102.820 6.26796   3
   1 -10   1 115.080 5.77953   2
   2 -10   1 77.5386 4.16930   5
   2 -10   1 73.7696 3.67447  10
   2 -10   1 70.6555 3.75682  13
   2 -10   1 71.8169 3.75275  14
   2 -10   1 76.2584 3.96430   2
   2 -10   1 78.6435 4.24449   3
   2 -10   1 71.6547 3.77909  15
   2 -10   1 76.4838 4.31455   6
   2 -10   1 69.5262 3.63880   9
   3 -10   1 82.6334 4.19039  12
   3 -10   1 81.8419 4.68739   5
   3 -10   1 80.9246 4.25277  15
   3 -10   1 83.5958 4.20567  13
   3 -10   1 84.2253 4.78660   6
   3 -10   1 84.4585 4.25100  14
   3 -10   1 82.5378 4.06875  10
   3  10   1 82.4316 5.46765   3
   3  10   1 78.9133 4.19444   8
   4 -10   1 28.5929 2.37752   5
   4 -10   1 31.9037 1.91372  15
   4 -10   1 32.7214 1.93509  13
   4 -10   1 32.9822 1.90409  12
   4 -10   1 31.4904 1.59310  10
   4 -10   1 33.7222 1.94595  14
   4  10   1 30.7657 1.78139   8
   4  10   1 29.9036 1.85076   9
   4  10   1 31.8608 1.91202  12
   4  10   1 26.9584 2.49343   2
   5 -10   1 2.35759 0.52222  15
   5 -10   1 2.99979 0.47936  12
   5 -10   1 2.24111 0.49133  14
   5 -10   1 3.14428 0.50978  13
   5  10   1 2.92420 0.55971  12
   5  10   1 2.65400 0.57287   9
   5  10   1 2.96056 0.43626  13
   5  10   1 3.03009 0.61781  10
   6 -10   1 2.23549 0.44257  13
   6 -10   1 2.36604 0.42664  14
   6  10   1 1.75405 0.39667  12
   6  10   1 2.30884 0.37769   9
   6  10   1 2.10758 0.49134  10
   6 -11  -1 54.0192 2.79714  13
   6 -11  -1 51.5907 2.79713  14
   6  11  -1 50.5069 2.78860  12
   6  11  -1 57.5791 2.81013  10
   5 -11  -1 35.8316 2.04006  13
   5 -11  -1 36.6940 2.14462  14
   5 -11  -1 31.1219 2.00122  15
   5  11  -1 34.5253 2.13927  10
   5  11  -1 36.8470 2.06001   9
   5  11  -1 37.4775 2.14306  12
   4 -11  -1 475.571 23.7007  12
   4 -11  -1 503.721 23.7774  14
   4 -11  -1 478.984 23.7338  13
   4 -11  -1 495.099 23.7675  15
   4  11  -1 505.476 23.6134   8
   4  11  -1 481.678 23.7166   9
   3 -11  -1 648.998 32.8880  15
   3 -11  -1 655.613 32.5838  10
   3 -11  -1 667.927 33.0511   6
   3 -11  -1 687.562 32.8338  13
   3 -11  -1 645.080 32.5029  16
   3 -11  -1 701.954 33.1665  14
   3  11  -1 699.085 32.3741   8
   2 -11  -1 106.307 5.62170  16
   2 -11  -1 112.113 5.53881  13
   2 -11  -1 109.923 5.63012   2
   2 -11  -1 110.508 5.51953  15
   2 -11  -1 118.545 6.12974   6
   2 -11  -1 111.603 5.53716  14
   2 -11  -1 104.503 5.78613   3
   2 -11  -1 105.871 5.36523   9
   2 -11  -1 113.777 5.41392  10
  -1 -11   1 64.8318 3.55253   6
   1 -11  -1 56.8440 2.94305   8
   1 -11  -1 56.3846 3.02318   9
   1 -11  -1 63.4649 3.77445   3
  -1 -11   1 62.2416 4.26042   3
   1 -11  -1 54.5223 3.09237  15
   1 -11  -1 62.3322 3.44907   2
   1 -11  -1 60.2814 3.05023  10
   1 -11  -1 63.5397 3.64588   6
  -1 -11   1 60.2995 3.69372   2
   0 -11  -1 638.097 31.0497   6
   0 -11  -1 630.667 31.0753   2
   0 -11   1 638.992 31.0920   6
   0 -11   1 642.162 31.1042   2
   0 -11   1 645.111 31.5171   3
   0 -11  -1 621.278 31.4657   3
   1 -11   1 60.7770 3.23603   9
   1 -11   1 62.9063 3.24832  10
   1 -11   1 59.4345 3.16551   8
  -1 -11  -1 65.2580 3.64002   6
   1 -11   1 67.6369 3.87311   6
   1 -11   1 65.3774 4.04054   3
  -1 -11  -1 67.4239 4.37208   3
   1 -11   1 62.1632 3.28172  15
  -1 -11  -1 65.5305 3.84954   2
   1 -11   1 67.4614 3.70359   2
   2 -11   1 57.4223 3.12322   2
   2 -11   1 47.6294 2.86917  16
   2 -11   1 54.0547 2.75661  10
   2 -11   1 58.0680 3.50118   6
   2 -11   1 54.2689 2.86961  13
   2 -11   1 54.1098 2.72689   9
   2 -11   1 52.9076 2.84726  14
   2 -11   1 52.5548 3.29833   3
   2 -11   1 55.4664 2.88167  15
   3 -11   1 1624.99 76.0724  10
   3 -11   1 1575.05 76.1946   6
   3 -11   1 1518.06 76.0206   5
   3 -11   1 1594.47 76.6512  13
   3 -11   1 1582.00 76.6693  14
   3 -11   1 1591.59 77.0142  15
   3  11   1 1535.88 76.1296   8
   4 -11   1 31.9771 1.86796  13
   4 -11   1 31.6785 1.61295  10
   4 -11   1 27.9516 2.26975   5
   4 -11   1 30.1169 1.87857  14
   4 -11   1 32.7578 1.96161  15
   4  11   1 33.3474 2.03023   9
   4  11   1 30.4945 1.84933  12
   4  11   1 34.5000 1.84135   8
   5 -11   1 37.1672 2.10284  14
   5 -11   1 33.4402 2.00757  15
   5 -11   1 35.8490 1.98798  13
   5  11   1 29.5674 1.88764  13
   5  11   1 33.1728 1.94100  12
   5  11   1 33.3282 1.97672  10
   5  11   1 37.1721 2.04188   9
   6 -11   1 45.5649 2.46650  13
   6 -11   1 47.5024 2.52373  14
   6  11   1 45.3727 2.43579  12
   6  11   1 48.1351 2.43673  10
   6  11   1 46.3414 2.28392   9
   6 -12  -1 0.61162 0.32415  14
   6 -12  -1 1.02442 0.36973  13
   6  12  -1 0.01447 0.31288  12
   6  12  -1 0.69167 0.42559  10
   5 -12  -1 59.8112 3.24407  14
   5 -12  -1 61.1485 3.29279  13
   5 -12  -1 59.3274 3.23270  15
   5  12  -1 60.2674 3.30348  10
   5  12  -1 61.9746 3.31170  12
   5  12  -1 65.3904 3.24428   9
   4 -12  -1 267.045 12.7420  13
   4 -12  -1 263.899 12.7433  15
   4 -12  -1 260.204 12.7386  14
   4  12  -1 259.460 12.5966   8
   4  12  -1 246.768 12.7223   9
   3 -12  -1 113.099 5.58349  14
   3 -12  -1 111.796 5.37875  10
   3 -12  -1 105.029 5.69832  16
   3 -12  -1 115.115 5.57320  13
   3 -12  -1 100.854 6.16219   6
   3 -12  -1 112.667 5.61262  15
   3  12  -1 109.228 5.50891   8
   2 -12  -1 12.4840 0.93605  10
   2 -12  -1 13.1519 1.17049   2
   2 -12  -1 13.1602 1.14675  13
   2 -12  -1 12.4236 1.30289   3
   2 -12  -1 13.1223 0.82688   9
   2 -12  -1 12.9164 1.05525  14
   2 -12  -1 13.4787 1.47326   6
   2 -12  -1 14.8920 1.30175  16
   2 -12  -1 14.4398 0.98383  15
   1 -12  -1 91.4602 5.25128   3
  -1 -12   1 86.8024 5.57166   3
  -1 -12   1 83.7289 4.38888   8
   1 -12  -1 94.6214 4.60484  16
  -1 -12   1 83.5041 5.02895   2
   1 -12  -1 90.9893 4.88271   2
   1 -12  -1 85.7943 4.26682   8
   1 -12  -1 87.3761 4.45571  15
   1 -12  -1 87.3527 4.39770  10
   1 -12  -1 89.6243 4.37559   9
   1 -12  -1 87.3359 4.98405   6
   1 -12  -1 84.5664 4.43076  14
  -1 -12   1 89.6118 4.92463   6
   0 -12   1 54.9566 3.09860  15
   0 -12   1 61.1597 3.03229   8
   0 -12   1 64.7751 3.72927   6
   0 -12   1 64.0849 3.72462   2
   0 -12  -1 64.7455 3.70588   2
   0 -12  -1 60.5084 4.17092   3
   0 -12   1 57.2399 3.11640   9
   0 -12  -1 66.4186 3.61347   6
   0 -12  -1 54.0463 3.07427  15
   0 -12  -1 60.6837 3.09435  10
   0 -12  -1 59.1659 3.10554   9
   0 -12   1 64.0276 4.21089   3
   0 -12   1 54.9384 3.11567  10
   0 -12  -1 60.8250 3.02643   8
   1 -12   1 396.341 19.1244  10
   1 -12   1 399.143 19.9907   3
   1 -12   1 386.252 19.1775  15
  -1 -12  -1 400.352 19.5676   6
   1 -12   1 397.618 19.7703   6
  -1 -12  -1 391.146 19.8213   2
   1 -12   1 384.634 19.1469   8
   1 -12   1 416.773 19.6094   2
  -1 -12  -1 376.775 19.0966   8
   1 -12   1 401.161 19.1971   9
  -1 -12  -1 407.460 20.3803   3
   2 -12   1 63.5527 3.10572  10
   2 -12   1 58.0499 3.29455  16
   2 -12   1 59.3844 3.73489   3
   2 -12   1 60.8472 3.47434   2
   2 -12   1 62.4991 3.89226   6
   2 -12   1 61.3946 3.22799  15
   2 -12   1 56.2129 3.18250  14
   2 -12   1 62.8204 3.17483  13
   2 -12   1 61.7296 3.06484   9
   3 -12   1 123.419 5.98977  10
   3 -12   1 118.513 6.83500   6
   3 -12   1 126.710 6.17245  15
   3 -12   1 123.540 6.16884  13
   3 -12   1 121.291 6.17327  14
   3  12   1 117.782 6.09224   8
   4 -12   1 41.1298 2.07653  10
   4 -12   1 43.2185 2.38077  14
   4 -12   1 43.9703 2.44780  13
   4 -12   1 43.4220 2.45269  15
   4  12   1 42.2807 2.30723   8
   4  12   1 39.0586 2.48418   9
   4  12   1 40.3404 2.32476  12
   5 -12   1 30.0602 1.83261  15
   5 -12   1 31.4575 1.95490  13
   5 -12   1 32.7641 1.89444  14
   5  12   1 34.4375 1.94066   9
   5  12   1 31.4585 1.93280  12
   5  12   1 31.5056 1.96903  10
   6 -12   1 30.0459 1.66451  14
   6 -12   1 30.9504 1.65553  13
   6  12   1 27.3429 1.60269  12
   6  12   1 31.4686 1.62974  10
   6 -13  -1 40.5528 2.11272  14
   5 -13  -1 10.3353 0.87767  15
   5 -13  -1 10.2357 0.90094  13
   5 -13  -1 10.6038 1.04748  14
   5  13  -1 10.3175 0.90659  12
   5  13  -1 9.90414 0.91427  10
   5  13  -1 10.6165 0.86672   9
   4 -13  -1 90.3741 4.68001  13
   4 -13  -1 91.1975 4.71204  15
   4 -13  -1 87.7417 4.68825  14
   4  13  -1 93.1796 4.76486   9
   4  13  -1 93.4192 4.58989   8
   3 -13  -1 72.1550 3.78504  13
   3 -13  -1 74.9036 3.79469  15
   3 -13  -1 66.5593 3.50580  10
   3 -13  -1 74.2507 3.78181  14
   3 -13  -1 67.0718 3.88243  16
   3 -13  -1 66.9974 4.47916   6
   3  13  -1 72.8747 3.73521   8
   2 -13  -1 49.5868 2.61764  15
   2 -13  -1 43.3181 2.87176   3
   2 -13  -1 51.9335 2.52481  10
   2 -13  -1 48.8579 2.45065   9
   2 -13  -1 47.3009 2.75852   2
   2 -13  -1 47.6537 2.74357  16
   2 -13  -1 47.6353 2.65251  14
   2 -13  -1 48.3179 3.22572   6
  -1 -13   1 133.582 6.56129   8
   1 -13  -1 139.557 6.61954  15
   1 -13  -1 124.164 6.59265  14
   1 -13  -1 126.987 6.40294   8
   1 -13  -1 140.539 6.78031  16
   1 -13  -1 134.792 7.03562   2
   1 -13  -1 126.532 7.34313   3
   1 -13  -1 138.849 7.22171   6
   1 -13  -1 133.225 6.54277   9
  -1 -13   1 130.082 7.10588   6
   1 -13  -1 134.467 6.56836  10
   0 -13   1 1021.98 50.0775  10
   0 -13   1 947.975 50.3748  15
   0 -13  -1 1075.33 50.7018   2
   0 -13   1 1047.99 50.6999   2
   0 -13   1 1080.35 50.7304   6
   0 -13   1 1062.63 50.5218   8
   0 -13  -1 1032.72 50.6332   9
   0 -13   1 1006.55 50.5927   9
   0 -13  -1 1113.07 50.6227   8
   0 -13  -1 1015.87 51.1655   3
   0 -13  -1 1046.21 50.0763  10
   0 -13   1 1060.04 51.2174   3
   1 -13   1 288.620 14.7190   3
   1 -13   1 294.025 13.8024  15
   1 -13   1 284.158 13.6278   8
   1 -13   1 289.312 14.2894   2
  -1 -13  -1 280.464 14.5123   2
  -1 -13  -1 258.322 14.9991   3
  -1 -13  -1 272.164 13.7904   9
  -1 -13  -1 268.920 13.7037   8
   1 -13   1 298.351 14.4881   6
   1 -13   1 290.128 13.7512  10
   1 -13   1 287.452 13.7219   9
   2 -13   1 128.656 6.17349   9
   2 -13   1 121.689 6.56944   2
   2 -13   1 132.432 6.34546  15
   2 -13   1 130.214 6.23680  10
   2 -13   1 131.190 7.00890   6
   2 -13   1 127.068 6.30514  14
  -2 -13  -1 112.982 6.25096   8
   2 -13   1 131.373 6.34207  13
   2 -13   1 121.745 6.84174   3
   2 -13   1 123.536 6.42614  16
   3 -13   1 148.309 7.17694  10
   3 -13   1 138.983 8.04947   6
   3 -13   1 152.616 7.36116  15
   3 -13   1 146.850 7.35660  14
   3 -13   1 155.967 7.33406  13
   3  13   1 136.920 7.30840   8
   4 -13   1 3.99406 0.69152  14
   4 -13   1 4.66629 0.72921  13
   4 -13   1 4.83356 0.75898  15
   4  13   1 4.31522 0.74558   9
   4  13   1 5.28512 0.89906  12
   4  13   1 3.80670 0.57456   8
   5 -13   1 74.8763 3.89438  13
   5 -13   1 76.2459 3.89448  15
   5 -13   1 76.7873 3.93404  14
   5  13   1 76.5204 3.86639   9
   5  13   1 75.6801 3.87907  12
   6 -13   1 83.4419 4.16761  14
   5 -14  -1 6.93971 0.70521  15
   5 -14  -1 6.87094 0.72951  14
   5  14  -1 6.20924 0.72234  12
   5  14  -1 8.12415 0.72283   9
   4 -14  -1 257.674 12.8611  13
   4 -14  -1 262.812 12.8918  15
   4 -14  -1 265.553 12.8966  14
   4  14  -1 259.555 12.8879   9
   4  14  -1 269.618 12.7577   8
   3 -14  -1 6.23417 0.59733  10
   3 -14  -1 6.32896 0.95572  16
   3 -14  -1 6.19901 0.94397  14
   3 -14  -1 5.71695 1.00423  15
   3  14  -1 4.90883 0.73646   8
  -2 -14   1 456.535 22.5809   8
   2 -14  -1 436.730 22.7097   2
   2 -14  -1 487.104 22.8072  10
   2 -14  -1 492.130 22.6090   9
   2 -14  -1 484.881 22.7815  16
   2 -14  -1 437.186 23.2922   6
   2 -14  -1 477.748 22.6582  15
   2 -14  -1 464.876 22.6364  14
   1 -14  -1 104.757 5.39998  15
   1 -14  -1 112.090 5.35591  10
   1 -14  -1 107.186 5.31935   9
   1 -14  -1 104.527 6.06904   6
   1 -14  -1 110.055 5.54999  16
  -1 -14   1 103.160 5.32876   8
   0 -14  -1 1082.85 53.9487  10
   0 -14   1 1110.68 54.6588   3
   0 -14  -1 1138.56 53.8794   8
   0 -14  -1 1088.18 54.5842   3
   0 -14  -1 1112.14 54.0805   2
   0 -14   1 1139.27 54.0818   8
   0 -14   1 1153.41 54.1253   6
   0 -14   1 1113.33 53.5192  10
   0 -14   1 1070.81 54.1149   9
   0 -14  -1 1145.87 54.0814   6
   0 -14   1 1080.22 54.1136  15
   0 -14  -1 1111.13 54.4189   9
   1 -14   1 1048.56 48.7952   9
   1 -14   1 1020.97 48.9154   6
   1 -14   1 1048.19 49.2872  15
   1 -14   1 929.918 49.1033   3
   1 -14   1 1074.49 48.6488  10
  -1 -14  -1 869.469 49.4564   3
  -1 -14  -1 978.852 48.4702   9
   1 -14   1 1044.61 48.3172   8
   1 -14   1 988.962 48.7021   2
  -1 -14  -1 1015.25 48.8528   8
   2 -14   1 1718.17 85.9060   6
   2 -14   1 1799.89 86.9090  16
   2 -14   1 1776.45 85.6752   9
   2 -14   1 1819.49 86.5985  15
   2 -14   1 1689.21 86.0717  14
   2 -14   1 1906.63 86.0990  10
  -2 -14  -1 1719.15 86.0768   8
   3 -14   1 601.301 28.0646  15
   3 -14   1 557.991 27.7082  10
   3 -14   1 564.540 27.5818  14
   3 -14   1 565.293 27.5713  13
   3  14   1 562.983 27.5309   8
   4 -14   1 1.25530 0.43601  15
   4 -14   1 1.22181 0.64503  13
   4 -14   1 1.20792 0.40583  14
   4  14   1 1.26270 0.47956   8
   4  14   1 1.03690 0.39546  12
   4  14   1 1.49205 0.48725   9
   5 -14   1 18.4408 1.17348  14
   5 -14   1 18.2030 1.14948  15
   5 -14   1 17.2260 1.14265  13
   5  14   1 17.6793 1.14342   9
   5 -15  -1 119.514 5.52749  15
   5 -15  -1 114.332 5.54633  14
   5  15  -1 115.228 5.48537   9
   5  15  -1 95.4328 5.47239  12
   4 -15  -1 11.7748 1.09153  14
   4 -15  -1 11.9326 0.98285  15
   4  15  -1 9.07592 1.28422   9
   4  15  -1 11.0664 0.96611  12
   4  15  -1 12.4644 0.96232   8
   3 -15  -1 58.8673 3.17061  15
   3 -15  -1 55.7582 3.04960  14
   3 -15  -1 55.8298 3.17780  16
   3  15  -1 57.0795 3.13879   8
   2 -15  -1 3.47677 0.44997  10
   2 -15  -1 3.60755 0.58844  14
   2 -15  -1 4.44933 0.64464  15
  -2 -15   1 3.23219 0.54042   8
   2 -15  -1 3.65089 0.36679   9
   1 -15  -1 401.619 19.2800   9
  -1 -15   1 413.844 19.1049   8
   1 -15  -1 422.002 19.3554  16
   1 -15  -1 369.832 19.8436   6
  -1 -15   1 369.022 19.1676   9
   1 -15  -1 404.422 19.1297  10
   1 -15  -1 383.973 19.1628  15
   0 -15   1 272.618 12.8067   9
   0 -15  -1 281.106 12.8115   9
   0 -15  -1 262.367 12.8103  10
   0 -15   1 248.935 13.5186   2
   0 -15   1 259.956 13.4733   6
   0 -15   1 265.638 12.6980   8
   0 -15  -1 275.391 12.6846   8
   0 -15   1 256.597 12.8018  15
   0 -15   1 254.070 12.8135  10
   0 -15  -1 242.891 13.4099   6
   1 -15   1 128.312 6.69504  15
   1 -15   1 125.596 7.37739   6
  -1 -15  -1 131.937 6.67796   9
  -1 -15  -1 143.823 6.60315   8
   1 -15   1 133.405 6.65110  10
   1 -15   1 131.602 6.60226   9
   1 -15   1 138.714 6.85509  16
   2 -15   1 645.497 31.0226  15
   2 -15   1 609.534 30.5282  10
  -2 -15  -1 653.918 30.2276   8
   2 -15   1 619.671 30.3827  16
   2 -15   1 580.423 30.2375  14
   2 -15   1 653.579 30.4048   9
  -3 -15  -1 154.699 7.51103   8
   3 -15   1 150.224 7.51314  14
   3 -15   1 153.751 7.57780  15
   3 -15   1 151.734 7.37287  10
   3  15   1 144.078 7.50495   8
   4 -15   1 117.467 5.39787  15
   4 -15   1 102.701 5.30012  14
   4  15   1 105.562 5.19433   8
   4  15   1 100.328 5.26858  12
   4  15   1 99.6036 5.30855   9
   5 -15   1 0.62092 0.33020  14
   5 -15   1 0.66908 0.29996  15
   5  15   1 0.97111 0.32550   9
   5  15   1 1.48141 0.29021  12
   5 -16  -1 7.68583 0.64755  15
   5 -16  -1 8.52992 0.63048  14
   5  16  -1 8.41765 0.65490  12
   5  16  -1 8.62675 0.70463   9
   4 -16  -1 128.958 5.97858  15
   4 -16  -1 118.252 5.93686  14
   4  16  -1 118.974 5.81517   8
   4  16  -1 119.370 5.93532  12
   4  16  -1 109.726 5.93812   9
   3 -16  -1 523.685 25.5013  16
   3 -16  -1 490.222 25.3947  14
  -3 -16   1 535.591 25.3829   8
   3 -16  -1 553.089 25.6345  15
   3 -16  -1 532.417 25.3204  10
   3  16  -1 518.880 25.3584   8
   2 -16  -1 89.4903 4.65988  16
  -2 -16   1 90.2710 4.48355   8
   2 -16  -1 81.2207 4.48914  14
   2 -16  -1 90.0715 4.52275  15
   2 -16  -1 88.5902 4.40980  10
   1 -16  -1 118.685 6.11551  10
   1 -16  -1 127.596 6.38540  16
   1 -16  -1 124.114 6.08763   9
   1 -16  -1 118.043 6.15988  15
  -1 -16   1 124.756 6.08806   8
  -1 -16   1 123.193 6.20195   9
   0 -16   1 22.7941 1.54778  10
   0 -16  -1 23.8579 1.29041   8
   0 -16   1 23.4040 1.34449   8
   0 -16  -1 25.5485 1.64722  16
   0 -16  -1 25.0804 1.55305  10
   0 -16   1 21.2402 1.40855  15
   0 -16   1 23.9452 1.44785   9
   0 -16  -1 24.8353 1.52922   9
   1 -16   1 20.3656 1.42490  15
   1 -16   1 20.2289 1.29801  10
   1 -16   1 21.2126 1.35731   9
   1 -16   1 22.5600 1.53642  16
  -1 -16  -1 20.7802 1.49885   9
  -1 -16  -1 20.1310 1.30273   8
   2 -16   1 256.571 12.5144  15
  -2 -16  -1 264.650 12.4310   8
   2 -16   1 250.354 12.2918   9
   2 -16   1 240.459 12.5845  16
   2 -16   1 262.523 12.4038  10
  -3 -16  -1 124.653 6.04509   8
   3 -16   1 127.527 6.12633  15
   3 -16   1 114.041 6.05093  14
   3 -16   1 121.001 5.93318  10
   3  16   1 119.090 6.08309   8
   4 -16   1 19.1714 1.21667  15
   4 -16   1 16.2273 1.11185  14
   4  16   1 17.0328 1.13342  12
   4  16   1 15.5523 1.41062   9
   4  16   1 19.3910 1.17919   8
   5 -16   1 91.6786 4.54582  14
   4 -17  -1 32.6354 1.72644  15
   4  17  -1 25.4214 1.67767  12
   4  17  -1 32.1403 1.57037   8
   4  17  -1 27.8880 1.71589   9
  -3 -17   1 1985.66 95.0484   8
   3 -17  -1 1928.24 94.4961  10
   3 -17  -1 1989.23 95.1834  16
   3 -17  -1 2047.42 95.5087  15
   3 -17  -1 1833.08 95.2423  14
   3  17  -1 2039.07 95.0048   8
   2 -17  -1 23.7652 1.54472  15
  -2 -17   1 27.1479 1.61526   8
   2 -17  -1 25.1707 1.88600  16
   1 -17  -1 432.779 20.4267  10
   1 -17  -1 444.460 20.6364  16
  -1 -17   1 412.132 20.4885   9
  -1 -17   1 416.220 20.3641   8
   1 -17  -1 420.981 20.4186   9
   1 -17  -1 407.158 20.4554  15
   0 -17   1 0.51160 0.45428  10
   0 -17  -1 0.84058 0.46978   9
   0 -17   1 0.86201 0.28999   8
   0 -17  -1 0.92265 0.19181   8
   0 -17   1 0.19292 0.46466   9
   0 -17  -1 0.75140 0.56947  16
   0 -17  -1 1.03833 0.36203  10
   1 -17   1 65.0768 3.52168  16
   1 -17   1 66.9858 3.32063   9
   1 -17   1 65.2664 3.37165  10
  -1 -17  -1 61.7386 3.43146   9
  -1 -17  -1 62.9909 3.25902   8
   1 -17   1 63.0744 3.39652  15
   2 -17   1 5.90055 1.09759  16
   2 -17   1 7.35751 0.80342  10
   2 -17   1 6.39108 0.97410  15
  -2 -17  -1 7.02338 0.87317   8
   3 -17   1 49.0074 2.87140  14
  -3 -17  -1 55.9095 2.86112   8
   3 -17   1 59.9055 2.95243  15
   3  17   1 54.4926 2.88041   8
   4 -17   1 205.613 10.9219  14
   4 -17   1 241.835 10.9817  15
   4  17   1 227.506 10.9652   9
   4 -18  -1 402.884 19.4353  15
   3 -18  -1 24.0158 1.50519  15
   3 -18  -1 20.9258 1.43808  16
   3 -18  -1 21.2446 1.27013  14
   2 -18  -1 605.066 30.7707  15
   2 -18  -1 652.773 31.0537  10
   2 -18  -1 646.191 30.8915  16
  -2 -18   1 649.901 30.8203   8
  -1 -18   1 32.5348 1.70366   8
  -1 -18   1 31.8830 1.83911   9
   1 -18  -1 31.9490 2.11458  16
   1 -18  -1 31.0259 1.66312   9
   1 -18  -1 28.0636 1.73887  15
   0 -18   1 0.65676 0.40889  16
   0 -18  -1 1.70575 0.60923  16
   0 -18   1 0.86301 0.49173   9
   0 -18   1 0.04099 0.46848  10
   1 -18   1 62.8400 3.54822  16
  -1 -18  -1 63.5770 3.28702   8
   1 -18   1 64.3887 3.41561  15
   1 -18   1 69.0196 3.35637   9
  -1 -18  -1 68.8656 3.65125  16
  -1 -18  -1 68.0272 3.50785   9
   1 -18   1 65.0567 3.39482  10
   2 -18   1 62.7773 3.04066  10
  -2 -18  -1 59.8404 3.03408   8
   2 -18   1 57.0131 3.15851  16
   2 -18   1 58.5869 3.10502  15
  -2 -18  -1 56.3989 3.12670   9
   3 -18   1 114.944 5.52804  15
  -3 -18  -1 112.158 5.55021  16
   3 -18   1 108.658 5.32880  10
  -3 -18  -1 112.757 5.46376   8
   3  18   1 102.901 5.48620   8
   4 -18   1 0.25213 0.27871  15
   4  18   1 0.21388 0.20507   8
   3 -19  -1 28.5885 1.69699  15
  -3 -19   1 32.5020 1.70273   8
   3  19  -1 31.6292 1.67462   8
   2 -19  -1 68.4410 3.70879  15
  -2 -19   1 71.6251 3.76146   9
   2 -19  -1 75.5990 3.84610  16
   2 -19  -1 73.5263 3.62832  10
  -2 -19   1 76.1072 3.63468   8
   1 -19  -1 17.7604 0.99460   9
  -1 -19   1 21.1448 1.43668   9
   1 -19  -1 20.7342 1.26501  10
  -1 -19   1 19.0687 1.05648   8
  -1 -19   1 19.2205 1.37576  16
   1 -19  -1 20.4177 1.57980  16
   0 -19   1 16.0806 1.20742   9
   0 -19  -1 16.1443 1.10111  10
   0 -19   1 13.6067 1.27221  16
   0 -19  -1 18.4313 1.15785   9
   0 -19   1 15.7209 1.12326  10
   0 -19  -1 18.2413 1.51251  16
   1 -19   1 17.9265 0.99055   9
  -1 -19  -1 17.6316 1.14577   9
   1 -19   1 17.7985 1.20839  10
  -1 -19  -1 17.3389 1.29390  16
   1 -19   1 15.2335 1.06100  15
   1 -19   1 16.0044 1.24663  16
   2 -19   1 70.1528 3.58814  15
  -2 -19  -1 70.6408 3.67402  16
   2 -19   1 66.3425 3.66996  16
  -2 -19  -1 69.6838 3.61153   9
  -2 -19  -1 73.2308 3.48425   8
  -3 -19  -1 181.895 8.96412  16
  -3 -19  -1 193.909 8.86470   8
   3  19   1 167.309 8.88445  12
   3  19   1 188.961 8.89192   8
  -2 -20   1 14.1675 1.08301  16
  -2 -20   1 17.1467 1.06809   9
  -2 -20   1 18.3051 0.87619   8
   2 -20  -1 15.3024 1.11334  16
   2 -20  -1 17.2529 0.86750  10
   2 -20  -1 14.0005 0.96939  15
  -1 -20   1 244.565 11.9893  16
  -1 -20   1 244.785 11.8886   9
   0 -20   1 22.2208 1.22135   9
   0 -20  -1 19.3866 1.40993  16
   0 -20  -1 21.8092 1.22528   9
   0 -20   1 20.4179 1.39642  16
   0 -20  -1 22.4029 1.39315  10
  -1 -20  -1 0.36529 0.38075  16
  -1 -20  -1 0.63091 0.44840   9
   1 -20   1 0.84221 0.35421  16
   2 -20   1 2.58254 0.30208  10
   2 -20   1 2.70387 0.46056  15
  -2 -20  -1 1.93672 0.37060   9
  -1 -21   1 6.75967 0.70414  16
   1 -21  -1 6.02326 0.73003  16
  -1 -21   1 6.42302 0.54763   9
   1 -21  -1 6.79753 0.49161  10
   0 -21  -1 37.5011 2.14834  10
   0 -21   1 46.8187 2.08211   9
   0 -21  -1 40.4475 2.28564  16
   1 -21   1 20.6388 1.17490  10
  -1 -21  -1 21.6319 1.33969  16
  -1 -21  -1 22.3462 1.21818   9
   7   0  -2 4.68670 0.67802  11
   7   0  -2 3.63364 0.52816  12
   6   0  -2 747.076 34.9890  11
   6   0  -2 653.130 34.9440  13
   6   0  -2 749.584 35.3171  12
   6   0  -2 754.993 35.0281  18
   5   0  -2 68.3920 3.44965  11
   5   0  -2 64.4184 3.25885  10
   5   0  -2 62.9802 3.41419  13
   5   0  -2 69.1913 3.55707  18
   5   0  -2 65.5886 3.46863  17
   5   0  -2 66.8381 4.56052   4
   5   0  -2 67.0631 3.48028  12
   4   0  -2 2762.93 142.811   5
   4   0  -2 3099.35 146.493   4
   4   0  -2 2836.86 142.643  12
   4   0  -2 3021.68 142.580  18
   4   0  -2 3039.89 142.619  17
   4   0  -2 2982.51 142.702  11
   3   0  -2 308.800 15.8951   1
   3   0  -2 351.315 16.2080   4
   3   0  -2 319.562 15.7749   5
   3   0  -2 326.230 15.6719   3
  -3   0   2 293.440 15.8996   1
   3   0  -2 339.053 15.8187   3
   3   0  -2 303.375 15.8511   1
   3   0  -2 340.675 15.7511   2
   3   0  -2 347.422 15.9289   7
   3   0  -2 313.918 15.6775   2
   2   0  -2 165.345 8.59254   5
   2   0  -2 160.179 8.54891   2
   2   0  -2 176.354 8.61383   3
   2   0  -2 181.499 8.58252   2
   2   0  -2 174.596 8.88704   4
   2   0  -2 180.761 8.98504   1
   2   0  -2 175.954 8.85521   1
  -2   0   2 187.949 8.92613   1
   2   0  -2 170.342 8.63175   3
  -2   0   2 192.206 9.03165   1
   2   0  -2 177.297 8.70188   7
  -1   0   2 76.6858 3.75993   1
   1   0  -2 70.5154 3.47321   2
   1   0  -2 64.4943 3.60024   4
   1   0  -2 70.7731 3.52718   7
   1   0  -2 71.9481 3.82291   1
   1   0  -2 68.6276 3.51837   3
   1   0  -2 66.2389 3.39667   5
   0   0   2 51.6969 2.53863   3
   0   0  -2 46.7794 2.78290   1
   0   0  -2 46.5565 2.51747   3
   0   0   2 53.2666 2.81016   1
   0   0   2 48.6207 2.44903   2
   0   0  -2 47.9707 2.87927   1
   0   0  -2 41.6864 2.45547   2
  -1   0  -2 6546.64 315.322   3
  -2   0  -2 900.560 44.7794   1
   2   0   2 931.370 44.7094   1
   2   0   2 871.141 44.6371   1
   2   0   2 885.205 44.9292   5
   2   0   2 872.017 44.0694   3
   2   0   2 992.622 44.8234   3
   2   0   2 933.344 45.7201   4
  -2   0  -2 935.594 44.8812   1
   2   0   2 894.680 44.9610   2
   3   0   2 5507.19 260.371   3
   3   0   2 5310.85 259.273   5
   3   0   2 5277.09 260.760   4
   4   0   2 48.9020 2.67792  13
   4   0   2 50.2766 2.63129  11
   4   0   2 49.0481 2.52480   9
   4   0   2 51.7253 3.01810   3
   4   0   2 48.2908 2.62942  12
   4   0   2 53.5107 3.47886   4
   4   0   2 48.5878 2.56941  10
   4   0   2 52.4163 2.87179   2
   4   0   2 50.8558 2.70538  18
   4   0   2 52.8917 3.06812   5
   5   0   2 16.1629 1.14318  12
   5   0   2 16.8252 1.15508  13
   5   0   2 16.2032 1.75170   5
   5   0   2 16.3671 1.01811  10
   5   0   2 14.7142 1.19158  11
   6   0   2 2.33092 0.61931  13
   6   0   2 2.02215 0.42928  11
   6   0   2 1.71709 0.58100  12
   6   0   2 2.19366 0.31933  10
   7   0   2 12.8610 0.94930  13
   7  -1  -2 309.516 15.2650  11
   7  -1  -2 327.642 15.3230  12
   7   1  -2 321.326 15.2790  11
   7   1  -2 303.096 15.2927  12
   6  -1  -2 299.341 14.3976  11
   6  -1  -2 300.365 14.4197  12
   6  -1  -2 273.029 14.3726  13
   6  -1  -2 300.767 14.4386  18
   6   1  -2 300.624 14.4513  12
   6   1  -2 296.894 14.3903  11
   6   1  -2 295.784 14.4348  18
   5  -1  -2 250.035 13.3016   4
   5  -1  -2 240.496 12.2882  13
   5  -1  -2 262.686 12.3468  18
   5  -1  -2 260.537 12.3144  11
   5  -1  -2 250.450 12.2948  17
   5  -1  -2 225.876 12.0711  10
   5  -1  -2 262.265 12.3476  12
   5   1  -2 254.046 12.2887  11
   5   1  -2 257.928 12.1566  10
   5   1  -2 273.132 12.3621  12
   5   1  -2 237.177 12.2721  13
   5   1  -2 244.111 13.2846   4
   5   1  -2 254.688 12.3232  18
   4  -1  -2 239.747 11.4218  11
   4  -1  -2 247.690 12.1932   4
   4  -1  -2 236.760 11.4417  18
   4  -1  -2 229.134 11.6354   5
   4  -1  -2 224.607 11.2748  10
   4  -1  -2 240.739 11.4322  17
   4  -1  -2 234.490 11.4305  12
   4   1  -2 198.709 11.2632   3
   4   1  -2 244.763 11.4407  17
   4   1  -2 234.665 11.4396  18
   4   1  -2 250.940 12.2605   4
   4   1  -2 223.793 11.3191  10
   4   1  -2 241.716 11.4216  11
   4   1  -2 238.754 11.4395  12
   3  -1  -2 483.777 22.2833   7
   3  -1  -2 466.178 22.1755   5
   3  -1  -2 465.804 22.5131   4
  -3  -1   2 404.055 22.6240   1
   3   1  -2 433.654 22.5779   1
   3   1  -2 444.608 22.1925   3
   3   1  -2 479.428 22.6018   4
   3   1  -2 425.792 22.0719   2
   3   1  -2 497.704 22.6933   3
   3   1  -2 490.869 22.4387   2
   3   1  -2 443.653 22.1502   5
   2  -1  -2 13.2285 1.01477   7
  -2  -1   2 14.5469 1.53193   1
  -2  -1   2 14.8779 1.37445   1
   2  -1  -2 13.1213 0.95463   6
   2  -1  -2 12.6570 1.19535   4
   2  -1  -2 13.8318 0.87079   5
   2   1  -2 13.5736 1.06184   7
   2   1  -2 14.0391 1.01433   3
   2   1  -2 12.0692 0.85513   2
   2   1  -2 14.3462 1.59424   1
   2   1  -2 14.1220 1.28405   1
   2   1  -2 12.2740 0.81663   5
   2   1  -2 12.8574 1.28523   4
   2   1  -2 14.5089 0.98816   2
   2   1  -2 14.0759 1.02856   3
   1  -1  -2 1.89618 0.30409   2
  -1  -1   2 1.84840 0.67843   1
   1  -1  -2 0.80810 0.32868   6
   1  -1  -2 1.87091 0.32907   3
  -1  -1   2 1.20268 0.54809   1
   1  -1  -2 1.82646 0.43852   1
   1  -1  -2 1.75532 0.21422   5
   1  -1  -2 0.82882 0.33020   7
   1   1  -2 0.86064 0.34698   3
   1   1  -2 1.77194 0.56069   1
   1   1  -2 1.16070 0.26230   2
  -1   1   2 1.76641 0.38059   1
   1   1  -2 0.84293 0.35536   3
   1   1  -2 1.12110 0.34223   2
   1   1  -2 1.20751 0.36256   7
  -1   1   2 2.36601 0.45486   1
   1   1  -2 1.73491 0.52842   4
   1   1  -2 0.93959 0.66213   1
   0  -1  -2 4780.65 230.222   3
   1  -1   2 4.11917 0.87672   1
   1  -1   2 3.59627 0.54262   3
  -1  -1  -2 2.38735 0.44704   2
   1  -1   2 3.12403 0.76371   1
  -1  -1  -2 3.22934 0.94606   1
  -1  -1  -2 2.64197 0.89683   1
   1  -1   2 3.94325 0.53077   2
   1  -1   2 3.59591 0.54993   3
  -1  -1  -2 2.44448 0.46308   3
  -1   1  -2 2.53831 0.81058   1
   1   1   2 3.87454 0.62623   3
   1   1   2 5.01400 0.97058   1
   1   1   2 4.74557 0.99079   1
  -1   1  -2 2.29841 0.44512   2
   1   1   2 3.57049 0.59831   2
  -1   1  -2 2.89923 0.89501   1
   1   1   2 4.54908 0.56550   4
  -1   1  -2 2.51095 0.52434   3
  -2  -1  -2 5794.79 296.383   3
  -2  -1  -2 6895.26 300.204   1
   2  -1   2 6190.53 298.216   1
   2  -1   2 6222.49 297.812   1
   2  -1   2 5307.24 295.629   2
   2  -1   2 5745.79 296.446   3
  -2   1  -2 6536.00 298.595   1
   2   1   2 6132.01 296.046   5
   2   1   2 6651.87 299.415   1
  -2   1  -2 6432.91 298.467   1
   2   1   2 5724.67 298.180   1
   3  -1   2 53.5632 2.92981   2
   3  -1   2 53.7739 3.09062   3
   3  -1   2 53.0052 3.07910   5
   3  -1   2 54.6644 3.33092   4
   3   1   2 55.3402 3.09065   5
   3   1   2 54.4580 3.05678   2
   3   1   2 53.1040 3.20514   3
   3   1   2 54.5911 3.34703   4
   4  -1   2 28.1005 1.59129  11
   4  -1   2 28.4668 2.08602   5
   4  -1   2 27.4753 1.63373  13
   4  -1   2 30.5180 2.27047   4
   4  -1   2 26.6957 1.44939   9
   4  -1   2 29.1988 1.75138   2
   4  -1   2 27.5922 1.62907  12
   4  -1   2 28.3814 1.86598   3
   4  -1   2 28.9185 1.68410  18
   4  -1   2 27.3796 1.52300  10
   4   1   2 30.5350 1.95006   2
   4   1   2 27.5434 2.42271   4
   4   1   2 27.0847 1.58331  11
   4   1   2 27.4731 1.51314   9
   4   1   2 29.4404 2.00617   5
   4   1   2 27.9796 1.59749  13
   4   1   2 26.9225 1.53517  10
   4   1   2 27.0110 1.57445  12
   4   1   2 28.1814 2.07210   3
   5  -1   2 82.0444 4.22138  11
   5  -1   2 78.9197 4.70728   5
   5  -1   2 84.0401 4.25656  13
   5  -1   2 83.6281 4.21884  12
   5  -1   2 82.0137 4.09528  10
   5   1   2 86.5587 4.13781  10
   5   1   2 84.1012 4.18015  11
   5   1   2 81.4531 5.25096   4
   5   1   2 78.8462 4.28095   2
   5   1   2 84.0111 4.26847  12
   5   1   2 79.3034 4.80598   5
   5   1   2 81.0916 4.01832   9
   5   1   2 76.6854 4.38875   3
   5   1   2 85.6375 4.29568  13
   6  -1   2 11.8952 1.15192  12
   6  -1   2 9.41287 0.95546  13
   6  -1   2 8.62163 1.06359  11
   6  -1   2 10.0999 0.64137  10
   6   1   2 9.95752 0.95571  13
   6   1   2 9.66298 1.01510  11
   6   1   2 8.67587 0.90532  12
   6   1   2 9.85878 0.71268  10
   7  -1   2 78.4135 4.19970  13
   7  -1   2 83.8670 4.17127  12
   7   1   2 86.1945 4.19702  13
   7  -2  -2 44.7187 2.38043  11
   7   2  -2 43.3963 2.36900  11
   7   2  -2 47.3040 2.53241  12
   6  -2  -2 2.48117 0.57995  11
   6  -2  -2 1.81934 0.54576  13
   6  -2  -2 1.54650 0.63809  18
   6  -2  -2 2.26914 0.61435  12
   6   2  -2 1.87363 0.48994  12
   6   2  -2 2.48522 0.30274  10
   6   2  -2 2.18421 0.45869  11
   6   2  -2 1.68262 0.50249  18
   5  -2  -2 9.42149 0.94977  18
   5  -2  -2 10.9017 1.03887  11
   5  -2  -2 10.0796 0.92620  17
   5  -2  -2 10.2383 0.92535  13
   5  -2  -2 10.0727 1.05402  12
   5  -2  -2 9.65419 1.64109   4
   5   2  -2 9.21257 0.86838  11
   5   2  -2 8.66005 0.85954  13
   5   2  -2 10.1461 0.72574  10
   5   2  -2 10.9578 1.16667  18
   5   2  -2 10.4798 1.10479  12
   5   2  -2 9.74289 1.70395   4
   4  -2  -2 24.2262 1.32216  10
   4  -2  -2 27.3522 2.17491   4
   4  -2  -2 24.9604 1.61548  18
   4  -2  -2 28.6335 1.56875  11
   4  -2  -2 27.6095 1.53429  17
   4  -2  -2 25.5444 1.78649   5
   4  -2  -2 25.8462 1.52410  12
   4  -2  -2 25.2041 1.53650  13
   4   2  -2 29.4215 2.45266   4
   4   2  -2 26.0715 1.37536   9
   4   2  -2 28.6821 1.56554  17
   4   2  -2 28.5371 1.56115  11
   4   2  -2 27.6698 1.45821  10
   4   2  -2 25.6245 1.53844  12
   4   2  -2 26.8633 1.71255   3
   4   2  -2 27.5724 1.62474  18
   4   2  -2 29.2290 1.65054   2
   3  -2  -2 76.4810 3.89186   7
   3  -2  -2 75.4416 4.13890   4
   3  -2  -2 75.5639 3.80528   5
   3  -2  -2 66.2780 3.79027   6
   3   2  -2 65.1809 3.80896   2
   3   2  -2 75.3644 3.92177   3
   3   2  -2 76.5019 4.21641   4
   3   2  -2 66.9409 3.72546   5
   3   2  -2 75.6397 3.81836   2
   2  -2  -2 300.846 14.8591   7
   2  -2  -2 307.404 14.9909   4
  -2  -2   2 320.505 15.7489   1
   2  -2  -2 301.012 14.8076   5
   2  -2  -2 302.284 14.8883   6
  -2  -2   2 318.876 15.5284   1
   2   2  -2 318.958 14.9100   7
   2   2  -2 313.211 15.4252   1
   2   2  -2 276.645 14.7431   5
   2   2  -2 318.308 14.9074   2
   2   2  -2 306.894 15.0878   4
   2   2  -2 320.919 15.7385   1
   2   2  -2 298.671 14.9726   3
   2   2  -2 307.478 14.9443   3
   2   2  -2 272.465 14.8222   2
   0  -2  -2 556.671 28.7522   6
   0  -2  -2 557.392 29.1013   1
   0  -2  -2 618.590 28.8725   1
   0  -2  -2 568.945 28.4576   3
   0  -2   2 631.281 29.4817   1
   0  -2  -2 556.063 29.1501   2
   0  -2   2 573.829 28.6970   5
   0  -2  -2 628.547 29.3307   3
   0  -2   2 559.809 28.9425   3
   0  -2   2 566.831 29.1807   2
   0  -2   2 632.600 29.0682   1
   0   2  -2 567.993 28.7308   2
   0   2   2 625.017 29.6490   1
   0   2  -2 556.154 28.4859   7
   0   2   2 593.795 28.4757   3
   0   2   2 530.476 28.6238   2
   0   2  -2 656.432 29.5548   1
   0   2  -2 635.663 29.0379   1
   0   2  -2 579.077 28.7427   3
   0   2   2 609.196 29.6014   1
   1  -2   2 496.023 24.8937   5
   1  -2   2 498.997 25.0023   2
   1  -2   2 524.551 25.2649   3
   1  -2   2 509.095 24.9002   1
  -1  -2  -2 457.754 24.4257   2
  -1  -2  -2 529.277 25.1782   1
   1   2   2 477.325 24.4355   2
  -1   2  -2 492.583 24.4880   3
  -1   2  -2 534.087 25.1510   1
   1   2   2 520.989 25.1248   1
  -1   2  -2 511.521 24.9104   1
   1   2   2 523.676 25.1400   1
   1   2   2 532.319 24.5624   3
   1   2   2 473.787 24.6013   4
  -2  -2  -2 202.117 10.6474   1
   2  -2   2 198.548 9.66474   4
   2  -2   2 186.297 10.1331   1
   2  -2   2 195.455 9.51285   5
   2  -2   2 175.968 9.56079   3
   2  -2   2 202.601 9.46412   2
  -2  -2  -2 179.596 10.5798   1
   2  -2   2 171.336 9.39257   6
  -2  -2  -2 180.233 9.75811   3
   2  -2   2 197.963 10.1160   1
   2  -2   2 206.239 9.60432   3
   2   2   2 199.095 9.58525   2
   2   2   2 197.322 9.65123   4
  -2   2  -2 189.123 10.1624   1
   2   2   2 209.299 9.75762   3
  -2   2  -2 195.811 10.3690   1
   2   2   2 198.070 10.5335   1
   2   2   2 180.359 10.4116   1
   3  -2   2 11.2411 1.11587   3
   3  -2   2 10.2785 0.91530   2
   3  -2   2 11.4645 1.36520   4
   3  -2   2 10.6027 1.13769   5
   3   2   2 10.8779 1.35698   4
   3   2   2 9.53912 1.22804   3
   3   2   2 8.50006 1.11487   5
   3   2   2 10.7776 1.11103   2
   4  -2   2 2.03523 0.32213  11
   4  -2   2 1.40813 0.20324   9
   4  -2   2 1.95758 0.61577   5
   4  -2   2 1.95379 0.41683   2
   4  -2   2 2.05926 0.26398  10
   4  -2   2 1.83295 0.33978  13
   4  -2   2 1.90693 0.52574   3
   4  -2   2 2.00433 0.34477  12
   4  -2   2 1.91423 0.36599  14
   4   2   2 1.93623 0.40381  12
   4   2   2 1.86009 0.31895   9
   4   2   2 1.47596 0.40937  13
   4   2   2 1.73126 0.33922  10
   4   2   2 0.94406 0.72182   5
   4   2   2 1.70950 0.36725  11
   4   2   2 2.90219 1.02223   4
   4   2   2 2.80296 0.69502   2
   4   2   2 1.73999 0.81447   3
   4   2   2 2.24434 0.17684   8
   5  -2   2 15.2193 1.16011  11
   5  -2   2 14.2433 1.49331   5
   5  -2   2 14.1973 1.05162  12
   5  -2   2 11.3076 1.06710  14
   5  -2   2 13.6769 0.85765  10
   5  -2   2 13.7140 1.05654  13
   5   2   2 14.0331 1.07465  13
   5   2   2 12.6398 1.31927   3
   5   2   2 13.1925 1.26865   2
   5   2   2 14.3292 1.00108  10
   5   2   2 14.7950 1.10640  11
   5   2   2 13.2881 1.20758  12
   5   2   2 13.2459 0.87899   9
   5   2   2 14.2246 2.17148   4
   6  -2   2 241.712 12.2637  10
   6  -2   2 265.508 12.5086  12
   6  -2   2 261.714 12.5648  13
   6  -2   2 261.993 12.4765  11
   6   2   2 246.535 12.4420  11
   6   2   2 247.210 12.4768  12
   6   2   2 260.238 12.5387  13
   6   2   2 258.771 12.3720  10
   7  -2   2 5.85226 0.84664  12
   7  -2   2 5.30802 0.66177  13
   7   2   2 5.88872 0.63968  13
   7  -3  -2 0.99234 0.40126  12
   7   3  -2 2.07796 0.37453  11
   6  -3  -2 2.28173 0.63347  12
   6  -3  -2 3.53924 0.55922  18
   6  -3  -2 4.40150 0.64127  13
   6  -3  -2 5.41134 0.73936  11
   6   3  -2 3.92403 0.65389  11
   6   3  -2 3.64414 0.69588  12
   6   3  -2 3.66200 0.56222  18
   6   3  -2 3.40163 0.42542  10
   5  -3  -2 230.927 11.3138  18
   5  -3  -2 219.678 11.2623  13
   5  -3  -2 216.625 12.1396   4
   5  -3  -2 246.223 11.2941  11
   5  -3  -2 228.318 11.2728  17
   5  -3  -2 232.574 11.3025  12
   5   3  -2 236.209 11.1893  10
   5   3  -2 230.613 11.3072  18
   5   3  -2 236.118 11.3152  12
   5   3  -2 220.365 12.2716   4
   5   3  -2 233.055 11.2776  11
   4  -3  -2 40.2795 2.20845  17
   4  -3  -2 39.7120 2.50529   5
   4  -3  -2 44.2339 3.04658   4
   4  -3  -2 45.4140 2.25303  13
   4  -3  -2 37.2613 2.36318  16
   4  -3  -2 40.5316 2.21445  12
   4  -3  -2 38.9187 2.18948  11
   4  -3  -2 37.0868 2.28304  18
   4   3  -2 42.4443 2.30749  18
   4   3  -2 40.6897 2.12457   9
   4   3  -2 42.1845 2.25020  11
   4   3  -2 44.5681 2.25238  12
   4   3  -2 42.6444 2.20499  10
   4   3  -2 43.9209 3.17443   4
   4   3  -2 43.7119 2.49140   2
   4   3  -2 40.9116 2.25871  17
   4   3  -2 40.2266 2.60234   3
   3  -3  -2 210.316 10.3237   4
   3  -3  -2 208.075 10.0523   7
   3  -3  -2 205.582 10.0255   5
   3  -3  -2 191.312 10.0364   6
   3   3  -2 204.539 10.1848   3
   3   3  -2 188.630 9.92660   5
   3   3  -2 208.286 10.4780   4
  -2  -3   2 882.743 39.6902   1
   2  -3  -2 786.267 38.9378   5
   2  -3  -2 796.524 38.9057   7
   2  -3  -2 784.776 38.9678   6
   2  -3  -2 809.512 39.4607   4
  -2  -3   2 808.170 39.8796   1
   2   3  -2 677.250 38.7368   2
   2   3  -2 856.512 39.7522   2
   2   3  -2 823.046 39.3967   3
   2   3  -2 728.992 38.9053   3
   2   3  -2 811.475 39.5120   1
   2   3  -2 846.211 39.0234   4
   2   3  -2 852.896 39.9015   1
  -1  -3   2 5933.50 269.320   3
   1   3  -2 5196.08 269.631   1
   0  -3  -2 32.8139 1.81002   3
   0  -3   2 26.3309 1.63590   2
   0  -3   2 26.4225 1.77892   3
   0  -3   2 29.3019 2.13998   1
   0  -3  -2 30.1095 1.74868   3
   0  -3   2 26.4749 1.50310   5
   0  -3  -2 25.9829 2.12406   1
   0  -3   2 25.8269 2.34364   1
   0   3   2 27.0243 2.10845   1
   0   3  -2 30.5637 1.48945   7
   0   3   2 25.3129 1.71706   3
   0   3   2 31.5449 2.20179   1
   0   3  -2 35.2199 2.50624   1
   0   3  -2 33.7515 1.84831   3
   0   3   2 26.2286 1.62934   2
   0   3  -2 32.3582 1.73433   2
   1  -3   2 9.82444 0.78089   5
  -1  -3  -2 13.1062 1.85884   1
   1  -3   2 10.8982 1.25598   1
   1  -3   2 9.08446 1.26786   1
   1  -3   2 10.2605 0.95312   3
  -1  -3  -2 12.2146 1.18603   3
  -1  -3  -2 11.6222 0.69352   6
   1  -3   2 9.99400 0.80023   2
   1   3   2 9.25584 0.77332   4
  -1   3  -2 12.9531 1.60374   1
   1   3   2 10.7545 0.97296   2
  -1   3  -2 12.0506 1.02796   3
   1   3   2 9.01725 1.11830   3
   1   3   2 10.0146 1.55655   1
   1   3   2 11.1831 1.61151   1
  -2  -3  -2 20.7348 1.71402   3
   2  -3   2 20.6563 1.98866   1
  -2  -3  -2 19.5811 1.48496   2
   2  -3   2 19.5820 1.40634   3
   2  -3   2 23.2266 1.44967   5
  -2  -3  -2 21.6683 2.57017   1
   2  -3   2 23.4247 1.52932   3
   2  -3   2 18.2895 1.32493   2
  -2  -3  -2 23.7896 2.43970   1
   2  -3   2 21.8654 1.86996   1
   2  -3   2 22.3739 1.32970   2
   2  -3   2 21.3678 1.32924   6
  -2   3  -2 20.9973 2.06087   1
   2   3   2 22.1699 2.25849   1
   2   3   2 21.8455 1.55757   4
   2   3   2 25.9398 1.59283   2
   2   3   2 21.8550 1.73351   3
   2   3   2 25.4833 2.46673   1
  -2   3  -2 21.6154 2.14561   1
   3  -3   2 9.14994 0.97999   3
   3  -3   2 7.91634 0.88748   5
   3  -3   2 7.22192 0.73879   6
   3  -3   2 8.27362 0.83403   2
   3   3   2 7.65301 1.09604   2
   3   3   2 8.55656 1.08722   4
   3   3   2 8.56537 0.95640   5
   3   3   2 8.94125 1.26412   3
   4  -3   2 224.180 10.4949  11
   4  -3   2 226.683 10.9653   5
   4  -3   2 222.816 10.4005  10
   4  -3   2 193.914 10.3263   9
   4  -3   2 214.364 10.5328   3
   4  -3   2 205.567 10.5107  14
   4  -3   2 216.512 10.4715   2
   4  -3   2 214.986 10.5302  13
   4  -3   2 221.611 10.5163  12
   4   3   2 229.111 11.1809   3
   4   3   2 196.869 10.4532  10
   4   3   2 228.383 10.9842   5
   4   3   2 209.169 10.5032  12
   4   3   2 205.911 10.3442   8
   4   3   2 220.985 10.5464  13
   4   3   2 231.016 11.3667   4
   4   3   2 222.186 10.9341   2
   4   3   2 206.534 10.4365   9
   4   3   2 201.392 10.4540  11
   5  -3   2 65.0280 4.12390   5
   5  -3   2 73.1622 3.66588  11
   5  -3   2 73.5343 3.68352  13
   5  -3   2 69.9991 3.63937  12
   5  -3   2 67.3819 3.66251  14
   5  -3   2 71.4050 3.46929  10
   5   3   2 66.0894 4.26269   5
   5   3   2 66.2723 4.52498   4
   5   3   2 67.3324 3.97662   2
   5   3   2 70.7796 3.61634  11
   5   3   2 69.3529 3.64034  12
   5   3   2 67.9129 3.58399  10
   5   3   2 71.5287 3.51686   9
   5   3   2 72.6252 3.73827  13
   6  -3   2 0.38129 0.41864  13
   6  -3   2 0.90308 0.48506  11
   6  -3   2 0.96586 0.41005  12
   6   3   2 -0.2447 0.42140  11
   6   3   2 0.57304 0.33278  10
   6   3   2 0.32170 0.38983  13
   7  -3   2 19.4875 1.19585  12
   7  -3   2 20.2954 1.21929  13
   7   3   2 19.6226 1.25297  13
   7   3   2 17.0799 1.17395  12
   7  -4  -2 2.37888 0.36758  13
   7  -4  -2 1.91083 0.41663  12
   7   4  -2 2.09667 0.36638  11
   7   4  -2 1.23996 0.53965  12
   6  -4  -2 0.50189 0.55679  12
   6  -4  -2 0.53935 0.59853  18
   6  -4  -2 -0.0826 0.51625  11
   6  -4  -2 0.86871 0.52704  13
   6   4  -2 0.33758 0.58090  12
   6   4  -2 0.24473 0.54052  11
   6   4  -2 0.59154 0.27571  10
   5  -4  -2 17.5088 1.19344  12
   5  -4  -2 17.2231 1.17491  11
   5  -4  -2 17.1148 1.17195  17
   5  -4  -2 17.8626 1.17896  13
   5  -4  -2 15.5510 2.00447   4
   5  -4  -2 16.2788 1.21616  18
   5  -4  -2 16.0534 1.21052  14
   5   4  -2 18.1542 1.38485  18
   5   4  -2 17.4441 0.92353   9
   5   4  -2 18.9699 2.43817   4
   5   4  -2 14.1122 1.21451   3
   5   4  -2 17.8123 1.14507  10
   5   4  -2 19.9001 1.41024  12
   5   4  -2 17.3234 1.19453   2
   5   4  -2 17.7179 1.17252  11
   4  -4  -2 293.756 14.5752   4
   4  -4  -2 282.685 13.9012  12
   4  -4  -2 256.646 13.9571  16
   4  -4  -2 257.612 13.8798  14
   4  -4  -2 275.900 13.8971  13
   4  -4  -2 286.093 14.1980   5
   4  -4  -2 289.426 13.8894  11
   4  -4  -2 254.091 13.8778  15
   4  -4  -2 264.244 13.8685  17
   4  -4  -2 273.454 13.9043  18
   4   4  -2 314.566 13.9586  12
   4   4  -2 302.565 14.8083   4
   4   4  -2 298.365 13.9132  18
   4   4  -2 299.382 14.4332   3
   4   4  -2 314.842 14.2717   2
   4   4  -2 284.268 13.8878  11
   4   4  -2 302.843 13.8258   9
   4   4  -2 303.137 13.8652  10
   3  -4  -2 561.381 27.8715   6
   3  -4  -2 575.055 27.8177   5
   3  -4  -2 570.913 27.7920   7
   3  -4  -2 573.628 28.0488   4
   3   4  -2 582.528 27.9209   2
   3   4  -2 595.758 28.0631   3
   3   4  -2 530.865 27.7084   5
   3   4  -2 600.653 28.2839   4
   2  -4  -2 235.493 11.6104   5
  -2  -4   2 249.534 12.7122   1
   2  -4  -2 236.884 11.7071   6
   2  -4  -2 223.084 11.6897   4
   2  -4  -2 218.255 11.5886   7
  -2  -4   2 235.186 13.0080   1
   2   4  -2 247.229 11.7946   2
   2   4  -2 246.889 11.8627   3
   2   4  -2 240.621 11.9111   4
   2   4  -2 238.878 12.9514   1
   1  -4  -2 2124.11 99.1350   1
  -1  -4   2 2176.28 100.869   1
   1  -4  -2 2043.84 99.2260   1
   1  -4  -2 2015.78 98.5261   5
  -1  -4   2 2012.91 100.057   3
  -1  -4   2 1950.62 98.8464   2
  -1  -4   2 2131.88 101.428   1
   1  -4  -2 1867.43 98.0851   4
   1  -4  -2 2044.66 98.9206   6
   1  -4  -2 1997.68 98.5077   3
   1  -4  -2 1951.43 98.3598   7
   1  -4  -2 1971.23 98.5955   3
   1  -4  -2 1808.81 98.0858   2
  -1   4   2 2076.18 99.1363   1
   1   4  -2 2082.96 99.2175   2
   1   4  -2 2123.33 98.6106   1
   1   4  -2 2087.65 100.373   1
  -1   4   2 2169.64 99.3093   1
   1   4  -2 1998.43 99.8549   3
   0  -4  -2 535.998 25.3310   3
   0  -4   2 491.613 25.2419   2
   0  -4   2 542.531 25.6664   1
   0  -4  -2 458.324 25.0034   3
   0  -4  -2 498.364 25.6084   2
   0  -4   2 543.736 25.9031   1
   0  -4   2 545.978 25.1115   3
   0  -4  -2 531.676 25.5434   1
   0  -4   2 511.480 25.2569   5
   0  -4  -2 523.372 25.2210   6
   0   4   2 532.306 25.6558   1
   0   4   2 456.764 24.9217   2
   0   4  -2 555.723 25.9804   1
   0   4  -2 547.093 25.6674   1
   0   4  -2 503.775 25.0080   2
   0   4   2 524.039 25.5708   1
   0   4  -2 510.500 25.0996   3
   0   4   2 482.819 25.0368   3
  -1  -4  -2 422.764 20.2768   1
   1  -4   2 394.055 19.6013   2
   1  -4   2 411.157 19.4056   3
  -1  -4  -2 436.748 20.6143   1
   1  -4   2 392.380 19.2368   5
  -1  -4  -2 389.397 19.3415   2
   1  -4   2 377.112 20.0443   1
  -1  -4  -2 368.921 19.1775   6
   1  -4   2 403.980 19.8907   1
  -1  -4  -2 406.899 19.5306   3
   1   4   2 383.706 19.3659   2
  -1   4  -2 432.460 20.2162   1
  -1   4  -2 392.383 19.9235   1
   1   4   2 369.728 19.2167   4
   1   4   2 416.728 20.3791   1
  -1   4  -2 372.416 19.4132   3
   1   4   2 377.233 19.5030   3
   1   4   2 415.630 20.2887   1
   2  -4   2 601.139 32.5325   2
  -2  -4  -2 585.435 32.6750   2
   2  -4   2 709.200 33.1396   5
   2  -4   2 708.506 33.5346   3
   2  -4   2 724.085 33.5479   2
  -2  -4  -2 684.902 33.9259   1
   2  -4   2 678.343 33.2096   1
   2  -4   2 616.965 32.6554   3
  -2  -4  -2 690.481 32.9740   3
   2  -4   2 621.383 32.7834   6
  -2  -4  -2 635.026 34.1236   1
   2  -4   2 673.215 33.3614   1
   2   4   2 753.096 32.9824   3
   2   4   2 682.351 32.7545   2
   2   4   2 726.429 32.7434   4
   2   4   2 683.698 33.8863   1
  -2   4  -2 715.928 33.5809   1
  -2   4  -2 685.188 33.3489   1
   2   4   2 652.403 33.8959   1
   3  -4   2 652.052 32.2432   2
   3  -4   2 670.396 31.8473   3
   3  -4   2 665.931 31.9291   5
   3  -4   2 563.352 31.7606   6
   3   4   2 678.620 32.0607   2
   3   4   2 679.427 32.1796   4
   3   4   2 694.573 32.2435   3
   4  -4   2 28.1582 1.57853  11
   4  -4   2 28.6058 1.61773  13
   4  -4   2 26.7071 1.46607  10
   4  -4   2 29.1815 1.61039  12
   4  -4   2 28.9097 2.01295   5
   4  -4   2 26.8435 1.64939  14
   4   4   2 27.3140 1.58812   9
   4   4   2 27.8386 1.47726   8
   4   4   2 26.3577 1.62454  10
   4   4   2 32.6815 2.58103   4
   4   4   2 28.6519 2.35407   3
   4   4   2 31.1944 2.07172   5
   4   4   2 26.9666 1.60015  12
   4   4   2 29.5762 2.15474   2
   5  -4   2 377.211 17.6264  11
   5  -4   2 372.577 17.6901  13
   5  -4   2 339.657 18.1666   5
   5  -4   2 358.389 17.6606  14
   5  -4   2 391.719 17.6801  12
   5  -4   2 361.721 17.5345  10
   5   4   2 346.891 17.5792  11
   5   4   2 345.401 18.6024   4
   5   4   2 363.603 17.6543  12
   5   4   2 373.190 17.5388   9
   5   4   2 378.625 17.7046  13
   5   4   2 332.431 17.9969   2
   5   4   2 376.144 17.6035  10
   6  -4   2 0.23915 0.50789  12
   6  -4   2 0.16886 0.30224  14
   6  -4   2 0.21894 0.41214  13
   6   4   2 0.27316 0.38982  13
   6   4   2 1.63435 0.54846  12
   6   4   2 0.81491 0.36058  10
   7  -4   2 12.0645 0.87660  13
   7  -4   2 12.6919 0.87588  12
   7   4   2 11.7024 0.83166  13
   7   4   2 12.6217 0.97717  12
   7  -5  -2 34.3090 1.68378  12
   7  -5  -2 25.6268 1.60340  13
   7   5  -2 30.7355 1.64403  11
   7   5  -2 28.7849 1.67477  12
   6  -5  -2 5.00173 0.71768  11
   6  -5  -2 3.81087 0.65897  13
   6  -5  -2 5.84252 0.77055  12
   6   5  -2 3.69837 0.63443  11
   6   5  -2 4.07212 0.71768  12
   6   5  -2 3.67350 0.62565  10
   5  -5  -2 265.133 13.0555  13
   5  -5  -2 279.269 13.0805  12
   5  -5  -2 252.034 13.0170  17
   5  -5  -2 268.831 13.0688  18
   5  -5  -2 246.371 13.0307  14
   5  -5  -2 270.360 13.0325  11
   5   5  -2 249.354 13.2157   2
   5   5  -2 275.262 13.0416  11
   5   5  -2 279.210 13.0656  18
   5   5  -2 288.227 13.1125  12
   5   5  -2 251.079 14.0407   4
   5   5  -2 274.299 12.8954   9
   5   5  -2 273.411 12.9955  10
   4  -5  -2 1.93763 0.86423   4
   4  -5  -2 1.82143 0.34219  13
   4  -5  -2 1.39098 0.48853  16
   4  -5  -2 1.02252 0.61361   5
   4  -5  -2 1.35571 0.39769  11
   4  -5  -2 1.45224 0.45300  18
   4  -5  -2 0.88175 0.40399  15
   4  -5  -2 2.02467 0.43620  17
   4  -5  -2 1.76999 0.42195  12
   4  -5  -2 1.30748 0.39841  14
   4   5  -2 1.61731 0.49589  12
   4   5  -2 1.46978 0.46113  18
   4   5  -2 1.23282 0.40916  10
   4   5  -2 1.29771 0.32851  11
   4   5  -2 1.16379 1.13085   4
   3  -5  -2 546.741 27.0059   4
   3  -5  -2 530.494 26.7569   7
   3  -5  -2 534.817 26.9058   6
   3  -5  -2 572.353 26.8536   5
   3   5  -2 583.044 27.0077   2
   3   5  -2 554.103 27.2565   4
   3   5  -2 591.397 27.1788   3
   3   5  -2 507.522 26.7221   5
  -2  -5   2 474.908 23.9724   1
  -2  -5   2 432.846 24.1986   1
   2  -5  -2 443.810 22.5795   7
   2  -5  -2 473.929 22.6232   5
   2  -5  -2 470.792 22.7243   6
   2  -5  -2 445.105 22.6562   4
   2   5  -2 487.445 22.9433   4
   2   5  -2 485.698 22.8487   2
   2   5  -2 499.965 22.9553   3
   2   5  -2 470.234 24.2642   1
   2   5  -2 448.049 23.7445   1
  -1  -5   2 255.113 13.4841   2
   1  -5  -2 275.800 13.4639   6
   1  -5  -2 289.916 13.8363   1
  -1  -5   2 266.372 13.7427   3
   1  -5  -2 276.525 13.4645   2
   1  -5  -2 259.146 13.4027   3
   1  -5  -2 260.064 13.3567   7
  -1  -5   2 277.104 14.7592   1
   1  -5  -2 248.518 13.3365   2
  -1  -5   2 279.782 14.4267   1
   1  -5  -2 282.639 13.4260   3
   1  -5  -2 282.243 13.9721   1
   1   5  -2 276.690 14.6836   1
   1   5  -2 278.920 13.5646   2
   1   5  -2 282.171 14.3918   1
   1   5  -2 269.179 13.6578   3
  -1   5   2 301.433 13.9443   1
  -1   5   2 286.761 13.8512   1
   0  -5  -2 301.248 14.8487   1
   0  -5   2 310.411 14.3351   3
   0  -5  -2 298.156 14.1012   2
   0  -5  -2 282.784 14.9839   1
   0  -5   2 305.291 14.9915   1
   0  -5  -2 302.054 14.2606   3
   0  -5   2 302.427 15.2666   1
   0  -5   2 291.278 14.0009   5
   0  -5  -2 279.270 14.0721   6
   0  -5   2 289.800 14.1185   2
   0  -5  -2 255.685 14.1858   3
   0   5  -2 300.901 14.9809   1
   0   5   2 274.097 14.2193   3
   0   5   2 286.333 14.8077   1
   0   5   2 262.849 14.1067   2
   0   5  -2 270.493 14.1775   2
   0   5  -2 303.419 15.2742   1
   0   5  -2 272.467 14.2948   3
   0   5   2 304.044 15.0145   1
   1  -5   2 321.364 17.0466   1
   1  -5   2 335.848 16.1017   2
   1  -5   2 335.529 16.0683   5
   1  -5   2 279.138 16.1078   2
  -1  -5  -2 324.979 16.0164   6
  -1  -5  -2 346.839 16.2085   2
  -1  -5  -2 356.053 17.2643   1
  -1  -5  -2 356.210 16.4249   3
   1  -5   2 331.516 16.2607   3
   1  -5   2 336.175 16.8559   1
  -1  -5  -2 325.442 17.4229   1
  -1   5  -2 304.161 16.2513   3
   1   5   2 340.152 16.3947   3
  -1   5  -2 352.068 17.2561   1
   1   5   2 321.066 17.1449   1
   1   5   2 351.302 17.4366   1
   1   5   2 325.374 16.2233   2
   1   5   2 308.354 16.0138   4
  -1   5  -2 333.762 16.9034   1
   2  -5   2 202.613 11.1437   3
   2  -5   2 230.820 11.0561   2
  -2  -5  -2 216.933 12.8077   1
   2  -5   2 214.208 11.8922   1
   2  -5   2 226.523 11.1439   6
   2  -5   2 197.304 11.0485   2
  -2  -5  -2 230.069 12.6250   1
   2  -5   2 227.114 11.7908   1
   2  -5   2 239.470 11.1545   5
   2  -5   2 237.922 11.2283   3
   2   5   2 233.412 11.2317   4
  -2   5  -2 229.303 12.1538   1
   2   5   2 232.461 11.3329   2
   2   5   2 223.591 12.6663   1
   2   5   2 212.158 12.3799   1
   2   5   2 247.445 11.5116   3
   3  -5   2 237.719 12.6257   6
   3  -5   2 262.442 12.7104   5
   3  -5   2 243.064 12.5816   3
   3  -5   2 255.377 12.4694   2
   3   5   2 262.812 12.9524   4
   3   5   2 257.033 12.8849   2
   3   5   2 268.938 13.1060   3
   4  -5   2 1.15514 0.73439   5
   4  -5   2 1.03548 0.39731  12
   4  -5   2 0.17211 0.39392  13
   4  -5   2 0.92444 0.22514  10
   4  -5   2 0.55936 0.36963  11
   4   5   2 0.42112 0.39165  12
   4   5   2 0.56458 0.72400   5
   4   5   2 0.58584 0.98160   4
   4   5   2 0.98144 0.40825  10
   4   5   2 0.45720 0.85883   3
   4   5   2 1.05109 0.26105   8
   4   5   2 0.24528 0.46267   9
   4   5   2 2.02267 0.99644   2
   5  -5   2 135.786 8.03157   5
   5  -5   2 149.034 7.52904  14
   5  -5   2 150.406 7.29876  10
   5  -5   2 155.958 7.53814  13
   5  -5   2 156.276 7.50416  11
   5  -5   2 158.975 7.54218  12
   5   5   2 156.215 7.42604   9
   5   5   2 139.725 8.06976   5
   5   5   2 142.771 7.48143  12
   5   5   2 156.796 7.54335  13
   5   5   2 153.432 7.47764  10
   6  -5   2 24.4353 1.52353  13
   6  -5   2 20.3111 1.51695  14
   6  -5   2 25.8871 1.63433  12
   6   5   2 22.7655 1.44720  10
   6   5   2 22.8003 1.48485  13
   6   5   2 25.1622 1.62284  12
   7  -5   2 0.79304 0.30265  12
   7  -5   2 0.00981 0.47320  13
   7   5   2 0.58989 0.25890  13
   7   5   2 0.75490 0.29139  12
   7  -6  -2 133.880 7.38935  13
   7  -6  -2 156.467 7.42685  12
   7   6  -2 164.997 7.45439  12
   6  -6  -2 12.3943 0.95243  11
   6  -6  -2 12.2726 1.01490  12
   6  -6  -2 11.4745 0.97072  13
   6   6  -2 12.9206 1.09097  11
   6   6  -2 13.2950 1.28270  12
   6   6  -2 11.9280 0.93106  10
   5  -6  -2 18.6580 1.35793  13
   5  -6  -2 18.0996 1.19291  11
   5  -6  -2 19.0300 1.33292  14
   5  -6  -2 17.9459 1.26055  15
   5  -6  -2 19.0460 1.23395  12
   5  -6  -2 17.1099 1.37293  18
   5  -6  -2 16.2118 1.31668  17
   5   6  -2 17.7848 1.15117   9
   5   6  -2 17.7386 1.27493  10
   5   6  -2 19.0691 1.31907  12
   5   6  -2 18.9533 1.32935  11
   5   6  -2 16.2288 2.42676   4
   5   6  -2 17.5748 1.37360  18
   4  -6  -2 213.451 10.9045  18
   4  -6  -2 218.081 10.9266  14
   4  -6  -2 201.476 10.8764  17
   4  -6  -2 220.277 10.8804  11
   4  -6  -2 221.770 10.9186  13
   4  -6  -2 215.564 11.2456   5
   4  -6  -2 228.297 10.9241  12
   4  -6  -2 202.412 10.9890  16
   4  -6  -2 214.774 10.9203  15
   4   6  -2 231.012 11.7163   3
   4   6  -2 232.982 10.8770   9
   4   6  -2 224.943 10.9004  11
   4   6  -2 212.433 10.8912  18
   4   6  -2 239.301 11.4553   2
   4   6  -2 238.568 11.9070   4
   4   6  -2 239.932 10.9203  10
   4   6  -2 226.408 10.7417   8
   4   6  -2 240.826 10.9864  12
   3  -6  -2 71.2325 3.95103   5
   3  -6  -2 65.0782 3.80063   7
   3  -6  -2 70.6210 4.06033   6
   3   6  -2 77.4312 4.38544   3
   3   6  -2 74.5463 4.46245   4
   3   6  -2 69.7361 3.85369   5
   3   6  -2 79.6762 4.22549   2
  -2  -6   2 221.961 13.4510   1
   2  -6  -2 241.245 11.7478   6
   2  -6  -2 224.142 11.5549   7
   2  -6  -2 234.269 11.6301   5
   2   6  -2 251.498 11.9799   4
   2   6  -2 240.238 12.0034   3
   2   6  -2 230.462 13.4773   1
   2   6  -2 241.814 11.8996   2
   1  -6  -2 2112.15 101.641   6
   1  -6  -2 2061.30 101.713   1
  -1  -6   2 2060.19 101.126   1
   1  -6  -2 2171.27 101.566   3
   1  -6  -2 1944.16 100.526   7
   1  -6  -2 2051.52 100.740   2
   1  -6  -2 1987.30 101.217   3
  -1  -6   2 2097.90 101.855   2
  -1  -6   2 2055.83 101.677   3
   1  -6  -2 1843.81 100.343   2
  -1  -6   2 2188.07 100.779   1
   1  -6  -2 2051.55 100.550   1
  -1   6   2 2141.99 101.813   1
  -1   6   2 2042.79 100.956   1
   1   6  -2 2197.94 101.089   1
   1   6  -2 2085.20 100.682   1
   1   6  -2 2074.69 102.045   3
   1   6  -2 2169.17 101.761   2
   0  -6   2 753.076 34.5261   3
   0  -6  -2 726.624 34.4639   3
   0  -6   2 772.180 35.3934   1
   0  -6  -2 747.945 35.4193   6
   0  -6   2 702.246 35.5783   1
   0  -6  -2 729.747 35.1465   1
   0  -6  -2 614.563 34.3538   3
   0  -6  -2 710.556 35.4484   2
   0  -6   2 743.389 35.3951   2
   0  -6  -2 706.825 35.3136   1
   0   6   2 604.083 34.2522   2
   0   6  -2 709.841 34.5129   3
   0   6  -2 684.590 34.3534   2
   0   6   2 646.290 34.3861   3
   0   6   2 703.521 35.2949   1
   0   6   2 716.976 35.1326   1
   0   6  -2 712.559 35.2614   1
   0   6  -2 792.548 35.7719   1
   1  -6   2 47.7102 3.67620   1
  -1  -6  -2 44.7737 3.88746   1
  -1  -6  -2 45.9575 2.76182   2
   1  -6   2 52.6027 2.91469   3
   1  -6   2 51.4641 2.65318   5
  -1  -6  -2 47.0538 2.57759   6
  -1  -6  -2 47.1112 3.71184   1
  -1  -6  -2 52.3279 3.08276   3
   1  -6   2 49.1311 3.55172   1
   1  -6   2 51.8494 2.69770   2
   1  -6   2 48.0271 2.72206   6
   1   6   2 47.3619 2.83387   2
  -1   6  -2 49.9793 3.99726   1
   1   6   2 47.4272 3.94755   1
   1   6   2 44.7541 2.53771   4
   1   6   2 43.8323 3.64876   1
  -1   6  -2 46.4760 3.47594   1
   1   6   2 51.0645 3.02134   3
  -2  -6  -2 32.6618 3.79928   1
   2  -6   2 42.9672 2.48350   3
   2  -6   2 42.1865 2.29939   2
   2  -6   2 40.9438 2.44708   6
   2  -6   2 41.0101 2.36269   5
   2   6   2 37.5015 3.56122   1
   2   6   2 42.3695 2.84291   3
   2   6   2 42.6393 2.68925   2
   2   6   2 39.6729 2.44469   4
   2   6   2 41.2537 3.96626   1
   3  -6   2 8.46171 1.03529   6
   3  -6   2 9.77739 0.84223   2
   3  -6   2 8.26184 1.02752   3
   3  -6   2 9.11602 1.02658   5
   3   6   2 8.77349 1.32522   4
   3   6   2 10.3157 1.46078   2
   3   6   2 8.02537 1.35544   3
   4  -6   2 44.2554 2.40152  12
   4  -6   2 45.7523 2.83961   5
   4  -6   2 45.5315 2.38145  13
   4  -6   2 43.8060 2.42773  14
   4  -6   2 46.6115 2.37925  11
   4  -6   2 44.0066 2.22012  10
   4   6   2 42.8423 2.24871   8
   4   6   2 43.8696 3.04055   2
   4   6   2 42.5450 2.38483   9
   4   6   2 42.1283 3.04907   4
   4   6   2 41.7522 2.35488  10
   4   6   2 44.8372 2.84218   5
   4   6   2 43.3046 2.35870  12
   4   6   2 40.5253 3.12188   3
   5  -6   2 152.436 7.48240  11
   5  -6   2 148.510 7.54788  14
   5  -6   2 143.805 7.28600  10
   5  -6   2 159.993 7.54356  12
   5  -6   2 137.247 8.04786   5
   5  -6   2 153.350 7.54225  13
   5   6   2 154.847 7.43980   9
   5   6   2 137.984 8.05836   5
   5   6   2 159.029 7.57799  13
   5   6   2 157.372 7.50800  10
   5   6   2 152.871 7.50812  12
   6  -6   2 43.3114 2.39218  13
   6  -6   2 43.4320 2.44995  12
   6  -6   2 38.9614 2.33198  14
   6   6   2 44.3308 2.33455  10
   6   6   2 43.8805 2.44335  12
   6   6   2 43.0812 2.43216  13
   7  -6   2 0.48699 0.26921  12
   7  -6   2 0.15141 0.33395  13
   7   6   2 0.06445 0.23101  12
   7   7  -2 51.0379 2.62738  12
   6  -7  -2 47.3927 2.73303  14
   6  -7  -2 49.7088 2.76741  13
   6  -7  -2 50.8413 2.77629  12
   6  -7  -2 53.7733 2.74469  11
   6   7  -2 56.3249 2.84035  12
   6   7  -2 51.2138 2.71150  11
   6   7  -2 56.1862 2.72405  10
   5  -7  -2 48.8470 2.58536  11
   5  -7  -2 46.3021 2.65829  18
   5  -7  -2 48.6114 2.69359  13
   5  -7  -2 47.3245 2.68907  14
   5  -7  -2 49.9363 2.67008  12
   5  -7  -2 46.7547 2.62905  15
   5   7  -2 47.1651 2.61561  11
   5   7  -2 49.0760 2.67274  12
   5   7  -2 49.3380 2.56831   9
   5   7  -2 50.2807 2.58933  10
   4  -7  -2 6.08042 0.73161  11
   4  -7  -2 7.08748 0.70250  13
   4  -7  -2 6.58837 0.66215  12
   4  -7  -2 6.01877 0.99412  16
   4  -7  -2 7.69267 0.96396   5
   4  -7  -2 5.19316 0.81994  15
   4  -7  -2 5.22653 0.80954  18
   4   7  -2 6.25497 0.94572  12
   4   7  -2 5.82887 1.11695   2
   4   7  -2 5.64520 0.82887   9
   4   7  -2 5.72261 1.41379   4
   4   7  -2 5.62429 0.78893  11
   4   7  -2 6.58992 0.91155  10
   4   7  -2 7.17591 0.59110   8
   4   7  -2 5.69218 1.24123   3
   3  -7  -2 5.73978 0.99242   6
   3  -7  -2 6.30991 0.72378  13
   3  -7  -2 6.19673 0.84318   5
   3  -7  -2 5.71451 0.71501  15
   3  -7  -2 5.51921 0.58750  14
   3   7  -2 6.60097 1.14628   2
   3   7  -2 5.57517 0.65884   8
   3   7  -2 8.01200 1.32584   3
   3   7  -2 6.60734 1.31668   4
   2  -7  -2 567.142 26.3962   6
   2  -7  -2 549.076 26.2620   5
   2  -7  -2 547.000 26.1331   3
   2  -7  -2 536.056 26.1139   2
   2  -7  -2 487.624 26.1588   1
   2  -7  -2 522.174 26.0661   2
   2  -7  -2 503.881 26.1371   7
   2  -7  -2 536.555 26.0394   3
   2   7  -2 559.750 26.7050   3
   2   7  -2 572.909 26.5738   2
   2   7  -2 590.279 26.6204   4
   2   7  -2 517.486 28.4138   1
   1  -7  -2 241.870 13.7838   2
  -1  -7   2 292.137 15.2124   1
   1  -7  -2 289.055 13.7498   2
  -1  -7   2 292.049 13.9832   2
   1  -7  -2 308.189 13.9241   6
   1  -7  -2 289.854 14.5222   1
   1  -7  -2 264.663 13.8589   3
   1  -7  -2 261.485 14.7358   1
  -1  -7   2 280.898 14.3021   3
   1  -7  -2 273.073 13.7312   7
  -1  -7   2 262.294 15.5097   1
   1  -7  -2 294.104 13.9115   3
   1   7  -2 290.918 14.2201   3
   1   7  -2 295.479 15.5939   1
   1   7  -2 268.151 15.0875   1
   1   7  -2 300.070 14.0926   2
  -1   7   2 281.304 14.6739   1
   0  -7  -2 224.958 11.9218   1
   0  -7  -2 221.910 11.1661   3
   0  -7   2 223.636 12.0641   1
   0  -7  -2 217.172 12.1741   1
   0  -7  -2 235.807 10.9151   6
   0  -7   2 231.608 11.2313   3
   0  -7   2 226.545 10.9670   2
   0  -7   2 211.426 12.3629   1
   0  -7  -2 231.470 10.9295   2
   0   7  -2 208.121 11.9944   1
   0   7  -2 201.097 11.0039   2
   0   7  -2 211.587 11.2103   3
   0   7  -2 227.027 12.4335   1
   0   7   2 215.474 12.0965   1
   0   7   2 213.154 11.9189   1
  -1  -7  -2 214.612 10.3366   6
  -1  -7  -2 183.756 11.8347   1
   1  -7   2 216.605 10.6450   3
  -1  -7  -2 215.627 10.5309   2
   1  -7   2 212.612 10.3949   2
  -1  -7  -2 218.193 10.8574   3
  -1  -7  -2 216.421 11.8321   1
   1  -7   2 220.236 10.4794   6
   1  -7   2 208.316 11.4268   1
   1  -7   2 197.607 11.6662   1
   1  -7   2 224.664 10.3717   5
   1   7   2 208.282 12.0309   1
   1   7   2 186.248 11.5978   1
   1   7   2 203.134 10.5656   2
  -1   7  -2 203.829 11.4323   1
   1   7   2 216.502 10.7861   3
  -2  -7  -2 200.875 13.7903   1
   2  -7   2 255.300 11.9981   5
   2  -7   2 245.828 12.0495   6
   2  -7   2 245.357 12.0668   3
   2  -7   2 259.050 11.9097   2
   2   7   2 219.647 13.8549   1
   2   7   2 263.295 12.5292   3
   2   7   2 242.723 12.2407   2
   2   7   2 232.620 11.9889   4
   3  -7   2 81.6077 4.19731  14
   3  -7   2 87.5773 4.59661   5
   3  -7   2 84.0148 4.17013  12
   3  -7   2 81.0143 4.54621   6
   3  -7   2 76.6042 4.01966   9
   3  -7   2 80.6001 4.05802  10
   3  -7   2 86.9227 4.24535   2
   3  -7   2 85.3047 4.39873   3
   3  -7   2 80.7096 4.13503  11
   3  -7   2 82.0651 4.16261  13
   3   7   2 84.0738 5.11264   3
   3   7   2 85.6339 4.75329   4
   3   7   2 87.6506 4.87401   2
   3   7   2 75.5630 4.10138   8
   4  -7   2 6.52850 0.78573  11
   4  -7   2 5.51496 0.61045  15
   4  -7   2 7.07728 1.14814   5
   4  -7   2 6.54744 0.83351  13
   4  -7   2 7.15340 0.50173  10
   4  -7   2 6.56156 0.83052  14
   4  -7   2 5.96874 0.84220  12
   4   7   2 3.94794 1.25232   3
   4   7   2 6.41776 0.84440  12
   4   7   2 6.09580 1.26988   4
   4   7   2 5.75988 0.88856   9
   4   7   2 6.20456 0.66424   8
   4   7   2 6.85826 1.26395   2
   4   7   2 6.17686 0.89488  10
   4   7   2 6.20776 1.12560   5
   5  -7   2 144.980 6.93355  12
   5  -7   2 127.021 6.66551  10
   5  -7   2 142.442 6.97586  14
   5  -7   2 140.499 6.98352  13
   5   7   2 141.427 6.97632  13
   5   7   2 137.969 6.90121  10
   5   7   2 137.528 6.94181  12
   5   7   2 137.934 6.86091   9
   6  -7   2 103.847 5.77479  14
   6  -7   2 117.883 5.78383  12
   6  -7   2 117.678 5.81127  13
   6   7   2 116.528 5.78490  13
   6   7   2 118.835 5.78054  12
   6   7   2 117.646 5.72569  10
   7  -7   2 48.3725 2.50219  13
   7   8  -2 6.35729 0.58205  12
   6  -8  -2 16.1194 1.24815  13
   6  -8  -2 17.0076 1.25886  12
   6  -8  -2 15.6607 1.17765  14
   6   8  -2 16.0854 1.18060  12
   6   8  -2 16.7591 1.03298  10
   5  -8  -2 101.860 5.02693  13
   5  -8  -2 94.8010 4.95072  12
   5  -8  -2 90.1350 4.95099  15
   5  -8  -2 99.3040 5.03030  14
   5  -8  -2 96.2762 4.94099  11
   5   8  -2 96.8409 5.01068  12
   5   8  -2 104.140 4.96143  10
   5   8  -2 92.2751 4.92478  11
   5   8  -2 106.141 4.93586   9
   4  -8  -2 396.983 21.6569   6
   4  -8  -2 471.504 21.2686  14
   4  -8  -2 409.067 21.5630   5
   4  -8  -2 436.062 21.2308  15
   4  -8  -2 475.491 21.2578  13
   4  -8  -2 445.271 21.2065  12
   4  -8  -2 432.957 21.1641  11
   4  -8  -2 413.715 21.3001  16
   4   8  -2 438.054 21.2178  10
   4   8  -2 408.398 21.1498  11
   4   8  -2 436.851 22.1599   4
   4   8  -2 459.078 21.1950   9
   4   8  -2 447.145 21.8768   2
   4   8  -2 442.891 22.2114   3
   4   8  -2 457.384 21.0798   8
   3  -8  -2 1478.60 72.8796  15
   3  -8  -2 1599.05 72.5001   5
   3  -8  -2 1520.54 73.0201  14
   3  -8  -2 1411.02 71.8178  10
   3  -8  -2 1444.68 72.2770   6
   3  -8  -2 1359.78 72.2149  16
   3  -8  -2 1502.19 72.7344  13
   3  -8  -2 1510.17 72.4371  12
   3   8  -2 1583.71 72.4651   2
   3   8  -2 1589.01 72.7524   3
   3   8  -2 1592.97 72.6466   4
   3   8  -2 1437.31 72.2821   8
   3   8  -2 1411.01 71.8169  10
   3   8  -2 1521.00 72.3385   9
   2  -8  -2 322.589 15.6879   3
   2  -8  -2 319.968 15.6768   3
   2  -8  -2 304.991 15.6302   2
   2  -8  -2 344.482 16.0855   6
  -2  -8   2 307.204 15.8412   6
   2  -8  -2 293.244 15.7541   7
   2  -8  -2 327.025 15.6236   2
   2   8  -2 331.770 16.4447   3
   2   8  -2 338.874 16.2745   2
   2   8  -2 347.091 16.2847   4
  -1  -8   2 170.721 8.71986   2
  -1  -8   2 164.891 10.0221   1
   1  -8  -2 179.977 8.50782   2
  -1  -8   2 174.791 9.14643   3
   1  -8  -2 171.641 8.46449   7
   1  -8  -2 176.753 8.68871   3
   1  -8  -2 175.387 8.65380   6
  -1  -8   2 149.607 10.3332   1
  -1  -8   2 171.085 8.58791   6
   1   8  -2 157.818 9.96708   1
   1   8  -2 171.530 10.5528   1
   1   8  -2 171.998 8.86707   2
   1   8  -2 174.343 9.00192   3
   0  -8  -2 0.31009 0.47014   2
   0  -8   2 1.78448 1.05703   1
   0  -8  -2 -0.0540 0.79937   1
   0  -8  -2 -0.1071 0.62613   3
   0  -8   2 1.59395 0.43961   6
   0  -8   2 4.14050 1.26697   1
   0  -8   2 1.38080 0.55341   2
   0   8  -2 1.41786 0.89539   1
   1  -8   2 572.675 26.4306   5
  -1  -8  -2 566.250 26.6188   2
  -1  -8  -2 558.022 26.4116   6
   1  -8   2 545.309 26.4716   2
   1  -8   2 550.782 26.5367   6
  -1  -8  -2 520.771 26.9121   3
   1  -8   2 560.161 26.7454   3
  -1  -8  -2 528.121 28.0524   1
   1   8   2 493.698 27.9823   1
   2  -8   2 211.316 10.7354   3
   2  -8   2 212.094 10.7428   6
   2  -8   2 213.720 10.5552   2
   2  -8   2 219.597 10.6431   5
   2   8   2 206.559 10.9254   2
   2   8   2 209.394 11.1684   3
   3  -8   2 628.429 30.7682  12
   3  -8   2 653.407 30.6699   2
   3  -8   2 652.381 30.8073   3
   3  -8   2 646.616 30.7044  15
   3  -8   2 633.587 30.6976  13
   3  -8   2 633.710 30.8830  10
   3  -8   2 646.976 31.0751   6
   3  -8   2 619.028 30.9374  14
   3  -8   2 595.861 30.6261   9
   3  -8   2 687.676 31.0712   5
   3   8   2 581.383 30.6224   9
   3   8   2 648.617 31.3419   2
   3   8   2 600.680 30.5436   8
   3   8   2 670.091 31.7345   3
   4  -8   2 288.514 14.4869   5
   4  -8   2 285.011 13.7789  10
   4  -8   2 303.678 13.9983  14
   4  -8   2 264.474 13.9096  15
   4  -8   2 304.405 13.9727  13
   4  -8   2 297.189 13.9439  12
   4   8   2 262.594 15.0009   3
   4   8   2 282.796 13.9364   9
   4   8   2 289.245 13.9692  10
   4   8   2 268.074 14.6339   2
   4   8   2 287.170 13.9362  12
   4   8   2 291.120 14.4953   5
   4   8   2 289.525 13.8422   8
   5  -8   2 262.842 12.7129  13
   5  -8   2 254.788 12.6653  12
   5  -8   2 271.994 12.7499  14
   5   8   2 246.921 12.6669  10
   5   8   2 255.829 12.6748  12
   5   8   2 259.556 12.6952  13
   5   8   2 261.524 12.6245   9
   6  -8   2 12.2664 0.97386  14
   6  -8   2 13.0957 0.98726  12
   6  -8   2 12.2725 0.99890  13
   6   8   2 13.9749 1.06192  10
   6   8   2 12.4541 0.76284   9
   6   8   2 12.5846 1.13308  12
   6   8   2 12.1841 0.92736  13
   6  -9  -2 36.1762 2.20734  14
   6  -9  -2 41.0353 2.30036  13
   6  -9  -2 41.6617 2.21638  12
   6   9  -2 41.5092 2.16592  10
   6   9  -2 44.5824 2.27475  12
   5  -9  -2 57.3228 3.19318  11
   5  -9  -2 62.8999 3.36049  14
   5  -9  -2 61.2257 3.29832  12
   5  -9  -2 63.3391 3.35366  13
   5  -9  -2 60.7875 3.31960  15
   5   9  -2 66.2034 3.40174  12
   5   9  -2 64.5912 3.24805   9
   5   9  -2 62.2054 3.33185  10
   4  -9  -2 2163.96 98.0433  14
   4  -9  -2 2115.24 97.8607  13
   4  -9  -2 2029.40 97.8378  15
   4  -9  -2 1955.30 97.6065  12
   4  -9  -2 1955.46 98.1167  16
   4  -9  -2 1939.79 97.3777  11
   4   9  -2 1882.54 97.7304   3
   4   9  -2 1905.85 97.3720   2
   4   9  -2 2160.23 97.2175   8
   4   9  -2 2090.05 97.7164  10
   4   9  -2 1953.95 97.6097   4
   4   9  -2 2047.24 97.5388   9
   3  -9  -2 3.23188 0.59649  16
   3  -9  -2 2.79265 0.45454  12
   3  -9  -2 5.38930 1.06755   6
   3  -9  -2 3.77664 0.56575  15
   3  -9  -2 4.83278 0.70747  14
   3  -9  -2 3.94363 0.56768  13
   3  -9  -2 2.88136 0.32839  10
   3   9  -2 2.55852 0.59112   9
   3   9  -2 3.14884 1.18950   4
   3   9  -2 2.97339 1.18503   3
   3   9  -2 3.76637 1.10719   2
   3   9  -2 2.80374 0.48139   8
   2  -9  -2 1.35546 0.37292   2
   2  -9  -2 1.75958 0.70165   6
   2  -9  -2 1.78049 0.38588   2
   2  -9  -2 1.16245 0.37271   3
   2  -9  -2 2.03283 0.45353   3
   2   9  -2 1.50344 0.87285   4
   2   9  -2 4.47959 1.13447   3
   2   9  -2 1.04823 0.86016   2
   1  -9  -2 1436.71 69.7431   6
  -1  -9   2 1386.79 67.9489   6
  -1  -9   2 1360.35 68.2622   3
   1  -9  -2 1337.11 67.7127   7
   1  -9  -2 1429.22 69.5243   3
   1  -9  -2 1458.72 69.5695   2
  -1  -9   2 1367.94 67.8482   2
   1   9  -2 1470.44 67.9823   4
   0  -9   2 1639.14 80.1257   3
   0  -9  -2 1608.72 81.5055   2
   0  -9  -2 1733.77 82.5673   3
   0  -9   2 1463.86 80.5465   1
   0  -9   2 1708.58 81.1171   2
   0  -9  -2 1699.99 81.4351   6
   0  -9   2 1676.39 81.5014   6
   1  -9   2 124.142 6.58940   6
   1  -9   2 130.698 6.49522   5
  -1  -9  -2 130.694 7.09190   3
  -1  -9  -2 123.246 6.46749   6
  -1  -9  -2 118.924 8.26739   1
   1  -9   2 125.702 6.55640   2
   1  -9   2 128.520 6.86739   3
  -1  -9  -2 127.440 6.69610   2
   2  -9   2 1398.14 66.4966   3
   2  -9   2 1324.45 66.4431   9
   2  -9   2 1447.16 67.2477   2
   2  -9   2 1424.45 66.8578  12
   2  -9   2 1402.00 67.3706   5
   2  -9   2 1458.34 67.5249   6
   2  -9   2 1182.84 67.2097  15
   3  -9   2 132.868 6.64889  15
   3  -9   2 129.476 6.45219   9
   3  -9   2 138.643 6.66912  14
   3  -9   2 133.115 6.63063  13
   3  -9   2 136.083 6.62790  12
   3  -9   2 132.862 6.51533  10
   3  -9   2 132.749 6.80073   3
   3  -9   2 135.940 6.67333   2
   3  -9   2 132.994 7.15525   6
   3  -9   2 141.654 7.07386   5
   3   9   2 131.579 7.44910   2
   3   9   2 124.939 6.58475   8
   3   9   2 131.533 7.73336   3
   4  -9   2 162.172 7.84012  14
   4  -9   2 162.550 7.81601  13
   4  -9   2 153.987 7.77640  15
   4  -9   2 171.657 7.81268  12
   4  -9   2 158.273 7.61203  10
   4  -9   2 152.925 8.27577   5
   4   9   2 152.217 7.76923  12
   4   9   2 159.776 7.81613   9
   4   9   2 155.319 8.37291   5
   4   9   2 169.986 7.70521   8
   4   9   2 137.094 8.87203   3
   4   9   2 139.080 8.53724   2
   5  -9   2 230.919 11.1517  12
   5  -9   2 241.674 11.2253  14
   5  -9   2 224.603 11.1523  13
   5   9   2 218.795 11.1141  12
   5   9   2 219.051 11.1403  13
   5   9   2 237.018 11.1099   9
   5   9   2 216.701 11.1446  10
   6  -9   2 2.34083 0.44263  14
   6  -9   2 1.92822 0.43889  13
   6  -9   2 1.41273 0.39292  12
   6   9   2 2.54130 0.51274  12
   6   9   2 2.26111 0.48056  10
   6   9   2 1.77833 0.27907   9
   6   9   2 2.60480 0.40075  13
   6 -10  -2 32.8042 1.87232  13
   6 -10  -2 29.3809 1.79377  14
   6  10  -2 33.6640 1.82282  10
   6  10  -2 33.3671 1.83984  12
   5 -10  -2 2.96519 0.65336  13
   5 -10  -2 2.15600 0.41671  12
   5 -10  -2 2.00342 0.57052  15
   5 -10  -2 3.21050 0.61126  14
   5  10  -2 2.24807 0.47520  10
   5  10  -2 2.34639 0.53883   9
   5  10  -2 1.58533 0.59434  12
   4 -10  -2 56.4096 3.35330  16
   4 -10  -2 61.1908 3.14109  12
   4 -10  -2 63.4122 3.26421  13
   4 -10  -2 55.4587 3.78661   6
   4 -10  -2 66.3776 3.29179  14
   4 -10  -2 63.7627 3.27623  15
   4  10  -2 61.7092 3.06949   8
   4  10  -2 56.0388 3.25606  10
   4  10  -2 51.0879 4.06913   4
   4  10  -2 57.5506 3.23887   9
   3 -10  -2 114.489 5.68232  15
   3 -10  -2 116.902 6.32846   6
   3 -10  -2 117.896 5.70814  13
   3 -10  -2 120.562 5.72171  14
   3 -10  -2 112.385 5.64118  12
   3 -10  -2 107.432 5.78760  16
   3 -10  -2 110.245 5.47507  10
   3  10  -2 110.646 6.52024   4
   3  10  -2 108.948 6.79311   3
   3  10  -2 109.636 5.61950   8
   2 -10  -2 7.01105 0.73014  14
   2 -10  -2 7.04468 0.58983  10
   2 -10  -2 7.85264 0.74005   2
   2 -10  -2 6.53891 0.65967  13
   2 -10  -2 6.49861 1.07399   6
   2 -10  -2 6.87605 0.48337   9
   2 -10  -2 7.36035 0.74249  15
   2 -10  -2 7.02528 0.87080   3
   2 -10  -2 6.37308 0.88171  16
   2  10  -2 7.08593 1.23195   4
   2  10  -2 6.14575 1.36393   3
  -1 -10   2 636.034 30.8313   6
   1 -10  -2 661.573 30.7558   2
   1 -10  -2 589.682 30.6398   7
   1 -10  -2 651.123 31.0491   3
  -1 -10   2 614.513 31.4591   3
   1 -10  -2 668.690 30.9441   6
  -1 -10   2 616.474 30.9920   2
   1  10  -2 627.089 31.0671   4
   0 -10   2 1.83962 0.91881   3
   0 -10  -2 3.10958 0.92731   3
   0 -10   2 1.15070 0.63744   6
   0 -10   2 2.13024 0.70913   2
   0 -10  -2 2.10894 0.77043   2
  -1 -10  -2 227.508 12.1047   3
  -1 -10  -2 230.671 11.5108   6
   1 -10   2 231.845 11.5875   2
  -1 -10  -2 227.959 11.7249   2
   1 -10   2 229.427 11.6653   6
   1 -10   2 233.196 11.9328   3
   2 -10   2 64.4672 3.61974   3
   2 -10   2 57.7307 2.97470  10
   2 -10   2 57.0926 3.59757   6
   2 -10   2 54.2905 2.93752   9
   2 -10   2 58.1471 3.06005  14
   2 -10   2 60.6062 3.32456   2
   2 -10   2 58.1054 3.05161  15
   2 -10   2 56.9333 3.01203  13
   2 -10   2 62.6577 3.47447   5
   3 -10   2 16.4760 1.18315  13
   3 -10   2 15.6595 1.11856  15
   3 -10   2 17.5244 1.16868   2
   3 -10   2 16.3339 0.99457  10
   3 -10   2 15.3351 1.54196   6
   3 -10   2 16.2666 0.90841   9
   3 -10   2 16.4226 1.19928  14
   3 -10   2 17.6933 1.11117  12
   3 -10   2 18.2589 1.69321   5
   3 -10   2 16.6332 1.29272   3
   3  10   2 14.9036 1.09086   8
   4 -10   2 286.166 13.1653  12
   4 -10   2 281.469 12.9879  10
   4 -10   2 274.864 13.1742  13
   4 -10   2 271.925 13.1819  15
   4 -10   2 244.527 13.6434   5
   4 -10   2 276.713 13.2237  14
   4  10   2 276.003 13.0685   8
   4  10   2 248.196 13.6709   5
   4  10   2 261.690 13.1514  12
   4  10   2 265.995 13.1763   9
   5 -10   2 67.1087 3.42998  13
   5 -10   2 57.8545 3.34005  15
   5 -10   2 67.9008 3.42054  14
   5 -10   2 66.5880 3.35444  12
   5  10   2 62.0247 3.36489  10
   5  10   2 64.0144 3.33758  12
   5  10   2 57.2731 3.07422   8
   5  10   2 62.9758 3.38764  13
   5  10   2 68.5807 3.39489   9
   6 -10   2 14.3107 1.15081  13
   6 -10   2 14.8195 1.14455  14
   6  10   2 13.6629 0.99629  13
   6  10   2 14.2308 1.07782  12
   6  10   2 15.1516 1.09131  10
   6  10   2 15.0240 0.85506   9
   6 -11  -2 18.0336 1.20121  13
   6 -11  -2 19.2831 1.29101  14
   6  11  -2 21.1619 1.25346  12
   6  11  -2 21.0110 1.18647  10
   5 -11  -2 178.237 8.61478  14
   5 -11  -2 173.427 8.59712  15
   5 -11  -2 172.520 8.58634  13
   5  11  -2 161.252 8.54468  10
   5  11  -2 178.695 8.61634  12
   5  11  -2 175.309 8.51202   9
   4 -11  -2 15.4547 1.22145  15
   4 -11  -2 20.0153 1.44290  13
   4 -11  -2 15.5946 1.20354  14
   4 -11  -2 19.0045 1.99525   6
   4 -11  -2 14.0894 1.30012  16
   4  11  -2 18.2749 1.20387   8
   4  11  -2 16.9736 1.48342   9
   4  11  -2 11.7848 1.43454  10
   3 -11  -2 59.0775 2.96386  15
   3 -11  -2 53.4205 3.48733   6
   3 -11  -2 51.2042 2.98813  16
   3 -11  -2 57.6212 2.91519  14
   3 -11  -2 53.6175 2.67460  10
   3 -11  -2 58.1762 2.96161  13
   3  11  -2 47.9553 3.69526   4
   3  11  -2 47.3012 4.06847   3
   3  11  -2 51.9612 2.88046   8
   2 -11  -2 283.050 13.8327  15
   2 -11  -2 297.214 13.7141  10
   2 -11  -2 290.701 13.8891   2
   2 -11  -2 296.783 13.8383  13
   2 -11  -2 284.755 13.9354  16
   2 -11  -2 296.162 14.4217   6
   2 -11  -2 287.517 13.8472  14
   2 -11  -2 263.157 13.9833   3
   2 -11  -2 272.982 13.6975   9
   2  11  -2 280.518 14.4930   4
   2  11  -2 271.625 13.8022   8
   1 -11  -2 24.6559 1.85323   6
   1 -11  -2 25.4765 1.74833   2
   1 -11  -2 24.3203 1.43342  15
   1 -11  -2 24.4769 2.08376   3
   1 -11  -2 23.4947 1.50816  16
  -1 -11   2 25.4471 2.71056   3
   1 -11  -2 24.2725 1.35361   9
   1 -11  -2 22.5804 1.21847   8
   1 -11  -2 24.3361 1.37647  10
  -1 -11   2 25.3497 1.85795   6
   1  11  -2 23.2585 2.09600   4
   0 -11  -2 538.456 25.8812   3
   0 -11  -2 538.256 25.4731   6
   0 -11   2 545.237 25.5267   6
   0 -11  -2 491.693 25.0649   8
   0 -11   2 525.932 25.5426   2
   0 -11   2 476.285 24.9445   8
   0 -11   2 519.394 25.9534   3
   0 -11  -2 518.179 25.4681   2
   1 -11   2 4.74527 0.58648  15
   1 -11   2 6.27476 0.55742   8
  -1 -11  -2 5.50148 1.05415   2
  -1 -11  -2 2.97960 1.17193   3
  -1 -11  -2 3.86282 0.77109   6
   1 -11   2 6.74642 0.68176   9
   1 -11   2 5.17602 1.04208   6
  -1 -11  -2 5.42310 0.60143   8
   1 -11   2 5.94365 0.70191  10
   1 -11   2 6.56036 1.28653   3
   1 -11   2 7.38782 1.19057   2
   2 -11   2 874.234 41.5579   6
   2 -11   2 861.898 41.3979  10
   2 -11   2 825.461 40.9695  13
   2 -11   2 833.982 41.1680   9
   2 -11   2 836.951 41.8511  15
   2 -11   2 802.920 41.2943  14
   2 -11   2 883.993 41.5078   3
   2 -11   2 885.750 41.2325   2
   3 -11   2 250.598 12.7849   5
   3 -11   2 258.509 12.3021  13
   3 -11   2 260.177 12.3465  15
   3 -11   2 246.850 12.0932   9
   3 -11   2 249.002 12.9287   6
   3 -11   2 261.679 12.1910  10
   3 -11   2 241.580 12.2711   2
   3 -11   2 265.198 12.3597  14
   3 -11   2 237.145 12.3626   3
   3  11   2 244.576 12.2564   8
   4 -11   2 68.2163 3.53050  13
   4 -11   2 66.9460 3.28606  10
   4 -11   2 68.5670 3.56455  14
   4 -11   2 65.4939 3.48987  15
   4  11   2 67.5103 3.42726   8
   4  11   2 63.9099 3.56181   9
   4  11   2 62.4675 3.49252  12
   5 -11   2 42.3718 2.37250  15
   5 -11   2 42.6346 2.34308  13
   5 -11   2 43.3009 2.39264  14
   5  11   2 46.8651 2.43213   9
   5  11   2 42.1013 2.31024  13
   5  11   2 36.4960 2.04517   8
   5  11   2 42.6020 2.32211  12
   5  11   2 43.2074 2.47608  10
   6 -11   2 15.0074 1.01919  14
   6 -11   2 15.6189 1.00897  13
   6  11   2 14.2372 0.94179  12
   6  11   2 15.0728 0.98069  10
   6  11   2 15.7083 0.83765   9
   6 -12  -2 101.284 5.06201  14
   6  12  -2 102.765 5.02605  10
   5 -12  -2 20.8326 1.35263  14
   5 -12  -2 20.2649 1.35157  15
   5 -12  -2 20.6503 1.34196  13
   5  12  -2 19.9316 1.37111  10
   5  12  -2 21.6507 1.53295  12
   5  12  -2 20.8195 1.29458   9
   4 -12  -2 1056.99 48.9319  15
   4 -12  -2 1014.71 48.7369  13
   4 -12  -2 1028.65 48.8025  14
   4 -12  -2 920.690 48.0007  16
   4  12  -2 956.039 48.0159   9
   4  12  -2 1004.08 48.1101   8
   3 -12  -2 437.725 20.6624  14
   3 -12  -2 445.549 20.6560  15
   3 -12  -2 438.008 20.6482  13
   3 -12  -2 410.725 20.7292  16
   3 -12  -2 399.924 21.3020   6
   3  12  -2 418.101 20.5666   8
   2 -12  -2 87.6662 4.51211  15
   2 -12  -2 91.9142 4.53448  13
   2 -12  -2 92.4947 4.64812  16
   2 -12  -2 93.8536 4.55367  14
   2 -12  -2 88.0271 4.33051   9
   2 -12  -2 90.1900 4.40771  10
   2 -12  -2 83.5627 4.67282   3
   2 -12  -2 88.8426 5.09641   6
   2 -12  -2 89.8235 4.57657   2
   2  12  -2 80.1480 4.52216   8
   1 -12  -2 1247.33 58.6666   6
   1 -12  -2 1093.87 57.9932   8
   1 -12  -2 1165.76 58.5198  14
  -1 -12   2 1241.83 58.5964   6
   1 -12  -2 1256.63 58.7591   2
   1 -12  -2 1224.36 58.7883   3
  -1 -12   2 1145.56 58.2363   8
   1 -12  -2 1227.05 58.8701  10
   1 -12  -2 1181.33 59.0755  15
   1 -12  -2 1279.00 59.8592  16
   1 -12  -2 1247.29 58.7925   9
   0 -12   2 282.503 13.5838   8
   0 -12  -2 292.698 14.1935   2
   0 -12  -2 261.526 13.6231  10
   0 -12  -2 298.617 14.1957   6
   0 -12  -2 274.455 14.5999   3
   0 -12   2 269.867 13.6320   9
   0 -12   2 300.270 14.2991   2
   0 -12   2 293.578 14.7634   3
   0 -12   2 297.106 14.2553   6
   0 -12  -2 269.922 13.5499   8
   0 -12  -2 269.825 13.6235   9
   0 -12   2 264.252 13.6409  15
  -1 -12  -2 601.639 30.1039   6
  -1 -12  -2 607.188 29.9633   8
  -1 -12  -2 605.350 30.3663   2
   1 -12   2 629.693 29.6859  10
  -1 -12  -2 553.673 29.7077   9
   1 -12   2 637.020 30.1977  15
   1 -12   2 612.011 29.8604   9
   1 -12   2 656.703 30.3998   6
  -1 -12  -2 597.774 30.8161   3
   1 -12   2 627.284 29.9918   8
   1 -12   2 640.571 30.2203   2
   1 -12   2 630.931 30.6619   3
   2 -12   2 36.6397 1.93051  10
  -2 -12  -2 30.1904 1.94040   8
   2 -12   2 34.9921 1.87621   9
   2 -12   2 34.0464 2.57527   3
   2 -12   2 38.6964 2.01988  14
   2 -12   2 37.8850 2.06492  15
   2 -12   2 31.1828 2.00297  16
   2 -12   2 36.6611 2.34277   2
   2 -12   2 35.6605 2.01248  13
   2 -12   2 36.0707 2.72512   6
   3 -12   2 1265.57 61.2783   6
   3 -12   2 1289.97 61.1638  10
   3 -12   2 1277.90 61.4087  13
   3 -12   2 1288.58 61.5407  14
   3 -12   2 1345.03 62.0642  15
   3 -12   2 1121.71 60.3905   9
   3  12   2 1240.44 60.9581   8
   4 -12   2 27.3147 1.76072  15
   4 -12   2 27.3604 1.41920  10
   4 -12   2 27.1402 1.63925  13
   4 -12   2 28.1904 1.66820  14
   4  12   2 26.3347 1.64861   8
   4  12   2 25.5622 1.69451   9
   4  12   2 25.2540 1.68894  12
   5 -12   2 341.983 15.5940  14
   5 -12   2 301.040 15.5163  13
   5 -12   2 302.805 15.5060  15
   5  12   2 310.486 15.5003  13
   5  12   2 314.074 15.4917  12
   5  12   2 345.734 15.5165   9
   6 -12   2 0.73104 0.31227  14
   6 -12   2 0.46494 0.30840  13
   6  12   2 1.11882 0.28575  10
   5 -13  -2 0.80578 0.52021  15
   5 -13  -2 0.87223 0.53805  14
   5 -13  -2 1.42309 0.46640  13
   5  13  -2 0.20115 0.49366   9
   5  13  -2 1.05067 0.42746  10
   5  13  -2 1.00591 0.38949  12
   4 -13  -2 2.78373 0.69155  16
   4 -13  -2 4.41742 0.74121  15
   4 -13  -2 4.04797 0.69326  14
   4  13  -2 2.11232 0.71990   9
   4  13  -2 2.16100 0.50626   8
   3 -13  -2 19.6933 1.33191  15
   3 -13  -2 16.5479 1.62749  16
   3 -13  -2 20.6659 1.52356  13
   3 -13  -2 18.2785 1.29699  14
   3 -13  -2 17.7960 1.87379   6
   3  13  -2 22.0699 1.47086   8
   2 -13  -2 33.6872 2.71371   6
   2 -13  -2 36.6176 1.99140  14
   2 -13  -2 32.0871 2.09572   3
   2 -13  -2 33.8939 1.76666   9
   2 -13  -2 34.2836 2.00919   2
   2 -13  -2 36.4889 2.27384  16
   2 -13  -2 35.0002 1.98639  15
   2 -13  -2 36.0552 1.88096  10
   1 -13  -2 173.930 8.97419   6
  -1 -13   2 165.074 8.89511   6
   1 -13  -2 177.099 8.27797   9
   1 -13  -2 171.832 8.30191  10
   1 -13  -2 161.542 8.34752  14
   1 -13  -2 160.869 9.04198   3
   1 -13  -2 161.459 8.34446  15
  -1 -13   2 169.702 8.30251   8
   1 -13  -2 180.257 8.53475  16
   1 -13  -2 170.561 8.73984   2
   0 -13  -2 496.583 23.7159   2
   0 -13  -2 486.544 23.2236   8
   0 -13   2 502.603 23.8020   6
   0 -13   2 469.639 23.1170  15
   0 -13   2 470.052 23.7574   2
   0 -13   2 466.102 24.2596   3
   0 -13  -2 481.013 23.1055  10
   0 -13  -2 471.264 24.2012   3
   0 -13   2 470.083 23.2444   8
   0 -13   2 446.504 23.0990   9
   0 -13  -2 497.183 23.7023   6
   0 -13  -2 483.655 23.0946   9
  -1 -13  -2 433.561 22.4729   2
   1 -13   2 431.564 22.7390   3
  -1 -13  -2 470.390 21.7140   8
  -1 -13  -2 434.663 23.0269   3
   1 -13   2 462.526 22.3202   2
   1 -13   2 468.037 22.4986   6
   1 -13   2 439.440 21.7391  10
  -1 -13  -2 435.512 21.7830   9
   1 -13   2 455.683 21.8082  15
   1 -13   2 453.764 21.7319   9
   1 -13   2 464.525 21.7977   8
   2 -13   2 69.4394 4.13043  16
   2 -13   2 80.2760 4.08250  15
   2 -13   2 86.2165 4.00963  10
   2 -13   2 82.3907 3.93884   9
   2 -13   2 77.2498 4.39216   2
   2 -13   2 75.4698 4.03204  14
  -2 -13  -2 82.2877 4.03305   8
   2 -13   2 75.8447 4.03163  13
   2 -13   2 76.9213 4.68242   3
   2 -13   2 79.6650 4.76158   6
   3 -13   2 211.367 10.3247  15
   3 -13   2 213.243 10.2889  13
   3 -13   2 211.630 10.1562  10
   3 -13   2 203.023 10.3017  14
   3 -13   2 195.439 10.9812   6
   3  13   2 216.446 10.2720   8
   4 -13   2 49.2418 2.65828  15
   4 -13   2 44.8216 2.52159  13
   4 -13   2 45.1906 2.31270  10
   4 -13   2 46.0652 2.55524  14
   4  13   2 47.6246 2.70029   9
   4  13   2 47.5233 2.45225   8
   4  13   2 43.6035 2.49954  12
   5 -13   2 99.5940 5.20544  15
   5 -13   2 111.206 5.31003  14
   5 -13   2 104.708 5.21996  13
   5  13   2 104.365 5.19935   9
   5  13   2 100.905 5.20986  12
   5 -14  -2 0.51073 0.37896  14
   5 -14  -2 1.12894 0.50484  15
   5  14  -2 0.11900 0.50857  10
   5  14  -2 0.09120 0.47942  12
   5  14  -2 1.06484 0.33811   9
   4 -14  -2 2.82356 0.65683  14
   4 -14  -2 2.63032 0.52423  15
   4 -14  -2 3.07004 0.53612  16
   4  14  -2 3.09701 0.71712   9
   4  14  -2 3.15464 0.46975   8
   3 -14  -2 2.59782 0.63966  15
   3 -14  -2 2.22319 0.47349  14
   3 -14  -2 2.57928 0.58272  16
   3  14  -2 2.98660 0.63745   8
   2 -14  -2 36.5817 1.99229  15
   2 -14  -2 35.8344 1.98167  14
   2 -14  -2 33.6156 1.71112   9
   2 -14  -2 31.0402 1.86910   2
   2 -14  -2 32.6729 2.76813   6
   2 -14  -2 37.6403 2.29852  16
  -2 -14   2 31.2430 1.89445   8
   2 -14  -2 35.8362 1.87556  10
   1 -14  -2 2.11282 0.33837  10
  -1 -14   2 2.05215 0.80086   6
  -1 -14   2 2.02829 0.41515   8
   1 -14  -2 2.35542 0.39611   9
   1 -14  -2 1.79461 0.46198  15
   1 -14  -2 2.92838 0.87459   2
   1 -14  -2 1.82542 0.60067  16
   1 -14  -2 2.48991 0.95850   3
   1 -14  -2 1.58879 0.44043  14
   1 -14  -2 2.38457 0.76449   6
   0 -14  -2 26.1567 1.50926  10
   0 -14  -2 27.0559 1.56155   9
   0 -14  -2 25.2439 1.40157   8
   0 -14   2 25.0686 2.22911   6
   0 -14  -2 24.6592 2.15778   2
   0 -14  -2 26.2213 2.03473   6
   0 -14   2 27.0761 1.60030   9
   0 -14   2 24.9405 1.50771  15
   0 -14  -2 21.1612 2.62748   3
   0 -14   2 20.9345 2.70566   3
   0 -14   2 24.8858 2.29915   2
   0 -14   2 25.8259 1.46739   8
   1 -14   2 16.8023 1.74484   2
  -1 -14  -2 11.3951 2.06336   3
   1 -14   2 17.8831 1.16504   9
   1 -14   2 16.3891 1.89345   6
  -1 -14  -2 15.4200 1.87538   2
   1 -14   2 17.9447 1.26302  15
   1 -14   2 12.0609 2.01960   3
   1 -14   2 17.4837 1.09272  10
   1 -14   2 16.6738 0.97180   8
  -1 -14  -2 15.8700 1.25055   9
  -1 -14  -2 15.4920 1.12424   8
   2 -14   2 213.891 10.8445  14
  -2 -14  -2 217.680 10.8085   8
   2 -14   2 209.096 10.9381  16
   2 -14   2 228.434 10.7970  10
   2 -14   2 228.790 10.7323   9
   2 -14   2 213.218 11.6486   6
   2 -14   2 234.190 10.9258  15
   3 -14   2 66.7892 3.60725  15
   3 -14   2 68.9386 3.38955  10
   3 -14   2 62.5743 3.48080  13
   3 -14   2 65.7187 3.50293  14
  -3 -14  -2 70.7506 3.65068   8
   3  14   2 65.2995 3.56833   8
   4 -14   2 5.68674 0.91288  14
   4 -14   2 5.35495 0.74217  13
   4 -14   2 5.71237 0.79540  15
   4 -14   2 5.46234 0.41582  10
   4  14   2 5.87689 0.91568   8
   4  14   2 4.18858 0.62833  12
   4  14   2 4.82463 0.75988   9
   5 -14   2 52.8099 2.69872  15
   5 -14   2 49.1993 2.68519  13
   5  14   2 51.4962 2.69332  12
   5  14   2 53.2529 2.68616   9
   5 -15  -2 15.2458 1.12635  14
   5 -15  -2 18.8857 1.14731  15
   5  15  -2 21.6950 1.18010   9
   4 -15  -2 7.75893 0.83682  15
   4 -15  -2 8.58296 0.97989  14
   4 -15  -2 5.33851 0.83542  16
   4  15  -2 7.30696 0.93136   9
   4  15  -2 6.79217 0.81912  12
   4  15  -2 7.40975 0.78694   8
   3 -15  -2 157.262 8.04887  10
   3 -15  -2 174.714 8.44721  16
   3 -15  -2 165.295 8.28360  15
   3 -15  -2 165.184 8.27213  14
   3  15  -2 170.398 8.25193   8
   2 -15  -2 100.292 4.88142  15
   2 -15  -2 95.2656 4.98364  16
   2 -15  -2 93.0814 4.81329  14
  -2 -15   2 89.4453 4.75629   8
   1 -15  -2 65.2330 3.42187  15
   1 -15  -2 69.5612 3.69895  16
   1 -15  -2 67.5667 3.35031   9
   1 -15  -2 60.0007 4.12548   6
  -1 -15   2 62.7006 3.38357   8
   1 -15  -2 67.2512 3.40633  10
   0 -15   2 1.75916 0.94232   2
   0 -15   2 2.74818 0.94214   6
   0 -15   2 3.13794 0.54033   9
   0 -15  -2 5.87887 1.09547   6
   1 -15   2 322.428 15.4989  16
   1 -15   2 318.713 15.1634   8
   1 -15   2 296.051 16.1026   6
   1 -15   2 322.513 15.3501  10
  -1 -15  -2 316.880 15.3787   9
   1 -15   2 305.377 15.3085   9
  -1 -15  -2 318.111 15.2809   8
   1 -15   2 323.525 15.4063  15
   2 -15   2 896.412 42.0006  10
   2 -15   2 898.372 41.7711   9
   2 -15   2 788.228 41.5052  16
  -2 -15  -2 844.353 41.5609   8
   2 -15   2 879.101 42.4927  15
   3 -15   2 10.6042 1.03982  14
   3 -15   2 11.9751 1.01927  15
   3 -15   2 11.3340 0.86551  10
  -3 -15  -2 11.5253 0.96202   8
   3  15   2 11.6375 1.25496   8
   4 -15   2 6.38166 0.72261  14
   4 -15   2 6.63491 0.79306  15
   4  15   2 6.14782 0.86980  12
   4  15   2 6.30858 0.87885   8
   4  15   2 6.54211 1.08526   9
   5 -15   2 9.83332 0.75414  14
   5  15   2 10.1538 0.76317   9
   5 -16  -2 2.22442 0.39814  14
   5  16  -2 3.10654 0.48955   9
   4 -16  -2 68.3103 3.48072  15
   4 -16  -2 64.0690 3.42990  14
   4  16  -2 71.2763 3.32428   8
   4  16  -2 63.5703 3.43877  12
   4  16  -2 65.6590 3.53413   9
   3 -16  -2 441.675 20.6123  16
   3 -16  -2 427.244 20.4870  15
   3 -16  -2 412.781 20.2528  10
   3 -16  -2 407.000 20.4558  14
  -3 -16   2 419.506 20.4397   8
   3  16  -2 425.605 20.4123   8
   2 -16  -2 27.3026 1.77101  16
   2 -16  -2 24.8373 1.67129  15
  -2 -16   2 27.0171 1.63447   8
   2 -16  -2 23.8683 1.61321  14
   1 -16  -2 293.440 13.7108  16
  -1 -16   2 288.582 13.4590   8
   1 -16  -2 283.054 13.4278   9
  -1 -16   2 254.721 13.5373   9
   1 -16  -2 265.448 13.5198  15
   0 -16  -2 24.6921 1.54328   9
   0 -16  -2 24.8843 1.80239  16
   0 -16   2 24.2731 1.38752   8
   0 -16  -2 24.9371 1.28249   8
   0 -16   2 21.9940 1.62170  10
   0 -16   2 22.5531 1.50859  15
   0 -16   2 24.9500 1.56597   9
  -1 -16  -2 5.52338 0.96697   9
  -1 -16  -2 5.09325 0.71254   8
   1 -16   2 5.80126 0.87884  15
   1 -16   2 5.99293 1.07604  16
   1 -16   2 5.66547 0.81425   9
   1 -16   2 5.10444 0.83945  10
   2 -16   2 150.739 8.20426  16
   2 -16   2 163.811 7.96845   9
   2 -16   2 170.216 8.16923  15
  -2 -16  -2 179.931 8.08992   8
   2 -16   2 154.962 8.04304  10
  -3 -16  -2 8.80688 1.00702   8
   3 -16   2 7.57637 0.88308  14
   3 -16   2 8.16885 0.69474  10
   3 -16   2 8.32454 1.05716  15
   3  16   2 8.59185 1.11625   8
  -4 -16  -2 0.60696 0.44944   8
   4 -16   2 1.04002 0.38553  15
   4 -16   2 0.70097 0.42766  14
   4  16   2 1.06107 0.30890   8
   4  16   2 0.78577 0.28307  12
   4 -17  -2 243.097 11.4926  15
   4 -17  -2 217.723 11.4663  14
   4  17  -2 243.276 11.3394   8
   4  17  -2 225.950 11.4879   9
   4  17  -2 248.995 11.4859  12
   3 -17  -2 396.923 19.4660  15
  -3 -17   2 413.603 19.4221   8
   3 -17  -2 366.343 19.4348  14
   3 -17  -2 405.696 19.5602  16
   3  17  -2 426.069 19.4289   8
   2 -17  -2 50.3553 2.84499  16
  -2 -17   2 51.4603 2.56965   8
   2 -17  -2 41.6032 2.48603  14
   2 -17  -2 47.3007 2.62505  15
   2 -17  -2 46.7171 2.44191  10
   2  17  -2 45.0127 2.70375   8
   1 -17  -2 101.591 5.08367  16
   1 -17  -2 96.6942 4.71963   9
  -1 -17   2 98.8460 4.75790   8
   1 -17  -2 82.5145 4.79880  15
  -1 -17   2 95.1652 4.89308   9
   0 -17  -2 49.1829 2.80524  16
   0 -17   2 47.0864 2.51407   9
   0 -17  -2 46.3332 2.55162  10
   0 -17   2 47.4470 2.36350   8
   0 -17   2 45.2465 2.56348  10
   0 -17   2 42.3856 2.47310  15
   0 -17  -2 47.2562 2.52622   9
   1 -17   2 78.0849 4.18263  15
   1 -17   2 82.4997 4.11588   9
  -1 -17  -2 82.7376 4.21423   9
   1 -17   2 82.3587 4.16072  10
  -1 -17  -2 84.6636 4.36031  16
  -1 -17  -2 78.5914 4.02847   8
   1 -17   2 76.9069 4.31080  16
   2 -17   2 327.012 15.7975   9
   2 -17   2 340.812 15.9296  10
   2 -17   2 333.493 16.0198  15
  -2 -17  -2 335.385 16.0479   9
   2 -17   2 307.701 16.0497  16
  -2 -17  -2 328.995 15.9153   8
   3 -17   2 1.85120 0.28222  10
  -3 -17  -2 1.12505 0.35532  16
  -3 -17  -2 0.81488 0.46267   8
   3 -17   2 1.00774 0.43209  14
   3 -17   2 1.20510 0.53404  15
   3  17   2 1.31302 0.55622   8
   4 -17   2 24.1762 1.44342  15
  -4 -17  -2 19.2258 1.26142   8
   4  17   2 23.5149 1.21207   8
   4 -18  -2 5.52870 0.57471  15
   4  18  -2 4.11488 0.57770  12
  -3 -18   2 0.89471 0.47294   8
   3 -18  -2 1.64827 0.40043  15
   3  18  -2 2.11905 0.57523   8
  -2 -18   2 23.2471 1.45507   8
   2 -18  -2 22.5904 1.32157  10
   2 -18  -2 24.5374 1.64515  16
   2 -18  -2 23.4272 1.50386  15
   1 -18  -2 0.19633 0.37337  10
  -1 -18   2 0.97204 0.41763   9
  -1 -18   2 1.03000 0.26195   8
   1 -18  -2 0.49588 0.26874   9
   1 -18  -2 0.95642 0.46936  16
   0 -18   2 4.03398 0.65242  10
   0 -18   2 3.52498 0.66734  16
   0 -18  -2 3.82620 0.54696  10
   0 -18  -2 4.47503 0.83581  16
   0 -18  -2 4.71658 0.77939   9
   0 -18   2 4.12958 0.37920   8
   0 -18   2 4.67605 0.61560   9
   1 -18   2 97.6745 4.75870   9
   1 -18   2 93.1629 4.81862  15
   1 -18   2 87.3595 4.78086  10
  -1 -18  -2 98.5516 4.86902   9
  -1 -18  -2 95.3735 4.66336   8
   1 -18   2 94.8651 4.98758  16
  -1 -18  -2 101.100 5.02400  16
  -2 -18  -2 77.4816 3.89023  16
   2 -18   2 71.2727 3.72580  15
  -2 -18  -2 72.1236 3.81012   9
   2 -18   2 65.2667 3.61578  10
  -2 -18  -2 74.9509 3.63246   8
  -3 -18  -2 0.34994 0.39401  16
  -3 -18  -2 0.17984 0.36992   8
   3 -18   2 0.72631 0.47808  15
   3  18   2 0.50215 0.47286   8
   4 -18   2 166.155 8.16496  15
   4  18   2 168.762 8.06319   8
  -3 -19   2 51.3352 2.74661   8
   3 -19  -2 57.6230 2.82139  15
   3 -19  -2 55.3285 2.86092  16
  -2 -19   2 47.8631 2.46127   8
   2 -19  -2 50.8537 2.43200  10
   2 -19  -2 50.0944 2.68668  16
   2 -19  -2 44.4371 2.51520  15
   1 -19  -2 64.5042 3.33033  10
   1 -19  -2 62.8606 3.50497  16
  -1 -19   2 67.3939 3.46152   9
  -1 -19   2 67.6247 3.24738   8
   0 -19  -2 546.546 25.7726   9
   0 -19   2 578.246 25.6757   9
   0 -19   2 452.444 25.7447  16
   0 -19  -2 525.361 25.6835  10
   0 -19  -2 559.785 25.8256  16
   1 -19   2 20.9556 1.35111  10
   1 -19   2 20.4126 1.17582   9
   1 -19   2 19.3819 1.48981  16
  -1 -19  -2 22.1429 1.42109   9
  -1 -19  -2 21.8603 1.58828  16
   1 -19   2 19.0328 1.22673  15
   2 -19   2 211.391 10.0102  10
  -2 -19  -2 203.498 9.95225   8
   2 -19   2 206.185 10.0916  15
  -2 -19  -2 204.289 10.1053   9
  -2 -19  -2 205.935 10.1466  16
  -3 -19  -2 265.811 13.0232   8
   3 -19   2 275.102 13.1192  15
   2 -20  -2 54.7517 2.63491  16
  -2 -20   2 52.1098 2.41003   8
  -2 -20   2 43.4402 2.55047   9
   2 -20  -2 46.2924 2.36448  10
  -2 -20   2 47.5994 2.59238  16
   1 -20  -2 314.402 15.4106  16
  -1 -20   2 312.956 15.4022  16
   1 -20  -2 316.662 15.2678  10
  -1 -20   2 321.401 15.3246   9
   0 -20  -2 39.4829 1.97830   9
   0 -20   2 38.3368 2.02441   9
   0 -20  -2 38.6021 2.21961  16
   0 -20   2 37.4955 2.18306  16
   0 -20  -2 39.2338 2.07468  10
   1 -20   2 217.447 11.8700  15
   1 -20   2 216.532 11.9233  16
  -1 -20  -2 266.870 12.0049  16
  -1 -20  -2 278.685 11.8889   9
   2 -20   2 0.44302 0.22446  10
  -2 -20  -2 0.28673 0.27907  16
   2 -20   2 0.28828 0.34780  15
  -2 -20  -2 0.85310 0.32105   9
  -1 -21   2 4.36317 0.62066  16
   1 -21  -2 4.01837 0.37635  10
  -1 -21   2 4.34084 0.47442   9
   0 -21  -2 64.8319 3.08008  10
   0 -21  -2 64.5754 3.18405  16
   0 -21   2 61.5710 3.00375   9
   0 -21   2 53.5101 3.13365  16
  -1 -21  -2 21.1933 1.12732   9
   1 -21   2 20.1326 1.16586  10
  -1 -21  -2 19.9745 1.25012  16
   7   0  -3 0.82650 0.39992  11
   6   0  -3 -0.2356 0.51960  12
   6   0  -3 0.80126 0.63192  18
   6   0  -3 0.85626 0.38637  11
   5   0  -3 0.88724 0.66403  17
   5   0  -3 0.33680 0.48617  12
   5   0  -3 1.36902 0.51731  11
   5   0  -3 1.07987 0.57757  18
   5   0  -3 0.34374 0.16700  10
   5   0  -3 0.11631 0.83851   4
   4   0  -3 -0.1303 0.45409  16
   4   0  -3 0.72841 0.29793  11
   4   0  -3 0.29210 0.42973  18
   4   0  -3 0.11733 0.42341  17
   4   0  -3 0.47475 0.96649   4
   4   0  -3 0.38591 0.27829  12
   4   0  -3 0.06511 0.19223  10
   3   0  -3 2.13857 0.46232   1
   3   0  -3 1.82605 0.24581   2
   3   0  -3 2.41561 0.61915   7
   3   0  -3 0.10177 0.68653   4
   3   0  -3 2.83914 0.41763   5
   2   0  -3 2.08624 0.34077   2
   2   0  -3 1.75091 0.51342   1
   2   0  -3 2.37390 0.39486   3
  -2   0   3 1.02758 0.55278   1
   2   0  -3 0.77694 0.45869   7
   2   0  -3 2.11965 0.39747   3
  -1   0   3 2.33687 0.71267   1
   1   0  -3 1.00730 0.56977   1
   1   0  -3 1.12123 0.28567   2
   1   0  -3 -0.0332 0.37509   7
   1   0  -3 1.26256 0.41809   3
  -1   0   3 0.35295 0.64389   1
   1   0  -3 0.24347 0.34278   3
   1   0  -3 -0.0753 0.74737   1
   0   0   3 -0.0563 0.28862   3
   0   0  -3 0.86380 0.40148   2
   0   0  -3 0.61089 0.21244   7
   0   0  -3 0.63679 0.68452   1
   0   0   3 0.65134 0.70768   1
   0   0   3 0.39388 0.63330   1
   0   0  -3 0.07370 0.30174   3
   0   0  -3 0.82076 0.78806   1
   0   0   3 0.59297 0.31002   2
   1   0   3 2.89115 0.74068   1
   1   0   3 2.43492 0.47594   2
  -1   0  -3 4.67343 0.71115   2
  -1   0  -3 4.20382 1.11972   1
   2   0   3 5.51264 0.84924   2
   2   0   3 7.33251 0.84669   5
  -2   0  -3 6.76424 1.50721   1
   2   0   3 4.52180 1.19470   1
   3   0   3 0.32021 0.57364   3
   3   0   3 -0.1541 0.35578   5
   3   0   3 0.31024 0.65196   4
   3   0   3 -0.1864 0.50635   2
   4   0   3 0.80922 0.41586  13
   4   0   3 1.56679 0.61053   2
   4   0   3 0.63415 0.77190   5
   4   0   3 0.63929 0.28148  12
   4   0   3 1.14764 0.68836   3
   4   0   3 0.33728 0.23784  14
   4   0   3 1.55611 0.29523   9
   5   0   3 0.72425 0.53209  13
   5   0   3 1.49973 0.54632   2
   5   0   3 0.42416 0.49346   3
   5   0   3 0.78732 0.33787  10
   5   0   3 1.08438 0.27246   9
   5   0   3 0.95371 0.46694  11
   5   0   3 0.77033 0.95668   5
   6   0   3 -0.1405 0.23936  10
   6   0   3 0.53826 0.40810  13
   6   0   3 1.04646 0.49873  12
   6   0   3 -0.0445 0.45934  11
   7   0   3 -0.2332 0.52160  13
   7  -1  -3 293.118 15.4074  11
   7  -1  -3 330.539 15.4542  12
   7   1  -3 335.349 15.4610  12
   7   1  -3 315.770 15.4194  11
   6  -1  -3 2.81559 0.48968  11
   6  -1  -3 2.57975 0.48764  12
   6  -1  -3 2.28676 0.67852  18
   6   1  -3 2.36292 0.53049  18
   6   1  -3 3.08036 0.48010  11
   6   1  -3 2.83283 0.62384  12
   5  -1  -3 103.058 5.75911  13
   5  -1  -3 121.430 5.86132  17
   5  -1  -3 114.271 5.84622  12
   5  -1  -3 124.316 5.88727  18
   5  -1  -3 111.580 6.79815   4
   5  -1  -3 117.418 5.82996  11
   5   1  -3 107.467 6.83855   4
   5   1  -3 118.811 5.87750  17
   5   1  -3 119.624 5.83489  11
   5   1  -3 119.272 5.86228  12
   5   1  -3 111.044 5.63217  10
   5   1  -3 118.375 5.83227  18
   4  -1  -3 573.441 26.7619  18
   4  -1  -3 531.280 26.8314  16
   4  -1  -3 579.361 27.5298   4
   4  -1  -3 587.076 26.7582  17
   4  -1  -3 564.810 26.7436  11
   4  -1  -3 546.691 26.7411  12
   4  -1  -3 497.801 26.7021  10
   4   1  -3 578.349 27.5743   4
   4   1  -3 568.218 26.7418  11
   4   1  -3 559.831 26.7490  18
   4   1  -3 570.220 26.7561  17
   4   1  -3 526.456 26.8247  16
   4   1  -3 555.186 26.7511  12
   4   1  -3 530.612 26.8900  10
   3  -1  -3 164.615 8.56856   5
   3  -1  -3 187.807 8.76952   7
   3  -1  -3 178.843 9.00584   4
   3   1  -3 179.918 9.11103   4
   3   1  -3 148.779 8.52856   5
   3   1  -3 185.132 8.64158   3
   3   1  -3 167.261 8.52816   2
   3   1  -3 165.940 9.21465   1
   3   1  -3 185.405 8.56940   2
   3   1  -3 188.161 8.81626   7
   3   1  -3 166.036 8.64178   3
   2  -1  -3 438.519 20.8843   1
   2  -1  -3 442.531 21.0319   3
   2  -1  -3 434.002 20.8919   3
   2  -1  -3 426.760 20.8335   6
   2  -1  -3 428.355 20.8585   2
   2  -1  -3 435.538 20.8333   1
   2  -1  -3 460.751 20.8450   7
  -2  -1   3 411.045 21.4414   1
  -2  -1   3 445.976 21.2876   1
   2  -1  -3 421.327 20.9555   4
   2  -1  -3 405.806 20.6625   5
   2  -1  -3 424.242 20.8651   2
   2   1  -3 452.136 20.8247   7
   2   1  -3 453.921 20.9306   2
   2   1  -3 460.568 20.8299   3
   2   1  -3 449.796 21.4409   1
   2   1  -3 383.599 20.6100   5
  -2   1   3 419.655 20.8503   1
  -2   1   3 427.614 20.8081   1
   2   1  -3 411.839 20.8443   3
   2   1  -3 417.755 21.2358   1
   2   1  -3 381.622 20.7018   2
   2   1  -3 435.335 21.0261   4
   0  -1  -3 794.390 38.2343   3
   0  -1  -3 812.293 38.0450   1
   0  -1   3 836.841 39.0462   1
   0  -1   3 733.383 38.2592   2
   0  -1  -3 806.674 38.1068   1
   0  -1  -3 701.563 37.6273   7
   0  -1   3 763.474 37.8495   3
   0  -1   3 788.048 38.4868   1
   0  -1   3 729.467 37.7139   5
   0  -1  -3 746.000 37.9530   2
   0   1  -3 770.873 37.9588   1
   0   1   3 728.911 37.5970   2
   0   1  -3 783.420 38.5794   3
   0   1   3 816.921 37.7013   3
   0   1  -3 828.637 38.2751   1
   0   1  -3 711.863 37.6631   7
   0   1  -3 783.550 38.5529   2
   0   1   3 826.638 38.5078   1
   0   1   3 829.001 38.3243   1
   1  -1   3 2867.23 143.540   2
   1  -1   3 2834.19 144.038   3
  -1  -1  -3 2937.32 144.388   3
  -1  -1  -3 3005.46 145.839   1
  -1  -1  -3 2776.33 143.568   2
   1  -1   3 3177.41 145.962   1
   1  -1   3 2764.58 142.948   5
   1  -1   3 3046.68 145.608   1
  -1  -1  -3 3094.59 146.047   1
  -1   1  -3 3036.35 145.061   1
   1   1   3 3136.09 146.130   1
   1   1   3 3022.77 144.728   3
   1   1   3 3021.96 146.229   1
  -1   1  -3 2826.66 143.834   3
   1   1   3 3020.91 143.704   2
  -1   1  -3 2668.24 143.580   2
  -1   1  -3 3131.52 146.052   1
  -2  -1  -3 538.449 27.6097   1
   2  -1   3 572.789 26.6191   3
   2  -1   3 534.499 26.4245   2
   2  -1   3 522.214 27.2155   1
  -2  -1  -3 538.248 27.6824   1
   2  -1   3 535.417 27.3192   1
   2  -1   3 541.962 26.3999   5
   2   1   3 558.776 26.5404   4
   2   1   3 536.294 27.4709   1
   2   1   3 554.411 26.4840   2
   2   1   3 532.496 27.4502   1
   2   1   3 544.755 26.4302   5
   2   1   3 589.301 26.6752   3
  -2   1  -3 544.930 27.4080   1
  -2   1  -3 537.081 27.5715   1
   3  -1   3 357.914 17.3814   3
   3  -1   3 344.342 17.2628   5
   3  -1   3 354.948 17.2097   2
   3   1   3 352.911 17.4866   4
   3   1   3 359.428 17.5011   3
   3   1   3 343.275 17.2868   2
   3   1   3 345.619 17.2587   5
   4  -1   3 59.4184 3.27605   2
   4  -1   3 62.4887 3.57775   5
   4  -1   3 57.9894 3.01162  13
   4  -1   3 61.6454 3.02524  12
   4  -1   3 56.1364 2.88454   9
   4  -1   3 57.5167 2.92479  10
   4  -1   3 55.9479 2.95033  11
   4  -1   3 58.8305 3.42175   3
   4  -1   3 52.9241 2.99668  14
   4   1   3 59.6384 3.05263  13
   4   1   3 62.9366 3.40133   2
   4   1   3 54.5779 2.96370  11
   4   1   3 50.9281 2.77729   8
   4   1   3 55.7721 2.95162  10
   4   1   3 62.8446 3.57262   5
   4   1   3 59.6171 3.86874   4
   4   1   3 58.2922 3.61364   3
   4   1   3 54.9365 2.99583  12
   4   1   3 56.8554 2.91804   9
   5  -1   3 6.50832 0.99961  13
   5  -1   3 3.72320 0.61248   3
   5  -1   3 4.13064 0.65637  12
   5  -1   3 4.47995 0.40093   9
   5  -1   3 4.96768 1.20774   5
   5  -1   3 5.02566 0.63829  10
   5  -1   3 4.80768 0.58978   2
   5  -1   3 5.73158 0.90671  11
   5  -1   3 5.06081 0.63029  14
   5   1   3 5.94085 0.58431   9
   5   1   3 7.03347 0.75271  10
   5   1   3 6.69556 0.85572  11
   5   1   3 5.52215 0.76534  13
   5   1   3 4.81304 0.73820  12
   5   1   3 4.35111 0.77669   2
   5   1   3 4.39127 1.18892   5
   6  -1   3 -0.0133 0.21169  10
   6  -1   3 -0.2284 0.54114  13
   6  -1   3 -0.1640 0.47581  11
   6  -1   3 0.32496 0.36504  12
   6   1   3 0.09340 0.27907  10
   6   1   3 0.00373 0.54039  13
   6   1   3 0.28734 0.33895  12
   6   1   3 0.12392 0.42731  11
   7  -1   3 91.0049 4.93111  12
   7  -1   3 100.156 4.99391  13
   7   1   3 108.060 5.03071  13
   7  -2  -3 94.4420 4.62272  11
   7  -2  -3 91.3264 4.62997  12
   7   2  -3 96.1132 4.65773  12
   7   2  -3 88.0782 4.60130  11
   6  -2  -3 3.38245 0.61967  11
   6  -2  -3 3.96844 0.71817  18
   6  -2  -3 3.13411 0.53504  13
   6  -2  -3 3.92452 0.53641  12
   6   2  -3 3.80532 0.63482  11
   6   2  -3 4.10442 0.57214  12
   6   2  -3 2.63621 0.69996  18
   5  -2  -3 7.11406 1.12036  16
   5  -2  -3 10.0153 1.11919  17
   5  -2  -3 10.2617 1.16514  18
   5  -2  -3 9.45557 0.89514  13
   5  -2  -3 8.84602 1.60440   4
   5  -2  -3 8.66805 0.99452  12
   5  -2  -3 10.3224 0.86670  11
   5   2  -3 8.49954 1.70672   4
   5   2  -3 10.5892 1.04744  11
   5   2  -3 11.5888 1.14998  18
   5   2  -3 9.91033 0.69253  10
   5   2  -3 10.1811 1.08592  12
   4  -2  -3 135.479 7.00291  16
   4  -2  -3 125.722 6.85201  13
   4  -2  -3 138.164 6.88594  11
   4  -2  -3 140.303 6.91350  18
   4  -2  -3 150.198 7.70419   4
   4  -2  -3 138.157 6.89603  12
   4  -2  -3 134.803 6.88275  17
   4   2  -3 133.403 6.72797   9
   4   2  -3 135.786 6.80885  10
   4   2  -3 143.816 6.92512  17
   4   2  -3 147.935 7.78249   4
   4   2  -3 146.596 7.00259   3
   4   2  -3 138.871 6.89286  11
   4   2  -3 146.496 6.91437   2
   4   2  -3 137.401 6.91107  12
   4   2  -3 142.306 6.91232  18
   3  -2  -3 262.975 13.9695   6
   3  -2  -3 294.991 14.0071   7
   3  -2  -3 259.885 13.8422   5
   3  -2  -3 299.156 14.2458   4
   3   2  -3 292.918 14.0049   3
   3   2  -3 285.113 13.9017   2
   3   2  -3 293.848 14.3968   4
   2  -2  -3 361.804 17.4686   6
  -2  -2   3 372.361 18.1117   1
   2  -2  -3 376.726 17.4622   7
   2  -2  -3 350.229 17.5380   4
   2  -2  -3 351.131 17.3176   5
  -2  -2   3 369.782 18.3955   1
   2   2  -3 392.536 17.4607   2
   2   2  -3 350.069 18.0347   1
   2   2  -3 308.543 17.2216   5
   2   2  -3 366.432 17.5296   3
   2   2  -3 357.551 17.6583   4
   2   2  -3 392.952 17.4740   7
   2   2  -3 371.497 18.2817   1
   2   2  -3 341.131 17.5452   3
   2   2  -3 313.881 17.3690   2
  -1  -2   3 9999.99 466.161   3
   1   2  -3 9375.88 466.020   3
   0  -2   3 941.223 48.7116   3
   0  -2  -3 930.696 48.2122   6
   0  -2  -3 1005.22 48.2726   1
   0  -2  -3 1014.65 49.0629   3
   0  -2  -3 955.486 48.3744   2
   0  -2   3 1025.44 48.8852   1
   0  -2  -3 1013.94 49.3927   1
   0  -2   3 970.810 48.6699   2
   0  -2   3 930.421 47.9241   5
   0  -2   3 1068.84 49.6752   1
   0   2  -3 977.628 48.8880   3
   0   2   3 959.032 47.8492   3
   0   2  -3 1053.14 48.4816   1
   0   2  -3 1047.74 49.2183   1
   0   2   3 1024.56 48.5013   1
   0   2   3 908.623 47.8538   2
   0   2  -3 946.518 47.8759   7
   0   2  -3 984.927 48.6287   2
   0   2   3 1060.74 49.9130   1
  -1  -2  -3 7.40150 0.87459   2
   1  -2   3 8.01107 0.79862   2
   1  -2   3 7.77806 0.69833   5
  -1  -2  -3 8.52407 1.43718   1
   1  -2   3 9.01782 1.37210   1
  -1  -2  -3 9.13497 1.63056   1
  -1  -2  -3 7.68567 0.92072   3
   1  -2   3 7.91850 1.41720   1
   1  -2   3 6.67486 0.97598   3
   1   2   3 8.38053 1.27777   1
  -1   2  -3 7.37668 0.88491   2
  -1   2  -3 7.65258 0.98019   3
   1   2   3 9.04432 1.55587   1
   1   2   3 7.77358 0.86977   2
  -1   2  -3 7.36355 0.50833   7
  -1   2  -3 8.48117 1.67415   1
   1   2   3 8.25323 0.93134   3
  -1   2  -3 9.24959 1.50028   1
  -2  -2  -3 25.8898 2.88078   1
  -2  -2  -3 28.8485 2.94580   1
   2  -2   3 30.2932 1.81944   5
   2  -2   3 30.5463 2.52641   1
   2  -2   3 29.4556 1.97238   3
   2  -2   3 30.0891 1.78907   2
   2  -2   3 27.3336 2.51665   1
   2   2   3 29.6518 2.73750   1
   2   2   3 32.5716 1.94312   2
   2   2   3 31.4194 1.94571   4
   2   2   3 31.6526 2.12350   3
  -2   2  -3 26.0364 2.73551   1
   2   2   3 32.7083 2.91417   1
  -2   2  -3 27.0630 2.56323   1
   3  -2   3 40.0047 2.41573   5
   3  -2   3 40.9774 2.57924   3
   3  -2   3 38.5343 2.32322   2
   3   2   3 41.7392 2.68757   4
   3   2   3 40.4370 2.51723   2
   3   2   3 40.5355 2.73967   3
   3   2   3 39.0404 2.46143   5
   4  -2   3 1.25303 0.26482  10
   4  -2   3 0.85772 0.27304  11
   4  -2   3 1.63056 0.53723   2
   4  -2   3 1.07307 0.64290   3
   4  -2   3 0.96361 0.29515  13
   4  -2   3 1.13473 0.77261   5
   4  -2   3 1.11455 0.35514  14
   4  -2   3 0.67617 0.27520  12
   4  -2   3 0.94317 0.24075   9
   4   2   3 0.99489 0.93192   4
   4   2   3 0.93209 0.73169   5
   4   2   3 1.16152 0.64679   2
   4   2   3 0.60867 0.31623  11
   4   2   3 1.08592 0.73284   3
   4   2   3 0.26133 0.36651  12
   4   2   3 0.91308 0.33333  10
   4   2   3 0.69239 0.30411   9
   5  -2   3 622.434 30.0965  10
   5  -2   3 597.478 30.3296   5
   5  -2   3 592.809 29.7553  14
   5  -2   3 635.774 29.7623  12
   5  -2   3 623.066 29.7948  13
   5  -2   3 631.153 29.8579  11
   5   2   3 610.734 29.8706   9
   5   2   3 657.056 30.0234  13
   5   2   3 624.534 29.8636  10
   5   2   3 625.018 29.7565  12
   5   2   3 582.592 30.3300   5
   5   2   3 592.596 29.6865  11
   6  -2   3 44.1348 2.21632  10
   6  -2   3 45.2639 2.49545  12
   6  -2   3 45.6262 2.48633  13
   6   2   3 41.6104 2.37842  11
   6   2   3 46.5308 2.55562  13
   6   2   3 40.8759 2.29611  10
   7  -2   3 0.31668 0.38366  13
   7  -2   3 0.31107 0.32299  12
   7   2   3 0.27814 0.48964  13
   7  -3  -3 72.4550 3.52060  11
   7   3  -3 71.0317 3.54593  11
   7   3  -3 64.6054 3.53513  12
   6  -3  -3 89.0583 4.55859  18
   6  -3  -3 86.6529 4.51318  11
   6  -3  -3 90.0035 4.54664  12
   6   3  -3 92.1215 4.57648  12
   6   3  -3 87.5814 4.32311  10
   6   3  -3 87.1690 4.51587  11
   6   3  -3 89.1152 4.55521  18
   5  -3  -3 301.534 14.2389  11
   5  -3  -3 290.206 14.2462  12
   5  -3  -3 296.008 14.2641  18
   5  -3  -3 272.136 14.2144  13
   5  -3  -3 269.693 14.3248  16
   5  -3  -3 286.073 14.2521  17
   5   3  -3 301.783 14.1422  10
   5   3  -3 303.028 14.2796  18
   5   3  -3 300.858 14.2561  11
   5   3  -3 311.310 14.2924  12
   5   3  -3 282.766 15.3186   4
   4  -3  -3 1049.98 50.5302  11
   4  -3  -3 1034.23 50.5539  12
   4  -3  -3 926.475 50.0433  15
   4  -3  -3 1020.89 50.4011   7
   4  -3  -3 985.452 50.1562  16
   4  -3  -3 1052.69 50.5092  18
   4  -3  -3 1048.88 50.2009  17
   4  -3  -3 931.780 50.0402  14
   4  -3  -3 980.301 50.2235  13
   4  -3  -3 1062.18 50.7931   4
   4   3  -3 1067.70 50.5785  11
   4   3  -3 1133.46 50.4964  17
   4   3  -3 1049.43 50.2908   9
   4   3  -3 1061.38 50.7533  12
   4   3  -3 1106.98 50.3747   3
   4   3  -3 1090.86 50.9607   4
   4   3  -3 1094.43 50.2569   2
   4   3  -3 1065.24 50.1323  18
   4   3  -3 1047.57 50.4853  10
   3  -3  -3 0.69424 0.36708   5
   3  -3  -3 1.66721 0.64212   4
   3  -3  -3 0.77091 0.37899   7
   3  -3  -3 1.20376 0.49868   6
   3   3  -3 0.03183 0.55427   3
   3   3  -3 0.27227 0.77154   4
   3   3  -3 0.53438 0.44830   2
  -2  -3   3 600.566 29.6150   1
   2  -3  -3 588.051 28.4076   7
   2  -3  -3 573.305 28.3083   5
   2  -3  -3 592.905 28.4634   6
   2  -3  -3 568.844 28.4616   4
  -2  -3   3 571.707 29.2233   1
   2   3  -3 602.653 28.4342   7
   2   3  -3 581.747 28.5716   3
   2   3  -3 584.381 29.2145   1
   2   3  -3 599.601 28.6812   4
   2   3  -3 571.728 29.4260   1
   2   3  -3 613.864 28.4864   2
  -1  -3   3 5814.63 270.898   1
  -1  -3   3 5446.95 268.199   3
  -1  -3   3 5043.49 267.309   2
  -1  -3   3 5711.42 270.434   1
   1   3  -3 5701.71 271.028   1
   1   3  -3 5513.99 268.292   3
   1   3  -3 5614.05 269.683   1
   0  -3   3 461.036 23.2206   2
   0  -3   3 459.087 23.3901   5
   0  -3   3 471.845 23.3910   3
   0  -3  -3 451.256 23.3158   3
   0  -3   3 501.071 23.9241   1
   0  -3  -3 473.421 23.3303   3
   0  -3   3 479.697 24.1852   1
   0  -3  -3 473.750 23.5024   6
   0  -3  -3 511.427 23.9890   1
   0  -3  -3 498.732 23.3975   2
   0  -3  -3 490.928 23.9575   1
   0   3   3 528.007 23.9929   1
   0   3   3 478.172 23.3438   3
   0   3  -3 485.427 23.9699   1
   0   3  -3 462.418 23.0787   7
   0   3   3 475.932 23.8856   1
   0   3  -3 464.114 23.2787   2
   0   3  -3 494.089 24.1595   1
   0   3  -3 495.024 23.3856   3
   0   3   3 450.798 23.2112   2
   1  -3   3 483.596 23.6928   5
  -1  -3  -3 533.584 24.9183   1
   1  -3   3 482.548 24.6143   1
   1  -3   3 486.155 23.7632   2
  -1  -3  -3 476.786 23.8345   2
   1  -3   3 487.433 23.8951   3
   1  -3   3 485.964 24.5002   1
   1   3   3 482.918 23.8319   2
  -1   3  -3 509.491 24.8677   1
  -1   3  -3 470.567 23.9244   3
  -1   3  -3 500.620 24.5464   1
   1   3   3 492.044 24.7513   1
   1   3   3 514.290 24.8156   1
  -1   3  -3 435.727 23.8253   2
   1   3   3 524.154 24.0072   3
   2  -3   3 482.197 23.3735   5
  -2  -3  -3 448.896 24.8507   1
   2  -3   3 508.983 23.5354   3
  -2  -3  -3 490.437 24.8788   1
   2  -3   3 460.725 24.1929   1
   2  -3   3 466.877 24.3497   1
   2  -3   3 490.037 23.3691   2
   2   3   3 486.922 24.7698   1
  -2   3  -3 478.397 24.6210   1
   2   3   3 490.547 23.4694   4
   2   3   3 505.356 23.5100   2
   2   3   3 521.806 23.7363   3
   2   3   3 432.284 24.5504   1
  -2   3  -3 473.720 24.3734   1
   3  -3   3 1.68267 0.59668   3
   3  -3   3 1.12722 0.46677   5
   3  -3   3 1.49523 0.46301   2
   3   3   3 0.62385 0.73021   3
   3   3   3 2.19142 0.78325   4
   3   3   3 1.80741 0.51453   5
   3   3   3 2.00237 0.69047   2
   4  -3   3 4.67548 0.70123  13
   4  -3   3 5.97296 0.72300  12
   4  -3   3 4.90773 0.44537   9
   4  -3   3 4.64560 0.55119  14
   4  -3   3 4.62448 0.78159   3
   4  -3   3 5.21896 0.82114   2
   4  -3   3 4.55353 0.49247  10
   4  -3   3 4.73673 0.67693  11
   4  -3   3 5.11015 0.98746   5
   4   3   3 5.89792 1.26164   4
   4   3   3 4.28261 0.60835   9
   4   3   3 4.55751 0.41748   8
   4   3   3 4.56663 1.01835   3
   4   3   3 5.17949 0.95172   2
   4   3   3 4.37777 0.51777  10
   4   3   3 5.85268 1.02518   5
   4   3   3 3.92137 0.52218  12
   5  -3   3 276.707 12.8461  12
   5  -3   3 274.749 12.8123  11
   5  -3   3 242.726 13.3888   5
   5  -3   3 267.079 12.8563  13
   5  -3   3 249.374 12.8241  14
   5  -3   3 269.701 12.6816  10
   5   3   3 265.078 12.8689  13
   5   3   3 264.338 12.8320  12
   5   3   3 247.586 13.4545   5
   5   3   3 260.281 12.7022   9
   5   3   3 250.689 12.7541  11
   5   3   3 273.800 12.7796  10
   6  -3   3 0.57375 0.48137  12
   6  -3   3 0.66314 0.57469  13
   6  -3   3 0.39191 0.15876  10
   6   3   3 0.66899 0.36737  10
   6   3   3 0.67889 0.41248  13
   7  -3   3 7.52152 0.69496  13
   7  -3   3 7.36905 0.66683  12
   7   3   3 7.40467 0.67431  13
   7  -4  -3 310.270 14.9146  12
   7  -4  -3 321.850 14.9072  11
   7   4  -3 294.579 14.9112  12
   7   4  -3 305.249 14.8840  11
   6  -4  -3 6.38933 0.80132  12
   6  -4  -3 7.40868 0.98855  11
   6  -4  -3 8.22389 1.13503  18
   6  -4  -3 6.05300 0.69245  13
   6   4  -3 6.60843 1.11280  12
   6   4  -3 7.34525 0.55200  10
   6   4  -3 6.41855 0.86580  18
   6   4  -3 6.96804 0.99551  11
   5  -4  -3 207.541 12.3477   4
   5  -4  -3 215.378 11.6820  16
   5  -4  -3 254.810 11.6332  11
   5  -4  -3 240.911 11.6515  18
   5  -4  -3 236.849 11.6140  13
   5  -4  -3 244.984 11.6378  12
   5  -4  -3 227.646 11.5948  17
   5   4  -3 266.971 11.7083  12
   5   4  -3 245.426 11.6470  18
   5   4  -3 225.838 12.6921   4
   5   4  -3 237.692 11.6077  11
   5   4  -3 240.980 11.5392  10
   4  -4  -3 484.563 24.1918  17
   4  -4  -3 463.698 24.1931  14
   4  -4  -3 488.334 24.2068  18
   4  -4  -3 481.421 24.5175   7
   4  -4  -3 486.541 24.1997  13
   4  -4  -3 491.233 24.1946  12
   4  -4  -3 482.330 24.3054  16
   4  -4  -3 500.404 24.8757   4
   4  -4  -3 505.863 24.1953  11
   4  -4  -3 474.152 24.2026  15
   4   4  -3 530.553 25.1681   4
   4   4  -3 532.004 24.6752   3
   4   4  -3 517.433 24.2127  11
   4   4  -3 539.442 24.2598  12
   4   4  -3 504.289 24.2804   9
   4   4  -3 532.892 24.2354  17
   4   4  -3 488.238 24.2037  18
   4   4  -3 523.567 24.5101   2
   4   4  -3 505.171 24.1642  10
   3  -4  -3 180.277 9.26332   5
   3  -4  -3 178.619 9.51223   4
   3  -4  -3 188.038 9.33878   7
   3  -4  -3 173.404 9.36077   6
   3   4  -3 197.971 9.45588   2
   3   4  -3 196.288 9.61139   3
   3   4  -3 191.659 9.81293   4
  -2  -4   3 118.855 6.90915   1
  -2  -4   3 113.720 7.20030   1
   2  -4  -3 115.480 5.85819   7
   2  -4  -3 117.530 5.79170   5
   2  -4  -3 106.622 5.86264   4
   2  -4  -3 115.055 5.95020   6
   2   4  -3 105.926 6.69838   1
   2   4  -3 125.396 6.03608   2
   2   4  -3 118.265 7.12581   1
   2   4  -3 120.984 6.20468   4
   2   4  -3 112.751 6.09926   3
   1  -4  -3 627.398 30.8430   3
  -1  -4   3 656.763 31.0079   3
   1  -4  -3 647.267 31.2709   6
   1  -4  -3 547.106 30.7118   2
   1  -4  -3 558.519 30.6532   4
  -1  -4   3 601.701 30.7771   2
   1  -4  -3 624.647 30.7072   7
   1  -4  -3 625.259 31.2379   1
   1  -4  -3 665.118 31.1961   1
  -1  -4   3 693.436 31.8233   1
   1  -4  -3 642.539 31.4652   3
   1  -4  -3 615.392 31.3975   2
  -1  -4   3 639.963 31.9940   1
  -1   4   3 646.347 31.1313   1
   1   4  -3 652.452 30.9819   3
   1   4  -3 634.233 31.6326   1
   1   4  -3 649.967 30.6860   7
  -1   4   3 692.229 31.1867   1
   1   4  -3 664.674 32.0508   1
   1   4  -3 653.615 30.8643   2
   0  -4  -3 884.635 44.6294   6
   0  -4  -3 911.448 45.4909   3
   0  -4  -3 929.572 44.6582   1
   0  -4  -3 790.648 43.8078   3
   0  -4   3 945.905 43.9518   3
   0  -4  -3 928.252 45.1302   2
   0  -4   3 901.480 44.0318   5
   0  -4   3 943.135 44.9273   1
   0  -4   3 893.634 44.8582   2
   0  -4  -3 961.735 44.5598   1
   0  -4   3 939.745 44.5604   1
   0   4  -3 897.163 43.8072   2
   0   4  -3 964.722 43.9336   3
   0   4   3 855.928 43.8526   3
   0   4  -3 958.564 44.8924   1
   0   4   3 951.639 44.5453   1
   0   4  -3 924.836 44.6055   1
   0   4   3 813.668 43.7160   2
   0   4  -3 840.999 43.8619   7
   0   4   3 930.087 44.5506   1
  -1  -4  -3 7.97035 1.27820   3
   1  -4   3 10.6211 0.89216   2
  -1  -4  -3 7.42052 0.81644   2
  -1  -4  -3 8.57439 1.86555   1
   1  -4   3 10.8551 1.51783   1
  -1  -4  -3 8.44492 1.43596   1
   1  -4   3 10.5550 0.79383   5
  -1  -4  -3 7.41570 0.72024   6
   1  -4   3 8.58694 1.06678   3
   1  -4   3 10.5483 1.64164   1
  -1   4  -3 6.93470 1.50686   1
   1   4   3 10.4671 1.59098   1
   1   4   3 10.5244 1.80049   1
  -1   4  -3 6.52805 1.52895   1
   1   4   3 10.4248 1.09269   3
   1   4   3 8.43267 0.71094   4
   1   4   3 9.11313 0.89360   2
   2  -4   3 154.393 7.47045   3
   2  -4   3 152.355 7.29242   5
  -2  -4  -3 134.503 8.69616   1
   2  -4   3 152.859 7.26840   2
  -2  -4  -3 125.715 8.82910   1
   2  -4   3 140.686 8.08968   1
   2  -4   3 148.910 7.28633   6
   2  -4   3 138.128 8.26103   1
   2   4   3 148.587 7.36335   4
   2   4   3 142.115 8.71970   1
   2   4   3 151.160 7.66659   3
   2   4   3 147.084 7.46309   2
   2   4   3 133.410 8.55707   1
   3  -4   3 116.761 6.83294   6
   3  -4   3 139.256 7.00390   5
   3  -4   3 134.173 7.07114   3
   3  -4   3 136.857 6.87402   2
   3   4   3 140.590 7.19904   2
   3   4   3 138.782 7.22271   4
   3   4   3 145.178 7.43834   3
   4  -4   3 768.354 37.1892   2
   4  -4   3 734.338 37.3049   3
   4  -4   3 753.037 37.3279  10
   4  -4   3 749.573 37.5507  14
   4  -4   3 803.253 37.5990   5
   4  -4   3 813.388 37.4845  12
   4  -4   3 791.739 37.7484  13
   4  -4   3 732.378 37.1624   9
   4  -4   3 771.527 37.7767  11
   4   4   3 793.612 37.9187   3
   4   4   3 729.388 37.0909  12
   4   4   3 815.204 37.9436   4
   4   4   3 739.937 37.3153   8
   4   4   3 759.398 37.2533  10
   4   4   3 811.106 37.6515   5
   4   4   3 798.257 37.6820   2
   4   4   3 751.226 37.3872   9
   5  -4   3 1451.97 75.3907   5
   5  -4   3 1522.10 76.0562  14
   5  -4   3 1561.68 75.2837  10
   5  -4   3 1605.47 75.7001  11
   5  -4   3 1640.65 76.2938  13
   5  -4   3 1591.72 75.8853  12
   5   4   3 1595.40 75.8628  10
   5   4   3 1641.51 76.1761  13
   5   4   3 1511.93 75.4685   5
   5   4   3 1543.69 75.6159   9
   5   4   3 1487.95 75.6668  12
   6  -4   3 90.8219 4.45447  13
   6  -4   3 85.6605 4.34058  12
   6  -4   3 74.1643 4.30443  14
   6   4   3 90.2028 4.29820  10
   6   4   3 88.0163 4.40109  13
   6   4   3 81.8028 4.32985  12
   7  -4   3 91.9303 4.73154  13
   7  -4   3 100.686 4.72432  12
   7   4   3 91.4235 4.71747  13
   7  -5  -3 99.4663 4.85224  11
   7  -5  -3 85.5638 4.83192  12
   7   5  -3 98.5250 4.82534  11
   7   5  -3 108.444 4.90157  12
   6  -5  -3 125.303 6.75463  13
   6  -5  -3 135.255 6.79836  12
   6  -5  -3 136.124 6.81622  18
   6  -5  -3 134.769 6.75330  11
   6   5  -3 146.453 6.86832  12
   6   5  -3 136.583 6.78112  11
   6   5  -3 138.740 6.64944  10
   5  -5  -3 15.9558 1.45553  16
   5  -5  -3 15.3153 1.15843  15
   5  -5  -3 17.9884 1.20907  12
   5  -5  -3 21.9246 1.33640  11
   5  -5  -3 17.1293 1.25524  14
   5  -5  -3 16.4767 1.37457  18
   5  -5  -3 17.6824 1.27572  13
   5  -5  -3 18.4072 1.37696  17
   5   5  -3 18.4474 1.20735  10
   5   5  -3 16.4899 2.40972   4
   5   5  -3 18.3418 1.29400  12
   5   5  -3 18.4828 1.37166  18
   5   5  -3 17.9523 0.99528   9
   5   5  -3 21.9330 1.36468  11
   4  -5  -3 1206.11 59.9166  11
   4  -5  -3 1210.16 59.9344  16
   4  -5  -3 1227.77 59.4728  17
   4  -5  -3 1201.12 59.7431  18
   4  -5  -3 1175.00 59.5062   5
   4  -5  -3 1205.20 59.6999  13
   4  -5  -3 1128.07 59.8862  15
   4  -5  -3 1223.21 59.9255  12
   4  -5  -3 1192.82 59.8513   4
   4  -5  -3 1208.90 60.0386  14
   4   5  -3 1169.45 59.4444  18
   4   5  -3 1311.75 60.2479   4
   4   5  -3 1334.41 59.6814   2
   4   5  -3 1296.39 59.8814   3
   4   5  -3 1260.89 59.9599  11
   4   5  -3 1292.03 59.8306   9
   4   5  -3 1292.67 60.3520  12
   4   5  -3 1284.75 59.9665  10
   3  -5  -3 1502.49 72.8499   7
   3  -5  -3 1440.79 73.2486   4
   3  -5  -3 1479.46 72.9943   5
   3  -5  -3 1454.96 73.8175   6
   3   5  -3 1612.85 73.7130   2
   3   5  -3 1618.19 75.2401   4
   3   5  -3 1498.02 73.2054   3
   2  -5  -3 904.926 45.3843   7
   2  -5  -3 880.490 45.5226   4
   2  -5  -3 968.133 46.1654   6
   2  -5  -3 873.492 45.3456   5
   2   5  -3 925.388 46.9899   1
   2   5  -3 1001.01 45.6375   2
   2   5  -3 985.760 45.7669   4
   2   5  -3 1000.30 45.7761   3
   1  -5  -3 63.9747 3.85322   1
  -1  -5   3 73.9034 4.60452   1
   1  -5  -3 60.1678 3.86711   1
   1  -5  -3 60.3633 3.34897   3
   1  -5  -3 60.2508 3.34698   7
   1  -5  -3 66.8217 3.39562   3
  -1  -5   3 63.8793 3.73780   3
   1  -5  -3 63.8802 3.27311   2
  -1  -5   3 63.9301 4.76946   1
   1  -5  -3 54.9898 3.27821   2
   1  -5  -3 63.8769 3.46231   6
  -1  -5   3 65.3274 3.47617   2
  -1   5   3 64.5363 3.86158   1
   1   5  -3 69.0767 3.59002   2
   1   5  -3 62.6609 3.70760   3
   1   5  -3 61.6505 4.35039   1
  -1   5   3 60.9985 3.77765   1
   1   5  -3 70.7990 4.88403   1
   0  -5   3 92.3823 4.67667   2
   0  -5   3 86.8798 5.84763   1
   0  -5  -3 95.1382 4.82182   3
   0  -5  -3 95.7204 4.64114   6
   0  -5   3 95.4226 5.61787   1
   0  -5  -3 94.8044 4.63367   2
   0  -5  -3 77.4762 4.73304   3
   0  -5  -3 85.7944 5.57964   1
   0  -5  -3 97.9505 5.49087   1
   0  -5   3 93.4937 4.87292   3
   0  -5   3 88.7910 4.47184   5
   0   5  -3 97.1630 6.04014   1
   0   5  -3 89.4039 4.77212   2
   0   5   3 77.8185 4.77115   3
   0   5   3 76.2194 4.61795   2
   0   5   3 93.9563 5.53062   1
   0   5  -3 89.9842 5.61352   1
   0   5   3 83.4996 5.40698   1
   0   5  -3 93.5835 4.85400   3
   1  -5   3 254.859 12.0547   5
  -1  -5  -3 252.036 12.2133   2
  -1  -5  -3 232.393 13.5453   1
  -1  -5  -3 250.476 12.4393   3
  -1  -5  -3 235.900 12.0116   6
  -1  -5  -3 248.514 13.3050   1
   1  -5   3 256.551 13.0354   1
   1  -5   3 256.353 12.3199   3
   1  -5   3 236.187 13.2263   1
   1  -5   3 261.653 12.1466   2
   1   5   3 242.978 12.2432   2
   1   5   3 244.611 13.3586   1
   1   5   3 217.460 11.9385   4
   1   5   3 256.272 13.4401   1
   1   5   3 246.490 12.4509   3
  -1   5  -3 235.011 13.0259   1
  -1   5  -3 257.527 13.4178   1
   2  -5   3 2731.29 134.314   3
  -2  -5  -3 2523.30 133.581   1
   2  -5   3 2860.16 133.570   2
   2  -5   3 2759.99 134.016   6
   2  -5   3 2958.78 133.694   5
   2   5   3 2580.24 133.207   1
   2   5   3 2929.34 135.634   3
   2   5   3 2675.49 133.361   1
   2   5   3 2785.38 133.760   4
   2   5   3 2651.43 133.479   2
   3  -5   3 853.983 42.6641   3
   3  -5   3 799.139 42.5429   6
   3  -5   3 907.722 43.1136   2
   3  -5   3 888.721 42.6446   5
   3   5   3 912.181 43.0848   3
   3   5   3 876.341 42.8163   4
   3   5   3 926.604 42.8594   2
   4  -5   3 186.871 9.51344   9
   4  -5   3 186.129 9.78148   3
   4  -5   3 205.323 9.68952  11
   4  -5   3 202.013 9.75213  14
   4  -5   3 202.621 10.2186   5
   4  -5   3 199.474 9.59622  10
   4  -5   3 205.725 9.71552  12
   4  -5   3 205.212 9.74120  13
   4  -5   3 198.158 9.68996   2
   4   5   3 189.580 9.66943   9
   4   5   3 208.521 10.2417   5
   4   5   3 200.618 10.6013   3
   4   5   3 186.561 9.68525  12
   4   5   3 198.110 10.3311   2
   4   5   3 195.420 9.69203  10
   4   5   3 193.001 9.58341   8
   4   5   3 202.094 10.5006   4
   5  -5   3 257.475 12.2124  12
   5  -5   3 226.070 12.7805   5
   5  -5   3 263.582 12.2812  13
   5  -5   3 245.718 12.2496  14
   5  -5   3 250.110 12.0484  10
   5   5   3 245.904 12.1785  10
   5   5   3 236.555 12.7971   5
   5   5   3 257.962 12.1412   9
   5   5   3 267.719 12.3002  13
   5   5   3 239.586 12.1887  12
   6  -5   3 26.8312 1.66908  14
   6  -5   3 27.0432 1.61841  12
   6  -5   3 28.7059 1.80322  13
   6   5   3 23.2737 1.58584  12
   6   5   3 27.2186 1.52621  10
   6   5   3 27.9150 1.76910  13
   7  -5   3 73.0264 3.42570  13
   7   5   3 67.1920 3.38283  13
   7   5   3 61.2492 3.34600  12
   7  -6  -3 1.42518 0.32070  12
   7   6  -3 0.03084 0.34975  12
   6  -6  -3 13.7776 0.98891  11
   6  -6  -3 12.3465 1.02437  18
   6  -6  -3 13.8078 1.09250  13
   6  -6  -3 13.1921 1.17467  12
   6   6  -3 13.5617 1.27031  12
   6   6  -3 12.7151 0.97768  11
   6   6  -3 14.1468 0.91726  10
   5  -6  -3 165.475 8.95668  15
   5  -6  -3 175.516 8.98386  18
   5  -6  -3 175.931 9.08286  16
   5  -6  -3 192.414 8.97301  11
   5  -6  -3 175.301 8.95689  17
   5  -6  -3 184.904 8.99591  14
   5  -6  -3 182.297 8.97616  12
   5  -6  -3 176.771 8.96593  13
   5   6  -3 168.807 9.95962   4
   5   6  -3 187.134 8.92808  10
   5   6  -3 180.483 8.94860  18
   5   6  -3 194.910 9.03846  12
   5   6  -3 189.758 8.97710  11
   5   6  -3 194.551 8.82832   9
   4  -6  -3 211.251 11.6138  18
   4  -6  -3 237.655 11.6566  13
   4  -6  -3 228.006 11.6289  17
   4  -6  -3 227.548 11.7653  16
   4  -6  -3 234.626 11.6742  15
   4  -6  -3 222.942 11.9238   5
   4  -6  -3 234.878 11.6158  11
   4  -6  -3 244.189 11.6834  14
   4  -6  -3 236.388 11.6423  12
   4   6  -3 232.607 11.6287  18
   4   6  -3 254.145 12.7208   4
   4   6  -3 250.160 11.6496  11
   4   6  -3 245.934 11.6056   9
   4   6  -3 253.324 12.1726   2
   4   6  -3 235.654 12.3518   3
   4   6  -3 250.965 11.6471  10
   4   6  -3 257.133 11.7229  12
   3  -6  -3 645.498 34.4153   4
   3  -6  -3 688.898 34.3207   7
   3  -6  -3 711.270 34.3528   5
   3  -6  -3 711.235 34.5189   6
   3   6  -3 751.463 34.6276   2
   3   6  -3 717.635 34.8169   3
   3   6  -3 694.435 34.1189   8
   3   6  -3 754.208 34.9311   4
   2  -6  -3 7.68564 0.92566   7
   2  -6  -3 8.49534 1.10608   6
   2   6  -3 8.87235 1.32118   2
   2   6  -3 7.23316 1.13281   4
   2   6  -3 7.82716 2.04034   1
   1  -6  -3 6308.86 312.787   1
  -1  -6   3 6575.81 313.898   1
   1  -6  -3 6572.48 310.313   7
  -1  -6   3 6155.87 311.010   2
   1  -6  -3 5644.82 310.037   2
  -1  -6   3 6844.79 313.422   3
  -1  -6   3 6193.17 315.176   1
   1  -6  -3 6690.91 312.211   1
   1  -6  -3 6416.73 310.690   3
  -1   6   3 6396.71 312.166   1
   1   6  -3 6373.71 313.914   1
   1   6  -3 6436.73 311.327   2
   1   6  -3 6776.67 312.906   1
  -1   6   3 6625.69 312.255   1
   1   6  -3 6658.03 313.091   3
   0  -6  -3 70.4252 3.56770   2
   0  -6   3 66.4014 4.62491   1
   0  -6  -3 65.2766 3.75679   3
   0  -6   3 66.5747 3.61444   2
   0  -6   3 64.2881 4.89177   1
   0  -6   3 70.9022 3.91660   3
   0  -6  -3 61.4167 4.53261   1
   0  -6  -3 68.9313 4.44483   1
   0  -6  -3 69.7267 3.57917   6
   0   6   3 69.8974 4.58325   1
   0   6  -3 63.5355 4.60742   1
   0   6  -3 59.6048 3.70807   2
   0   6  -3 64.9828 4.97756   1
   0   6  -3 65.6566 3.80703   3
   0   6   3 68.7460 4.48982   1
   1  -6   3 378.624 17.6829   5
   1  -6   3 354.185 18.7698   1
  -1  -6  -3 376.514 17.8486   2
   1  -6   3 371.842 17.7719   2
   1  -6   3 344.372 19.0263   1
   1  -6   3 373.967 17.9832   3
  -1  -6  -3 373.284 18.0882   3
  -1  -6  -3 381.728 19.1517   1
  -1  -6  -3 346.901 19.3605   1
  -1  -6  -3 356.309 17.6573   6
  -1   6  -3 357.346 18.8346   1
   1   6   3 348.678 19.0670   1
   1   6   3 369.785 19.2359   1
   1   6   3 356.196 18.0736   3
  -1   6  -3 355.063 19.2263   1
   1   6   3 362.514 17.9076   2
   2  -6   3 483.032 23.0003   2
   2  -6   3 487.531 23.0827   6
   2  -6   3 502.661 23.0400   5
  -2  -6  -3 420.063 24.9881   1
   2  -6   3 504.833 23.2317   3
   2   6   3 431.746 24.7983   1
   2   6   3 482.779 23.4938   3
   2   6   3 462.629 23.2496   2
   2   6   3 470.451 23.0326   4
   3  -6   3 19.6340 1.58565   3
   3  -6   3 18.0928 1.41609   5
   3  -6   3 17.3359 1.11080  12
   3  -6   3 15.7162 0.99360  10
   3  -6   3 18.5325 1.32494   2
   3  -6   3 16.6468 1.07918  14
   3  -6   3 15.7052 0.97596   9
   3  -6   3 18.0922 1.44208   6
   3   6   3 18.0009 1.78613   2
   3   6   3 18.5878 1.97480   3
   3   6   3 18.2545 1.64711   4
   4  -6   3 254.211 12.3471  10
   4  -6   3 264.409 12.5173  14
   4  -6   3 269.008 12.9981   5
   4  -6   3 241.201 12.3036   2
   4  -6   3 266.557 12.5021  13
   4  -6   3 275.475 12.4819  12
   4  -6   3 222.463 12.2355   9
   4   6   3 243.482 12.4692  10
   4   6   3 258.786 13.2356   4
   4   6   3 242.033 12.4339  12
   4   6   3 263.486 12.3621   8
   4   6   3 244.652 12.4445   9
   4   6   3 266.873 13.0318   5
   4   6   3 263.803 13.5099   3
   4   6   3 259.987 13.1729   2
   5  -6   3 13.9011 1.07744  14
   5  -6   3 14.7208 1.75572   5
   5  -6   3 12.1657 1.01960  12
   5  -6   3 11.6827 0.80247  10
   5  -6   3 13.0881 1.23462  13
   5   6   3 12.7567 1.22174  13
   5   6   3 12.5261 0.98040  12
   5   6   3 10.9739 1.45860   5
   5   6   3 13.2606 1.15673  10
   5   6   3 12.0167 1.06441   9
   6  -6   3 169.383 8.22622  13
   6  -6   3 165.763 8.20224  14
   6  -6   3 165.988 8.15399  12
   6   6   3 163.146 8.16301  12
   6   6   3 157.547 8.09516  10
   6   6   3 169.791 8.19315  13
   7  -6   3 0.99016 0.32332  13
   7   7  -3 231.617 11.2303  12
   6  -7  -3 2.40131 0.40524  12
   6  -7  -3 3.25148 0.43001  11
   6  -7  -3 2.04002 0.37101  14
   6  -7  -3 2.27904 0.43441  13
   6   7  -3 1.83240 0.38449  10
   6   7  -3 1.79444 0.39823  11
   6   7  -3 2.45664 0.49043  12
   5  -7  -3 17.3170 1.47765  16
   5  -7  -3 18.7395 1.16486  11
   5  -7  -3 15.7994 1.19125  18
   5  -7  -3 17.9182 1.18132  12
   5  -7  -3 18.2642 1.31812  14
   5  -7  -3 18.1608 1.21046  13
   5  -7  -3 16.7983 1.29950  17
   5  -7  -3 16.3677 1.27764  15
   5   7  -3 17.8041 1.31292  11
   5   7  -3 18.2137 1.28845  12
   5   7  -3 17.8330 1.28331  10
   5   7  -3 17.3359 1.18812   9
   4  -7  -3 340.692 17.4632  16
   4  -7  -3 352.306 17.3184  11
   4  -7  -3 352.005 17.3397  12
   4  -7  -3 334.323 17.6507   5
   4  -7  -3 369.996 17.3834  13
   4  -7  -3 337.541 17.7990   6
   4  -7  -3 334.241 17.3309  18
   4  -7  -3 347.802 17.3320  17
   4  -7  -3 357.387 17.3885  14
   4  -7  -3 355.911 17.3821  15
   4   7  -3 381.921 17.3296   9
   4   7  -3 346.752 18.1712   3
   4   7  -3 365.646 17.3456  11
   4   7  -3 370.158 18.4215   4
   4   7  -3 353.367 17.3469  10
   4   7  -3 391.909 17.4309  12
   4   7  -3 377.505 17.9440   2
   4   7  -3 371.250 17.1856   8
   3  -7  -3 44.9544 2.36522  13
   3  -7  -3 46.0889 2.69502   5
   3  -7  -3 41.7673 2.59192   7
   3  -7  -3 43.6489 2.41293  15
   3  -7  -3 46.5924 2.42820  14
   3  -7  -3 42.0211 2.86350   6
   3  -7  -3 44.7505 2.52594  16
   3  -7  -3 46.5703 2.41162  12
   3   7  -3 47.0947 3.03974   2
   3   7  -3 42.6870 2.41969   9
   3   7  -3 44.9393 2.31022   8
   3   7  -3 42.0542 3.17559   3
   3   7  -3 48.0294 3.35909   4
   2  -7  -3 649.491 33.1173   7
   2  -7  -3 702.984 33.3605   6
   2   7  -3 688.798 33.4909   2
   2   7  -3 693.015 33.5707   4
   2   7  -3 692.137 33.6819   3
   1  -7  -3 1252.33 58.4938   6
  -1  -7   3 1208.41 58.3830   1
   1  -7  -3 1228.49 58.8984   3
  -1  -7   3 1092.09 58.7349   1
  -1  -7   3 1253.56 57.3121   3
   1  -7  -3 1255.16 57.9971   2
   1  -7  -3 1115.93 57.7480   1
  -1  -7   3 1199.90 56.9726   2
   1  -7  -3 1087.71 56.7397   7
   1  -7  -3 1058.86 56.8104   2
   1   7  -3 1117.46 58.2393   1
   1   7  -3 1258.20 57.0641   2
   1   7  -3 1198.17 58.7519   1
   1   7  -3 1196.72 57.2524   3
   0  -7   3 9.67737 1.37446   3
   0  -7  -3 9.01225 1.62497   1
   0  -7  -3 9.91741 0.96323   2
   0  -7   3 8.89766 1.00823   2
   0  -7  -3 7.07419 1.53677   1
   0  -7   3 7.73121 1.79945   1
   0  -7  -3 10.3033 1.27333   3
   0  -7   3 9.65263 1.87007   1
   0  -7  -3 11.8526 1.01681   6
   0   7  -3 8.45737 1.31490   3
   0   7  -3 8.26400 1.72822   1
   0   7  -3 9.73392 2.14809   1
   0   7  -3 7.72011 1.15005   2
   0   7   3 7.49871 1.57460   1
   1  -7   3 514.091 26.8331   1
   1  -7   3 564.982 25.5413   5
  -1  -7  -3 521.869 27.1395   1
   1  -7   3 560.413 25.6471   2
  -1  -7  -3 487.228 27.2920   1
   1  -7   3 549.136 25.8960   3
  -1  -7  -3 515.009 25.6878   2
  -1  -7  -3 546.659 26.0142   3
  -1  -7  -3 527.629 25.5262   6
   1   7   3 472.285 26.9349   1
   2  -7   3 1128.41 54.4108   5
   2  -7   3 1111.03 54.2307   6
   2  -7   3 1114.48 55.1503   2
   2  -7   3 1110.41 53.9292   3
   2   7   3 1085.46 54.0097   2
   2   7   3 1134.45 54.2558   3
   3  -7   3 2.81789 0.43923  12
   3  -7   3 2.26000 0.36411  14
   3  -7   3 2.56166 0.42955  15
   3  -7   3 3.04875 0.79743   5
   3  -7   3 3.25049 0.69575   3
   3  -7   3 3.23735 0.41950   9
   3  -7   3 3.52189 0.60487  13
   3  -7   3 2.33329 0.71043   6
   3  -7   3 3.35550 0.61096   2
   3   7   3 2.17486 0.42000   8
   3   7   3 2.34120 0.97911   2
   3   7   3 2.87694 1.12531   3
   4  -7   3 107.346 6.12992   5
   4  -7   3 102.479 5.55235  15
   4  -7   3 114.745 5.60063  13
   4  -7   3 112.926 5.45247  10
   4  -7   3 117.766 5.58987  12
   4  -7   3 118.761 5.67326  14
   4   7   3 114.704 5.49045   8
   4   7   3 113.218 6.20518   5
   4   7   3 105.543 5.61077  10
   4   7   3 107.908 6.59842   3
   4   7   3 112.210 6.38120   2
   4   7   3 107.214 5.57632  12
   4   7   3 108.753 5.59779   9
   5  -7   3 55.8191 2.96589  13
   5  -7   3 55.7336 2.93214  12
   5  -7   3 53.7561 2.71592  10
   5  -7   3 56.4048 2.99799  14
   5   7   3 51.3891 2.88278  12
   5   7   3 53.0539 2.90052   9
   5   7   3 55.4475 2.97200  13
   5   7   3 54.8496 2.98297  10
   6  -7   3 82.4361 4.11732  13
   6  -7   3 76.6888 4.06616  14
   6  -7   3 77.6123 4.03020  12
   6   7   3 82.5614 4.03906  10
   6   7   3 73.6400 3.99685  12
   6   7   3 81.2435 4.10682  13
   6  -8  -3 82.6973 4.14122  12
   6  -8  -3 78.4479 4.12548  14
   6  -8  -3 71.7671 4.08680  13
   6   8  -3 85.0592 4.07159  10
   6   8  -3 90.3426 4.23463  12
   6   8  -3 78.1665 4.05522  11
   5  -8  -3 82.0291 4.27852  15
   5  -8  -3 83.2909 4.28685  12
   5  -8  -3 75.8229 4.22230  18
   5  -8  -3 80.4505 4.41841  16
   5  -8  -3 82.9248 4.32019  13
   5  -8  -3 81.2764 4.24174  11
   5  -8  -3 89.7539 4.35483  14
   5   8  -3 78.0897 4.22230  11
   5   8  -3 88.0561 4.38353  12
   5   8  -3 89.9921 4.23222   9
   5   8  -3 86.0662 4.29291  10
   4  -8  -3 606.143 30.3392  16
   4  -8  -3 647.481 30.2796  14
   4  -8  -3 575.748 30.6990   6
   4  -8  -3 621.639 30.2091  12
   4  -8  -3 656.697 30.2539  13
   4  -8  -3 576.954 30.1776  17
   4  -8  -3 638.656 30.2675  15
   4  -8  -3 580.183 30.1563  11
   4   8  -3 654.584 30.2454  10
   4   8  -3 673.172 30.2956   9
   4   8  -3 581.541 31.1107   3
   4   8  -3 615.327 31.2369   4
   4   8  -3 676.805 30.2915  12
   4   8  -3 635.799 30.8663   2
   4   8  -3 655.431 30.1895   8
   4   8  -3 628.776 30.1986  11
   3  -8  -3 157.553 8.53449  10
   3  -8  -3 180.067 8.75794  15
   3  -8  -3 158.439 8.69401  17
   3  -8  -3 190.845 8.76094  13
   3  -8  -3 190.861 9.28372   6
   3  -8  -3 176.518 8.84585  16
   3  -8  -3 201.686 8.79983  14
   3  -8  -3 169.175 8.69646  12
   3   8  -3 192.922 9.70035   4
   3   8  -3 168.861 8.75284  10
   3   8  -3 168.200 8.74786   9
   3   8  -3 178.998 9.40390   2
   3   8  -3 173.081 8.69673  11
   3   8  -3 180.115 9.69994   3
   3   8  -3 185.728 8.67368   8
   2  -8  -3 286.149 14.9649   7
   2  -8  -3 302.609 14.7013   2
   2  -8  -3 304.302 14.7307   3
   2  -8  -3 301.099 14.7310   3
   2  -8  -3 313.985 15.2601   6
   2  -8  -3 287.655 14.7011   2
   2   8  -3 317.121 15.4556   2
   2   8  -3 311.223 15.6642   3
   2   8  -3 326.070 15.5210   4
  -1  -8   3 211.735 14.3954   1
   1  -8  -3 252.334 12.5794   3
   1  -8  -3 265.460 12.4258   2
  -1  -8   3 249.174 12.6713   2
   1  -8  -3 255.787 12.4411   7
  -1  -8   3 261.459 13.0554   3
   1  -8  -3 269.029 12.6023   6
   1   8  -3 246.480 12.9889   3
   1   8  -3 251.921 12.7537   2
   0  -8  -3 141.401 7.30855   2
   0  -8  -3 145.256 7.30124   6
   0  -8  -3 142.641 7.62830   3
   0  -8   3 145.021 7.72727   3
   0  -8   3 134.766 8.65749   1
   0  -8   3 148.534 7.41085   2
  -1  -8  -3 261.410 13.2970   3
   1  -8   3 269.465 12.7192   5
   1  -8   3 263.164 12.8147   2
  -1  -8  -3 272.516 12.9412   2
   1  -8   3 250.477 13.0962   3
   1  -8   3 264.603 12.8875   6
  -1  -8  -3 241.993 14.3814   1
  -1  -8  -3 260.655 12.7320   6
   1   8   3 229.305 14.4194   1
   2  -8   3 2.92884 0.82074   3
   2  -8   3 2.65550 0.75991   6
   2  -8   3 2.78918 0.69730   2
   2  -8   3 2.42553 0.58276   5
   3  -8   3 88.7506 4.64351   5
   3  -8   3 80.0649 4.13219  13
   3  -8   3 83.3192 4.63931   6
   3  -8   3 80.5673 4.14401  14
   3  -8   3 79.8716 3.99461   9
   3  -8   3 84.8821 4.32674   2
   3  -8   3 82.4863 4.53164   3
   3  -8   3 82.4593 4.03194  10
   3  -8   3 74.9447 4.13353  15
   3  -8   3 83.7115 4.12971  12
   3   8   3 76.6520 4.09282   8
   3   8   3 78.4915 5.20136   3
   3   8   3 80.3077 4.91544   2
   4  -8   3 74.2663 4.46881   5
   4  -8   3 77.0370 4.01286  13
   4  -8   3 80.0883 4.05915  14
   4  -8   3 71.7768 3.95489  15
   4  -8   3 81.2600 3.99805  12
   4  -8   3 77.2253 3.81798  10
   4   8   3 82.2085 3.89381   8
   4   8   3 74.9653 5.16151   3
   4   8   3 72.8369 4.00047   9
   4   8   3 72.8116 4.78663   2
   4   8   3 76.5304 3.97659  12
   4   8   3 78.5671 4.55283   5
   5  -8   3 38.5895 1.99176  10
   5  -8   3 41.4826 2.40828  14
   5  -8   3 40.1376 2.26531  13
   5  -8   3 41.1261 2.32369  12
   5   8   3 40.4392 2.34622  13
   5   8   3 39.1416 2.25486  12
   5   8   3 38.4947 2.32231  10
   5   8   3 39.5960 2.25416   9
   6  -8   3 40.7949 2.18043  14
   6  -8   3 37.6964 2.06639  12
   6  -8   3 37.3345 2.16428  13
   6   8   3 35.7745 2.08223  12
   6   8   3 35.7079 2.01398  10
   6   8   3 36.3911 2.06322  13
   6  -9  -3 107.858 5.44689  12
   6  -9  -3 113.401 5.50003  13
   6  -9  -3 105.806 5.46346  14
   6   9  -3 104.676 5.40656  10
   6   9  -3 117.427 5.51790  12
   5  -9  -3 7.84807 0.80196  11
   5  -9  -3 9.31541 1.00110  15
   5  -9  -3 6.62247 1.09775  16
   5  -9  -3 8.54980 0.82360  14
   5  -9  -3 8.03050 0.75435  12
   5  -9  -3 7.85599 1.00920  13
   5   9  -3 8.12028 0.88078  12
   5   9  -3 7.28500 0.87082   9
   5   9  -3 8.30560 1.04573  10
   5   9  -3 6.82202 0.70699  11
   4  -9  -3 97.7308 5.67850   6
   4  -9  -3 105.741 5.12816  15
   4  -9  -3 108.172 5.17548  14
   4  -9  -3 100.312 5.28104  16
   4  -9  -3 106.131 5.15217  13
   4  -9  -3 98.4764 5.04280  12
   4   9  -3 103.214 4.93820   8
   4   9  -3 92.2920 5.04961  11
   4   9  -3 96.1026 5.81417   2
   4   9  -3 92.8704 6.00791   4
   4   9  -3 93.3254 5.12848  10
   4   9  -3 106.594 5.11400   9
   3  -9  -3 223.309 10.7992  15
   3  -9  -3 231.325 10.8024  13
   3  -9  -3 227.241 11.3791   6
   3  -9  -3 225.057 10.8853  16
   3  -9  -3 212.754 10.7289  12
   3  -9  -3 230.348 10.8203  14
   3  -9  -3 209.336 10.5760  10
   3  -9  -3 187.028 10.7034  17
   3   9  -3 218.992 11.8474   3
   3   9  -3 236.956 10.7219   8
   3   9  -3 228.967 11.6792   4
   3   9  -3 221.256 10.7907   9
   3   9  -3 217.046 10.7345  11
   3   9  -3 207.514 10.7958  10
   3   9  -3 228.582 11.5444   2
   2  -9  -3 73.7525 3.70235  14
   2  -9  -3 71.1042 3.66302  15
  -2  -9   3 67.8114 3.94120   6
   2  -9  -3 72.2521 3.67192   3
   2  -9  -3 67.1659 3.66116   3
   2  -9  -3 68.4454 3.76388  16
   2  -9  -3 73.9624 3.66766  13
   2  -9  -3 69.6192 3.62483   2
   2  -9  -3 78.4922 4.18203   6
   2  -9  -3 67.9127 3.85397   7
   2  -9  -3 73.7920 3.60743   2
   2  -9  -3 73.1846 3.55223  10
   2   9  -3 69.5902 4.61835   3
   2   9  -3 81.4370 4.53675   4
   2   9  -3 73.7875 4.44892   2
  -1  -9   3 1573.62 80.3624   2
   1  -9  -3 1743.35 81.7083   2
   1  -9  -3 1688.77 80.3679   7
   1  -9  -3 1579.02 81.6068   3
   1  -9  -3 1721.26 82.6558   6
  -1  -9   3 1672.45 80.6331   3
   0  -9   3 8.02145 1.11091   2
   0  -9   3 7.10197 1.05051   6
   0  -9   3 6.33637 1.22954   3
  -1  -9  -3 13.9824 1.86927   3
   1  -9   3 17.1573 1.49631   6
  -1  -9  -3 17.3610 1.32792   6
  -1  -9  -3 15.0085 1.49750   2
   1  -9   3 18.6584 1.86012   3
   1  -9   3 17.9352 1.34334   5
   1  -9   3 17.3132 1.46516   2
   2  -9   3 210.844 10.5973   8
   2  -9   3 236.530 11.0990   2
   2  -9   3 214.720 10.6854  10
   2  -9   3 228.931 11.2729   6
   2  -9   3 202.073 10.7422  14
   2  -9   3 212.795 10.6686   9
   2  -9   3 235.812 11.1095   5
   2  -9   3 223.930 11.3301   3
   3  -9   3 9.49133 1.13504   3
   3  -9   3 9.32278 0.88305  12
   3  -9   3 9.44781 0.71739  10
   3  -9   3 8.91466 1.14778   6
   3  -9   3 9.52890 0.62481   9
   3  -9   3 8.52664 0.89504  15
   3  -9   3 9.46384 1.16589   5
   3  -9   3 8.91984 0.77676  14
   3  -9   3 9.01229 0.85966  13
   3  -9   3 9.52824 1.12260   2
   3   9   3 8.67614 0.76098   8
   4  -9   3 81.1365 4.12681  13
   4  -9   3 82.5708 3.98905  10
   4  -9   3 77.2530 4.72168   5
   4  -9   3 83.6518 4.18783  14
   4  -9   3 78.2898 4.14673  15
   4  -9   3 86.1716 4.16944  12
   4   9   3 71.2673 4.98001   2
   4   9   3 78.0318 4.09451  12
   4   9   3 74.4284 4.74959   5
   4   9   3 80.1303 4.18242   9
   4   9   3 81.8401 4.06106   8
   5  -9   3 1.33172 0.57734  13
   5  -9   3 0.74136 0.51537  12
   5  -9   3 2.04924 0.49017  14
   5  -9   3 0.83502 0.13884  10
   5   9   3 1.07694 0.51506   9
   5   9   3 0.83150 0.53927  10
   5   9   3 0.36380 0.21029   8
   5   9   3 1.80737 0.44239  13
   6  -9   3 9.58218 0.80437  13
   6  -9   3 7.99041 0.78111  14
   6   9   3 8.78847 0.89552  13
   6   9   3 8.83005 0.76254  10
   6   9   3 8.66207 0.87223  12
   6   9   3 10.5069 0.68255   9
   6 -10  -3 2.05123 0.56761  13
   6 -10  -3 1.55749 0.36859  14
   6  10  -3 1.25332 0.40330  12
   6  10  -3 1.35919 0.41434  10
   5 -10  -3 0.33658 0.59184  13
   5 -10  -3 0.50989 0.52913  15
   5 -10  -3 0.38868 0.40427  14
   5 -10  -3 0.15245 0.47218  12
   5  10  -3 -0.2532 0.54109  10
   5  10  -3 -0.8391 0.55363  12
   5  10  -3 0.11041 0.46748   9
   4 -10  -3 462.863 21.0238  14
   4 -10  -3 412.000 20.9080  12
   4 -10  -3 441.263 20.9921  15
   4 -10  -3 423.302 21.0724  16
   4 -10  -3 447.180 20.9933  13
   4  10  -3 464.639 20.8241   8
   4  10  -3 368.293 21.8172   4
   4  10  -3 427.831 20.9776  10
   4  10  -3 440.466 20.9508   9
   3 -10  -3 5.79226 1.18745   6
   3 -10  -3 6.38910 0.88641  13
   3 -10  -3 4.91657 0.57409  12
   3 -10  -3 5.26333 0.39501  10
   3 -10  -3 6.22395 0.84964  14
   3 -10  -3 5.52642 0.68677  15
   3 -10  -3 5.58125 1.07898  16
   3  10  -3 6.88886 0.82789   8
   3  10  -3 4.75114 1.33823   4
   3  10  -3 4.99831 1.28630   2
   3  10  -3 4.59626 1.38197   3
   3  10  -3 4.31067 0.69657   9
   2 -10  -3 17.4931 1.36752  16
   2 -10  -3 20.5851 1.21318  13
   2 -10  -3 20.7340 1.68265   6
   2 -10  -3 19.5432 1.15327   2
   2 -10  -3 18.6648 1.05699  10
   2 -10  -3 18.8815 1.24799   3
   2 -10  -3 18.9088 1.17611  15
   2 -10  -3 20.3119 1.26046  14
   2 -10  -3 17.5232 0.98354   9
   2  10  -3 18.5728 2.25272   3
   2  10  -3 16.8999 1.80388   2
   2  10  -3 18.4701 1.30029   8
   2  10  -3 20.9069 2.10608   4
   1 -10  -3 304.459 13.7003   3
   1 -10  -3 276.930 13.3481   2
   1 -10  -3 241.894 13.1322  16
   1 -10  -3 246.711 12.9895   9
   1 -10  -3 275.176 13.5559   6
   1 -10  -3 262.973 13.3310   7
  -1 -10   3 270.140 13.4872   6
   1  10  -3 278.498 13.8499   4
   0 -10   3 6.44287 1.00671   6
   0 -10   3 7.16950 1.00680   2
   0 -10   3 6.30880 1.32647   3
   0 -10  -3 7.87508 1.09408   2
   0 -10  -3 8.45556 1.31016   3
   0 -10  -3 8.85636 1.13027   6
   1 -10   3 23.1958 2.00271   3
  -1 -10  -3 23.7302 1.90324   2
   1 -10   3 21.2464 1.78432   6
  -1 -10  -3 22.7321 1.63695   6
   1 -10   3 19.5815 1.23531   8
  -1 -10  -3 22.2464 2.09173   3
   1 -10   3 23.1682 1.78953   2
   2 -10   3 120.245 6.60134   3
   2 -10   3 126.151 6.38418   5
   2 -10   3 125.597 6.01711  15
   2 -10   3 113.028 5.88332   9
   2 -10   3 113.314 5.94017  13
   2 -10   3 122.748 5.91464  10
   2 -10   3 113.200 5.78913   8
   2 -10   3 120.537 6.33515   2
   2 -10   3 128.881 6.60112   6
   2 -10   3 118.563 5.96903  14
   3 -10   3 278.471 13.8193   2
   3 -10   3 273.825 14.2616   6
   3 -10   3 291.613 13.5724  10
   3 -10   3 291.811 13.7144  14
   3 -10   3 274.697 14.0209   3
   3 -10   3 275.821 13.6546  13
   3 -10   3 290.517 13.7105  15
   3 -10   3 284.847 14.1602   5
   3 -10   3 274.333 13.5087   9
   3  10   3 266.966 13.6263   8
   4 -10   3 59.8641 3.03180  12
   4 -10   3 58.9761 3.09351  14
   4 -10   3 58.2503 3.08990  13
   4 -10   3 56.7823 3.03457  15
   4 -10   3 51.8044 3.48254   5
   4 -10   3 56.7445 2.87325  10
   4  10   3 59.2660 2.99838   8
   4  10   3 54.8580 3.03817  12
   4  10   3 51.4901 3.55456   5
   4  10   3 56.3076 3.05192   9
   5 -10   3 126.309 6.35173  13
   5 -10   3 136.591 6.44965  14
   5  10   3 117.754 6.28911  12
   5  10   3 128.068 6.35923  13
   5  10   3 121.957 6.38240  10
   5  10   3 125.963 6.12589   8
   5  10   3 131.254 6.34717   9
   6 -10   3 1.65817 0.40538  14
   6 -10   3 1.92408 0.40990  13
   6  10   3 1.46207 0.32760  13
   6  10   3 2.28451 0.29641   9
   6  10   3 1.84704 0.36612  10
   6 -11  -3 3.54486 0.49873  14
   6  11  -3 3.27952 0.50892  10
   6  11  -3 3.55763 0.60506  12
   5 -11  -3 12.5544 1.05654  14
   5 -11  -3 12.4824 1.22860  15
   5 -11  -3 13.5021 1.21803  13
   5  11  -3 13.6319 1.28680  12
   5  11  -3 14.6835 1.28409  10
   5  11  -3 13.8908 1.13822   9
   4 -11  -3 45.8769 2.60021  13
   4 -11  -3 46.0808 2.61937  14
   4 -11  -3 46.0793 2.62991  15
   4 -11  -3 41.1204 2.74943  16
   4  11  -3 45.0658 2.62679   9
   4  11  -3 45.3854 2.39372   8
   4  11  -3 45.2407 2.52880  10
   3 -11  -3 425.860 20.9541  10
   3 -11  -3 447.968 21.1642  16
   3 -11  -3 458.311 21.0433  13
   3 -11  -3 434.471 21.7092   6
   3 -11  -3 476.907 21.0776  14
   3 -11  -3 455.735 21.0625  15
   3  11  -3 465.487 20.9645   8
   3  11  -3 392.314 21.8539   4
   3  11  -3 380.738 21.7726   2
   3  11  -3 377.718 22.1759   3
   3  11  -3 446.201 21.0667   9
   2 -11  -3 116.960 5.99970  16
   2 -11  -3 119.379 5.87645  13
   2 -11  -3 119.342 5.82887   2
   2 -11  -3 111.336 5.66701   9
   2 -11  -3 112.368 5.91016   3
   2 -11  -3 122.115 5.89768  14
   2 -11  -3 120.949 5.88919  15
   2 -11  -3 119.332 6.50259   6
   2 -11  -3 118.715 5.74219  10
   2  11  -3 112.118 5.86283   8
   2  11  -3 118.070 6.67686   4
   1 -11  -3 82.7677 4.32465   9
   1 -11  -3 83.7416 5.00010   3
   1 -11  -3 88.3565 4.53325  16
   1 -11  -3 84.9407 4.39688  15
   1 -11  -3 90.3061 4.75800   2
   1 -11  -3 96.0269 4.42798  14
   1 -11  -3 81.1936 4.67267   7
   1 -11  -3 90.7724 4.97630   6
   1 -11  -3 85.9611 4.33892  10
  -1 -11   3 88.2876 4.86824   6
   1  11  -3 85.7033 5.20635   4
   0 -11  -3 251.941 12.7904   3
   0 -11  -3 229.119 11.8973   9
   0 -11   3 225.120 11.8657   8
   0 -11  -3 241.697 11.9191  10
   0 -11   3 243.931 12.9637   3
   0 -11  -3 263.483 12.4547   6
   0 -11   3 257.287 12.5426   2
   0 -11   3 256.298 12.4699   6
   0 -11  -3 243.665 12.3873   2
   0 -11  -3 242.641 11.8408   8
   1 -11   3 9.53907 1.15417   6
  -1 -11  -3 6.82000 0.81249   9
  -1 -11  -3 9.49435 1.38870   2
   1 -11   3 7.38265 0.65105   8
   1 -11   3 8.35112 1.32909   2
  -1 -11  -3 8.92457 1.10007   6
  -1 -11  -3 7.91771 0.61594   8
   1 -11   3 7.14372 0.75999  10
   1 -11   3 7.04830 0.74691   9
  -1 -11  -3 8.68291 1.59167   3
   1 -11   3 9.06474 1.52325   3
   2 -11   3 153.817 7.73281   8
   2 -11   3 165.645 8.60029   6
   2 -11   3 173.114 8.42173   5
  -2 -11  -3 145.521 7.89780   8
   2 -11   3 164.115 8.64597   3
   2 -11   3 157.375 7.86653   9
   2 -11   3 163.293 7.89603  10
   2 -11   3 163.280 8.36514   2
   2 -11   3 155.567 7.92764  13
   2 -11   3 161.360 7.96340  14
   2 -11   3 170.918 7.99202  15
   3 -11   3 8.90487 1.31090   3
   3 -11   3 10.6167 0.74425   9
   3 -11   3 11.5738 0.88672  13
   3 -11   3 10.9823 1.07544   2
   3 -11   3 11.4437 1.06940  14
   3 -11   3 10.8403 0.84501  10
   3 -11   3 11.7005 1.42050   6
   3 -11   3 8.75562 1.29788   5
   3 -11   3 11.1753 1.09277  15
   3  11   3 10.9980 1.09879   8
   4 -11   3 78.8309 3.77956  10
   4 -11   3 75.6968 3.98497  15
   4 -11   3 75.9049 3.96161  13
   4 -11   3 78.7136 4.02793  14
   4  11   3 72.3280 3.92062  12
   4  11   3 72.6697 3.95165   9
   4  11   3 76.5654 3.88785   8
   5 -11   3 0.19488 0.53701  13
   5 -11   3 -0.2498 0.53970  14
   5  11   3 -0.0868 0.18766   8
   5  11   3 0.47950 0.49734  13
   5  11   3 0.58151 0.51375   9
   6 -11   3 52.5852 2.72688  14
   6 -11   3 53.9810 2.70874  13
   6  11   3 53.4529 2.72785  10
   6  11   3 45.5860 2.66756  13
   6  11   3 55.9487 2.58371   9
   6 -12  -3 30.2923 1.58201  14
   6  12  -3 26.8833 1.56512  12
   5 -12  -3 66.4420 3.51190  15
   5 -12  -3 66.5083 3.56253  14
   5 -12  -3 64.8652 3.54390  13
   5  12  -3 67.5236 3.42945   9
   5  12  -3 68.5238 3.57787  10
   5  12  -3 70.5962 3.59580  12
   4 -12  -3 112.393 5.55258  15
   4 -12  -3 109.813 5.50592  14
   4 -12  -3 106.470 5.66083  16
   4 -12  -3 106.781 5.52934  13
   4  12  -3 106.944 5.36487   8
   4  12  -3 105.255 5.52168   9
   3 -12  -3 5.81550 0.44139  10
   3 -12  -3 5.61384 0.73694  14
   3 -12  -3 6.22124 0.80681  13
   3 -12  -3 5.83278 1.12578   6
   3 -12  -3 5.32100 0.72679  15
   3 -12  -3 4.97949 0.81009  16
   3  12  -3 6.31758 0.97903   8
   2 -12  -3 2.91905 0.32102   9
   2 -12  -3 3.42695 0.55708  15
   2 -12  -3 3.32830 0.56344  14
   2 -12  -3 4.91574 0.97723   6
   2 -12  -3 2.46407 0.61081  16
   2 -12  -3 3.35770 0.57824   3
   2 -12  -3 3.22113 0.48635  10
   2 -12  -3 3.03033 0.42571   2
   2  12  -3 2.59511 0.58340   8
   1 -12  -3 18.1150 1.18147  14
   1 -12  -3 17.5380 1.26687  16
   1 -12  -3 17.7467 1.09441  10
   1 -12  -3 17.0992 1.05400   9
   1 -12  -3 16.2516 1.58682   2
  -1 -12   3 17.9440 1.15119   8
   1 -12  -3 16.7723 1.78661   6
   1 -12  -3 14.8961 1.90019   3
   1 -12  -3 16.6841 1.08174  15
   1  12  -3 13.9337 1.90620   4
   0 -12   3 1116.42 54.3541   2
   0 -12  -3 1119.24 54.1293   8
   0 -12   3 1151.96 54.9236   3
   0 -12   3 1157.44 54.3213   6
   0 -12   3 987.384 53.6939   9
   0 -12  -3 1148.09 54.6984   3
   0 -12   3 1134.74 54.2355   8
   0 -12  -3 1151.42 54.2459   2
   0 -12  -3 1091.49 54.5871   9
   0 -12  -3 1116.26 54.0510   7
   0 -12  -3 1180.75 54.3012   6
   0 -12  -3 1069.98 54.2335  10
   1 -12   3 79.8808 4.46813   2
  -1 -12  -3 74.2566 3.85295   9
  -1 -12  -3 79.2774 4.56398   2
  -1 -12  -3 77.0980 5.02983   3
   1 -12   3 70.0597 3.81401  10
   1 -12   3 76.3477 3.90459  15
  -1 -12  -3 72.3279 3.77318   8
   1 -12   3 79.3505 4.49458   6
   1 -12   3 73.2242 3.82693   9
   1 -12   3 74.6031 4.87810   3
   2 -12   3 124.130 6.88425   6
   2 -12   3 123.176 6.05268   9
   2 -12   3 121.370 6.11715  13
   2 -12   3 117.612 6.81644   3
  -2 -12  -3 118.952 6.09297   8
   2 -12   3 121.553 6.14371  14
   2 -12   3 127.092 6.20024  15
   2 -12   3 123.436 6.58841   2
   2 -12   3 125.756 6.08334  10
   3 -12   3 144.752 8.23133   6
   3 -12   3 148.885 7.51738  13
   3 -12   3 157.260 7.42133  10
   3 -12   3 152.701 7.55789  14
   3 -12   3 160.036 7.59631  15
   3 -12   3 147.126 7.31415   9
   3  12   3 145.792 7.50742   8
   4 -12   3 80.3171 4.17847  14
   4 -12   3 77.7958 4.09537  13
   4 -12   3 85.0716 4.19251  15
   4 -12   3 80.4794 3.93758  10
   4  12   3 80.4372 4.06619   8
   4  12   3 77.6610 4.19995   9
   4  12   3 74.9878 4.08863  12
   5 -12   3 40.0927 2.08823  14
   5 -12   3 32.4387 1.97690  15
   5 -12   3 35.6447 2.01711  13
   5  12   3 37.2963 2.00160  13
   5  12   3 33.9459 1.95341  12
   5  12   3 37.9886 2.10072   9
   6 -12   3 4.42802 0.50516  14
   6 -12   3 4.10562 0.47199  13
   5 -13  -3 18.0413 1.30126  15
   5 -13  -3 18.1406 1.16187  14
   5  13  -3 15.7272 1.34590  10
   5  13  -3 17.2120 1.09141   9
   5  13  -3 17.1343 1.19368  12
   4 -13  -3 473.548 23.1749  16
   4 -13  -3 490.262 23.1055  15
   4 -13  -3 474.404 23.1078  14
   4  13  -3 471.096 22.9235   8
   4  13  -3 472.766 23.0704   9
   3 -13  -3 181.190 8.92370  16
   3 -13  -3 173.112 8.51899  10
   3 -13  -3 170.692 8.77451  14
   3 -13  -3 180.043 8.78774  15
   3  13  -3 177.188 8.70110   8
   2 -13  -3 31.4178 1.79612  15
   2 -13  -3 27.8934 2.51426   6
   2 -13  -3 30.7849 1.86910  14
   2 -13  -3 32.0884 1.96895  16
   2  13  -3 29.3907 1.80747   8
   1 -13  -3 771.521 40.2807   3
   1 -13  -3 856.768 40.5452  16
   1 -13  -3 849.375 40.1598  10
   1 -13  -3 833.532 40.2880   6
  -1 -13   3 807.907 40.1865   6
   1 -13  -3 809.733 40.0643  15
   1 -13  -3 834.701 40.1915   9
   1 -13  -3 832.412 39.8876  14
   1 -13  -3 810.651 39.9983   2
   0 -13   3 7.69362 1.31778   2
   0 -13  -3 9.39914 0.86334  10
   0 -13  -3 7.84731 1.22799   6
   0 -13   3 5.48779 1.55607   3
   0 -13  -3 9.12222 1.39528   2
   0 -13   3 8.49773 0.93238   9
   0 -13   3 8.87777 1.32672   6
   0 -13  -3 6.35287 1.28086   3
   0 -13  -3 9.04895 0.83384   9
   0 -13  -3 9.48249 0.67135   8
   0 -13  -3 7.90607 0.89850  16
   1 -13   3 639.030 29.8951  10
  -1 -13  -3 583.196 29.9121   9
   1 -13   3 656.645 30.2547  15
  -1 -13  -3 631.239 30.2935   8
   1 -13   3 588.521 30.9141   3
   1 -13   3 620.812 30.5047   2
   1 -13   3 647.263 30.0397   8
  -1 -13  -3 596.878 31.1591   3
   1 -13   3 641.677 30.6680   6
  -1 -13  -3 590.827 30.6093   2
   1 -13   3 624.060 30.1459   9
   2 -13   3 1044.61 48.9261   9
   2 -13   3 1004.72 48.8880  14
   2 -13   3 979.648 48.7315   2
   2 -13   3 977.143 48.3061  13
  -2 -13  -3 1030.80 48.8330   8
   2 -13   3 1003.37 49.1139   6
   2 -13   3 1066.83 49.9180  15
   2 -13   3 1033.26 48.6878  10
   2 -13   3 905.738 49.0618   3
   3 -13   3 296.084 13.6638  10
   3 -13   3 293.147 13.8382  15
   3 -13   3 280.022 13.7738  14
   3 -13   3 277.701 13.5301   9
   3 -13   3 276.788 13.7461  13
   3  13   3 266.620 13.7173   8
   4 -13   3 7.16226 0.79632  14
   4 -13   3 7.79794 0.61737  10
   4 -13   3 8.00679 1.03812  15
   4 -13   3 6.88602 0.76132  13
   4  13   3 6.64862 0.72412  12
   4  13   3 7.29963 1.14667   9
   4  13   3 6.80071 0.76704   8
   5 -13   3 14.4912 0.99162  15
   5 -13   3 15.1454 1.02068  13
   5 -13   3 15.5431 1.08006  14
   5  13   3 15.4838 1.05170   9
   5  13   3 14.7586 1.06343  13
   5 -14  -3 323.189 16.0794  14
   5 -14  -3 343.257 16.0976  15
   5  14  -3 314.894 16.0539  10
   5  14  -3 340.508 16.0063   9
   5  14  -3 336.002 16.0738  12
   4 -14  -3 4.23369 0.76284  15
   4 -14  -3 2.72707 0.74056  16
   4 -14  -3 5.31582 0.71783  14
   4  14  -3 4.88209 0.71169   8
   4  14  -3 4.49728 0.74857   9
   3 -14  -3 233.140 11.1022  16
   3 -14  -3 213.706 10.7206  10
   3 -14  -3 218.512 10.9787  14
   3 -14  -3 231.063 10.9932  15
   3  14  -3 217.045 10.8774   8
   2 -14  -3 40.0686 3.12182   6
   2 -14  -3 46.4363 2.66613  16
   2 -14  -3 42.3933 2.37419  15
   2 -14  -3 42.9324 2.24067  10
   2 -14  -3 43.3587 2.42421  14
   2  14  -3 39.7301 2.47529   8
  -1 -14   3 53.1913 2.79864   8
   1 -14  -3 53.5997 3.49274   6
   1 -14  -3 50.2231 3.23736   2
   1 -14  -3 53.6183 2.82703  15
   1 -14  -3 60.8233 3.12481  16
   1 -14  -3 54.3849 2.74686   9
   1 -14  -3 50.0581 2.85000  14
  -1 -14   3 47.4228 3.39174   6
   0 -14   3 100.447 5.81458   2
   0 -14  -3 98.2229 5.74836   6
   0 -14   3 83.8646 6.26647   3
   0 -14   3 106.763 5.03603   8
   0 -14  -3 101.434 4.96644   8
   0 -14   3 106.054 5.88385   6
   0 -14   3 99.7341 5.10583   9
   0 -14  -3 108.302 5.26370  16
   0 -14  -3 97.4308 5.70451   2
   0 -14   3 110.888 5.15990  15
   0 -14  -3 100.906 5.09326   9
   0 -14  -3 93.4388 6.17298   3
   1 -14   3 263.314 11.9504   8
   1 -14   3 252.661 12.0638   9
   1 -14   3 257.863 12.0755  10
  -1 -14  -3 239.081 12.1039   9
   1 -14   3 250.591 12.9089   6
  -1 -14  -3 210.845 13.2794   3
  -1 -14  -3 252.509 12.0097   8
  -1 -14  -3 230.023 12.8363   2
   1 -14   3 261.720 12.1551  15
  -2 -14  -3 288.571 14.0657   8
   2 -14   3 305.025 14.0807  10
   2 -14   3 266.446 14.0907  14
   2 -14   3 306.465 14.1977  15
   2 -14   3 268.555 14.8876   6
   2 -14   3 299.866 14.0240   9
   3 -14   3 3.63288 0.56441  15
   3 -14   3 4.93772 0.85045  13
   3 -14   3 3.15301 0.55571  14
   3 -14   3 2.77664 0.43289  10
   3  14   3 2.90176 0.64522   8
   4 -14   3 162.593 7.64322  15
   4 -14   3 153.521 7.58916  14
   4 -14   3 146.968 7.56165  13
   4 -14   3 145.789 7.38545  10
   4  14   3 154.831 7.51011   8
   5 -14   3 1.22874 0.36769  13
   5 -14   3 0.46438 0.35198  15
   5 -14   3 0.46762 0.47991  14
   5  14   3 1.00761 0.33915   9
   5  14   3 0.92260 0.26495  13
   5 -15  -3 86.5720 5.02268  15
   5  15  -3 101.537 4.96832   9
   5  15  -3 113.348 5.08529  12
   5  15  -3 104.868 5.05107  10
   4 -15  -3 663.615 32.7954  14
   4 -15  -3 684.834 32.9699  15
   4 -15  -3 688.107 32.6795  16
   4  15  -3 669.592 32.4324   8
   4  15  -3 661.239 32.5612   9
   4  15  -3 688.468 32.8902  12
   3 -15  -3 2.00528 0.71846  16
   3 -15  -3 0.59716 0.52497  15
   3 -15  -3 0.69372 0.16483  10
   3 -15  -3 1.06104 0.40877  14
   3  15  -3 0.99124 0.58836   8
   2 -15  -3 119.089 5.88177  15
   2 -15  -3 130.526 6.12026  16
   2 -15  -3 119.669 5.74332  10
   2 -15  -3 110.801 5.87958  14
  -2 -15   3 109.298 5.80562   8
   2  15  -3 109.202 5.85489   8
   1 -15  -3 8.67029 0.88396   9
   1 -15  -3 9.82544 1.29446  16
   1 -15  -3 8.37128 0.91871  15
   1 -15  -3 9.33545 1.43712   6
   1 -15  -3 9.50801 0.95417  14
  -1 -15   3 8.86999 0.74959   8
   0 -15  -3 115.139 5.81010  10
   0 -15  -3 124.067 6.01719  16
   0 -15   3 105.327 6.49997   6
   0 -15   3 114.247 5.80646  15
   0 -15  -3 102.728 6.41160   6
   0 -15  -3 117.367 5.62757   8
   0 -15  -3 120.579 5.78948   9
   0 -15   3 117.148 5.71254   8
   0 -15   3 118.627 5.82556   9
   1 -15   3 1.28653 0.45784   9
   1 -15   3 1.36019 0.27155   8
  -1 -15  -3 1.40269 0.40595   9
  -1 -15  -3 1.60067 0.39708   8
   1 -15   3 1.66002 0.54369  15
   1 -15   3 0.66165 0.95385   6
   1 -15   3 2.26075 0.50400  10
   2 -15   3 71.9412 3.75863  10
  -2 -15  -3 76.7011 3.80217   8
   2 -15   3 74.5428 3.92875  15
   2 -15   3 71.6252 3.71124   9
   3 -15   3 218.612 10.8024  10
  -3 -15  -3 219.974 10.8863   8
   3 -15   3 212.967 10.9096  14
   3 -15   3 243.529 11.0021  15
   3  15   3 217.072 10.9043   8
   4 -15   3 40.0278 2.12030  15
   4 -15   3 33.6349 2.04557  14
   4  15   3 38.5416 2.06782   8
   5 -15   3 41.5025 2.26589  15
   5  15   3 45.8462 2.26926   9
   4 -16  -3 28.2827 1.70655  15
   4 -16  -3 28.5934 1.66757  14
   4 -16  -3 28.2764 1.87483  16
   4  16  -3 30.3293 1.70293  12
   4  16  -3 29.4408 1.52509   8
   4  16  -3 28.9428 1.85362   9
   3 -16  -3 114.817 6.12936  14
   3 -16  -3 128.150 6.34687  16
   3 -16  -3 124.397 6.19593  15
   3  16  -3 123.422 6.09349   8
  -2 -16   3 111.059 5.33937   8
   2 -16  -3 104.444 5.23627  10
   2 -16  -3 114.094 5.61703  16
   2 -16  -3 94.9582 5.34596  14
   2 -16  -3 110.096 5.39902  15
   2  16  -3 100.779 5.40747   8
   1 -16  -3 459.164 22.0531   9
   1 -16  -3 451.171 22.0025  10
   1 -16  -3 468.169 22.1239  16
   1 -16  -3 436.587 21.9151  15
  -1 -16   3 449.808 21.8676   8
   0 -16  -3 265.257 12.8592  10
   0 -16   3 273.627 12.7604   8
   0 -16  -3 237.775 12.6288   8
   0 -16   3 261.133 12.8729   9
   0 -16  -3 275.592 13.0630  16
   0 -16  -3 269.496 12.8360   9
   0 -16   3 261.722 12.8789  15
  -1 -16  -3 0.75265 0.41563  16
   1 -16   3 0.33701 0.49698  16
   1 -16   3 0.85477 0.48902  15
   1 -16   3 -0.0495 0.41553   9
  -1 -16  -3 0.63747 0.34267   8
  -1 -16  -3 0.60902 0.50182   9
   2 -16   3 6.57139 1.00706  15
   2 -16   3 7.18202 0.67061   9
  -2 -16  -3 5.61667 0.85740   8
  -2 -16  -3 4.85259 0.78748  16
   3 -16   3 145.100 6.96461  15
  -3 -16  -3 141.262 6.90273   8
   3 -16   3 127.011 6.89486  14
  -3 -16  -3 132.169 7.00117  16
   3 -16   3 146.186 6.82184  10
   3  16   3 142.842 6.92788   8
   4 -16   3 105.052 5.48459  14
  -4 -16  -3 115.057 5.46991   8
   4 -16   3 101.534 5.49060  15
   4  16   3 118.790 5.40958   8
   4 -17  -3 13.7077 0.93698  15
   4  17  -3 11.8831 1.14561   9
   4  17  -3 11.6252 0.94329  12
   3 -17  -3 34.8874 2.09035  14
   3 -17  -3 38.3255 2.23537  16
   3 -17  -3 38.0339 2.09565  15
  -3 -17   3 34.1798 2.02721   8
   3  17  -3 40.5564 2.15973   8
   2 -17  -3 333.331 16.3975  10
  -2 -17   3 349.637 16.4591   8
   2 -17  -3 337.724 16.5096  15
   2 -17  -3 353.396 16.6831  16
   2  17  -3 325.083 16.5140   8
  -1 -17   3 100.741 4.92235   8
   1 -17  -3 96.8322 4.98698  15
   1 -17  -3 102.283 4.94740  10
   1 -17  -3 97.7676 4.84054   9
  -1 -17   3 93.4969 5.00089   9
   1 -17  -3 99.2248 5.15608  16
   0 -17  -3 370.942 17.9390  16
   0 -17  -3 373.374 17.7895  10
   0 -17   3 380.636 17.6607   8
   0 -17   3 347.477 17.7739  15
   0 -17  -3 361.145 17.7458   9
   0 -17   3 365.413 17.7764   9
   1 -17   3 2.17102 0.48099   9
  -1 -17  -3 2.80884 0.34567   8
   1 -17   3 1.75847 0.50170  10
  -1 -17  -3 3.02852 0.48222   9
   1 -17   3 1.88397 0.45510  16
   1 -17   3 1.87775 0.43571  15
  -2 -17  -3 17.5782 1.27824  16
  -2 -17  -3 16.4857 1.22840   9
   2 -17   3 17.0857 1.00362   9
   2 -17   3 17.3944 1.21499  10
   2 -17   3 17.7455 1.35187  15
  -2 -17  -3 17.4283 1.15230   8
  -3 -17  -3 30.5356 1.75928   8
   3 -17   3 31.0897 1.78461  15
   3 -17   3 30.4361 1.62370  10
   3  17   3 29.2871 1.73096   8
   4 -17   3 25.0003 1.39266  14
   4 -17   3 23.2158 1.43695  15
   4  17   3 27.7338 1.35118   8
   3 -18  -3 209.442 10.3150  15
   3 -18  -3 213.242 10.4306  16
  -3 -18   3 214.629 10.2704   8
   3  18  -3 207.939 10.2503   8
   2 -18  -3 14.5594 1.03319  15
   2 -18  -3 15.5453 0.91851  10
   2 -18  -3 15.4471 1.30964  16
  -2 -18   3 14.3558 0.98862   8
   2  18  -3 15.7244 1.39458   8
   1 -18  -3 356.998 16.5325  16
  -1 -18   3 350.752 16.2648   8
  -1 -18   3 339.618 16.3887   9
   1 -18  -3 324.465 16.2950  10
   1 -18  -3 312.907 16.1482   9
   0 -18   3 3.60503 0.58265   9
   0 -18  -3 2.54314 0.45639   9
   0 -18   3 3.67708 0.54586  16
   0 -18   3 3.46201 0.37679   8
   0 -18  -3 3.48699 0.57607  16
   0 -18  -3 2.92063 0.51658  10
   1 -18   3 37.9240 2.28251  16
   1 -18   3 39.5060 2.17744  10
  -1 -18  -3 36.2094 1.90918   8
  -1 -18  -3 40.0942 2.37851  16
   1 -18   3 39.0684 2.19173  15
  -1 -18  -3 35.7340 2.11461   9
   1 -18   3 41.1498 2.10377   9
   2 -18   3 0.45767 0.27094  10
  -2 -18  -3 1.01061 0.38058  16
   2 -18   3 0.18771 0.46592  15
  -2 -18  -3 0.51140 0.39670   9
   3 -18   3 13.9162 0.99699  15
  -3 -18  -3 15.9810 0.99448   8
   3 -18   3 12.8422 0.80137  10
   3  18   3 13.4646 1.13639   8
   3  19  -3 21.9112 1.21163   8
  -2 -19   3 -0.2176 0.33349   8
   2 -19  -3 0.54989 0.42562  16
   2 -19  -3 0.25664 0.17079  10
   2 -19  -3 0.12029 0.25353  15
   2  19  -3 0.06547 0.38762   8
  -1 -19   3 1.10261 0.26442   8
   1 -19  -3 0.28265 0.34893  10
   1 -19  -3 0.80700 0.42836  16
  -1 -19   3 1.14920 0.40876   9
   0 -19   3 3.51609 0.59704  16
   0 -19  -3 3.42054 0.53221  10
   0 -19   3 4.42583 0.57861   9
   0 -19  -3 4.79274 0.81499  16
   0 -19  -3 3.43714 0.60044   9
   1 -19   3 1.29716 0.31284   9
   1 -19   3 1.04696 0.32562  16
  -1 -19  -3 1.30156 0.47012   9
   1 -19   3 1.10140 0.31884  15
   1 -19   3 1.43610 0.35019  10
   2 -19   3 5.64959 0.66223  10
  -2 -19  -3 5.95704 0.45020   8
  -2 -19  -3 5.37046 0.72013   9
   2 -19   3 5.72828 0.64028  15
  -2 -19  -3 5.74205 0.89995  16
  -3 -19  -3 1.27252 0.23573   8
   3  19   3 1.30627 0.29982   8
  -2 -20   3 13.8175 0.98318  16
  -2 -20   3 14.4285 0.77361   8
   2 -20  -3 12.7533 1.01685  16
   2  20  -3 12.4126 1.06424   8
  -1 -20   3 85.2185 4.11485   9
   1 -20  -3 86.2938 4.06376  10
   1 -20  -3 77.2195 4.22086  16
  -1 -20   3 78.4157 4.17168  16
   0 -20  -3 9.53050 0.71475  10
   0 -20  -3 9.35633 0.89951  16
   0 -20  -3 8.87443 0.56940   9
   0 -20   3 6.80340 0.80362  16
   0 -20   3 7.79174 0.73614  10
   0 -20   3 10.3986 0.80344   9
   1 -20   3 0.12163 0.36831  10
  -1 -20  -3 0.90218 0.36350  16
  -1 -20  -3 0.83259 0.36924   9
  -1 -20  -3 0.89053 0.30792  10
   2 -20   3 11.4992 0.76377  15
  -2 -20  -3 10.5743 0.78374   9
   0 -21  -3 9.47165 0.85077  16
   0 -21  -3 11.8121 0.73531  10
   0 -21   3 12.1323 0.67389   9
   7   0  -4 118.503 5.85270  11
   6   0  -4 10.6627 0.92392  11
   6   0  -4 10.3801 0.93142  12
   6   0  -4 9.84552 1.01013  18
   5   0  -4 374.300 20.4415   4
   5   0  -4 417.848 19.4871  18
   5   0  -4 421.914 19.4654  11
   5   0  -4 347.115 19.2268  10
   5   0  -4 408.443 19.4660  12
   5   0  -4 437.688 19.4818  17
   4   0  -4 581.909 28.0018  11
   4   0  -4 575.221 28.1242  16
   4   0  -4 601.070 28.8352   4
   4   0  -4 548.888 27.9886  12
   4   0  -4 553.013 28.0196  10
   4   0  -4 626.430 28.0310  17
   4   0  -4 581.733 28.0236  18
   3   0  -4 111.235 5.98970   4
   3   0  -4 107.211 5.28215   2
   3   0  -4 116.340 5.71688   7
   3   0  -4 113.569 5.34123   3
   3   0  -4 96.3134 5.52176   1
   3   0  -4 107.049 5.33911   3
   2   0  -4 146.578 6.75298   3
   2   0  -4 140.540 6.67421   2
  -2   0   4 123.343 7.12991   1
   2   0  -4 143.659 6.81743   7
  -2   0   4 124.314 7.21026   1
   2   0  -4 140.893 6.98622   4
   2   0  -4 132.259 7.30881   1
   2   0  -4 125.194 6.62114   2
   2   0  -4 134.783 6.73905   3
   2   0  -4 130.640 7.12661   1
   1   0  -4 42.2456 2.48074   7
   1   0  -4 47.5087 2.57219   2
  -1   0   4 47.8380 3.07047   1
   1   0  -4 45.5381 2.49066   2
   1   0  -4 52.3655 3.12273   1
   1   0  -4 43.1549 3.19551   1
   1   0  -4 41.9830 2.58959   3
  -1   0   4 54.3466 3.27720   1
   0   0   4 938.227 42.9684   1
   0   0   4 787.861 42.2936   3
   0   0   4 912.323 43.0655   1
   0   0  -4 878.299 43.1456   2
   0   0  -4 851.140 42.6543   7
   0   0  -4 889.507 42.9471   1
   0   0   4 817.247 42.6329   2
   0   0  -4 894.097 43.5204   3
   0   0  -4 917.847 43.2058   1
  -1   0  -4 2850.59 148.491   2
  -1   0  -4 3182.51 151.205   1
  -1   0  -4 3072.03 148.777   3
  -1   0  -4 2993.28 149.826   1
   1   0   4 2983.20 147.390   5
   1   0   4 2941.71 150.730   1
   1   0   4 3082.05 150.394   1
   1   0   4 3275.31 149.251   3
   1   0   4 3082.69 148.389   2
  -2   0  -4 995.981 48.5038   1
   2   0   4 995.685 47.2307   3
  -2   0  -4 917.151 48.1964   1
   2   0   4 906.325 48.0768   1
   2   0   4 986.939 48.0502   5
   2   0   4 978.212 48.1055   1
   2   0   4 1037.97 48.4565   2
   3   0   4 269.982 13.3033   3
   3   0   4 258.773 13.0919   2
   3   0   4 257.701 13.0359   5
   4   0   4 640.407 31.4450  12
   4   0   4 663.857 31.8484   2
   4   0   4 670.050 31.7786  10
   4   0   4 649.766 31.4245  11
   4   0   4 685.020 31.8700  13
   4   0   4 665.177 32.1259   3
   4   0   4 698.235 32.0189   5
   4   0   4 604.373 31.3363   8
   4   0   4 634.043 31.6205   9
   4   0   4 623.222 31.4655  14
   5   0   4 655.845 31.2308  10
   5   0   4 656.292 31.5342  13
   5   0   4 629.215 31.0770  11
   5   0   4 623.746 31.7597   5
   5   0   4 664.845 31.3413   9
   5   0   4 641.102 31.1130  12
   6   0   4 14.4526 1.24894  12
   6   0   4 15.7353 0.98837  10
   6   0   4 14.8956 1.35626  13
   7   0   4 61.7965 3.21358  13
   7  -1  -4 113.771 5.48601  11
   7  -1  -4 108.978 5.48340  12
   7   1  -4 109.394 5.48486  11
   6  -1  -4 82.2929 4.24800  11
   6  -1  -4 81.4846 4.28743  18
   6  -1  -4 83.2462 4.26208  12
   6   1  -4 85.6394 4.33328  12
   6   1  -4 80.7714 4.24785  11
   6   1  -4 84.3362 4.36058  18
   5  -1  -4 52.0173 2.80074  17
   5  -1  -4 51.3080 2.83623  12
   5  -1  -4 47.6779 3.76472   4
   5  -1  -4 53.9622 2.85307  11
   5  -1  -4 53.5333 2.92019  18
   5   1  -4 52.2218 2.78276  11
   5   1  -4 50.3920 2.57402  10
   5   1  -4 50.3281 3.92926   4
   5   1  -4 51.6744 2.79197  12
   5   1  -4 49.8362 2.80974  18
   5   1  -4 54.4782 2.93206  17
   4  -1  -4 178.182 9.20316  10
   4  -1  -4 189.257 9.35796  11
   4  -1  -4 196.726 9.79881   7
   4  -1  -4 182.861 9.35908  12
   4  -1  -4 194.757 9.40510  18
   4  -1  -4 197.005 9.40094  17
   4  -1  -4 196.037 10.1715   4
   4  -1  -4 189.569 9.48997  16
   4   1  -4 199.829 9.38677  17
   4   1  -4 192.290 9.26153  10
   4   1  -4 191.233 9.36877  11
   4   1  -4 185.428 9.37103  12
   4   1  -4 198.954 10.2591   4
   4   1  -4 191.354 9.50742  16
   4   1  -4 189.238 9.38239  18
   3  -1  -4 328.019 15.3004   7
   3  -1  -4 304.357 15.5114   4
   3   1  -4 281.703 15.1508   3
   3   1  -4 321.010 15.0727   2
   3   1  -4 290.028 15.0233   2
   3   1  -4 312.474 15.1547   3
   3   1  -4 328.744 15.3250   7
   3   1  -4 312.696 15.6282   4
  -2  -1   4 28.3652 2.40011   1
   2  -1  -4 27.7926 1.94714   4
  -2  -1   4 30.2984 2.29825   1
   2  -1  -4 30.2631 1.67189   3
   2  -1  -4 28.4556 1.57212   2
   2  -1  -4 29.9431 1.67018   3
   2  -1  -4 28.7547 1.97553   1
   2  -1  -4 30.1699 1.62826   2
   2  -1  -4 27.9198 2.09695   1
   2  -1  -4 29.0015 1.87871   7
   2   1  -4 30.1915 1.82921   3
   2   1  -4 27.3721 2.18514   1
  -2   1   4 30.4765 2.03471   1
   2   1  -4 30.9656 1.85277   7
  -2   1   4 28.9201 1.97671   1
   2   1  -4 28.4723 1.81763   3
   2   1  -4 32.1958 1.76312   2
   2   1  -4 24.9512 1.63753   2
   2   1  -4 30.2511 2.07108   4
   2   1  -4 30.0753 2.47730   1
   1  -1  -4 1126.61 59.3450   4
   1  -1  -4 1083.23 59.1218   2
  -1  -1   4 1294.11 60.2063   1
  -1  -1   4 1313.27 59.4391   1
   1  -1  -4 1281.05 60.1401   3
   1  -1  -4 1238.58 59.6912   2
   1  -1  -4 1232.13 59.2266   1
  -1  -1   4 1121.20 58.6032   3
   1  -1  -4 1211.35 58.6814   3
   1  -1  -4 1243.79 59.3565   7
   1  -1  -4 1208.71 59.5611   1
   1   1  -4 1268.05 59.4515   7
   1   1  -4 1145.96 58.6236   3
   1   1  -4 1051.29 58.6087   2
   1   1  -4 1273.12 60.0111   2
   1   1  -4 1279.37 60.5036   3
   1   1  -4 1238.19 59.3893   1
  -1   1   4 1256.18 60.2558   1
   1   1  -4 1244.99 59.7477   1
  -1   1   4 1249.52 59.7933   1
   0  -1  -4 4358.45 217.153   7
   0  -1   4 4299.96 218.609   3
   0  -1  -4 4550.90 220.754   1
   0  -1   4 4477.48 220.239   1
   0  -1  -4 4509.66 218.123   2
   0  -1  -4 4601.66 220.295   1
   0  -1   4 4765.30 220.701   1
   0  -1   4 4264.91 217.828   2
   0  -1  -4 4656.47 218.838   3
   0   1  -4 4316.03 216.994   7
   0   1  -4 4667.33 221.357   1
   0   1   4 4599.13 218.660   3
   0   1   4 4192.07 217.685   2
   0   1   4 4648.30 220.583   1
   0   1  -4 4365.39 219.159   1
   0   1  -4 4613.21 218.324   2
   0   1   4 4651.41 220.138   1
   0   1  -4 4675.26 218.633   3
   1  -1   4 1272.54 62.6300   5
  -1  -1  -4 1272.53 62.7305   1
  -1  -1  -4 1304.90 62.9123   1
   1  -1   4 1264.67 62.7351   1
  -1  -1  -4 1208.09 61.7650   2
   1  -1   4 1343.88 63.8836   3
   1  -1   4 1296.59 62.6249   1
   1  -1   4 1254.59 62.9679   2
  -1  -1  -4 1328.48 62.6873   3
  -1   1  -4 1325.93 61.9417   3
  -1   1  -4 1200.80 61.9571   2
   1   1   4 1328.51 62.7151   1
   1   1   4 1321.90 63.4161   3
   1   1   4 1233.49 62.6398   2
   1   1   4 1259.62 62.6992   1
  -1   1  -4 1340.98 63.0332   1
  -1   1  -4 1261.61 62.6782   1
   2  -1   4 277.996 15.7290   1
  -2  -1  -4 290.539 16.1383   1
  -2  -1  -4 257.976 15.8874   1
   2  -1   4 306.297 14.6220   5
   2  -1   4 296.861 15.7492   1
   2  -1   4 322.680 14.7264   2
   2  -1   4 311.952 14.9159   3
   2   1   4 337.348 15.0201   3
   2   1   4 283.199 15.8322   1
   2   1   4 306.656 14.7530   2
  -2   1  -4 286.819 15.8526   1
  -2   1  -4 295.579 16.1647   1
   2   1   4 305.016 14.6443   5
   2   1   4 290.969 15.8661   1
   3  -1   4 1085.51 53.3603   3
   3  -1   4 1113.74 54.3342   2
   3  -1   4 1090.58 53.1701   5
   3   1   4 1083.84 53.1637   5
   3   1   4 1128.60 53.9987   2
   3   1   4 1103.09 53.4491   3
   4  -1   4 280.120 13.0099  10
   4  -1   4 260.266 13.0393  12
   4  -1   4 278.829 13.6124   5
   4  -1   4 270.485 13.0299  11
   4  -1   4 274.209 13.6699   3
   4  -1   4 280.742 13.4302   2
   4  -1   4 261.161 13.0745  14
   4  -1   4 274.388 12.9736   9
   4  -1   4 270.844 13.0953  13
   4   1   4 269.887 12.9985   9
   4   1   4 266.461 13.0266  10
   4   1   4 275.521 13.1048  13
   4   1   4 280.199 13.5262   2
   4   1   4 253.147 13.0352  12
   4   1   4 285.042 13.6326   5
   4   1   4 274.604 13.7721   3
   4   1   4 234.494 13.0355  14
   4   1   4 256.938 13.0097  11
   4   1   4 253.791 12.8951   8
   5  -1   4 15.4654 1.12223  14
   5  -1   4 17.3951 1.24916  11
   5  -1   4 18.2287 1.12069  10
   5  -1   4 16.5077 0.99022   9
   5  -1   4 14.5274 1.26099  12
   5  -1   4 16.2631 1.20768  13
   5  -1   4 17.5712 1.72626   5
   5   1   4 17.3563 1.08211  10
   5   1   4 15.6967 1.13530  12
   5   1   4 17.0067 1.19364  11
   5   1   4 18.0633 1.98584   5
   5   1   4 16.7018 1.07760   9
   5   1   4 17.3358 1.37962  13
   6  -1   4 102.890 5.00756  13
   6  -1   4 95.3421 4.91679  12
   6  -1   4 96.3548 4.80318  10
   6   1   4 96.1388 4.99348  13
   6   1   4 99.2816 4.84336  10
   6   1   4 94.6934 4.91230  12
   7   1   4 34.4786 1.89648  13
   7  -2  -4 71.3931 3.72488  12
   7  -2  -4 79.5836 3.75278  11
   7   2  -4 71.6415 3.72836  11
   6  -2  -4 120.881 6.37603  18
   6  -2  -4 126.952 6.35990  12
   6  -2  -4 130.252 6.38754  11
   6   2  -4 129.824 6.39018  18
   6   2  -4 127.247 6.39197  11
   6   2  -4 128.512 6.38440  12
   5  -2  -4 240.424 11.6605  18
   5  -2  -4 236.897 11.6366  12
   5  -2  -4 243.159 11.6463  17
   5  -2  -4 239.998 11.6288  11
   5  -2  -4 215.301 12.5066   4
   5  -2  -4 230.377 11.7390  16
   5   2  -4 223.235 12.6830   4
   5   2  -4 245.517 11.6786  18
   5   2  -4 233.933 11.6473  12
   5   2  -4 244.966 11.6418  11
   5   2  -4 246.946 11.4950  10
   5   2  -4 247.486 11.6614  17
   4  -2  -4 199.944 10.1211   7
   4  -2  -4 197.503 9.74803  18
   4  -2  -4 198.067 10.4680   4
   4  -2  -4 204.681 9.74867  17
   4  -2  -4 180.382 9.70480  15
   4  -2  -4 196.798 9.72069  11
   4  -2  -4 191.179 9.71186  12
   4  -2  -4 207.071 9.87619  16
   4   2  -4 206.051 9.75641  17
   4   2  -4 195.900 9.72310  12
   4   2  -4 204.157 10.6265   4
   4   2  -4 203.076 9.66506   2
   4   2  -4 204.551 9.63867  10
   4   2  -4 200.274 9.72361   3
   4   2  -4 206.217 9.75318  18
   4   2  -4 180.928 9.53911   9
   4   2  -4 202.013 9.73707  11
   3  -2  -4 5.20546 0.79196   7
   3  -2  -4 5.65821 0.94089   4
   3   2  -4 5.56590 1.11954   4
   3   2  -4 5.95853 0.87448   7
   3   2  -4 5.43224 0.83005   2
   3   2  -4 5.74950 0.79233   3
   2  -2  -4 198.538 9.39435   2
   2  -2  -4 206.539 9.67527   7
   2  -2  -4 187.094 9.72344   4
  -2  -2   4 196.438 10.4457   1
   2  -2  -4 196.355 9.70212   6
   2  -2  -4 186.938 9.37835   2
  -2  -2   4 183.681 10.7063   1
   2  -2  -4 191.133 9.67556   1
   2  -2  -4 196.327 9.42497   3
   2  -2  -4 191.684 9.71837   1
   2  -2  -4 201.604 9.43050   3
   2   2  -4 167.903 9.55724   2
   2   2  -4 199.755 10.6630   1
  -2   2   4 178.414 9.62256   1
   2   2  -4 210.820 9.65995   7
   2   2  -4 187.700 10.3436   1
   2   2  -4 198.706 9.73552   3
  -2   2   4 187.780 9.62740   1
   2   2  -4 207.345 9.65340   2
   2   2  -4 205.793 9.93298   4
   1  -2  -4 1893.43 101.594   2
   1  -2  -4 1975.23 102.043   3
   1  -2  -4 1922.48 101.737   4
  -1  -2   4 2118.74 102.525   1
   1  -2  -4 2181.55 103.220   1
   1  -2  -4 2100.13 102.037   7
   1  -2  -4 2179.82 103.146   1
   1  -2  -4 2108.40 102.350   6
  -1  -2   4 1923.33 100.980   3
   1  -2  -4 2211.43 102.032   2
   1  -2  -4 2285.85 102.655   3
  -1  -2   4 1837.06 101.490   2
  -1  -2   4 2266.27 104.165   1
   1   2  -4 2234.70 102.918   1
   1   2  -4 2248.54 102.976   3
   1   2  -4 1825.44 102.438   1
   1   2  -4 2204.12 102.357   2
   1   2  -4 2148.55 102.073   7
  -1   2   4 2247.91 103.635   1
   1   2  -4 1892.72 100.852   3
  -1   2   4 2298.49 103.140   1
   0  -2   4 392.364 20.1228   2
   0  -2   4 377.810 19.9222   5
   0  -2   4 412.789 20.2759   3
   0  -2   4 427.389 20.9608   1
   0  -2  -4 450.356 20.2744   3
   0  -2   4 426.218 21.1208   1
   0  -2  -4 404.507 20.1332   2
   0  -2  -4 427.044 20.9426   1
   0  -2  -4 418.727 21.0072   1
   0  -2  -4 403.111 20.0373   7
   0   2  -4 405.020 19.9831   7
   0   2   4 369.825 20.1011   2
   0   2  -4 410.316 20.2194   2
   0   2  -4 420.101 20.9078   1
   0   2   4 436.393 20.9874   1
   0   2  -4 424.367 21.2588   1
   0   2   4 437.143 20.9215   1
   0   2  -4 427.119 20.3229   3
   0   2   4 407.071 20.2751   3
  -1  -2  -4 1572.24 76.3789   1
  -1  -2  -4 1594.07 77.2619   3
   1  -2   4 1563.83 77.0856   2
  -1  -2  -4 1636.16 76.5411   1
   1  -2   4 1582.35 76.3944   5
  -1  -2  -4 1568.37 76.8660   2
   1  -2   4 1478.02 77.3824   3
   1  -2   4 1619.78 76.2316   1
   1  -2   4 1589.21 76.3120   1
  -1   2  -4 1489.44 75.9149   2
   1   2   4 1545.63 76.2976   1
  -1   2  -4 1626.74 76.6372   1
  -1   2  -4 1542.33 75.6631   3
   1   2   4 1561.79 77.2266   3
  -1   2  -4 1578.75 76.2343   1
   1   2   4 1574.38 77.0189   2
  -1   2  -4 1406.69 75.4331   7
   1   2   4 1654.11 76.3788   1
   2  -2   4 2560.03 116.796   3
   2  -2   4 2371.26 116.566   2
  -2  -2  -4 2349.81 116.167   1
  -2  -2  -4 2335.05 116.064   1
   2  -2   4 2295.59 115.717   1
   2  -2   4 2271.24 115.596   1
   2  -2   4 2458.93 116.363   5
   2   2   4 2713.54 117.413   3
   2   2   4 2311.69 115.892   1
  -2   2  -4 2259.49 115.705   1
   2   2   4 2434.58 117.173   2
   2   2   4 2283.54 115.846   1
   3  -2   4 388.068 19.1944   5
   3  -2   4 374.452 19.1340   2
   3  -2   4 398.971 19.3975   3
   3   2   4 388.518 19.2036   5
   3   2   4 397.071 19.3010   2
   3   2   4 393.878 19.5432   3
   4  -2   4 8.12327 0.77327  11
   4  -2   4 7.68781 1.12874   5
   4  -2   4 6.71067 0.59472   9
   4  -2   4 11.2149 1.42584   3
   4  -2   4 7.48232 0.78121  14
   4  -2   4 8.66392 0.68730  10
   4  -2   4 7.44506 0.67441  12
   4  -2   4 7.73498 0.99536   2
   4  -2   4 7.68963 0.70116  13
   4   2   4 8.57147 0.86642  13
   4   2   4 7.25139 0.78205  10
   4   2   4 6.92656 1.14375   5
   4   2   4 6.17900 0.77029  12
   4   2   4 7.38299 0.73036   9
   4   2   4 8.12496 1.43582   3
   4   2   4 7.72516 0.58174   8
   4   2   4 7.13420 1.22557   2
   4   2   4 6.95446 0.60446  11
   5  -2   4 17.8607 1.26006  13
   5  -2   4 16.6590 0.93702   9
   5  -2   4 16.8403 1.32959  12
   5  -2   4 16.3227 1.31834  14
   5  -2   4 17.9195 1.13206  10
   5  -2   4 14.9541 1.73723   5
   5  -2   4 18.8390 1.31456  11
   5   2   4 17.0129 1.30865  12
   5   2   4 18.8576 1.13947  10
   5   2   4 16.5241 1.19631  11
   5   2   4 17.9766 1.11279   9
   5   2   4 14.4125 1.75416   5
   5   2   4 18.6046 1.29519  13
   6  -2   4 80.7546 3.96541  10
   6  -2   4 77.5533 4.12686  12
   6  -2   4 80.2015 4.17092  13
   6   2   4 79.9521 4.02651  10
   6   2   4 82.0582 4.17592  13
   7  -2   4 80.6903 3.74065  13
   7   2   4 66.0668 3.70484  13
   7  -3  -4 4.91513 0.56524  12
   7   3  -4 3.68226 0.57401  12
   7   3  -4 6.30080 0.79793  11
   6  -3  -4 19.0023 1.54562  18
   6  -3  -4 19.1309 1.28885  12
   6  -3  -4 19.1075 1.27365  11
   6   3  -4 19.7203 1.49932  12
   6   3  -4 20.3073 1.55140  18
   6   3  -4 19.3722 1.29410  11
   5  -3  -4 74.9485 5.10309   4
   5  -3  -4 82.9747 4.46983  16
   5  -3  -4 82.4039 4.26906  12
   5  -3  -4 85.7880 4.30644  17
   5  -3  -4 74.3435 4.21910  13
   5  -3  -4 85.9801 4.37674  18
   5  -3  -4 89.0014 4.32526  11
   5   3  -4 90.3336 4.37292  18
   5   3  -4 78.9611 5.39471   4
   5   3  -4 85.9567 4.17839  10
   5   3  -4 90.3421 4.36850  12
   5   3  -4 80.3706 4.27492  11
   4  -3  -4 7.29205 0.61194  12
   4  -3  -4 6.21506 0.62558  13
   4  -3  -4 6.16652 1.03291  16
   4  -3  -4 5.27430 0.94522   7
   4  -3  -4 5.13474 0.74239  15
   4  -3  -4 5.46536 0.67273  18
   4  -3  -4 6.90455 0.82932  17
   4  -3  -4 5.83297 1.17019   4
   4   3  -4 6.07499 0.56238   9
   4   3  -4 6.63460 1.42790   4
   4   3  -4 5.12306 0.71734  10
   4   3  -4 5.16747 0.85855  18
   4   3  -4 7.13834 0.91587   2
   4   3  -4 5.04159 0.77076  12
   4   3  -4 6.15749 0.93098   3
   4   3  -4 7.37490 0.79759  11
   3  -3  -4 32.3191 2.18349   6
   3  -3  -4 31.4795 1.93022   5
   3  -3  -4 34.1143 2.32044   4
   3  -3  -4 34.0297 2.11746   7
   3   3  -4 36.4005 2.28764   3
   3   3  -4 35.4852 2.18526   2
   3   3  -4 36.2598 2.63427   4
   2  -3  -4 620.905 32.2724   4
   2  -3  -4 676.727 32.2678   7
   2  -3  -4 672.753 32.3261   6
   2   3  -4 693.439 32.2701   7
   2   3  -4 623.391 33.1207   1
   2   3  -4 680.557 32.4199   3
   2   3  -4 681.638 32.5679   4
   2   3  -4 650.412 33.4733   1
   2   3  -4 701.272 32.3293   2
  -1  -3   4 3629.47 169.480   1
   1  -3  -4 3623.62 167.642   1
  -1  -3   4 3033.53 166.258   2
   1  -3  -4 3019.01 165.644   4
   1  -3  -4 3437.32 166.381   7
   1  -3  -4 3462.25 167.609   1
   1  -3  -4 3185.68 165.772   2
  -1  -3   4 3284.53 166.871   3
  -1  -3   4 3481.63 169.829   1
   1  -3  -4 3390.49 166.550   3
   1  -3  -4 3518.38 166.913   6
   1  -3  -4 3367.49 166.127   2
   1  -3  -4 3481.16 166.670   3
  -1   3   4 3560.18 167.892   1
  -1   3   4 3472.52 167.733   1
   1   3  -4 3496.79 165.905   7
   1   3  -4 3487.84 168.558   1
   1   3  -4 3659.28 167.744   3
   1   3  -4 3535.56 168.392   1
   1   3  -4 3635.62 167.257   2
   0  -3   4 62.2346 4.08504   1
   0  -3   4 61.6089 3.42029   3
   0  -3  -4 62.2136 3.40888   3
   0  -3   4 57.6149 3.25492   2
   0  -3  -4 61.6106 3.23285   6
   0  -3  -4 64.1590 3.26753   2
   0  -3  -4 55.8175 3.15417   7
   0  -3   4 57.8915 3.02157   5
   0  -3   4 63.7504 4.37895   1
   0  -3  -4 63.3072 4.14118   1
   0  -3  -4 61.2802 4.09512   1
   0   3  -4 59.4494 3.37149   2
   0   3  -4 59.7802 4.09746   1
   0   3  -4 60.5796 4.39546   1
   0   3   4 56.6207 3.23831   2
   0   3   4 67.6761 4.11277   1
   0   3  -4 61.3859 3.45261   3
   0   3  -4 59.4816 3.08641   7
   0   3   4 59.8084 4.01144   1
   0   3   4 57.5446 3.41026   3
   1  -3   4 676.807 32.6371   2
  -1  -3  -4 676.318 33.4105   1
  -1  -3  -4 678.685 33.4544   1
   1  -3   4 653.252 33.1936   1
  -1  -3  -4 655.930 32.1793   2
   1  -3   4 698.902 33.1521   1
  -1  -3  -4 637.221 32.3468   3
   1  -3   4 664.188 32.3262   5
   1  -3   4 678.309 32.2988   3
   1   3   4 673.163 32.1822   2
  -1   3  -4 694.308 33.5601   1
  -1   3  -4 621.290 32.2169   2
   1   3   4 692.272 33.3641   1
  -1   3  -4 666.204 32.3215   3
  -1   3  -4 584.629 31.8612   7
  -1   3  -4 650.105 33.0790   1
   1   3   4 671.229 32.3643   3
   1   3   4 680.416 33.3132   1
   2  -3   4 22.1035 1.71922   3
  -2  -3  -4 16.3914 2.76006   1
   2  -3   4 20.1036 1.44584   5
   2  -3   4 20.3238 1.47137   2
   2  -3   4 18.7207 2.24298   1
   2   3   4 21.6941 1.65896   2
   2   3   4 16.0333 2.35911   1
   2   3   4 19.8228 2.59546   1
   2   3   4 21.5468 1.89419   3
   3  -3   4 94.2978 5.32055   3
   3  -3   4 96.0453 5.16796   5
   3  -3   4 94.9748 5.11458   2
   3   3   4 96.0783 5.20352   5
   3   3   4 97.3125 5.33220   4
   3   3   4 95.4524 5.28678   2
   3   3   4 97.6917 5.58610   3
   4  -3   4 2.38016 0.86452   5
   4  -3   4 2.12779 0.34055   9
   4  -3   4 2.31518 0.38987  14
   4  -3   4 1.89791 0.43752  11
   4  -3   4 1.95423 0.66466   2
   4  -3   4 2.00760 0.45141  12
   4  -3   4 2.28538 0.47670  13
   4  -3   4 2.31072 0.72553   3
   4  -3   4 2.11215 0.34656  10
   4   3   4 2.64882 0.43804   9
   4   3   4 3.68411 0.98946   5
   4   3   4 1.86981 0.92445   3
   4   3   4 3.27074 0.47310  10
   4   3   4 2.90084 0.42992   8
   4   3   4 2.74126 0.43374  12
   4   3   4 3.61938 1.08619   2
   5  -3   4 207.382 9.97814  10
   5  -3   4 218.728 10.1490  13
   5  -3   4 202.906 10.1464  14
   5  -3   4 188.315 10.6382   5
   5  -3   4 212.251 10.1061  12
   5   3   4 211.340 10.1807  13
   5   3   4 211.136 10.0684  10
   5   3   4 197.169 10.0598  12
   5   3   4 189.926 10.7417   5
   5   3   4 207.970 10.0122   9
   6  -3   4 15.3213 1.12227  12
   6  -3   4 13.4886 1.05403  14
   6  -3   4 17.5349 1.36806  13
   6  -3   4 16.7341 0.91189  10
   6   3   4 16.4715 1.02661  10
   6   3   4 18.3491 1.22864  13
   6   3   4 16.2697 1.23810  12
   7  -3   4 25.5359 1.39469  12
   7  -4  -4 30.4659 1.56958  11
   7  -4  -4 25.8127 1.53205  12
   7   4  -4 29.1025 1.67135  12
   6  -4  -4 40.2315 2.36398  18
   6  -4  -4 43.2151 2.39682  11
   6  -4  -4 40.3761 2.31139  12
   6   4  -4 43.2600 2.46829  18
   6   4  -4 44.1363 2.43098  11
   6   4  -4 43.8484 2.38824  12
   6   4  -4 42.8798 2.13130  10
   5  -4  -4 5.14445 0.84964  12
   5  -4  -4 5.70363 0.77195  13
   5  -4  -4 6.22448 0.89526  11
   5  -4  -4 3.91000 0.73645  16
   5  -4  -4 6.18021 0.83145  18
   5  -4  -4 5.27459 0.73710  17
   5   4  -4 6.12350 0.67324  10
   5   4  -4 5.01200 0.70435  18
   5   4  -4 6.20160 0.78734  12
   5   4  -4 5.86760 0.93879  11
   5   4  -4 5.61007 1.52814   4
   4  -4  -4 29.3388 1.88933  16
   4  -4  -4 27.3811 1.68085  13
   4  -4  -4 30.0228 2.41503   4
   4  -4  -4 37.0643 2.30167   7
   4  -4  -4 29.3800 1.70974  11
   4  -4  -4 28.9325 1.73772  15
   4  -4  -4 27.3373 1.69974  14
   4  -4  -4 31.0749 1.85913  18
   4  -4  -4 28.2601 1.70100  12
   4  -4  -4 29.4698 1.81361  17
   4   4  -4 32.9152 1.80267  17
   4   4  -4 31.1143 1.74178  11
   4   4  -4 33.6417 1.79353  10
   4   4  -4 34.2228 1.79228  12
   4   4  -4 33.2143 2.67151   4
   4   4  -4 31.8973 2.15185   3
   4   4  -4 32.8660 2.10545   2
   4   4  -4 30.5222 1.63548   9
   4   4  -4 32.8247 1.85485  18
   3  -4  -4 112.242 5.85515   7
   3  -4  -4 111.538 5.92127   6
   3  -4  -4 105.995 5.94518   4
   3  -4  -4 101.728 5.65404   5
   3   4  -4 116.834 6.07055   3
   3   4  -4 114.507 6.33084   4
   3   4  -4 120.387 5.93639   2
   2  -4  -4 30.0544 1.93256   6
   2  -4  -4 24.9974 1.71988   4
   2  -4  -4 28.8482 1.87868   7
   2   4  -4 31.7367 2.00775   2
   2   4  -4 30.3533 1.89917   7
   2   4  -4 29.5716 2.08010   3
   2   4  -4 27.3803 2.97209   1
  -1  -4   4 1279.67 58.9237   1
   1  -4  -4 1153.96 58.5968   7
   1  -4  -4 1208.92 58.3824   1
  -1  -4   4 1136.94 57.7333   2
   1  -4  -4 1023.35 57.8175   4
   1  -4  -4 1065.78 58.1580   2
  -1  -4   4 1176.42 59.1570   1
   1  -4  -4 1185.26 58.6506   2
  -1  -4   4 1178.73 57.9773   3
   1  -4  -4 1195.74 58.5006   3
   1  -4  -4 1207.09 58.3060   1
   1  -4  -4 1220.71 59.1569   6
   1  -4  -4 1262.24 59.6538   3
   1   4  -4 1291.33 58.9316   2
   1   4  -4 1244.51 58.2256   7
  -1   4   4 1180.39 58.2640   1
   1   4  -4 1284.71 59.3063   1
   1   4  -4 1269.54 59.0330   3
   1   4  -4 1157.36 58.7158   1
  -1   4   4 1265.55 58.2482   1
   0  -4   4 133.605 7.94739   1
   0  -4  -4 129.646 6.64102   2
   0  -4  -4 137.205 6.61810   6
   0  -4   4 133.526 6.67958   2
   0  -4  -4 113.415 6.73615   3
   0  -4   4 136.929 6.92948   3
   0  -4   4 138.356 7.63110   1
   0  -4  -4 131.907 7.61119   1
   0  -4   4 129.113 6.44043   5
   0   4  -4 140.146 6.93214   3
   0   4  -4 131.760 6.73657   2
   0   4   4 114.848 6.62157   2
   0   4  -4 126.275 6.43667   7
   0   4   4 136.663 7.63662   1
   0   4  -4 135.832 7.70269   1
   0   4  -4 137.338 7.96937   1
   0   4   4 128.851 6.79201   3
   0   4   4 134.295 7.60998   1
  -1  -4  -4 36.8414 3.46955   1
  -1  -4  -4 41.3037 2.68215   3
   1  -4   4 38.4569 3.24463   1
   1  -4   4 38.1992 3.13987   1
   1  -4   4 42.4608 2.15477   5
   1  -4   4 38.7377 2.27951   2
  -1  -4  -4 38.5793 3.28946   1
  -1  -4  -4 38.2720 2.30672   2
   1  -4   4 38.1615 2.48960   3
  -1   4  -4 37.4683 3.20411   1
   1   4   4 37.1654 3.23244   1
   1   4   4 36.5091 2.28874   2
  -1   4  -4 36.7984 2.53418   3
   1   4   4 40.0911 2.61685   3
  -1   4  -4 34.8573 2.40515   2
  -1   4  -4 41.0214 3.58380   1
   1   4   4 36.7042 3.32928   1
   2  -4   4 1075.53 53.8724   2
   2  -4   4 1120.94 53.9236   5
   2  -4   4 1110.57 52.7622   3
  -2  -4  -4 994.733 54.4040   1
   2   4   4 1171.00 53.0142   3
   2   4   4 1050.34 54.2785   1
   2   4   4 1102.35 52.7008   2
   3  -4   4 0.65598 0.66791   3
   3  -4   4 0.35389 0.47210   2
   3  -4   4 0.53111 0.61378   5
   3   4   4 0.65703 0.67132   4
   3   4   4 0.70091 0.88489   3
   3   4   4 -0.0656 0.70408   2
   4  -4   4 123.542 6.48667   5
   4  -4   4 114.190 6.32261   3
   4  -4   4 119.639 6.13684   2
   4  -4   4 122.265 5.93839  13
   4  -4   4 116.152 5.78380   9
   4  -4   4 120.480 5.98571  14
   4  -4   4 125.355 5.83841  10
   4  -4   4 119.591 5.91972  12
   4   4   4 119.991 6.80577   3
   4   4   4 123.350 6.47085   5
   4   4   4 114.011 5.80457   8
   4   4   4 120.723 6.58464   2
   4   4   4 114.293 5.89297   9
   4   4   4 115.666 5.92324  10
   4   4   4 109.186 5.88321  12
   5  -4   4 140.328 6.74922  13
   5  -4   4 119.824 7.23539   5
   5  -4   4 136.350 6.70685  12
   5  -4   4 138.493 6.56934  10
   5  -4   4 135.982 6.78262  14
   5   4   4 140.850 6.69865  10
   5   4   4 134.874 6.61682   9
   5   4   4 118.091 7.27711   5
   5   4   4 131.966 6.69110  12
   5   4   4 136.440 6.78845  13
   6  -4   4 22.6599 1.56071  14
   6  -4   4 23.4621 1.22435  10
   6  -4   4 24.1595 1.48371  12
   6  -4   4 25.5829 1.67521  13
   6   4   4 22.9241 1.53294  12
   6   4   4 24.6685 1.49617  10
   6   4   4 24.1463 1.54656  13
   7  -4   4 1.01134 0.35127  13
   7  -4   4 1.42039 0.26659  12
   7   4   4 1.28922 0.34715  13
   7  -5  -4 12.5052 0.77862  11
   7  -5  -4 11.5606 0.75425  12
   7   5  -4 11.6114 0.81296  12
   7   5  -4 9.61180 0.74893  11
   6  -5  -4 1.59468 0.45461  13
   6  -5  -4 1.54020 0.50903  11
   6  -5  -4 2.44204 0.42147  12
   6  -5  -4 1.68250 0.45843  18
   6   5  -4 1.43335 0.26556  10
   6   5  -4 1.95939 0.56985  11
   6   5  -4 1.44403 0.44192  12
   6   5  -4 1.64649 0.45802  18
   5  -5  -4 30.1138 1.72434  13
   5  -5  -4 26.2772 1.70608  14
   5  -5  -4 30.4879 1.77746  17
   5  -5  -4 27.7688 1.72623  15
   5  -5  -4 30.1061 2.04777  16
   5  -5  -4 31.6903 1.92406  18
   5  -5  -4 29.4961 1.81050  12
   5  -5  -4 31.3638 1.81182  11
   5   5  -4 33.4503 1.94145  12
   5   5  -4 30.5686 1.88923  18
   5   5  -4 31.5560 1.86375  11
   5   5  -4 31.1968 1.73354  10
   5   5  -4 27.9369 2.67204   4
   4  -5  -4 262.768 13.4427  12
   4  -5  -4 273.461 13.4838  18
   4  -5  -4 261.476 13.8184   7
   4  -5  -4 269.684 13.4481  11
   4  -5  -4 257.070 13.4539  13
   4  -5  -4 285.538 13.4901  17
   4  -5  -4 267.770 13.6069  16
   4  -5  -4 277.932 13.4928  14
   4  -5  -4 274.446 13.4986  15
   4   5  -4 285.291 14.5500   4
   4   5  -4 281.088 13.8480   2
   4   5  -4 274.913 13.9997   3
   4   5  -4 270.153 13.4673  18
   4   5  -4 274.966 13.3960   9
   4   5  -4 298.274 13.5402  12
   4   5  -4 298.384 13.4582  10
   4   5  -4 293.165 13.4902  11
   3  -5  -4 346.570 18.8303   4
   3  -5  -4 381.295 18.7984   7
   3  -5  -4 381.411 18.8973   6
   3   5  -4 394.455 19.2942   4
   3   5  -4 397.184 19.1114   3
   3   5  -4 396.358 18.9525   2
   2  -5  -4 264.267 12.5256   6
   2  -5  -4 218.737 12.2924   4
   2  -5  -4 252.219 12.3824   7
   2   5  -4 261.180 12.5719   2
   2   5  -4 263.436 12.8184   4
   2   5  -4 245.573 12.7030   3
  -1  -5   4 240.915 12.5362   1
   1  -5  -4 221.606 11.9542   1
   1  -5  -4 218.035 11.7899   1
  -1  -5   4 203.091 12.6610   1
  -1  -5   4 224.913 11.2411   2
  -1  -5   4 224.390 11.5173   3
   1  -5  -4 240.291 11.2453   6
   1  -5  -4 198.800 11.0622   2
   1  -5  -4 225.489 11.0499   2
   1  -5  -4 241.742 11.1997   3
   1  -5  -4 222.742 11.1312   7
   1  -5  -4 209.200 11.1591   3
   1   5  -4 234.168 11.4692   3
   1   5  -4 212.884 12.2813   1
   1   5  -4 246.374 11.3762   2
  -1   5   4 221.536 11.7641   1
  -1   5   4 228.458 11.7741   1
   1   5  -4 233.049 11.0709   7
   1   5  -4 235.321 12.8760   1
   0  -5   4 541.461 25.7526   3
   0  -5   4 526.311 26.5647   1
   0  -5  -4 499.424 26.5818   1
   0  -5   4 509.811 25.4614   2
   0  -5   4 506.112 26.9182   1
   0  -5  -4 550.845 25.4251   6
   0  -5  -4 525.700 25.6367   3
   0  -5  -4 532.047 26.5280   1
   0  -5  -4 537.348 25.4410   2
   0  -5   4 527.833 25.2311   5
   0   5  -4 520.992 26.9736   1
   0   5   4 550.133 26.5762   1
   0   5  -4 536.804 25.7093   3
   0   5  -4 505.630 25.5502   2
   0   5   4 520.091 26.4908   1
   0   5  -4 486.709 26.5155   1
   1  -5   4 200.115 11.9843   1
   1  -5   4 233.634 11.0093   3
  -1  -5  -4 215.671 10.6481   6
  -1  -5  -4 211.126 12.3502   1
   1  -5   4 204.272 11.7603   1
   1  -5   4 217.933 10.7832   2
   1  -5   4 229.432 10.6585   5
  -1  -5  -4 230.191 12.3019   1
  -1  -5  -4 231.231 10.9058   2
  -1  -5  -4 221.380 11.1295   3
   1   5   4 211.584 10.8722   2
  -1   5  -4 208.649 11.8404   1
   1   5   4 215.138 11.0979   3
  -1   5  -4 211.802 12.2395   1
   1   5   4 196.323 12.0260   1
   1   5   4 220.900 12.2252   1
  -2  -5  -4 162.911 11.4813   1
   2  -5   4 192.097 9.57388   2
   2  -5   4 201.680 9.56282   5
   2  -5   4 193.633 9.82771   3
   2   5   4 179.135 11.3390   1
   2   5   4 202.585 10.1222   3
   2   5   4 197.750 9.79591   2
   3  -5   4 8.99148 1.06359   2
   3  -5   4 5.47145 1.05426   3
   3  -5   4 5.15829 0.82674   6
   3  -5   4 7.33067 1.10666   5
   3  -5   4 5.71295 0.55796  10
   3  -5   4 5.92767 0.57835  14
   3   5   4 5.77876 1.08459   2
   3   5   4 4.86131 0.93820   4
   3   5   4 7.13152 1.33342   3
   4  -5   4 386.608 17.8390  13
   4  -5   4 365.903 18.1430   3
   4  -5   4 374.279 17.8566  14
   4  -5   4 381.206 18.3294   5
   4  -5   4 365.675 17.7834  12
   4  -5   4 354.229 17.6501   9
   4  -5   4 365.439 17.7097  10
   4  -5   4 370.759 17.9683   2
   4   5   4 379.417 18.3938   5
   4   5   4 339.774 17.7614  12
   4   5   4 369.213 18.4894   2
   4   5   4 374.984 17.6965   8
   4   5   4 356.045 18.7271   3
   4   5   4 360.559 17.8055  10
   4   5   4 362.841 17.7812   9
   5  -5   4 121.266 6.04130  10
   5  -5   4 125.802 6.19761  12
   5  -5   4 124.739 6.21904  13
   5  -5   4 126.658 6.28678  14
   5   5   4 125.380 6.18970  10
   5   5   4 112.248 6.83936   5
   5   5   4 126.994 6.28279  13
   5   5   4 121.141 6.16977  12
   5   5   4 121.671 6.12346   9
   6  -5   4 78.8770 4.12760  12
   6  -5   4 84.8712 4.21364  13
   6  -5   4 79.7390 4.16770  14
   6   5   4 84.2923 4.13782  10
   6   5   4 79.0348 3.95688   9
   6   5   4 84.2683 4.20733  13
   6   5   4 78.4500 4.13991  12
   7  -5   4 0.41459 0.32275  13
   7   5   4 0.37174 0.17717  10
   7   5   4 0.18643 0.26327  13
   7   6  -4 20.9789 1.22543  12
   6  -6  -4 19.3752 1.32741  12
   6  -6  -4 19.0346 1.33401  11
   6  -6  -4 20.1358 1.42753  18
   6  -6  -4 17.1580 1.18105  13
   6   6  -4 20.2218 1.17467  10
   6   6  -4 19.7920 1.38935  11
   6   6  -4 21.0854 1.33341  12
   5  -6  -4 24.1132 1.59868  15
   5  -6  -4 22.9025 1.82596  16
   5  -6  -4 24.3862 1.56532  13
   5  -6  -4 23.7301 1.46519  11
   5  -6  -4 24.3066 1.68247  18
   5  -6  -4 23.7163 1.55635  12
   5  -6  -4 24.2414 1.64270  17
   5  -6  -4 23.2727 1.58106  14
   5   6  -4 25.6023 1.30901   9
   5   6  -4 24.7346 1.64166  18
   5   6  -4 24.8985 1.54419  10
   5   6  -4 26.5036 1.72490  12
   5   6  -4 25.5107 1.51957  11
   4  -6  -4 1.49720 0.47623  15
   4  -6  -4 0.78260 0.44308  18
   4  -6  -4 1.64908 0.43296  13
   4  -6  -4 1.01345 0.32139  14
   4  -6  -4 1.00662 0.33705  17
   4  -6  -4 1.99078 0.40450  11
   4  -6  -4 0.88596 0.42004  16
   4  -6  -4 1.45516 0.71222   6
   4  -6  -4 0.93444 0.37903  12
   4   6  -4 2.09051 0.86933   3
   4   6  -4 0.93853 0.37236  12
   4   6  -4 1.35353 0.97129   4
   4   6  -4 0.61997 0.82706   2
   4   6  -4 0.79806 0.43437  10
   4   6  -4 1.38483 0.35951  11
   4   6  -4 0.92685 0.44447  18
   4   6  -4 0.36914 0.43347   9
   3  -6  -4 8.47735 0.68979  14
   3  -6  -4 8.19770 1.20675   6
   3  -6  -4 7.07016 1.01251  16
   3  -6  -4 8.12511 0.98582   7
   3  -6  -4 8.93982 0.81324  15
   3  -6  -4 9.11046 0.77122  13
   3  -6  -4 6.67352 0.67548  17
   3   6  -4 6.83368 0.84099  10
   3   6  -4 8.57937 1.46729   3
   3   6  -4 6.51031 0.81294   9
   3   6  -4 7.14452 1.45491   4
   3   6  -4 8.30298 0.63768   8
   3   6  -4 7.80903 0.81666  11
   3   6  -4 8.11207 1.38258   2
   2  -6  -4 351.788 17.6601   6
   2  -6  -4 364.149 17.5287   7
   2   6  -4 352.763 17.9203   3
   2   6  -4 358.560 17.7573   2
   2   6  -4 360.826 17.9548   4
   1  -6  -4 35.7612 2.33009   3
   1  -6  -4 36.7713 3.07579   1
   1  -6  -4 38.3926 2.99547   1
  -1  -6   4 44.8571 2.87489   3
   1  -6  -4 40.0790 2.23222   2
   1  -6  -4 40.7572 2.43444   3
   1  -6  -4 34.0593 2.27186   2
   1  -6  -4 42.5370 2.48041   6
   1  -6  -4 42.5369 2.37746   7
  -1  -6   4 40.6464 4.01690   1
  -1  -6   4 39.7408 2.46054   2
  -1  -6   4 40.8355 3.67117   1
   1   6  -4 41.7844 4.08323   1
   1   6  -4 41.4327 2.61341   2
   1   6  -4 36.3133 3.45624   1
   1   6  -4 42.8902 2.79024   3
   0  -6   4 403.581 22.4976   1
   0  -6  -4 450.657 20.8218   6
   0  -6   4 425.543 20.8654   2
   0  -6   4 421.488 22.1315   1
   0  -6   4 451.500 21.2079   3
   0  -6  -4 452.402 20.8464   2
   0  -6   4 416.360 20.6044   5
   0  -6  -4 474.402 21.0675   3
   0  -6  -4 428.836 21.9999   1
   0  -6  -4 373.337 22.0227   1
   0   6  -4 437.208 21.1333   3
   0   6  -4 425.444 22.6385   1
   0   6  -4 409.879 20.9741   2
   0   6   4 405.969 21.9055   1
   0   6  -4 413.705 22.1334   1
  -1  -6  -4 307.532 14.7544   2
  -1  -6  -4 302.863 16.2530   1
   1  -6   4 300.374 14.6528   2
  -1  -6  -4 267.636 16.3321   1
  -1  -6  -4 320.702 15.0418   3
   1  -6   4 292.473 15.8246   1
   1  -6   4 320.757 14.9195   3
  -1  -6  -4 297.619 14.5004   6
   1  -6   4 308.928 14.5079   5
  -1   6  -4 269.995 15.7818   1
   1   6   4 265.584 16.0088   1
   2  -6   4 655.778 32.4065   6
   2  -6   4 675.314 32.3170   5
   2  -6   4 660.376 32.6045   3
   2  -6   4 682.860 32.3704   2
   2   6   4 670.678 32.8919   3
   2   6   4 652.700 32.5780   2
   3  -6   4 304.847 14.4468   2
   3  -6   4 276.370 14.1130  12
   3  -6   4 278.910 14.1337  13
   3  -6   4 289.486 14.1770  14
   3  -6   4 297.918 14.0811  10
   3  -6   4 310.710 14.7159   3
   3  -6   4 282.922 14.5027   6
   3  -6   4 299.472 14.5607   5
   3  -6   4 282.911 14.0488   9
   3   6   4 300.762 14.8326   2
   3   6   4 312.321 15.1642   3
   3   6   4 262.965 14.0853   8
   4  -6   4 37.2134 1.99008  10
   4  -6   4 38.3058 2.10732  12
   4  -6   4 34.8797 2.29724   3
   4  -6   4 36.9136 1.87628   9
   4  -6   4 37.9004 2.16957   2
   4  -6   4 38.9839 2.08183  13
   4  -6   4 39.4965 2.18552  14
   4  -6   4 37.7833 2.71264   5
   4   6   4 36.8302 2.13696  10
   4   6   4 36.4798 2.13175   9
   4   6   4 33.0602 2.05410  12
   4   6   4 39.0022 2.77640   5
   4   6   4 34.8366 3.07499   3
   4   6   4 35.5295 2.88224   2
   4   6   4 35.6266 1.98020   8
   5  -6   4 19.0611 1.43352  14
   5  -6   4 17.1214 1.06686  10
   5  -6   4 17.5586 1.32711  12
   5  -6   4 17.8196 1.37291  13
   5   6   4 16.0009 1.25193  12
   5   6   4 16.2538 1.41373  13
   5   6   4 16.9060 1.35534  10
   5   6   4 15.2575 1.28364   9
   6  -6   4 2.14713 0.41351  12
   6  -6   4 1.47079 0.43027  14
   6  -6   4 1.24966 0.59871  13
   6   6   4 1.83635 0.47808  10
   6   6   4 1.41603 0.58636  13
   6   6   4 1.61917 0.35286  12
   6  -7  -4 17.5221 1.18274  18
   6  -7  -4 16.4985 1.11495  11
   6  -7  -4 17.1251 1.20758  13
   6  -7  -4 18.5473 1.15382  12
   6   7  -4 21.4211 1.43087  12
   6   7  -4 18.8156 1.10896  10
   6   7  -4 19.1108 1.17426  11
   5  -7  -4 558.530 27.0302  17
   5  -7  -4 574.655 27.0115  11
   5  -7  -4 537.754 27.0329  18
   5  -7  -4 573.316 27.1901  16
   5  -7  -4 545.777 27.0118  12
   5  -7  -4 535.577 27.0532  14
   5  -7  -4 561.859 27.0454  13
   5  -7  -4 524.094 27.0465  15
   5   7  -4 586.970 26.9080   9
   5   7  -4 543.490 27.0157  11
   5   7  -4 556.118 27.0011  10
   5   7  -4 621.454 27.1265  12
   4  -7  -4 19.8140 1.39537  11
   4  -7  -4 24.3377 1.55886  15
   4  -7  -4 23.4019 1.50229  13
   4  -7  -4 25.3450 1.53578  14
   4  -7  -4 23.0790 1.76191  16
   4  -7  -4 22.5827 1.42500  12
   4  -7  -4 24.1695 1.41773  17
   4  -7  -4 19.9829 1.78921   6
   4  -7  -4 20.7073 1.48294  18
   4   7  -4 22.9838 2.01165   2
   4   7  -4 25.2047 1.50281  12
   4   7  -4 24.0505 2.41322   4
   4   7  -4 23.0585 2.22728   3
   4   7  -4 24.9582 1.53749  10
   4   7  -4 23.1413 1.45565   9
   4   7  -4 23.0325 1.41459  11
   3  -7  -4 48.7226 2.60643  16
   3  -7  -4 48.5523 3.02625   6
   3  -7  -4 48.8604 2.53012  15
   3  -7  -4 43.0124 2.78998   7
   3  -7  -4 40.8554 2.41581  12
   3  -7  -4 49.2017 2.53710  14
   3  -7  -4 46.7916 2.46331  13
   3  -7  -4 43.9179 2.48955  17
   3   7  -4 45.6100 2.52703  10
   3   7  -4 48.9977 3.17794   2
   3   7  -4 50.5853 3.51990   4
   3   7  -4 46.0671 2.49864  11
   3   7  -4 46.2206 2.40493   8
   3   7  -4 47.3681 2.51990   9
   3   7  -4 47.4695 3.34052   3
   2  -7  -4 1.91642 0.59607   7
   2  -7  -4 1.89844 0.75668   6
   2   7  -4 2.14107 0.91368   3
   2   7  -4 4.58389 1.12708   4
   2   7  -4 2.18329 0.91257   2
   1  -7  -4 1109.78 51.7730   7
  -1  -7   4 927.409 53.7774   1
   1  -7  -4 1063.60 53.0283   6
   1  -7  -4 1118.72 52.8524   2
   1  -7  -4 1088.26 53.7446   3
   1   7  -4 1110.48 52.2502   3
   1   7  -4 1063.64 53.8977   1
   1   7  -4 1104.19 52.0138   2
   0  -7  -4 238.391 11.1284   6
   0  -7  -4 210.219 12.3861   1
   0  -7   4 203.925 12.8923   1
   0  -7   4 224.255 11.1680   2
   0  -7   4 213.809 12.5279   1
   0  -7   4 225.587 11.5227   3
   0  -7  -4 234.912 11.3664   3
   0  -7  -4 243.900 11.1541   2
   0   7  -4 199.928 12.4501   1
  -1  -7  -4 450.192 21.7538   6
   1  -7   4 464.096 21.7536   5
   1  -7   4 451.094 21.9040   2
  -1  -7  -4 476.667 22.3186   3
  -1  -7  -4 418.699 23.5094   1
  -1  -7  -4 441.560 21.9793   2
   1  -7   4 483.934 22.2169   3
   1   7   4 386.309 23.3291   1
   2  -7   4 1618.29 78.2049   2
   2  -7   4 1606.41 77.8704   3
   2  -7   4 1585.29 77.5905   5
   2  -7   4 1576.46 77.9630   6
   2   7   4 1563.53 77.1368   3
   3  -7   4 16.1950 0.95806   9
   3  -7   4 16.5874 0.99852  10
   3  -7   4 18.2212 1.61203   5
   3  -7   4 16.4299 1.09619  12
   3  -7   4 17.2608 1.73087   3
   3  -7   4 15.1218 1.10033  15
   3  -7   4 17.3183 1.37873   2
   3  -7   4 15.7853 1.06194  14
   3  -7   4 14.9202 1.36495   6
   3  -7   4 15.6746 1.01636  13
   3   7   4 16.0533 2.10186   3
   3   7   4 14.1865 1.09064   8
   3   7   4 14.0378 1.82869   2
   4  -7   4 510.176 26.2896   3
   4  -7   4 585.817 26.4185  10
   4  -7   4 571.047 26.2004  13
   4  -7   4 536.407 26.0913   9
   4  -7   4 581.651 26.4544  14
   4  -7   4 572.360 26.1780  12
   4  -7   4 530.046 26.1892   2
   4  -7   4 544.655 26.7210   5
   4   7   4 553.323 26.8056   5
   4   7   4 547.497 26.3430   8
   4   7   4 541.103 26.2453  10
   4   7   4 495.442 26.1375  12
   4   7   4 527.731 26.1607   9
   4   7   4 518.078 26.9389   2
   4   7   4 509.462 27.2671   3
   5  -7   4 38.0146 2.17069  14
   5  -7   4 37.3357 2.12997  13
   5  -7   4 36.2328 2.07218  12
   5  -7   4 38.1468 1.91434  10
   5   7   4 33.2859 2.08226  12
   5   7   4 36.7061 2.15701  13
   5   7   4 38.3558 2.14514   9
   5   7   4 35.9436 2.20944  10
   6  -7   4 112.174 5.67467  12
   6  -7   4 118.460 5.75104  13
   6  -7   4 111.373 5.71901  14
   6   7   4 112.066 5.67234  10
   6   7   4 115.948 5.72213  13
   6  -8  -4 0.07283 0.40133  14
   6  -8  -4 0.77235 0.47004  13
   6  -8  -4 1.00422 0.40784  12
   6   8  -4 0.49933 0.38374  12
   6   8  -4 -0.0716 0.32815  10
   6   8  -4 0.46613 0.43804  11
   5  -8  -4 1.41059 0.58827  14
   5  -8  -4 2.01235 0.45713  13
   5  -8  -4 1.40434 0.46175  17
   5  -8  -4 0.53895 0.67972  16
   5  -8  -4 1.51822 0.34782  11
   5  -8  -4 0.94466 0.39685  18
   5  -8  -4 1.60292 0.57462  15
   5  -8  -4 1.68408 0.47610  12
   5   8  -4 1.90625 0.51863   9
   5   8  -4 0.91683 0.46819  12
   5   8  -4 0.22779 0.55561  11
   4  -8  -4 91.4527 4.72985  15
   4  -8  -4 99.2675 4.77019  14
   4  -8  -4 84.0176 4.64921  12
   4  -8  -4 86.8476 4.64901  17
   4  -8  -4 93.9360 4.69755  13
   4  -8  -4 82.6053 5.16694   6
   4  -8  -4 91.9798 4.84685  16
   4   8  -4 93.6980 4.66560  11
   4   8  -4 95.4481 4.68890   9
   4   8  -4 95.1032 4.50009   8
   4   8  -4 90.5145 5.72975   4
   4   8  -4 96.5289 4.73705  10
   4   8  -4 99.8171 4.75097  12
   4   8  -4 91.0177 5.57717   3
   4   8  -4 89.8618 5.30824   2
   3  -8  -4 8.87266 0.76432  12
   3  -8  -4 10.2378 0.79454  13
   3  -8  -4 9.64145 0.93182  16
   3  -8  -4 8.46250 0.49505  10
   3  -8  -4 10.1441 0.90849  15
   3  -8  -4 10.2636 0.80501  14
   3  -8  -4 8.82164 0.87538  17
   3  -8  -4 12.5380 1.27606   6
   3   8  -4 8.84541 1.55593   4
   3   8  -4 9.41633 1.54226   3
   3   8  -4 9.51344 0.89603  11
   3   8  -4 9.86192 1.64103   2
   3   8  -4 9.77654 0.82314   8
   3   8  -4 10.8443 0.99149   9
   3   8  -4 9.23017 0.98191  10
   2  -8  -4 689.449 31.5506  16
   2  -8  -4 616.582 31.4474  15
   2  -8  -4 672.505 31.7257  14
   2  -8  -4 633.383 31.6250   7
   2  -8  -4 658.364 31.8671   6
   2   8  -4 629.602 32.2384   3
   2   8  -4 671.124 32.1767   4
   2   8  -4 643.403 32.0379   2
   1  -8  -4 248.624 11.8444   6
   1  -8  -4 235.916 11.6120   2
   1  -8  -4 245.133 11.6922   7
   1  -8  -4 234.648 11.8125   3
   1   8  -4 220.369 12.1653   3
   1   8  -4 220.557 11.9305   2
   0  -8  -4 193.364 9.27926   6
   0  -8  -4 190.953 9.28122   2
   0  -8   4 187.702 9.74063   3
   0  -8  -4 192.637 9.56257   3
   0  -8   4 181.857 9.31654   2
   0  -8   4 164.178 10.7441   1
   0   8  -4 162.401 10.9164   1
   1  -8   4 77.7572 4.67609   3
  -1  -8  -4 80.7852 4.47380   2
  -1  -8  -4 77.1654 4.20982   6
   1  -8   4 79.9428 4.17798   5
   1  -8   4 78.3642 4.37035   2
  -1  -8  -4 80.3784 4.81838   3
   2  -8   4 75.7936 4.42630   3
   2  -8   4 75.7461 4.19495   6
   2  -8   4 66.6295 3.62155   8
   2  -8   4 78.4585 4.14403   2
   2  -8   4 80.1446 4.14421   5
   2  -8   4 69.2903 3.68029   9
   3  -8   4 53.0992 3.31833   6
   3  -8   4 52.6554 2.75027   9
   3  -8   4 56.7102 3.31052   5
   3  -8   4 53.7323 2.79206  10
   3  -8   4 56.3194 2.92615  14
   3  -8   4 51.8544 2.83969  13
   3  -8   4 55.7624 3.14414   2
   3  -8   4 57.5432 2.85536  12
   3  -8   4 52.3236 2.86705  15
   3  -8   4 56.8734 3.47388   3
   3   8   4 53.9100 2.85568   8
   4  -8   4 60.5040 3.90515   5
   4  -8   4 62.8657 3.16741  10
   4  -8   4 65.2651 3.39459  14
   4  -8   4 58.0185 3.26467  15
   4  -8   4 57.7677 2.98587   9
   4  -8   4 63.8161 3.32267  13
   4  -8   4 65.5964 3.25498  12
   4   8   4 52.0533 4.39706   3
   4   8   4 60.4406 4.21560   2
   4   8   4 64.7091 3.19274   8
   4   8   4 61.0498 3.97811   5
   4   8   4 64.6048 3.35065   9
   5  -8   4 145.937 7.15782  13
   5  -8   4 143.400 7.12272  12
   5  -8   4 144.808 6.96397  10
   5  -8   4 153.419 7.23331  14
   5   8   4 144.002 7.15392  10
   5   8   4 145.715 7.12805   9
   5   8   4 146.008 7.21195  13
   5   8   4 137.763 6.91434   8
   5   8   4 129.475 7.07670  12
   6  -8   4 47.4962 2.59323  14
   6  -8   4 45.6880 2.56774  13
   6   8   4 47.7885 2.41606   9
   6   8   4 49.2589 2.57757  13
   6   8   4 50.8414 2.59072  10
   6  -9  -4 73.6387 3.82851  13
   6  -9  -4 68.9748 3.81842  14
   6   9  -4 85.2870 3.94488  12
   6   9  -4 76.1460 3.77886  10
   5  -9  -4 137.899 7.22498  16
   5  -9  -4 131.919 7.04891  12
   5  -9  -4 142.681 7.14239  14
   5  -9  -4 143.347 7.10758  13
   5  -9  -4 138.473 7.12953  15
   5   9  -4 158.512 7.21148  12
   5   9  -4 135.485 7.05971  11
   5   9  -4 151.520 7.02905   9
   5   9  -4 146.777 7.09864  10
   4  -9  -4 28.0855 1.83982  15
   4  -9  -4 29.5819 1.82273  14
   4  -9  -4 28.6230 1.70502  13
   4  -9  -4 25.9133 2.29207   6
   4  -9  -4 28.2243 1.89428  16
   4  -9  -4 27.6762 1.74500  17
   4  -9  -4 26.3588 1.67323  12
   4   9  -4 30.7793 1.76962   9
   4   9  -4 28.9355 1.53396   8
   4   9  -4 29.0020 1.84284  10
   4   9  -4 26.4566 2.92242   4
   4   9  -4 28.9089 1.73502  11
   3  -9  -4 234.875 12.5046  12
   3  -9  -4 282.627 12.6334  14
   3  -9  -4 273.970 12.6120  15
   3  -9  -4 243.749 12.5479  17
   3  -9  -4 264.872 13.1915   6
   3  -9  -4 269.323 12.7230  16
   3  -9  -4 245.075 12.3890  10
   3  -9  -4 273.740 12.5969  13
   3   9  -4 258.166 12.5525  11
   3   9  -4 248.988 12.5757   9
   3   9  -4 258.713 13.3167   2
   3   9  -4 246.025 13.5871   3
   3   9  -4 267.239 12.5079   8
   3   9  -4 263.693 13.5924   4
   3   9  -4 234.887 12.5825  10
   2  -9  -4 17.2260 1.18186  17
   2  -9  -4 19.5649 1.03298   3
   2  -9  -4 18.1853 1.34080  16
   2  -9  -4 18.3882 1.49113   7
   2  -9  -4 16.3505 0.91342   9
   2  -9  -4 19.0806 1.25512  13
   2  -9  -4 17.6665 1.00642   2
   2  -9  -4 18.6005 1.23579  15
   2  -9  -4 18.7186 1.02943   3
   2  -9  -4 19.5790 1.00878   2
   2  -9  -4 20.4766 1.79378   6
   2   9  -4 17.0892 1.23418   8
   2   9  -4 21.6546 2.24389   4
   2   9  -4 17.8294 2.03436   2
   2   9  -4 17.3825 1.91818   3
   1  -9  -4 201.251 10.5203   6
   1  -9  -4 204.357 10.5302   3
   1  -9  -4 211.433 10.3454   2
   1  -9  -4 209.547 10.4044   7
   0  -9   4 70.5208 4.55095   3
   0  -9  -4 74.3417 4.15984   6
   0  -9   4 72.3020 4.24056   2
   0  -9  -4 75.4485 4.52345   3
   0  -9  -4 77.9694 4.18277   2
  -1  -9  -4 6.51139 1.02266   2
   1  -9   4 6.07648 1.05785   2
  -1  -9  -4 6.34889 1.30660   3
   1  -9   4 6.54034 1.15931   3
   1  -9   4 5.54792 0.86189   5
  -1  -9  -4 6.34461 0.88122   6
   1  -9   4 5.88371 0.90473   6
   2  -9   4 50.8826 2.60366  10
   2  -9   4 48.2711 2.65057  14
   2  -9   4 48.3176 2.50342   8
   2  -9   4 52.0704 3.05504   2
   2  -9   4 50.7849 3.17751   6
   2  -9   4 51.8375 3.03744   5
   2  -9   4 54.1779 3.41198   3
   2  -9   4 47.8250 2.58221   9
   3  -9   4 305.411 14.2720  12
   3  -9   4 296.425 14.3085  15
   3  -9   4 299.178 14.7713   5
   3  -9   4 299.211 14.1916  10
   3  -9   4 290.739 14.2577  13
   3  -9   4 287.541 14.1480   9
   3  -9   4 292.749 14.3121  14
   3  -9   4 286.950 14.5361   2
   3  -9   4 296.758 14.8138   3
   3  -9   4 286.361 14.8472   6
   3   9   4 282.596 14.2300   8
   4  -9   4 137.080 6.86159  13
   4  -9   4 147.461 6.96790  14
   4  -9   4 129.102 7.37707   5
   4  -9   4 128.233 6.84994  15
   4  -9   4 141.621 6.76116  10
   4  -9   4 143.818 6.88833  12
   4   9   4 143.376 6.79754   8
   4   9   4 127.494 7.43377   5
   4   9   4 137.015 6.90821   9
   5  -9   4 27.9959 1.44504  10
   5  -9   4 28.4434 1.76115  13
   5  -9   4 28.4276 1.74252  14
   5  -9   4 26.5390 1.65195  12
   5   9   4 27.6650 1.69812  13
   5   9   4 25.9803 1.68975  10
   5   9   4 28.3505 1.73535   9
   6  -9   4 95.3786 4.65129  14
   6  -9   4 89.1609 4.57956  13
   6   9   4 88.3405 4.55227  10
   6   9   4 92.1985 4.58551  13
   6 -10  -4 4.15556 0.50172  14
   6  10  -4 3.84654 0.58492  12
   6  10  -4 5.77101 0.66138  10
   5 -10  -4 728.179 37.0903  16
   5 -10  -4 748.903 36.9929  13
   5 -10  -4 793.095 37.1599  15
   5 -10  -4 707.942 37.2307  14
   5  10  -4 785.608 36.9892  10
   5  10  -4 811.351 36.9551   9
   5  10  -4 802.591 37.5533  12
   4 -10  -4 823.065 37.1783  14
   4 -10  -4 784.326 36.6850  13
   4 -10  -4 774.661 36.8424  15
   4 -10  -4 799.445 36.4887  16
   4 -10  -4 653.089 36.8499   6
   4 -10  -4 675.577 36.2305  12
   4  10  -4 821.125 36.2564   8
   4  10  -4 671.752 37.2590   4
   4  10  -4 790.313 36.2990   9
   4  10  -4 752.835 36.3158  10
   4  10  -4 738.348 36.2523  11
   3 -10  -4 74.7734 4.52936   6
   3 -10  -4 69.4740 3.80074  17
   3 -10  -4 79.6937 4.07012  16
   3 -10  -4 82.3199 3.93972  14
   3 -10  -4 81.1155 3.91125  13
   3 -10  -4 79.7214 3.88966  15
   3 -10  -4 72.8827 3.62458  10
   3  10  -4 66.8567 4.55086   2
   3  10  -4 72.0315 3.82924  11
   3  10  -4 67.2566 4.80375   3
   3  10  -4 70.2200 3.87394   9
   3  10  -4 76.4970 3.81209   8
   3  10  -4 73.5138 4.77320   4
  -2 -10   4 391.810 20.2286   6
   2 -10  -4 359.765 19.6615   9
   2 -10  -4 387.649 19.8081  17
   2 -10  -4 436.591 20.4818   6
   2 -10  -4 433.846 19.8689  13
   2 -10  -4 418.938 19.8670  15
   2 -10  -4 414.842 19.7556   3
   2 -10  -4 405.299 19.7102   2
   2 -10  -4 386.744 19.7242   3
   2 -10  -4 430.356 19.9669  16
   2 -10  -4 445.668 19.8973  14
   2 -10  -4 409.751 20.0437  10
   2  10  -4 439.973 20.7803   4
   2  10  -4 405.217 19.8155   8
   2  10  -4 381.406 20.6434   2
   2  10  -4 414.185 21.0102   3
   1 -10  -4 876.165 44.9031   9
   1 -10  -4 965.421 44.8068   7
   1 -10  -4 849.276 44.4193  17
   1 -10  -4 873.152 44.7722  15
   1 -10  -4 959.545 45.2990  14
   1 -10  -4 966.240 45.0053   3
   1 -10  -4 912.305 45.4563  16
   1 -10  -4 973.872 45.0016   6
   1 -10  -4 950.440 44.7541   2
   0 -10  -4 190.662 9.65447   9
   0 -10  -4 210.073 10.1733   6
   0 -10   4 189.449 10.6726   3
   0 -10   4 202.767 10.2131   6
   0 -10  -4 200.172 9.99775   7
   0 -10  -4 183.637 9.58200   8
   0 -10  -4 208.946 10.5420   3
   0 -10  -4 186.073 9.82195  16
   0 -10  -4 207.635 10.1604   2
   0 -10   4 204.958 10.2726   2
   1 -10   4 220.656 10.8620   6
  -1 -10  -4 220.969 10.9493   2
  -1 -10  -4 215.559 10.6586   6
  -1 -10  -4 203.253 10.2455   8
   1 -10   4 217.210 10.8326   2
   1 -10   4 193.896 10.2715   9
  -1 -10  -4 206.062 11.3726   3
   1 -10   4 223.109 11.2141   3
   1 -10   4 202.083 10.2201   8
   2 -10   4 554.679 27.2437   3
   2 -10   4 557.329 26.4305  10
   2 -10   4 577.031 26.8895   5
   2 -10   4 536.636 26.6010   9
   2 -10   4 576.939 26.9493   2
  -2 -10  -4 477.329 26.4244   8
   2 -10   4 574.177 27.1189   6
   2 -10   4 535.377 26.4825  14
   2 -10   4 552.142 26.4665   8
   3 -10   4 395.626 18.7476   9
   3 -10   4 385.406 19.1532   2
   3 -10   4 384.820 19.3623   5
   3 -10   4 410.107 18.8060  10
   3 -10   4 403.543 18.9353  15
   3 -10   4 371.595 18.8514  13
   3 -10   4 374.427 19.3875   3
   3 -10   4 401.363 18.9280  14
   3 -10   4 376.622 19.5298   6
   3  10   4 386.729 18.8497   8
   4 -10   4 255.600 12.3725  10
   4 -10   4 270.840 12.5904  14
   4 -10   4 260.334 12.5283  15
   4 -10   4 249.141 12.5025  13
   4  10   4 238.480 12.5134   9
   4  10   4 257.949 12.4236   8
   5 -10   4 147.849 7.80768  13
   5 -10   4 152.723 7.61137  10
   5 -10   4 168.571 7.92023  14
   5  10   4 159.835 7.84994  13
   5  10   4 159.977 7.81800   9
   5  10   4 159.482 7.62536   8
   6 -10   4 2.29395 0.42384  14
   6 -10   4 1.76519 0.36193  13
   6  10   4 2.69331 0.44778  10
   6  10   4 2.37024 0.38376  13
   6 -11  -4 38.3893 2.24376  14
   6  11  -4 44.6375 2.29020  12
   6  11  -4 47.7768 2.27261  10
   5 -11  -4 18.9016 1.26220  14
   5 -11  -4 19.4157 1.36828  13
   5 -11  -4 17.0869 1.52239  16
   5 -11  -4 18.6333 1.27830  15
   5  11  -4 19.3531 1.30646  12
   5  11  -4 17.9418 1.26851   9
   5  11  -4 18.5776 1.27386  10
   4 -11  -4 394.141 19.1226  13
   4 -11  -4 398.015 19.2745  16
   4 -11  -4 392.942 19.1534  15
   4 -11  -4 398.424 19.1561  14
   4  11  -4 373.939 19.1154  10
   4  11  -4 400.605 18.9398   8
   4  11  -4 395.995 19.0948   9
   3 -11  -4 -0.3917 0.86740   6
   3 -11  -4 1.75895 0.51763  14
   3 -11  -4 0.93091 0.42331  17
   3 -11  -4 0.78574 0.15727  10
   3 -11  -4 0.67124 0.56642  13
   3 -11  -4 1.61679 0.63864  16
   3 -11  -4 0.83876 0.37871  15
   3  11  -4 0.94497 0.62124   9
   3  11  -4 0.74348 0.83719   4
   3  11  -4 0.64881 1.08354   2
   3  11  -4 0.76182 0.42971  11
   3  11  -4 0.95647 1.12925   3
   3  11  -4 1.15795 0.47410   8
   2 -11  -4 49.4569 2.76862  16
   2 -11  -4 52.3045 2.44073  10
   2 -11  -4 47.4479 2.57036  15
   2 -11  -4 43.8510 2.54718  17
   2 -11  -4 48.7512 3.25399   6
   2 -11  -4 49.4985 2.63236  14
   2  11  -4 44.0992 2.60516   8
   2  11  -4 45.5352 3.52126   4
   1 -11  -4 1055.06 51.4759   7
   1 -11  -4 1097.65 51.9485  14
   1 -11  -4 1040.23 51.6603   9
  -1 -11   4 1101.01 51.6638   6
   1 -11  -4 1091.83 51.7235   6
   1 -11  -4 989.019 51.1617  17
   1 -11  -4 1084.19 52.4048  16
   1 -11  -4 1113.66 51.4776   2
   1 -11  -4 1040.05 51.7130   3
   1 -11  -4 1002.43 51.7537  15
   1  11  -4 1091.04 52.0548   4
   0 -11   4 269.058 13.9854   8
   0 -11  -4 304.498 14.9545   3
   0 -11  -4 310.282 14.4496   7
   0 -11  -4 302.152 14.5838   6
   0 -11   4 304.383 14.6466   6
   0 -11   4 281.491 14.6755   2
   0 -11  -4 300.657 14.5844   2
   0 -11  -4 278.070 13.9427   8
   0 -11  -4 289.985 14.1404  16
   0 -11  -4 276.701 14.0122   9
   0 -11   4 272.594 15.1363   3
   0 -11  -4 283.340 14.0277  10
   1 -11   4 13.9441 1.61185   2
  -1 -11  -4 13.1122 2.06202   3
   1 -11   4 13.9219 0.87172   8
   1 -11   4 11.9121 1.99909   3
   1 -11   4 13.4437 1.39815   6
  -1 -11  -4 11.1809 0.89828   9
   1 -11   4 12.9271 0.99018   9
   1 -11   4 12.6515 0.99023  10
  -1 -11  -4 12.8539 0.90056   8
  -1 -11  -4 13.2897 1.63844   2
   2 -11   4 74.5541 4.23111   2
   2 -11   4 70.8997 4.09268   5
   2 -11   4 76.6715 3.79138  15
   2 -11   4 69.5027 3.66970  10
   2 -11   4 71.9461 3.70463  14
   2 -11   4 70.1048 4.51252   3
   2 -11   4 74.7269 4.36967   6
  -2 -11  -4 66.9603 3.66863   8
   2 -11   4 73.0474 3.65273   9
   3 -11   4 98.2723 5.70254   5
   3 -11   4 102.310 5.21815  13
   3 -11   4 111.280 5.29743  14
   3 -11   4 111.404 5.33951  15
   3 -11   4 102.747 5.10101   9
   3 -11   4 99.6248 5.95478   6
   3 -11   4 106.719 5.17871  10
   3 -11   4 95.3252 5.45435   2
   3  11   4 103.840 5.22052   8
   4 -11   4 215.840 10.6562  13
   4 -11   4 217.914 10.5266  10
   4 -11   4 222.211 10.6955  15
   4 -11   4 221.641 10.7342  14
   4  11   4 222.845 10.5912   8
   4  11   4 200.601 10.6825   9
   5 -11   4 23.1903 1.45159  13
   5 -11   4 24.8389 1.52577  14
   5  11   4 24.9639 1.49062  13
   5  11   4 23.7468 1.25556   8
   5  11   4 24.0214 1.58657   9
   6 -11   4 6.47457 0.64034  14
   6  11   4 7.38276 0.60523  10
   6  11   4 6.61025 0.56797  13
   6  11   4 7.22859 0.51196   9
   5 -12  -4 25.9406 1.53406  14
   5 -12  -4 25.9048 1.55206  15
   5 -12  -4 21.7649 1.57817  16
   5  12  -4 26.0315 1.54982  10
   5  12  -4 25.5923 1.51284   9
   5  12  -4 26.6036 1.56700  12
   4 -12  -4 76.5639 4.04748  15
   4 -12  -4 79.2066 4.10482  14
   4 -12  -4 75.7777 4.26559  16
   4  12  -4 80.9030 3.87825   8
   4  12  -4 73.6941 4.09224  10
   4  12  -4 78.1547 4.01412   9
   3 -12  -4 21.5239 1.15038  10
   3 -12  -4 23.2400 1.46698  14
   3 -12  -4 20.2931 1.96040   6
   3 -12  -4 24.0442 1.78931  16
   3 -12  -4 24.0125 1.56089  15
   3  12  -4 22.9797 1.50623   8
   3  12  -4 17.8765 2.41357   4
   3  12  -4 21.5945 1.71684   9
   2 -12  -4 49.9253 2.62258  14
   2 -12  -4 48.4279 2.64343  15
   2 -12  -4 50.3209 2.46332  10
   2 -12  -4 46.2657 3.19752   6
   2 -12  -4 43.1237 2.56412  17
   2 -12  -4 51.3598 2.83663  16
   2  12  -4 45.5802 2.66093   8
   1 -12  -4 170.803 8.40753   9
  -1 -12   4 153.433 8.44846   8
  -1 -12   4 178.642 9.08613   6
   1 -12  -4 186.821 8.67070  16
   1 -12  -4 161.041 9.16295   3
   1 -12  -4 165.684 8.48872  17
   1 -12  -4 182.172 8.54218  14
   1 -12  -4 168.906 8.50541  15
   1 -12  -4 176.638 9.16453   6
   1 -12  -4 181.436 8.89701   2
   1 -12  -4 171.550 8.43164  10
   1  12  -4 174.010 9.47946   4
   0 -12  -4 314.522 15.6009   6
   0 -12   4 314.545 15.7323   2
   0 -12  -4 306.632 14.9905   9
   0 -12  -4 308.357 14.9073   8
   0 -12   4 285.977 15.0166   9
   0 -12  -4 312.501 15.1282  16
   0 -12   4 332.116 15.6833   6
   0 -12   4 305.317 16.2941   3
   0 -12  -4 319.382 15.6154   2
   0 -12  -4 317.276 15.4380   7
   0 -12   4 302.295 14.9668   8
   0 -12  -4 300.440 15.9430   3
   0 -12  -4 302.699 15.0061  10
   1 -12   4 53.1519 3.47113   2
  -1 -12  -4 51.6214 2.79677   9
   1 -12   4 53.4575 2.78396  10
  -1 -12  -4 47.8632 3.74364   3
  -1 -12  -4 53.2997 3.55121   2
   1 -12   4 46.5252 3.76647   3
   1 -12   4 51.6509 2.76395   9
   1 -12   4 52.6708 3.39291   6
   1 -12   4 53.0328 2.66499   8
  -1 -12  -4 53.0588 2.67312   8
   2 -12   4 68.5319 3.45259  10
   2 -12   4 68.3242 4.00444   2
   2 -12   4 63.3708 3.49210  14
  -2 -12  -4 69.6461 3.43069   8
   2 -12   4 69.8421 3.53294  15
   2 -12   4 63.2947 3.23712   8
   2 -12   4 66.8956 4.28487   6
   2 -12   4 69.0354 3.42220   9
   2 -12   4 60.9281 4.26337   3
   3 -12   4 125.780 6.62413  13
   3 -12   4 118.686 7.28688   6
   3 -12   4 131.696 6.49621   9
   3 -12   4 141.873 6.72443  15
   3 -12   4 137.267 6.58736  10
   3 -12   4 137.798 6.71979  14
   3  12   4 137.284 6.68111   8
   4 -12   4 2.53321 0.58311  14
   4 -12   4 2.79251 0.57066  13
   4 -12   4 2.96415 0.59075  15
   4 -12   4 2.28867 0.34958  10
   4  12   4 2.23446 0.52729   8
   4  12   4 1.89001 0.64096   9
   5 -12   4 4.75456 0.58255  13
   5 -12   4 3.98036 0.64283  14
   5  12   4 3.91410 0.31257   8
   5  12   4 4.01664 0.66316   9
   5  12   4 4.34393 0.76504  13
   5 -13  -4 66.4222 3.77114  15
   5 -13  -4 68.9450 3.77658  14
   5  13  -4 75.8276 3.84534  10
   5  13  -4 79.4442 3.84467  12
   5  13  -4 78.7325 3.72425   9
   4 -13  -4 0.64920 0.50320  16
   4 -13  -4 1.13014 0.43177  14
   4 -13  -4 1.12016 0.57963  15
   4  13  -4 0.87375 0.45975   9
   4  13  -4 1.65997 0.36067   8
   3 -13  -4 6.03250 0.94049  14
   3 -13  -4 4.93872 0.39109  10
   3 -13  -4 5.64379 0.73464  15
   3 -13  -4 4.99713 0.93620  16
   3  13  -4 4.69326 0.67401   8
   2 -13  -4 26.0215 1.63262  14
   2 -13  -4 25.4286 1.52557  15
   2 -13  -4 26.6094 1.71420  16
   2 -13  -4 23.5058 1.37529  10
   2 -13  -4 21.7191 2.21974   6
   2  13  -4 22.1910 1.66510   8
   1 -13  -4 49.0483 2.79625  16
   1 -13  -4 47.3211 2.93130   2
  -1 -13   4 47.2101 2.50195   8
   1 -13  -4 47.4160 2.60858  14
   1 -13  -4 48.1992 2.50744  10
  -1 -13   4 45.9209 3.07197   6
   1 -13  -4 47.1682 2.57753  15
   1 -13  -4 48.8722 2.45862   9
   1 -13  -4 43.5617 2.54952  17
   1 -13  -4 47.5001 3.28888   6
   0 -13  -4 159.773 7.67764  16
   0 -13   4 137.737 8.20849   2
   0 -13   4 141.204 7.51820   9
   0 -13   4 161.403 7.46648   8
   0 -13  -4 157.326 7.50468  10
   0 -13  -4 146.163 8.51776   3
   0 -13  -4 161.692 7.39396   8
   0 -13   4 128.923 8.70882   3
   0 -13  -4 151.734 8.10402   6
   0 -13   4 158.494 8.25194   6
   0 -13  -4 150.842 7.95093   7
   0 -13  -4 155.858 7.49027   9
   0 -13  -4 155.604 8.16444   2
  -1 -13  -4 1297.30 61.1010  16
  -1 -13  -4 1118.89 60.7767   3
   1 -13   4 1245.51 60.4286   9
  -1 -13  -4 1283.59 60.3621   8
  -1 -13  -4 1204.30 60.3987   2
   1 -13   4 1213.98 60.7112   3
   1 -13   4 1273.73 60.3931   6
   1 -13   4 1234.37 60.1586  10
   1 -13   4 1261.46 61.0291  15
   1 -13   4 1247.76 60.2696   2
  -1 -13  -4 1270.90 60.4707   9
   2 -13   4 1012.75 46.0975   9
   2 -13   4 918.797 45.5286  14
   2 -13   4 971.419 45.9388  10
   2 -13   4 954.600 46.3873   6
   2 -13   4 981.902 46.5513  15
  -2 -13  -4 937.477 46.1043   8
   2 -13   4 849.849 46.0062   2
   3 -13   4 112.520 5.49458  15
   3 -13   4 107.557 5.32606  10
   3 -13   4 108.285 5.20671   9
   3 -13   4 109.377 5.43994  14
  -3 -13  -4 101.531 5.35296   8
   3 -13   4 99.1877 5.34331  13
   3  13   4 108.022 5.42399   8
   4 -13   4 43.5391 2.24327  10
   4 -13   4 48.0870 2.50801  15
   4 -13   4 41.6581 2.40917  13
   4 -13   4 42.9289 2.41804  14
   4  13   4 42.2236 2.32459   8
   5 -13   4 1.71771 0.51485  14
   5 -13   4 1.07041 0.33932  13
   5  13   4 1.34910 0.36459  13
   5  13   4 0.96943 0.48042   9
   5 -14  -4 11.8099 0.81647  14
   5 -14  -4 7.75700 0.78582  15
   5  14  -4 9.90772 0.69541   9
   5  14  -4 8.79936 0.84418  10
   5  14  -4 10.3735 0.82395  12
   4 -14  -4 20.4997 1.45726  15
   4 -14  -4 20.2590 1.40854  14
   4 -14  -4 20.3732 1.70267  16
   4  14  -4 16.7597 1.09018   8
   4  14  -4 18.0658 1.53079   9
   4  14  -4 17.7149 1.45556  12
   3 -14  -4 0.85092 0.68087  16
   3 -14  -4 0.25339 0.37469  15
   3 -14  -4 0.72755 0.12670  10
   3 -14  -4 1.40776 0.43996  14
   3  14  -4 1.07355 0.42778   8
   2 -14  -4 7.62484 0.77595  10
   2 -14  -4 9.66190 0.85541  14
   2 -14  -4 9.71578 1.29524  16
   2 -14  -4 8.81894 0.83721  15
   2  14  -4 8.02519 0.93854   8
   1 -14  -4 64.1660 3.21315  10
  -1 -14   4 53.8546 3.83229   6
  -1 -14   4 61.8105 3.22660   8
   1 -14  -4 63.1394 3.30019  14
   1 -14  -4 63.1569 3.17099   9
   1 -14  -4 60.9409 3.27010  15
   1 -14  -4 65.9651 3.52937  16
   1 -14  -4 59.6275 4.01326   6
   0 -14   4 6.48542 0.90595   9
   0 -14  -4 5.20679 0.50870   8
   0 -14  -4 6.51083 1.15907   2
   0 -14   4 6.61776 1.35650   2
   0 -14   4 4.67379 0.80546  15
   0 -14   4 5.01476 1.14270   6
   0 -14   4 5.59268 0.72975   8
   0 -14  -4 6.60779 0.79092   9
   0 -14  -4 5.63826 1.09699  16
   0 -14   4 4.98997 1.36064   3
   0 -14  -4 5.70981 0.81037  10
   0 -14  -4 5.89740 1.12298   6
  -1 -14  -4 197.544 10.0332   9
   1 -14   4 205.164 10.0223  10
   1 -14   4 211.647 9.88414   8
  -1 -14  -4 205.730 10.1291  16
   1 -14   4 196.144 10.7875   6
   1 -14   4 212.412 10.0125   9
  -1 -14  -4 207.122 9.93871   8
  -1 -14  -4 183.101 10.4062   7
   1 -14   4 212.535 10.0777  15
  -2 -14  -4 618.611 30.8854   8
   2 -14   4 655.197 30.7213  10
   2 -14   4 622.283 30.6693   9
   2 -14   4 654.025 31.4413  15
   3 -14   4 0.80636 0.45113  14
  -3 -14  -4 0.80010 0.49118   8
   3 -14   4 1.02168 0.42418  15
   3 -14   4 0.94743 0.38157  10
   3 -14   4 0.82466 0.18153   9
   3  14   4 0.61135 0.40833   8
   4 -14   4 12.4176 0.75012  10
   4 -14   4 10.2300 0.95596  15
   4 -14   4 11.9332 0.93590  14
   4 -14   4 10.8850 0.98975  13
   4  14   4 13.4197 1.05849   8
   5 -14   4 9.97038 0.75556  14
   5  14   4 9.42864 0.77961   9
   5  14   4 9.18582 0.77728  13
   5 -15  -4 152.982 7.23500  15
   5  15  -4 144.731 7.21498  12
   5  15  -4 144.786 7.13921   9
   4 -15  -4 34.6902 1.96335  15
   4 -15  -4 32.4413 1.98705  16
   4 -15  -4 31.3288 1.82400  14
   4  15  -4 29.9479 1.61834   8
   4  15  -4 31.5277 1.95812  12
   4  15  -4 31.2328 1.87711   9
   3 -15  -4 31.6472 2.01388  16
   3 -15  -4 29.2585 1.89181  14
   3 -15  -4 30.1779 1.82650  15
   3  15  -4 31.8006 1.89669   8
  -2 -15   4 94.9631 4.91390   8
   2 -15  -4 97.9087 4.81766  10
   2 -15  -4 99.2281 4.94888  15
   2 -15  -4 95.5675 4.94720  14
   2 -15  -4 103.561 5.14257  16
   2  15  -4 90.8971 4.99580   8
   1 -15  -4 153.398 7.75222  16
  -1 -15   4 145.784 7.46933   8
   1 -15  -4 154.621 7.42698   9
   1 -15  -4 160.806 7.49898  10
   1 -15  -4 144.428 7.51328  15
   0 -15   4 6.90600 1.29096   6
   0 -15   4 7.97307 0.75302   8
   0 -15  -4 6.46235 0.70202  17
   0 -15   4 8.03014 0.75523  15
   0 -15  -4 6.83499 0.87739   9
   0 -15   4 7.54490 0.99076   9
   0 -15  -4 9.24439 0.90549  10
   0 -15  -4 8.03547 1.18082  16
   0 -15  -4 6.93847 0.53035   8
   1 -15   4 443.925 23.1380  10
  -1 -15  -4 491.111 23.1843   9
  -1 -15  -4 495.920 23.1360   8
   1 -15   4 471.005 23.1320   9
   1 -15   4 485.806 23.2148  15
   1 -15   4 490.543 23.0600   8
  -1 -15  -4 472.743 23.2745  16
   2 -15   4 624.473 29.6035  15
   2 -15   4 607.148 29.0211  10
   2 -15   4 607.362 29.1584   9
  -2 -15  -4 564.671 29.0127  16
  -2 -15  -4 596.054 29.0900   8
   3 -15   4 2.95741 0.49406  10
   3 -15   4 2.29631 0.63496  15
   3 -15   4 1.65515 0.48736  14
   3  15   4 2.33443 0.46893   8
   4 -15   4 90.1640 4.54483  15
  -4 -15  -4 90.5962 4.50416   8
   4 -15   4 88.1644 4.51317  14
   4 -15   4 87.5334 4.34279  10
   4  15   4 90.3952 4.46372   8
   5 -15   4 8.99729 0.65148  14
   4 -16  -4 35.7806 2.00767  15
   4 -16  -4 34.0985 2.10382  16
   4 -16  -4 35.9888 1.98426  14
   4  16  -4 37.8854 2.10227  12
   4  16  -4 37.8154 2.13826   9
   3 -16  -4 9.89040 0.89547  15
   3 -16  -4 9.94408 1.12173  16
   3 -16  -4 8.82666 0.99864  14
   3  16  -4 10.7131 1.15093   8
   2 -16  -4 8.30846 1.06706  16
   2 -16  -4 6.10900 0.93073  15
   2 -16  -4 7.27807 0.65962  10
  -2 -16   4 8.41763 0.94021   8
   2  16  -4 6.41215 0.82461   8
  -1 -16   4 75.6493 3.80335   8
   1 -16  -4 75.1870 3.71516   9
   1 -16  -4 73.0357 4.08380  16
   1 -16  -4 71.9654 3.78972  10
   0 -16   4 109.680 5.67961   9
   0 -16   4 106.824 5.70543  15
   0 -16  -4 119.004 5.85032  16
   0 -16  -4 113.516 5.65273   9
   0 -16  -4 113.323 5.67454  10
   0 -16   4 115.685 5.58873   8
  -1 -16  -4 24.7273 1.37092   8
   1 -16   4 27.2191 1.55359  15
   1 -16   4 22.9177 1.56766  10
  -1 -16  -4 24.9137 1.63609   9
   1 -16   4 22.6840 1.20292   8
   1 -16   4 23.5816 1.54575   9
  -1 -16  -4 23.8570 1.75181  16
   1 -16   4 21.8093 1.61187  16
  -2 -16  -4 73.3189 3.72023   8
  -2 -16  -4 66.2990 3.85781   9
   2 -16   4 77.9715 3.77673  10
   2 -16   4 74.2423 3.66664   9
   2 -16   4 77.2607 3.83886  15
  -2 -16  -4 68.2350 3.83616  16
   3 -16   4 53.0700 2.77333  10
   3 -16   4 54.2760 2.90100  15
  -3 -16  -4 55.6459 2.86898   8
   3  16   4 52.7362 2.84404   8
   4 -16   4 15.7374 1.05211  14
   4 -16   4 17.8817 1.13465  15
  -4 -16  -4 17.3959 1.10215   8
   4  16   4 17.3894 1.03419   8
   4 -17  -4 9.67044 0.80000  16
   4 -17  -4 7.60118 0.77057  15
   4  17  -4 8.99587 0.77153  12
   4  17  -4 8.87741 0.78148   9
   3 -17  -4 4.76931 0.89005  16
  -3 -17   4 4.70208 0.64825   8
   3 -17  -4 4.62181 0.64819  15
   3  17  -4 3.51071 0.58291   8
   2 -17  -4 227.942 11.6991  15
   2 -17  -4 253.419 11.9266  16
  -2 -17   4 245.321 11.6772   8
   2 -17  -4 229.094 11.5870  10
   2  17  -4 242.631 11.7302   8
   1 -17  -4 29.7371 1.92646  16
   1 -17  -4 29.6832 1.54829   9
  -1 -17   4 30.7147 1.89618   9
  -1 -17   4 31.0730 1.72278   8
   1 -17  -4 27.8272 1.72544  10
   0 -17  -4 72.1162 3.73246  10
   0 -17   4 69.9249 3.57087   8
   0 -17  -4 72.9955 3.67180   9
   0 -17   4 71.3641 3.76374   9
   0 -17   4 69.2766 3.73048  15
   0 -17  -4 74.1650 3.93712  16
  -1 -17  -4 28.1260 1.49624   8
   1 -17   4 28.6091 1.73495  10
   1 -17   4 28.3481 1.77383  15
   1 -17   4 25.1915 1.77551  16
  -1 -17  -4 28.9618 1.77839   9
   1 -17   4 27.0878 1.69229   9
  -1 -17  -4 30.7799 1.94738  16
   2 -17   4 64.0378 3.20718   9
  -2 -17  -4 60.0598 3.35675   9
  -2 -17  -4 64.7340 3.26264   8
   2 -17   4 66.7444 3.33678  10
  -2 -17  -4 62.3826 3.45984  16
   2 -17   4 67.1791 3.39458  15
   3 -17   4 5.03121 0.69326  15
  -3 -17  -4 4.86229 0.76491   8
   3 -17   4 4.53890 0.58274  10
   3  17   4 3.42579 0.48013   8
  -4 -17  -4 4.97284 0.66761   8
   4 -17   4 3.67009 0.52188  15
   4  17   4 4.20474 0.52081   8
  -3 -18   4 21.0653 1.22334   8
   3 -18  -4 19.9424 1.23590  15
   3  18  -4 20.7294 1.18801   8
   2 -18  -4 299.532 14.4702  10
   2 -18  -4 319.658 14.7453  16
   2 -18  -4 293.517 14.5751  15
  -2 -18   4 310.610 14.5521   8
   2  18  -4 279.448 14.5865   8
   1 -18  -4 23.3733 1.56405  16
   1 -18  -4 23.6107 1.36440  10
  -1 -18   4 21.2538 1.32781   8
  -1 -18   4 20.3300 1.40633   9
   0 -18   4 66.1615 3.23932   9
   0 -18  -4 63.0561 3.11975   9
   0 -18  -4 59.6339 3.30798  16
   0 -18   4 57.0744 3.24182  16
   0 -18   4 57.8230 2.97635   8
   0 -18   4 56.1461 3.16701  15
   0 -18  -4 65.3878 3.20994  10
   1 -18   4 40.0858 2.09589   9
   1 -18   4 39.1689 2.13336  15
  -1 -18  -4 37.4825 2.10352   9
  -1 -18  -4 38.9676 2.23462  16
   1 -18   4 36.1684 2.09114  10
   2 -18   4 62.0905 3.07326  10
  -2 -18  -4 61.9572 3.20509   9
   2 -18   4 60.4036 3.15789  15
  -2 -18  -4 56.1414 2.94737   8
  -2 -18  -4 57.5985 3.13186  16
   3 -18   4 65.3763 3.18462  15
  -3 -18  -4 57.8571 3.01709   8
   3 -18   4 59.6742 3.00020  10
   3  18   4 60.4451 3.08760   8
   3  19  -4 276.930 13.3218   8
   2 -19  -4 54.9693 2.93243  10
  -2 -19   4 64.7826 3.04331   8
   2  19  -4 62.6973 3.12446   8
  -1 -19   4 127.396 6.26070   8
  -1 -19   4 126.290 6.39193   9
   1 -19  -4 138.765 6.52967  16
   1 -19  -4 123.389 6.30885  10
   0 -19   4 166.355 7.72553   9
   0 -19  -4 158.465 7.82110  16
   0 -19   4 145.073 7.77977  16
   0 -19  -4 156.055 7.61061   9
   0 -19  -4 158.009 7.71444  10
   1 -19   4 1.54427 0.32982   9
  -1 -19  -4 0.75145 0.37925  16
  -1 -19  -4 0.39785 0.43334  10
  -1 -19  -4 0.55927 0.43372   9
   2 -19   4 16.1091 1.01569  15
  -2 -19  -4 15.3724 1.04764   9
   2 -19   4 15.2823 0.93070  10
  -2 -19  -4 14.7134 1.13572  16
  -2 -20   4 52.1988 2.53800   8
   2 -20  -4 52.3518 2.73071  16
  -2 -20   4 53.0947 2.71123  16
   2  20  -4 49.6939 2.63691   8
  -1 -20   4 5.56691 0.67005  16
   1 -20  -4 7.15259 0.50544  10
  -1 -20   4 5.73531 0.66248   9
   1 -20  -4 7.53180 0.83761  16
   0 -20  -4 92.8745 4.62098  16
   0 -20  -4 88.4253 4.49525  10
   0 -20   4 90.6709 4.47553   9
   1 -20   4 5.29140 0.69284  10
  -1 -20  -4 4.16383 0.62892  16
  -1 -20  -4 5.11511 0.47593   9
   7   0  -5 0.00533 0.45035  11
   7   0  -5 -0.0070 0.26688  12
   6   0  -5 -0.4237 0.41159  18
   6   0  -5 -0.0755 0.35531  11
   6   0  -5 0.35446 0.34949  12
   5   0  -5 0.62669 0.59069  18
   5   0  -5 0.42441 0.46974  17
   5   0  -5 1.47060 0.38815  12
   5   0  -5 1.80642 0.97545   4
   5   0  -5 0.35787 0.38356  11
   4   0  -5 0.21921 0.20308  10
   4   0  -5 0.02281 0.41994  18
   4   0  -5 0.17043 0.78861   7
   4   0  -5 1.30952 0.56018  16
   4   0  -5 0.00475 0.27199  11
   4   0  -5 -0.2527 0.43487  17
   4   0  -5 0.82131 0.27486  12
   4   0  -5 0.94130 0.98559   4
   3   0  -5 0.36718 0.33084   3
   3   0  -5 0.15353 0.26382   2
   3   0  -5 0.17440 0.22694   2
   3   0  -5 0.18552 0.30054   3
   3   0  -5 0.54189 0.77601   4
   3   0  -5 0.70396 0.62780   7
   2   0  -5 0.67674 0.66827   1
   2   0  -5 0.38228 0.32414   2
   2   0  -5 1.35907 0.48951   7
   2   0  -5 0.17469 0.60715   4
   2   0  -5 0.91921 0.42886   3
   1   0  -5 1.39289 0.50580   7
  -1   0   5 -0.0716 0.76976   1
   1   0  -5 1.75625 1.16512   1
   1   0  -5 1.26851 0.48439   3
   1   0  -5 0.22172 0.50300   3
   1   0  -5 0.36825 0.33073   2
   1   0  -5 0.38344 0.68824   1
  -1   0   5 0.49975 0.84572   1
   0   0  -5 0.65618 0.64870   3
   0   0  -5 1.08086 0.94257   1
   0   0   5 0.29568 0.93953   1
   0   0   5 0.88303 0.92226   1
   0   0   5 -0.0288 0.56151   3
   0   0  -5 0.11262 1.07209   1
   0   0  -5 -0.1114 0.51802   2
   0   0  -5 -0.2614 0.38273   7
   0   0   5 0.55759 0.42429   2
   1   0   5 0.29500 0.26186   5
   1   0   5 1.34389 1.01896   1
   1   0   5 0.12610 0.64225   3
  -1   0  -5 -0.1706 1.01412   1
   1   0   5 1.26386 0.52733   2
  -1   0  -5 0.87060 1.23684   1
   1   0   5 0.26247 0.91548   1
  -1   0  -5 0.19121 0.58142   2
  -1   0  -5 -0.0315 0.69527   3
  -1   0  -5 0.10794 0.31894   7
   2   0   5 -0.3316 0.44081   5
   2   0   5 -0.2826 0.66735   3
   2   0   5 2.02769 1.18099   1
   2   0   5 2.16150 0.65083   2
  -2   0  -5 -0.0713 1.13625   1
   3   0   5 0.44634 0.70541   2
   3   0   5 0.34941 0.75579   3
   3   0   5 0.10100 0.59356   5
   4   0   5 -0.4257 0.40657  13
   4   0   5 -1.2813 0.75741   3
   4   0   5 0.03630 0.85204   2
   4   0   5 -0.1737 0.34631  10
   4   0   5 0.21231 0.86929   5
   5   0   5 0.47349 0.42659  14
   5   0   5 0.00322 0.36462  10
   5   0   5 -0.2356 0.34236   9
   5   0   5 -0.1922 0.41341  12
   5   0   5 0.34089 0.92699   5
   5   0   5 0.50432 0.51988  13
   6   0   5 -0.2111 0.36323  13
   6   0   5 -0.1900 0.29530  10
   6   0   5 -0.1479 0.26514  12
   7   0   5 0.25471 0.30844  13
   7   1  -5 130.556 6.41059  11
   6  -1  -5 48.1484 2.66818  12
   6  -1  -5 52.8059 2.78163  11
   6  -1  -5 48.4927 2.74087  18
   6   1  -5 49.2542 2.74079  18
   6   1  -5 52.0258 2.78393  11
   6   1  -5 50.2816 2.75871  12
   5  -1  -5 884.197 42.2677  18
   5  -1  -5 765.641 42.8634   4
   5  -1  -5 847.640 42.0615  12
   5  -1  -5 890.637 41.9995  17
   5  -1  -5 913.001 41.9991  11
   5   1  -5 822.891 41.9711  10
   5   1  -5 958.432 42.0258  17
   5   1  -5 909.763 42.5559  11
   5   1  -5 883.313 42.0124  18
   5   1  -5 879.693 42.1866  12
   5   1  -5 837.726 43.0348   4
   4  -1  -5 320.915 15.0665  16
   4  -1  -5 310.008 14.8898  11
   4  -1  -5 279.253 14.8866  15
   4  -1  -5 318.933 15.3967   7
   4  -1  -5 293.211 14.7353  10
   4  -1  -5 313.000 14.9154  18
   4  -1  -5 282.973 14.8559  12
   4  -1  -5 311.292 14.9172  17
   4  -1  -5 303.719 15.6786   4
   4   1  -5 309.351 15.7562   4
   4   1  -5 306.908 14.9000  18
   4   1  -5 285.265 14.8630  12
   4   1  -5 320.211 14.9137  11
   4   1  -5 319.035 15.0564  16
   4   1  -5 302.252 14.7767  10
   4   1  -5 330.622 14.9122  17
   3  -1  -5 9.14900 1.18396   7
   3  -1  -5 8.04495 1.11722   4
   3   1  -5 8.86144 1.02014   7
   3   1  -5 9.89469 0.92714   3
   3   1  -5 8.11484 0.83379   2
   3   1  -5 8.45060 1.46334   4
   2  -1  -5 81.1534 4.23247   3
   2  -1  -5 73.6242 4.66211   1
   2  -1  -5 81.9865 4.22062   3
   2  -1  -5 78.4834 4.42077   4
   2  -1  -5 72.0833 4.07520   2
   2  -1  -5 86.4641 4.18687   2
  -2   1   5 70.3764 4.60441   1
   2   1  -5 89.0193 4.34052   7
   2   1  -5 82.7970 4.29338   2
   2   1  -5 87.9563 4.38256   3
   2   1  -5 83.9351 4.55741   4
   1  -1  -5 76.4218 4.88212   1
   1  -1  -5 77.4339 4.31977   4
   1  -1  -5 82.4391 4.32502   3
   1  -1  -5 83.8440 4.19561   7
   1  -1  -5 85.9767 4.25576   2
   1  -1  -5 71.6365 4.27058   3
  -1  -1   5 79.4819 5.14576   1
  -1  -1   5 82.2461 5.01966   1
   1  -1  -5 82.0294 5.21293   1
   1   1  -5 80.3664 5.28199   1
   1   1  -5 82.9500 4.19076   7
  -1   1   5 85.0888 4.94233   1
  -1   1   5 76.6859 4.96163   1
   1   1  -5 83.6902 4.38278   3
   1   1  -5 83.6556 4.29033   2
   1   1  -5 68.5553 4.86770   1
   0  -1   5 974.695 44.2046   1
   0  -1  -5 929.071 44.1848   2
   0  -1   5 871.818 44.1725   1
   0  -1  -5 929.489 44.3594   1
   0  -1   5 852.704 43.2632   3
   0  -1  -5 891.107 43.5030   7
   0  -1   5 879.657 43.0961   2
   0  -1  -5 873.422 43.6429   3
   0  -1  -5 876.026 44.0578   1
   0  -1   5 854.347 43.2933   5
   0   1  -5 838.163 43.3090   7
   0   1   5 940.774 44.0705   1
   0   1  -5 954.789 43.7426   2
   0   1  -5 864.986 44.0472   1
   0   1   5 866.658 44.1054   1
   0   1   5 848.967 43.2291   3
   0   1   5 829.841 43.0617   2
   0   1  -5 948.133 43.3000   3
   0   1  -5 947.761 44.5614   1
   1  -1   5 179.796 8.60750   5
  -1  -1  -5 161.483 9.88691   1
   1  -1   5 180.641 9.92596   1
   1  -1   5 187.023 9.02263   3
  -1  -1  -5 184.763 10.2678   1
   1  -1   5 174.532 8.76994   2
   1  -1   5 161.562 9.89515   1
  -1  -1  -5 176.755 9.02071   3
  -1  -1  -5 177.103 8.90399   2
   1   1   5 170.201 9.01008   3
   1   1   5 182.640 9.92620   1
  -1   1  -5 162.542 8.53761   7
  -1   1  -5 181.910 10.3266   1
  -1   1  -5 158.703 9.88089   1
  -1   1  -5 177.972 9.06639   3
   1   1   5 182.172 8.82954   2
   1   1   5 161.672 9.84535   1
  -1   1  -5 175.792 8.88017   2
   2  -1   5 1388.02 71.9227   1
  -2  -1  -5 1403.42 72.2910   1
   2  -1   5 1475.92 70.8951   3
   2  -1   5 1556.53 72.6769   2
   2  -1   5 1492.30 71.9410   5
   2   1   5 1508.15 71.9333   5
   2   1   5 1499.90 72.5610   2
   2   1   5 1372.73 72.0233   1
   2   1   5 1505.62 72.0237   3
   3  -1   5 82.5215 4.86367   3
   3  -1   5 82.6671 4.58199   2
   3  -1   5 83.0268 4.53120   5
   3   1   5 81.7757 4.55883   5
   3   1   5 82.3556 4.69231   2
   3   1   5 82.4839 4.90375   3
   4  -1   5 599.270 30.3085  12
   4  -1   5 639.133 31.0999   3
   4  -1   5 630.749 30.3797  13
   4  -1   5 609.162 30.6782   9
   4  -1   5 633.098 30.8025   2
   4  -1   5 588.404 30.2190   8
   4  -1   5 654.136 30.9343   5
   4  -1   5 605.948 30.3737  14
   4  -1   5 635.863 30.5482  10
   4   1   5 637.154 30.3237  10
   4   1   5 657.882 30.6568  13
   4   1   5 623.891 30.3770   8
   4   1   5 621.491 30.6033   9
   4   1   5 627.599 31.2060   3
   4   1   5 617.491 30.2868  11
   4   1   5 670.078 30.9633   5
   4   1   5 654.186 30.9109   2
   5  -1   5 53.5155 3.63892   5
   5  -1   5 57.2843 3.09214  12
   5  -1   5 61.6229 3.15084  13
   5  -1   5 57.3294 3.13199  14
   5  -1   5 58.2686 2.94813   9
   5  -1   5 59.1438 3.03368  10
   5   1   5 60.0755 3.06923  10
   5   1   5 62.1093 3.22360  13
   5   1   5 60.2835 3.00647   9
   5   1   5 54.8145 3.07385  12
   5   1   5 52.2454 3.77010   5
   6  -1   5 39.8056 2.27317  12
   6  -1   5 41.7061 2.33027  13
   6  -1   5 41.1231 2.16924  10
   6   1   5 40.8962 2.16582  10
   6   1   5 44.1973 2.42614  13
   7  -1   5 1.64640 0.36971  13
   7   1   5 0.59880 0.30465  13
   7  -2  -5 0.93648 0.26754  12
   7  -2  -5 1.69424 0.34996  11
   7   2  -5 1.67500 0.33585  12
   7   2  -5 1.50653 0.38307  11
   6  -2  -5 26.5768 1.68276  18
   6  -2  -5 25.7961 1.58742  11
   6  -2  -5 26.6679 1.57648  12
   6   2  -5 26.7003 1.82708  18
   6   2  -5 26.9574 1.73481  11
   6   2  -5 26.5844 1.60258  12
   5  -2  -5 0.82931 1.05965   4
   5  -2  -5 1.64730 0.49837  17
   5  -2  -5 1.74076 0.48679  12
   5  -2  -5 0.50388 0.38887  11
   5   2  -5 0.03529 0.53718  17
   5   2  -5 0.31201 1.30895   4
   5   2  -5 0.26489 0.44232  18
   5   2  -5 0.84928 0.43731  11
   5   2  -5 0.80737 0.38966  12
   4  -2  -5 0.47350 0.85966   4
   4  -2  -5 0.55627 0.44278  18
   4  -2  -5 1.90416 0.85002   7
   4  -2  -5 1.14579 0.42179  15
   4  -2  -5 1.35372 0.47519  17
   4  -2  -5 1.22815 0.41840  11
   4   2  -5 0.61056 0.45151  18
   4   2  -5 1.83472 0.35318  10
   4   2  -5 1.14569 0.30461  12
   4   2  -5 0.79628 0.47338  17
   4   2  -5 1.18826 1.11691   4
   3  -2  -5 55.8653 3.14003   7
   3  -2  -5 51.0109 3.29857   4
   3   2  -5 54.1403 3.15495   7
   3   2  -5 52.5156 3.12063   3
   3   2  -5 55.1034 3.05790   2
   3   2  -5 57.0346 3.62482   4
   2  -2  -5 1305.85 63.3229   3
   2  -2  -5 1379.17 63.5792   2
   2  -2  -5 1177.97 63.1057   2
   2  -2  -5 1194.34 63.1513   1
   2  -2  -5 1368.66 64.0336   7
   2  -2  -5 1322.34 63.8952   3
   2  -2  -5 1258.97 63.6108   4
  -2   2   5 1243.41 63.1346   1
   2   2  -5 1339.98 64.4992   4
   2   2  -5 1410.12 63.6047   7
   2   2  -5 1416.80 64.0200   2
   2   2  -5 1268.34 63.0220   3
   1  -2  -5 6.33281 0.86925   2
   1  -2  -5 6.09407 1.37491   1
   1  -2  -5 7.07401 0.84943   4
   1  -2  -5 5.99411 0.73564   7
   1  -2  -5 6.42345 0.82167   3
   1  -2  -5 6.01412 0.86074   3
  -1  -2   5 4.90105 1.34650   1
   1  -2  -5 5.52386 0.66179   2
   1  -2  -5 6.01461 1.18158   1
  -1  -2   5 5.06483 1.19397   1
   1   2  -5 6.66191 0.87705   7
  -1   2   5 5.02355 1.10052   1
   1   2  -5 7.67934 0.98342   2
  -1   2   5 5.25954 1.11751   1
   1   2  -5 5.91515 1.04498   3
   1   2  -5 6.88470 1.34940   1
   1   2  -5 7.43440 1.57491   1
   0  -2   5 166.805 8.72622   5
   0  -2  -5 177.051 8.89284   7
   0  -2  -5 173.408 9.91710   1
   0  -2   5 185.437 10.1917   1
   0  -2  -5 184.983 10.1227   1
   0  -2   5 170.834 8.99691   2
   0  -2   5 177.831 9.97795   1
   0  -2   5 172.903 9.18721   3
   0  -2  -5 192.489 9.18076   3
   0  -2  -5 190.444 9.06714   2
   0   2  -5 180.291 9.97891   1
   0   2   5 171.220 9.16761   3
   0   2  -5 179.246 10.3663   1
   0   2   5 178.420 9.96797   1
   0   2   5 191.191 9.93521   1
   0   2  -5 188.191 9.22971   3
   0   2   5 165.110 8.96957   2
   0   2  -5 188.958 8.84059   7
   0   2  -5 184.394 9.14102   2
  -1  -2  -5 55.5499 3.38537   3
  -1  -2  -5 55.3283 4.31232   1
   1  -2   5 56.8674 2.92623   5
   1  -2   5 55.7910 4.05812   1
  -1  -2  -5 54.8375 3.21033   2
   1  -2   5 52.8180 3.33979   3
   1  -2   5 56.8897 3.14273   2
   1  -2   5 51.1117 4.14184   1
  -1  -2  -5 57.5477 4.45585   1
   1   2   5 57.4584 3.42538   3
  -1   2  -5 47.9525 4.12723   1
  -1   2  -5 52.2457 3.24045   2
  -1   2  -5 51.8337 2.84348   7
   1   2   5 59.7750 3.20063   2
   1   2   5 57.2589 4.24104   1
  -1   2  -5 52.4494 3.37286   3
  -1   2  -5 51.7193 4.55849   1
   1   2   5 60.5768 4.29577   1
   2  -2   5 8.83894 1.08531   2
   2  -2   5 7.16571 0.95711   5
  -2  -2  -5 7.63823 2.06447   1
   2  -2   5 7.62828 1.74118   1
   2  -2   5 6.14464 1.08181   3
   2   2   5 6.19315 1.16009   3
   2   2   5 6.25478 1.72968   1
   2   2   5 7.17648 1.18650   2
   3  -2   5 376.064 20.1549   8
   3  -2   5 408.607 20.9272   3
   3  -2   5 432.864 20.6713   5
   3  -2   5 422.786 20.6753   2
   3   2   5 435.573 21.0854   3
   3   2   5 419.205 20.6605   5
   3   2   5 444.044 20.8298   2
   4  -2   5 611.083 30.4705  12
   4  -2   5 624.370 31.1650   3
   4  -2   5 651.562 30.7788  13
   4  -2   5 636.258 30.8268   9
   4  -2   5 614.487 30.5394  14
   4  -2   5 641.058 30.8244  10
   4  -2   5 654.032 31.0665   5
   4   2   5 638.406 30.4927  10
   4   2   5 647.916 31.1061   2
   4   2   5 658.875 31.0933   5
   4   2   5 621.364 30.4610   9
   4   2   5 607.784 31.3652   3
   4   2   5 606.292 30.5889   8
   4   2   5 645.670 30.5528  13
   5  -2   5 16.5790 1.17667  12
   5  -2   5 18.5460 1.17833  10
   5  -2   5 17.5545 1.06260   9
   5  -2   5 17.8614 1.23618  14
   5  -2   5 19.0940 1.28713  13
   5  -2   5 16.4565 1.76403   5
   5   2   5 18.0746 1.27313  10
   5   2   5 18.5582 1.23191   9
   5   2   5 16.9428 1.79598   5
   5   2   5 18.7464 1.30101  13
   6  -2   5 0.20805 0.26602  10
   6  -2   5 0.26916 0.31136  12
   6  -2   5 -0.2351 0.40757  13
   6   2   5 -0.0994 0.38397  13
   6   2   5 0.23295 0.36116  10
   7  -2   5 0.82854 0.30186  13
   7   2   5 0.90339 0.30046  13
   7  -3  -5 28.7708 1.55936  11
   7   3  -5 28.3811 1.54689  12
   7   3  -5 27.6612 1.55355  11
   6  -3  -5 21.5211 1.42611  11
   6  -3  -5 18.5328 1.55166  18
   6  -3  -5 19.2002 1.31354  17
   6  -3  -5 17.1238 1.23636  12
   6   3  -5 20.7900 1.55028  18
   6   3  -5 20.3776 1.46277  12
   6   3  -5 20.8607 1.31374  11
   5  -3  -5 2.13047 0.55309  11
   5  -3  -5 1.96089 0.61373  18
   5  -3  -5 2.23470 0.40469  12
   5  -3  -5 3.99042 0.74708  16
   5  -3  -5 2.29145 0.50260  17
   5   3  -5 1.89472 0.53622  12
   5   3  -5 2.31413 0.49364  18
   5   3  -5 3.41894 1.37752   4
   5   3  -5 2.47254 0.40626  10
   5   3  -5 2.78907 0.48000  11
   4  -3  -5 19.0117 1.79437   7
   4  -3  -5 19.3235 1.33643  17
   4  -3  -5 18.0858 1.90464   4
   4  -3  -5 20.0356 1.56916  16
   4  -3  -5 17.4869 1.27213  15
   4  -3  -5 16.7282 1.17090  12
   4  -3  -5 17.9101 1.24931  11
   4  -3  -5 17.2788 1.19983  18
   4   3  -5 17.9524 1.02489   9
   4   3  -5 19.1371 1.36769  17
   4   3  -5 19.6396 1.21357  10
   4   3  -5 19.0464 1.28271  11
   4   3  -5 20.3016 2.39342   4
   4   3  -5 19.3305 1.33716  18
   4   3  -5 17.0165 1.16161  12
   4   3  -5 18.8621 1.33224   2
   4   3  -5 18.4326 1.45696   3
   3  -3  -5 0.83032 0.72768   4
   3  -3  -5 0.17862 0.62087   7
   3   3  -5 0.87401 0.63814   2
   3   3  -5 0.47957 0.55707   3
   3   3  -5 0.88146 0.90905   4
   3   3  -5 0.00150 0.66007   7
   3   3  -5 0.23425 0.35648  11
   2  -3  -5 369.608 16.7647   2
   2  -3  -5 309.322 17.1737   1
   2  -3  -5 341.291 16.8134   3
   2  -3  -5 370.744 17.0529   7
   2  -3  -5 312.483 16.7281   2
   2  -3  -5 347.478 16.8190   3
   2  -3  -5 359.614 17.1241   6
   2  -3  -5 313.021 16.9854   4
  -2   3   5 319.098 17.0740   1
   2   3  -5 374.062 17.1050   2
   2   3  -5 366.506 17.2317   3
   2   3  -5 365.785 17.0028   7
   2   3  -5 360.513 17.3850   4
   1  -3  -5 215.091 11.9739   1
   1  -3  -5 231.593 11.1204   2
   1  -3  -5 236.292 11.2171   3
   1  -3  -5 199.552 11.0220   4
   1  -3  -5 215.183 11.1992   3
   1  -3  -5 225.697 11.1390   7
  -1  -3   5 233.151 12.6279   1
   1  -3  -5 222.043 11.9175   1
   1  -3  -5 232.000 11.2233   6
   1  -3  -5 195.931 11.0554   2
  -1  -3   5 234.302 12.2618   1
   1   3  -5 230.308 12.6232   1
   1   3  -5 241.307 11.0977   7
   1   3  -5 230.902 11.4286   3
   1   3  -5 224.156 12.2014   1
  -1   3   5 222.845 11.8811   1
  -1   3   5 224.853 11.8174   1
   1   3  -5 242.171 11.3048   2
   0  -3  -5 151.679 8.62311   1
   0  -3   5 147.181 7.51214   2
   0  -3   5 154.388 8.59634   1
   0  -3  -5 154.195 7.52817   2
   0  -3   5 137.124 7.20975   5
   0  -3  -5 156.031 7.67878   3
   0  -3   5 152.632 8.78158   1
   0  -3   5 143.367 7.70009   3
   0  -3  -5 144.974 7.38743   7
   0  -3  -5 140.077 8.46386   1
   0   3   5 140.430 8.43344   1
   0   3  -5 148.169 8.91500   1
   0   3  -5 145.799 8.48417   1
   0   3  -5 148.216 7.75777   3
   0   3  -5 144.505 7.29953   7
   0   3  -5 156.025 7.65935   2
   0   3   5 152.392 8.46111   1
  -1  -3  -5 70.0459 5.20532   1
   1  -3   5 78.7474 4.33363   3
  -1  -3  -5 77.2852 4.30544   3
   1  -3   5 78.1505 3.86416   5
  -1  -3  -5 74.3037 4.12187   2
   1  -3   5 81.3278 4.08538   2
  -1  -3  -5 72.2684 5.37949   1
   1  -3   5 66.3151 5.10452   1
   1  -3   5 76.2538 5.16061   1
  -1   3  -5 67.3152 3.70138   7
  -1   3  -5 72.5653 4.22079   2
  -1   3  -5 75.1665 4.33476   3
   1   3   5 71.6125 5.10899   1
   1   3   5 78.4633 5.31832   1
  -1   3  -5 77.6211 5.66768   1
   1   3   5 74.8060 4.10744   2
  -1   3  -5 66.7969 5.12641   1
   1   3   5 78.0905 4.30883   3
   2  -3   5 228.367 11.1380   2
   2  -3   5 216.954 11.0149   5
   2  -3   5 236.972 11.3937   3
   2   3   5 202.432 12.6525   1
   2   3   5 217.648 11.2212   2
   2   3   5 224.556 11.4775   3
   3  -3   5 96.1077 5.09889   9
   3  -3   5 108.165 5.58191   2
   3  -3   5 95.5884 5.03672   8
   3  -3   5 105.522 5.58387   5
   3  -3   5 108.435 5.88860   3
   3   3   5 95.1227 5.09696   8
   3   3   5 111.633 6.12645   3
   3   3   5 111.541 5.65925   5
   3   3   5 105.183 5.76723   2
   4  -3   5 22.1218 1.32284   9
   4  -3   5 22.1376 1.79740   2
   4  -3   5 20.0513 1.34942  12
   4  -3   5 23.6491 2.06027   3
   4  -3   5 22.7523 1.51417  14
   4  -3   5 24.4820 1.51152  13
   4  -3   5 22.0009 2.11208   5
   4  -3   5 22.0566 1.37602  10
   4   3   5 23.8923 1.29336   8
   4   3   5 21.8933 2.37304   3
   4   3   5 22.8302 1.45508   9
   4   3   5 24.5152 1.94652   5
   4   3   5 22.5547 2.14835   2
   4   3   5 22.1843 1.48032  10
   5  -3   5 147.266 7.00175  13
   5  -3   5 135.148 6.73135   9
   5  -3   5 136.167 6.98785  14
   5  -3   5 140.891 6.86280  10
   5  -3   5 135.030 6.90737  12
   5   3   5 140.215 6.93346  10
   5   3   5 137.778 6.87159   9
   5   3   5 142.656 7.04085  13
   6  -3   5 57.8821 3.22526  14
   6  -3   5 58.1581 3.20475  12
   6  -3   5 62.4174 3.26026  13
   6  -3   5 60.1227 3.06000  10
   6   3   5 63.9286 3.13993  10
   6   3   5 66.0951 3.27931  13
   7  -3   5 35.5378 1.88581  13
   7   3   5 35.1458 1.88081  13
   7  -4  -5 8.27743 0.61494  11
   7   4  -5 7.57096 0.62454  12
   7   4  -5 6.78343 0.61589  11
   6  -4  -5 62.4006 3.44902  12
   6  -4  -5 65.1408 3.50884  17
   6  -4  -5 67.8086 3.44727  11
   6  -4  -5 65.5938 3.48883  18
   6   4  -5 70.0136 3.52588  11
   6   4  -5 66.3798 3.47777  12
   6   4  -5 69.1962 3.55256  18
   5  -4  -5 32.3727 2.14410  16
   5  -4  -5 37.5877 2.11792  17
   5  -4  -5 31.1972 2.00467  15
   5  -4  -5 34.2069 2.01716  11
   5  -4  -5 34.7886 2.13516  18
   5  -4  -5 32.6059 1.98272  12
   5   4  -5 30.2144 3.06829   4
   5   4  -5 39.3276 2.09279  11
   5   4  -5 36.0796 1.99804  12
   5   4  -5 34.4256 1.88282  10
   5   4  -5 37.0828 2.02256  18
   4  -4  -5 444.964 21.6409  18
   4  -4  -5 439.389 22.0339   7
   4  -4  -5 475.314 21.6548  17
   4  -4  -5 457.123 21.7925  16
   4  -4  -5 421.928 21.5825  11
   4  -4  -5 410.644 21.5740  12
   4  -4  -5 452.109 21.6588  15
   4  -4  -5 395.559 21.5965  14
   4   4  -5 465.771 22.7425   4
   4   4  -5 431.685 21.6191  12
   4   4  -5 456.603 21.6350  18
   4   4  -5 440.487 22.0446   3
   4   4  -5 476.865 21.6439  11
   4   4  -5 476.858 21.6345  17
   4   4  -5 435.208 21.5026   9
   4   4  -5 453.585 21.8645   2
   4   4  -5 469.029 21.5786  10
   3  -4  -5 346.404 18.2246   4
   3  -4  -5 362.554 17.9558  16
   3  -4  -5 374.826 18.3009   6
   3  -4  -5 370.740 17.8706  15
   3  -4  -5 359.148 17.8448  17
   3  -4  -5 398.077 18.2496   7
   3   4  -5 398.825 18.7397   4
   3   4  -5 385.218 18.2576   2
   3   4  -5 345.618 17.6960   8
   3   4  -5 387.476 18.3943   3
   3   4  -5 358.416 17.8126  10
   3   4  -5 364.551 17.8459  11
   3   4  -5 348.808 17.7892   9
   2  -4  -5 3850.77 207.718   1
   2  -4  -5 4062.64 207.479   2
   2  -4  -5 3899.17 208.600   4
   2  -4  -5 4692.37 209.550   7
   2  -4  -5 4288.48 207.847   3
   2  -4  -5 4586.48 210.034   6
  -2   4   5 3684.78 207.765   1
   2   4  -5 4704.17 209.353   7
   2   4  -5 4816.70 210.524   2
   2   4  -5 4437.02 211.161   3
   2   4  -5 4549.87 212.250   4
   1  -4  -5 1263.87 64.8338   3
  -1  -4   5 1241.85 66.3764   1
   1  -4  -5 1275.76 65.5999   1
   1  -4  -5 1352.47 65.9825   2
  -1  -4   5 1422.27 66.2774   1
   1  -4  -5 1281.56 65.7365   7
   1  -4  -5 1416.01 66.5680   6
   1   4  -5 1404.42 65.4316   7
   1   4  -5 1418.48 66.1776   2
   1   4  -5 1441.24 66.4145   3
   1   4  -5 1258.18 65.9823   1
   1   4  -5 1388.33 66.6227   1
   0  -4  -5 237.359 11.3136   6
   0  -4  -5 246.421 11.3511   2
   0  -4   5 219.095 11.3377   2
   0  -4  -5 227.878 11.2257   7
   0  -4   5 226.905 12.4552   1
   0  -4  -5 221.799 12.4568   1
   0  -4   5 212.441 11.0434   5
   0  -4   5 213.067 12.6973   1
   0  -4  -5 240.062 12.5788   1
   0  -4  -5 238.559 11.5377   3
   0  -4   5 231.451 11.5932   3
   0   4   5 217.042 12.3600   1
   0   4  -5 217.930 12.4458   1
   0   4  -5 231.780 11.4603   2
   0   4  -5 235.555 11.6572   3
   0   4  -5 224.873 12.8569   1
   0   4  -5 222.507 11.0854   7
   0   4   5 232.471 12.4156   1
   1  -4   5 1285.92 62.5463   2
  -1  -4  -5 1260.57 63.1213   1
  -1  -4  -5 1287.36 62.1255   2
   1  -4   5 1329.39 61.7467   3
   1  -4   5 1211.87 62.8705   1
   1  -4   5 1329.39 61.9155   5
   1  -4   5 1250.67 62.7275   1
   1   4   5 1286.53 63.0124   1
  -1   4  -5 1190.08 62.6916   1
   1   4   5 1376.39 61.8264   3
  -1   4  -5 1273.38 63.3603   1
   1   4   5 1277.57 61.5572   2
   1   4   5 1219.84 62.9026   1
   2  -4   5 78.1792 4.31602   2
   2  -4   5 78.6354 4.17458   5
   2  -4   5 78.7905 4.50407   3
   2   4   5 75.8759 4.46396   2
   2   4   5 79.7420 4.68619   3
   3  -4   5 322.798 16.5770  13
   3  -4   5 366.575 16.9960   2
   3  -4   5 362.078 17.0031   5
   3  -4   5 320.774 16.4451   8
   3  -4   5 330.525 16.5283  10
   3  -4   5 320.939 16.5122   9
   3  -4   5 359.884 17.3036   3
   3   4   5 369.093 17.1036   5
   3   4   5 356.859 17.2310   2
   3   4   5 358.671 17.5940   3
   3   4   5 304.749 16.5089   8
   4  -4   5 41.9414 2.59478   2
   4  -4   5 40.3549 2.82182   3
   4  -4   5 41.3629 2.28989  14
   4  -4   5 41.4403 2.24420  13
   4  -4   5 40.1740 2.18216  10
   4  -4   5 40.6469 2.12792   9
   4  -4   5 37.8898 2.87359   5
   4  -4   5 38.9717 2.24074  12
   4   4   5 39.8141 2.13288   8
   4   4   5 39.0227 3.20666   3
   4   4   5 42.6091 2.29542   9
   4   4   5 42.0024 2.95388   5
   4   4   5 40.5330 2.99948   2
   4   4   5 41.5881 2.30035  10
   5  -4   5 162.727 8.22913  14
   5  -4   5 167.717 8.21938  13
   5  -4   5 158.750 8.13601  12
   5  -4   5 168.781 8.08120  10
   5   4   5 166.645 8.11575   9
   5   4   5 161.570 8.16785  10
   5   4   5 169.238 8.26155  13
   6  -4   5 42.8924 2.31702  12
   6  -4   5 43.1479 2.41671  13
   6  -4   5 41.8379 2.10543  10
   6  -4   5 39.7321 2.28900  14
   6   4   5 43.4136 2.28170  10
   6   4   5 44.0554 2.35690  13
   6   4   5 38.8321 2.05446   9
   7  -4   5 128.311 5.88346  13
   7   4   5 110.828 5.87187  13
   7  -5  -5 30.0624 1.61174  11
   7   5  -5 31.8025 1.61444  11
   7   5  -5 29.3876 1.62189  12
   6  -5  -5 7.52889 0.74058  11
   6  -5  -5 8.27222 0.86937  18
   6  -5  -5 7.35932 0.70449  12
   6  -5  -5 6.90200 0.97673  17
   6   5  -5 8.20269 0.83191  18
   6   5  -5 8.32246 0.52831  10
   6   5  -5 8.00904 1.01940  11
   6   5  -5 8.88500 0.85140  12
   5  -5  -5 16.4900 1.19252  15
   5  -5  -5 16.2072 1.13240  12
   5  -5  -5 17.5560 1.16479  11
   5  -5  -5 17.6936 1.27923  18
   5  -5  -5 18.7836 1.25932  17
   5  -5  -5 16.2810 1.61666  16
   5   5  -5 18.1391 1.23042  11
   5   5  -5 18.5423 1.40998  18
   5   5  -5 19.8342 1.40466  12
   5   5  -5 19.8257 1.20762  10
   4  -5  -5 117.738 6.16837  13
   4  -5  -5 122.726 6.22525  14
   4  -5  -5 122.486 6.64131   7
   4  -5  -5 116.760 6.23903  15
   4  -5  -5 118.262 6.22927  18
   4  -5  -5 117.018 6.15751  12
   4  -5  -5 127.586 6.24595  17
   4  -5  -5 125.103 6.35709  16
   4  -5  -5 119.279 6.16961  11
   4   5  -5 132.666 6.24271  11
   4   5  -5 131.207 6.25790  12
   4   5  -5 131.782 6.26117  17
   4   5  -5 124.986 6.17873  10
   4   5  -5 128.133 6.58436   2
   4   5  -5 125.527 6.21253  18
   4   5  -5 123.449 6.75870   3
   4   5  -5 124.910 6.12267   9
   4   5  -5 130.840 7.42545   4
   3  -5  -5 579.289 28.3792  16
   3  -5  -5 617.298 28.6622   7
   3  -5  -5 582.635 28.2732  17
   3  -5  -5 589.825 28.2874  14
   3  -5  -5 566.602 28.7242   6
   3  -5  -5 590.877 28.3841  15
   3  -5  -5 520.630 28.1520  10
   3  -5  -5 555.801 28.2558  18
   3   5  -5 583.653 28.2680  11
   3   5  -5 590.185 28.2461  17
   3   5  -5 631.873 29.1815   4
   3   5  -5 586.598 28.7498   2
   3   5  -5 583.086 28.2192   8
   3   5  -5 566.400 28.2294   9
   3   5  -5 600.795 28.2553  10
   3   5  -5 646.299 28.9513   3
   2  -5  -5 1024.63 50.6685   2
   2  -5  -5 1025.47 50.6429   3
   2  -5  -5 988.940 50.6719   3
   2  -5  -5 1077.59 50.8078   6
   2  -5  -5 1089.52 50.7060   7
   2  -5  -5 941.578 50.5043   2
   2   5  -5 1128.59 50.8874   2
   2   5  -5 1063.80 51.1285   4
   2   5  -5 1097.40 50.6939   7
   2   5  -5 1065.39 51.0081   3
   1  -5  -5 188.381 9.22655   3
   1  -5  -5 189.948 9.21715   6
   1  -5  -5 183.107 9.06573   2
  -1  -5   5 163.318 10.8096   1
   1  -5  -5 175.475 9.09750   7
   1   5  -5 175.830 10.9743   1
   1   5  -5 188.892 9.48973   3
   1   5  -5 184.767 9.02561   7
   1   5  -5 184.100 9.36014   2
   0  -5  -5 1124.38 50.1005   3
   0  -5   5 1022.44 51.1155   1
   0  -5  -5 1070.22 50.3330   2
   0  -5   5 1045.26 49.8686   2
   0  -5  -5 972.189 51.1529   1
   0  -5   5 1072.58 50.1466   3
   0  -5  -5 1027.84 50.4576   7
   0  -5  -5 1010.29 51.1025   1
   0  -5   5 1026.29 50.0185   5
   0  -5  -5 1103.15 50.8901   6
   0  -5   5 1012.28 51.5583   1
   0   5   5 975.114 50.9995   1
   0   5  -5 1040.73 49.9593   2
   0   5  -5 1054.20 50.1717   3
   0   5  -5 1021.39 51.6050   1
   0   5  -5 969.482 49.5236   7
   0   5  -5 992.192 51.1225   1
  -1  -5  -5 704.148 36.3251   1
   1  -5   5 697.132 35.8622   1
  -1  -5  -5 721.427 34.6505   2
  -1  -5  -5 673.880 36.9466   1
  -1  -5  -5 724.498 34.9684   3
   1  -5   5 755.247 34.8661   3
   1  -5   5 776.834 34.6161   2
   1  -5   5 738.596 34.3813   5
  -1   5  -5 633.067 35.8053   1
   1   5   5 691.166 36.2042   1
   2  -5   5 22.6126 1.72556   2
   2  -5   5 23.0189 1.62527   5
   2  -5   5 23.3098 2.02561   3
   2   5   5 21.1806 1.89538   2
   2   5   5 23.0191 2.22805   3
   3  -5   5 2.02477 0.42754  14
   3  -5   5 3.64813 0.97506   3
   3  -5   5 1.50554 0.33790  10
   3  -5   5 2.08454 0.79000   2
   3  -5   5 1.69109 0.38230   9
   3  -5   5 1.46459 0.36432  12
   3  -5   5 1.77238 0.32106  13
   3  -5   5 2.20536 0.77817   5
   3   5   5 1.77099 0.38807   8
   3   5   5 2.03211 0.90621   2
   4  -5   5 302.309 14.4171  14
   4  -5   5 293.964 14.2043   9
   4  -5   5 294.456 14.8625   5
   4  -5   5 295.570 14.6347   2
   4  -5   5 295.386 14.3139  12
   4  -5   5 307.440 14.2646  10
   4  -5   5 299.673 14.3578  13
   4  -5   5 285.408 14.8168   3
   4   5   5 281.647 15.2987   3
   4   5   5 293.020 14.3251   9
   4   5   5 291.636 15.0929   2
   4   5   5 303.392 14.2375   8
   4   5   5 279.128 14.3390  10
   4   5   5 294.494 14.9119   5
   5  -5   5 60.9056 3.33014  13
   5  -5   5 63.5836 3.32447  14
   5  -5   5 60.4333 3.13823  10
   5  -5   5 57.4701 3.19834  12
   5   5   5 63.8090 3.22570   9
   5   5   5 64.0812 3.36928  13
   5   5   5 60.9610 3.28598  10
   6  -5   5 388.196 17.8465  13
   6  -5   5 360.111 17.8125  14
   6  -5   5 361.400 17.6060  10
   6  -5   5 341.981 17.7422  12
   6   5   5 386.098 17.7594  10
   6   5   5 368.585 17.6249   9
   6   5   5 363.304 17.8235  13
   6  -6  -5 60.2203 3.40690  12
   6  -6  -5 66.9894 3.47943  18
   6  -6  -5 64.5449 3.48419  17
   6  -6  -5 65.4929 3.43264  11
   6   6  -5 67.8510 3.33491  10
   6   6  -5 72.8922 3.51499  12
   6   6  -5 73.1042 3.53205  11
   6   6  -5 67.9309 3.49908  18
   5  -6  -5 154.214 8.00589  15
   5  -6  -5 166.389 8.20756  16
   5  -6  -5 140.513 7.94072  13
   5  -6  -5 173.015 8.05089  17
   5  -6  -5 147.874 7.95112  12
   5  -6  -5 164.100 8.04491  18
   5  -6  -5 162.447 7.98155  11
   5  -6  -5 155.262 8.00345  14
   5   6  -5 167.767 8.00261  11
   5   6  -5 175.780 7.97052  10
   5   6  -5 158.687 8.00445  18
   5   6  -5 174.302 8.07773  12
   4  -6  -5 161.613 7.95470  16
   4  -6  -5 156.474 7.80075  17
   4  -6  -5 157.934 7.82817  15
   4  -6  -5 143.270 7.73257  12
   4  -6  -5 145.021 8.17055   7
   4  -6  -5 152.884 7.74573  11
   4  -6  -5 158.329 7.81288  18
   4  -6  -5 152.779 7.77621  13
   4  -6  -5 160.699 7.83342  14
   4   6  -5 165.874 7.83598  12
   4   6  -5 157.840 8.49987   3
   4   6  -5 156.253 7.78136  18
   4   6  -5 161.420 8.93030   4
   4   6  -5 167.467 7.79648  10
   4   6  -5 165.236 7.80013  11
   3  -6  -5 184.658 8.84089  16
   3  -6  -5 156.743 8.64514  18
   3  -6  -5 180.705 9.09750   7
   3  -6  -5 182.151 8.70567  17
   3  -6  -5 186.873 8.73093  15
   3  -6  -5 166.611 8.65949  13
   3  -6  -5 184.504 8.72308  14
   3  -6  -5 153.708 8.47970  10
   3  -6  -5 182.449 9.19322   6
   3   6  -5 176.766 8.67364  10
   3   6  -5 163.040 8.64376  17
   3   6  -5 177.212 8.68994  11
   3   6  -5 178.614 8.57495   8
   3   6  -5 192.549 9.71420   4
   3   6  -5 186.635 9.29682   2
   3   6  -5 181.761 9.41947   3
   3   6  -5 177.859 8.67580   9
   2  -6  -5 24.1231 1.27569   3
   2  -6  -5 24.1838 1.26178   2
   2  -6  -5 25.0470 1.90426   6
   2  -6  -5 24.2249 1.69498   7
   2  -6  -5 23.1682 1.25515   2
   2  -6  -5 24.3502 1.28597   3
   2   6  -5 25.4485 2.04470   2
   2   6  -5 24.4481 2.34970   4
   2   6  -5 26.0408 2.17531   3
   1  -6  -5 338.513 16.0740   2
   1  -6  -5 341.640 16.2254   3
  -1  -6   5 274.110 18.0038   1
   1  -6  -5 330.280 16.1455   7
   1  -6  -5 350.609 16.2514   6
   1   6  -5 311.431 18.1959   1
   1   6  -5 338.325 16.5578   3
   1   6  -5 333.011 16.3887   2
   0  -6   5 51.2753 4.77863   1
   0  -6   5 62.1802 3.76508   3
   0  -6   5 58.6111 4.62600   1
   0  -6  -5 58.8745 3.57098   3
   0  -6  -5 57.8837 3.22874   7
   0  -6  -5 63.8047 3.35561   2
   0  -6   5 58.6493 3.01986   5
   0  -6   5 58.9787 3.39694   2
   0  -6  -5 63.1513 3.31927   6
   0   6  -5 58.3939 3.72469   3
   0   6  -5 53.7998 3.51105   2
   0   6  -5 50.5462 4.50242   1
  -1  -6  -5 12.0671 2.15981   1
  -1  -6  -5 13.5554 1.27802   2
   1  -6   5 18.4322 1.71688   3
  -1  -6  -5 13.3142 1.13209   6
   1  -6   5 13.9995 2.23735   1
   1  -6   5 15.6951 1.38623   2
   1  -6   5 15.1292 1.11607   5
  -1  -6  -5 14.3906 1.77411   3
   1   6   5 11.8896 2.31375   1
   2  -6   5 67.8434 4.20989   3
   2  -6   5 67.2376 3.89897   2
   2  -6   5 71.5904 3.79085   5
   3  -6   5 19.8786 1.69785   5
   3  -6   5 19.0650 1.24783  14
   3  -6   5 19.9123 1.72451   2
   3  -6   5 18.5046 1.14018  10
   3  -6   5 17.7277 1.12234  15
   3  -6   5 18.2356 1.17582  12
   3  -6   5 17.6442 0.97166   8
   3  -6   5 17.4155 1.16135   9
   3  -6   5 18.0395 1.12795  13
   3  -6   5 18.2209 1.53548   6
   3  -6   5 19.4828 1.90169   3
   3   6   5 18.6296 1.99700   2
   3   6   5 16.9871 1.17768   8
   3   6   5 19.5206 2.03452   3
   4  -6   5 195.254 9.13749  14
   4  -6   5 183.733 9.64550   5
   4  -6   5 193.596 9.07879  13
   4  -6   5 190.969 8.98669  10
   4  -6   5 174.298 9.49141   3
   4  -6   5 187.131 9.04918  12
   4  -6   5 182.061 9.31503   2
   4  -6   5 189.169 8.92265   9
   4   6   5 179.516 9.06988   9
   4   6   5 158.583 10.0479   3
   4   6   5 174.786 9.86372   2
   4   6   5 190.477 8.97049   8
   4   6   5 182.613 9.65150   5
   5  -6   5 95.2608 4.86069  13
   5  -6   5 94.7592 4.67742  10
   5  -6   5 90.7990 4.76366  12
   5  -6   5 99.5015 4.93073  14
   5   6   5 95.3556 4.89463  13
   5   6   5 96.6168 4.78474   9
   5   6   5 87.9359 4.82519  10
   6  -6   5 83.2639 4.15419  14
   6  -6   5 81.5077 4.14541  13
   6  -6   5 78.6654 4.08491  12
   6   6   5 80.0429 3.97295   9
   6   6   5 84.1160 4.16986  13
   6   6   5 78.7644 4.10736  10
   6  -7  -5 61.8787 3.44684  12
   6  -7  -5 69.2209 3.55448  18
   6  -7  -5 65.2051 3.48155  17
   6   7  -5 76.1738 3.42732  10
   6   7  -5 70.6190 3.50575  11
   5  -7  -5 434.978 22.8454  12
   5  -7  -5 462.119 22.8799  13
   5  -7  -5 472.711 22.9159  14
   5  -7  -5 457.260 22.8929  18
   5  -7  -5 429.799 22.8221  11
   5  -7  -5 489.766 22.9116  17
   5  -7  -5 469.894 22.9212  15
   5  -7  -5 487.542 23.0739  16
   5   7  -5 487.964 22.8924  11
   5   7  -5 484.730 22.7288   9
   5   7  -5 504.776 22.9610  12
   5   7  -5 499.032 22.8720  10
   4  -7  -5 683.995 33.0477  13
   4  -7  -5 675.552 33.0886  14
   4  -7  -5 648.561 33.0285  18
   4  -7  -5 609.924 32.9918  12
   4  -7  -5 740.098 33.6878  15
   4  -7  -5 656.652 33.0438  17
   4  -7  -5 710.937 33.2331  16
   4   7  -5 675.741 34.1911   4
   4   7  -5 761.091 33.2788  12
   4   7  -5 698.813 33.1700  11
   4   7  -5 695.295 33.0493  10
   4   7  -5 675.002 33.8355   3
   3  -7  -5 44.7786 2.89608   6
   3  -7  -5 46.0599 2.42417  17
   3  -7  -5 45.3265 2.44456  14
   3  -7  -5 45.4323 2.87130   7
   3  -7  -5 46.0290 2.45167  15
   3  -7  -5 47.3992 2.65351  16
   3  -7  -5 40.5713 2.18845  10
   3  -7  -5 45.7654 2.44024  13
   3  -7  -5 39.2351 2.39902  18
   3   7  -5 44.2173 2.33630   8
   3   7  -5 47.0034 2.47525  11
   3   7  -5 49.2016 3.31819   3
   3   7  -5 45.9551 2.47397   9
   3   7  -5 47.2825 2.49370  10
   3   7  -5 45.9290 3.14675   2
   3   7  -5 47.2266 3.52284   4
   2  -7  -5 9.48376 0.55844   3
   2  -7  -5 11.4949 1.27030   7
   2  -7  -5 11.7959 0.90147  14
   2  -7  -5 9.14537 0.81846  15
   2  -7  -5 9.87332 0.54902   3
   2  -7  -5 10.1525 1.13749   6
   2  -7  -5 8.57800 1.05798  16
   2   7  -5 11.1525 1.86463   4
   2   7  -5 11.2440 1.54860   2
   2   7  -5 10.1638 1.38296   3
   1  -7  -5 194.270 10.0402   3
   1  -7  -5 195.306 9.92815   7
   1  -7  -5 202.433 9.86113   2
   1  -7  -5 201.644 10.0279   6
   1   7  -5 207.460 10.2516   2
   1   7  -5 183.317 10.3453   3
   0  -7  -5 707.939 32.4249   6
   0  -7   5 626.420 32.4730   2
   0  -7  -5 693.951 32.4478   2
   0  -7  -5 667.473 32.3285   7
   0  -7  -5 708.441 32.7088   3
   0  -7   5 678.605 32.8958   3
   0   7  -5 581.963 33.9690   1
  -1  -7  -5 360.345 18.3131   2
   1  -7   5 373.112 18.0289   5
  -1  -7  -5 372.742 18.6364   3
   1  -7   5 389.742 18.5881   3
  -1  -7  -5 353.848 18.0665   6
   1  -7   5 364.072 18.2536   2
   2  -7   5 327.090 15.5205   6
   2  -7   5 296.738 15.7102   3
   2  -7   5 275.399 14.8870   8
   2  -7   5 328.561 15.4638   2
   2  -7   5 321.038 15.3413   5
   3  -7   5 121.125 5.97405   9
   3  -7   5 126.000 6.46882   2
   3  -7   5 124.321 6.12177  14
   3  -7   5 119.622 6.00186  10
   3  -7   5 123.688 6.04295  12
   3  -7   5 119.497 6.04352  13
   3  -7   5 119.935 6.53175   6
   3  -7   5 130.934 6.80785   3
   3  -7   5 115.813 5.84516   8
   3  -7   5 114.551 6.05969  15
   3  -7   5 131.305 6.53722   5
   3   7   5 114.534 6.02274   8
   4  -7   5 354.241 16.7531  10
   4  -7   5 337.457 17.3869   5
   4  -7   5 360.073 16.6864   9
   4  -7   5 357.293 16.8515  13
   4  -7   5 372.411 16.9414  14
   4  -7   5 333.545 17.0039   2
   4  -7   5 350.906 16.8158  12
   4   7   5 339.421 17.4516   5
   4   7   5 336.215 16.8487   9
   4   7   5 306.112 17.6174   2
   4   7   5 358.800 16.7588   8
   5  -7   5 71.6473 3.55612  10
   5  -7   5 72.0474 3.66604  12
   5  -7   5 77.5000 3.83904  14
   5  -7   5 69.8907 3.70583  13
   5   7   5 66.2624 3.45517   8
   5   7   5 69.2977 3.69775  10
   5   7   5 72.2498 3.74557  13
   5   7   5 69.8249 3.69953   9
   6  -7   5 84.9630 4.26583  13
   6  -7   5 87.8745 4.29574  14
   6   7   5 80.5758 4.27708  13
   6   7   5 84.6802 4.22392  10
   6   7   5 82.5053 4.11699   9
   6   8  -5 72.1340 3.74437  11
   6   8  -5 73.9996 3.66019  10
   6   8  -5 74.5224 3.76337  12
   5  -8  -5 726.105 37.3433  17
   5  -8  -5 714.805 37.3497  18
   5  -8  -5 801.157 37.4160  14
   5  -8  -5 811.516 37.4320  15
   5  -8  -5 727.090 37.3505  13
   5  -8  -5 797.929 37.5369  16
   5  -8  -5 699.523 37.3158  12
   5   8  -5 830.763 37.6983  12
   5   8  -5 821.307 37.3802  11
   5   8  -5 817.195 37.4665   9
   5   8  -5 793.470 37.6769  10
   4  -8  -5 226.001 10.6033  15
   4  -8  -5 182.416 11.0581   6
   4  -8  -5 189.969 10.4770  18
   4  -8  -5 219.730 10.7142  16
   4  -8  -5 216.791 10.5262  13
   4  -8  -5 218.314 10.5778  14
   4  -8  -5 214.494 10.5502  17
   4   8  -5 224.416 10.5297  11
   4   8  -5 227.304 10.5853  12
   4   8  -5 229.328 10.5657  10
   4   8  -5 210.240 11.6723   4
   3  -8  -5 18.2668 1.29167  15
   3  -8  -5 17.3244 0.90004  10
   3  -8  -5 18.3789 1.15491  13
   3  -8  -5 19.6033 1.30151  14
   3  -8  -5 17.5092 1.79803   6
   3  -8  -5 17.5379 1.25225  17
   3  -8  -5 18.1047 1.48143  16
   3  -8  -5 16.2515 1.62503   7
   3   8  -5 17.3327 1.13380   8
   3   8  -5 18.9122 2.04855   2
   3   8  -5 16.3856 2.31549   4
   3   8  -5 15.3615 2.02548   3
   3   8  -5 18.6620 1.31259   9
   3   8  -5 18.4187 1.26606  11
   3   8  -5 17.7475 1.32244  10
   2  -8  -5 283.859 14.2408  16
   2  -8  -5 300.198 14.1628  15
   2  -8  -5 278.887 14.0194  10
   2  -8  -5 308.246 14.6870   6
   2  -8  -5 277.775 14.1290  17
   2  -8  -5 310.354 14.1850  14
   2  -8  -5 285.766 14.1243  13
   2  -8  -5 295.538 14.4832   7
   2   8  -5 272.862 14.0900   8
   2   8  -5 277.710 15.0072   3
   2   8  -5 302.144 14.8904   2
   2   8  -5 301.324 15.0788   4
   1  -8  -5 67.0753 3.43541   2
   1  -8  -5 61.7494 3.49159   7
   1  -8  -5 63.2920 3.65031   6
   1  -8  -5 58.5097 3.65864   3
   1   8  -5 61.4222 3.83354   2
   1   8  -5 56.7634 3.97644   3
   0  -8  -5 71.7135 3.93217   7
   0  -8  -5 69.5558 4.00594   2
   0  -8  -5 69.4420 4.28736   3
   0  -8  -5 73.6880 4.00720   6
   0  -8   5 71.0480 4.09604   2
   0  -8   5 71.2226 4.52659   3
   1  -8   5 749.049 36.4437   2
  -1  -8  -5 762.591 36.5346   2
  -1  -8  -5 751.948 36.8611   3
  -1  -8  -5 731.750 36.2453   6
   1  -8   5 743.552 36.7492   3
   1  -8   5 748.738 36.1832   5
   2  -8   5 6.39328 0.66505  10
   2  -8   5 6.90495 1.23693   3
   2  -8   5 7.65170 0.62574  14
   2  -8   5 6.57794 0.92207   5
   2  -8   5 7.81921 1.11749   6
   2  -8   5 6.07207 0.66905   9
   2  -8   5 6.15403 0.54413   8
   2  -8   5 6.78246 1.16084   2
   3  -8   5 466.591 22.4495   9
   3  -8   5 454.779 22.5271  13
   3  -8   5 473.199 23.2410   3
   3  -8   5 492.502 22.6067  14
   3  -8   5 470.681 22.9259   2
   3  -8   5 455.487 23.0878   6
   3  -8   5 477.997 23.0271   5
   3  -8   5 478.834 22.4867  10
   3  -8   5 460.455 22.5154  12
   3  -8   5 464.558 22.5648  15
   3   8   5 433.508 22.4983   8
   4  -8   5 373.554 20.1973   5
   4  -8   5 429.702 19.7607  14
   4  -8   5 407.765 19.6414  12
   4  -8   5 408.462 19.6763  13
   4  -8   5 401.331 19.4802   9
   4  -8   5 424.057 19.5752  10
   4   8   5 378.177 20.2494   5
   4   8   5 417.231 19.5839   8
   4   8   5 404.303 19.6822   9
   5  -8   5 12.0774 0.83761  10
   5  -8   5 12.5145 0.97411  12
   5  -8   5 12.9503 1.08407  14
   5  -8   5 12.1223 1.13069  13
   5   8   5 13.3406 1.21883  10
   5   8   5 13.7515 1.15579   9
   5   8   5 13.0387 1.19380  13
   6  -8   5 3.91936 0.61093  13
   6  -8   5 3.79192 0.63274  14
   6   8   5 3.81067 0.58804  10
   6   8   5 3.98743 0.63051  13
   6   9  -5 7.81601 0.66002  10
   6   9  -5 6.40629 0.73749  11
   6   9  -5 5.62362 0.68356  12
   5  -9  -5 5.46015 0.93554  16
   5  -9  -5 10.0417 0.91960  15
   5  -9  -5 8.99275 1.01093  13
   5  -9  -5 8.87661 0.85452  14
   5  -9  -5 7.25175 1.01771  17
   5   9  -5 5.80986 0.81440  11
   5   9  -5 6.73345 0.92410  12
   5   9  -5 7.07834 1.09584  10
   5   9  -5 7.76017 0.77646   9
   4  -9  -5 27.9495 2.39510   6
   4  -9  -5 35.1817 2.05272  14
   4  -9  -5 33.4518 1.99303  13
   4  -9  -5 31.8712 1.90394  17
   4  -9  -5 35.3544 2.29999  16
   4  -9  -5 35.3051 2.05575  15
   4   9  -5 34.8504 1.95279  10
   4   9  -5 32.9713 1.67596   8
   4   9  -5 32.2583 1.97027  11
   4   9  -5 28.7522 3.14206   4
   4   9  -5 35.3757 2.06365  12
   3  -9  -5 59.9919 3.27726  16
   3  -9  -5 59.1281 3.10897  17
   3  -9  -5 63.1162 3.17113  14
   3  -9  -5 56.4027 2.88541  10
   3  -9  -5 62.7565 3.16996  15
   3  -9  -5 62.6503 3.16831  13
   3  -9  -5 59.5556 3.78605   6
   3   9  -5 58.8822 3.14329  11
   3   9  -5 54.2654 4.09224   3
   3   9  -5 57.9320 4.25266   4
   3   9  -5 61.4002 3.20935   9
   3   9  -5 53.7213 3.93237   2
   3   9  -5 58.4438 3.14555  10
   3   9  -5 59.7246 3.06359   8
   2  -9  -5 223.081 10.4239  14
   2  -9  -5 202.828 10.3800  17
   2  -9  -5 210.899 10.7402   7
   2  -9  -5 212.680 10.3959  15
   2  -9  -5 216.859 10.9393   6
   2  -9  -5 208.637 10.4913  16
   2  -9  -5 211.026 10.2644  10
   2   9  -5 209.039 10.3523   8
   2   9  -5 224.582 11.4154   4
   2   9  -5 201.909 11.3683   3
   2   9  -5 213.778 11.2298   2
   1  -9  -5 2.72516 0.36508  17
   1  -9  -5 2.77962 0.44753  10
   1  -9  -5 3.89019 0.83329   3
   1  -9  -5 2.97947 0.62848   2
   1  -9  -5 2.40503 0.74638   7
   1  -9  -5 3.86358 0.76276   6
   1  -9  -5 3.95176 0.51516  14
   1  -9  -5 2.79899 0.45596   9
   0  -9  -5 132.751 6.58572   7
   0  -9   5 119.175 7.19224   3
   0  -9  -5 132.736 6.66680   6
   0  -9  -5 123.996 6.95529   3
   0  -9  -5 117.727 6.10919   8
   0  -9   5 122.916 6.74143   2
   0  -9  -5 129.214 6.67216   2
   1  -9   5 111.168 5.86097   3
   1  -9   5 104.252 5.49601   2
  -1  -9  -5 96.4429 5.24053   6
   1  -9   5 93.9700 4.85724   8
  -1  -9  -5 100.109 5.98065   3
   1  -9   5 102.531 5.20120   5
  -1  -9  -5 87.5357 4.86505   8
  -1  -9  -5 96.6283 5.53509   2
   2  -9   5 52.5435 2.66710   8
   2  -9   5 56.6848 3.30874   2
   2  -9   5 55.8972 3.34755   6
  -2  -9  -5 51.2625 2.80415   8
   2  -9   5 53.1190 3.66559   3
   2  -9   5 55.6016 3.20629   5
   2  -9   5 53.1434 2.81818  14
   2  -9   5 52.1014 2.76580  10
   2  -9   5 50.4887 2.74655   9
   3  -9   5 3.72603 0.60628  14
   3  -9   5 3.42130 0.57488  15
   3  -9   5 2.77071 0.93858   5
   3  -9   5 3.22824 0.49126  13
   3  -9   5 3.06011 0.92396   6
   3  -9   5 4.35439 0.85291   2
   3  -9   5 2.32125 0.94379   3
   3  -9   5 4.08143 0.50727  10
   3  -9   5 3.48031 0.59155   9
   3   9   5 2.52476 0.55005   8
   4  -9   5 112.290 5.49118   9
   4  -9   5 115.944 5.62492  10
   4  -9   5 123.318 5.84300  14
   4  -9   5 114.616 5.73129  13
   4  -9   5 102.594 5.69176  15
   4   9   5 113.466 5.78626   9
   4   9   5 112.300 5.65329   8
   5  -9   5 5.21048 0.70047  13
   5  -9   5 6.38533 0.53705  10
   5  -9   5 6.43181 0.79354  14
   5   9   5 6.14314 0.75385  13
   5   9   5 6.73147 0.99593  10
   5   9   5 5.91761 0.49852   8
   5   9   5 5.75328 0.69156   9
   6  -9   5 54.2796 2.86689  14
   6  -9   5 54.8237 2.82613  13
   6   9   5 54.1877 2.81282  10
   6   9   5 56.3032 2.85607  13
   6  10  -5 10.4345 0.65517  10
   6  10  -5 7.99394 0.73200  12
   5 -10  -5 236.587 12.4022  16
   5 -10  -5 265.097 12.3311  15
   5 -10  -5 238.983 12.2762  13
   5 -10  -5 255.107 12.3279  14
   5  10  -5 240.263 12.2326  11
   5  10  -5 258.988 12.2983  10
   5  10  -5 259.702 12.1863   9
   5  10  -5 258.258 12.3125  12
   4 -10  -5 52.7260 2.97810  16
   4 -10  -5 55.6765 2.88798  14
   4 -10  -5 54.1538 2.81636  15
   4 -10  -5 51.7161 2.83467  13
   4 -10  -5 45.7920 2.77590  17
   4  10  -5 48.3887 2.71709  11
   4  10  -5 52.5930 2.79728  12
   4  10  -5 51.9408 2.56328   8
   4  10  -5 50.6629 2.87572  10
   4  10  -5 48.7791 2.83120   9
   3 -10  -5 0.41980 0.35776  15
   3 -10  -5 0.84609 0.14486  10
   3 -10  -5 0.07783 0.83382   6
   3 -10  -5 1.86229 0.52620  14
   3 -10  -5 0.48878 0.57904  16
   3 -10  -5 0.69788 0.44354  17
   3  10  -5 0.65553 0.88502   4
   3  10  -5 1.18160 0.44438   8
   3  10  -5 0.78436 1.06743   2
   3  10  -5 0.69193 1.04373   3
   3  10  -5 1.36268 0.58201   9
   3  10  -5 1.08169 0.47179  11
   2 -10  -5 60.1619 3.30787  16
   2 -10  -5 56.8163 3.49597   7
   2 -10  -5 60.7724 3.75602   6
   2 -10  -5 57.6709 3.09559  17
   2 -10  -5 59.6971 2.97973  10
   2 -10  -5 61.8384 3.12819  15
   2 -10  -5 63.1982 3.15184  14
   2  10  -5 61.7906 4.23052   4
   2  10  -5 58.8789 3.13102   8
   2  10  -5 51.6328 4.00815   3
   1 -10  -5 60.9685 3.20187   9
   1 -10  -5 63.3618 3.31203  17
   1 -10  -5 62.8838 3.22403  10
   1 -10  -5 61.5340 3.41454  16
   1 -10  -5 65.9725 3.31884  14
   1 -10  -5 65.9544 3.88594   6
   1 -10  -5 63.6822 3.82457   3
   1 -10  -5 67.6472 3.66862   2
   1 -10  -5 65.3697 3.75809   7
   1 -10  -5 61.2905 3.26829  15
   0 -10  -5 37.1673 1.95899   8
   0 -10  -5 41.3426 2.45429   7
   0 -10  -5 40.0693 2.60866   6
   0 -10   5 37.9217 3.22882   3
   0 -10  -5 36.2719 2.05889  10
   0 -10  -5 34.8846 2.11453  16
   0 -10   5 39.6638 2.75215   2
   0 -10   5 37.4567 2.03948   8
   0 -10  -5 40.1915 2.61370   2
   0 -10  -5 37.7272 2.95843   3
   0 -10  -5 37.4968 2.05040   9
  -1 -10  -5 36.0851 2.20386  16
   1 -10   5 39.6179 2.11722  10
   1 -10   5 45.1957 2.86409   6
   1 -10   5 40.8642 2.08144   8
   1 -10   5 39.2668 2.16118   9
  -1 -10  -5 38.6730 2.08796   8
   1 -10   5 42.1710 2.79623   2
   1 -10   5 44.1034 3.20456   3
  -1 -10  -5 34.3496 2.14532   9
  -1 -10  -5 36.6818 3.24215   3
  -1 -10  -5 40.7834 2.85864   2
   2 -10   5 18.4035 1.19947  10
   2 -10   5 17.6065 1.21474  14
   2 -10   5 18.3174 1.73752   2
  -2 -10  -5 17.3668 1.17285   8
   2 -10   5 17.4385 1.61845   5
   2 -10   5 17.7367 1.01740   8
   2 -10   5 17.3093 1.17298   9
   2 -10   5 20.8489 1.91652   6
   3 -10   5 160.354 8.69733   5
   3 -10   5 160.968 8.58464   2
   3 -10   5 160.560 8.17401  13
   3 -10   5 159.179 8.88470   6
   3 -10   5 168.640 8.10270   9
   3 -10   5 168.385 8.14369  10
   3 -10   5 172.253 8.27160  15
   3 -10   5 172.555 8.26583  14
   3  10   5 166.271 8.17139   8
   4 -10   5 122.789 6.55528  13
   4 -10   5 137.596 6.67312  14
   4 -10   5 137.607 6.46972  10
   4 -10   5 124.283 6.58632  15
   4  10   5 140.526 6.51725   8
   4  10   5 123.514 6.57718   9
   5 -10   5 8.94238 0.60198  10
   5 -10   5 9.65703 0.80130  13
   5 -10   5 9.57110 1.08164  14
   5  10   5 9.34415 0.87501   9
   5  10   5 10.2459 0.88875  13
   6 -10   5 1.29490 0.32353  13
   6 -10   5 0.98501 0.35344  14
   6  10   5 1.59585 0.33615  10
   6  10   5 0.64038 0.31915  13
   6  11  -5 2.42902 0.34712  10
   6  11  -5 3.06492 0.47636  12
   5 -11  -5 7.60322 0.93915  14
   5 -11  -5 9.10686 1.01986  16
   5 -11  -5 8.14650 0.82912  15
   5  11  -5 7.70370 0.77552   9
   5  11  -5 6.14254 1.01461  10
   5  11  -5 7.52447 0.82672  12
   4 -11  -5 38.7646 2.41220  17
   4 -11  -5 46.1252 2.54686  15
   4 -11  -5 45.2897 2.78946  16
   4 -11  -5 45.9985 2.47463  14
   4  11  -5 44.9609 2.53852  12
   4  11  -5 43.6387 2.42311   9
   4  11  -5 42.6505 2.56066  10
   4  11  -5 41.7408 2.35396  11
   4  11  -5 45.5259 2.24399   8
   3 -11  -5 70.9753 3.82780  17
   3 -11  -5 79.2471 3.91819  15
   3 -11  -5 72.0898 3.61542  10
   3 -11  -5 74.2257 4.02822  16
   3 -11  -5 80.6444 3.96374  14
   3 -11  -5 74.0759 4.59324   6
   3  11  -5 68.6943 4.81039   4
   3  11  -5 79.3678 3.83747   8
   3  11  -5 74.6869 3.86013  11
   3  11  -5 67.8042 4.80404   2
   3  11  -5 74.7336 3.97675   9
   2 -11  -5 118.380 6.74387   6
   2 -11  -5 128.052 6.16287  14
   2 -11  -5 120.281 5.97435  10
   2 -11  -5 124.398 6.13244  15
   2 -11  -5 117.857 6.09847  17
   2 -11  -5 123.637 6.28114  16
   2  11  -5 122.047 6.10019   8
   2  11  -5 119.134 7.13454   4
   1 -11  -5 123.592 5.94253  14
  -1 -11   5 118.895 6.47235   6
   1 -11  -5 115.834 6.03873  16
   1 -11  -5 112.156 6.50962   3
   1 -11  -5 114.619 5.81517   9
   1 -11  -5 118.596 6.37591   7
   1 -11  -5 122.284 6.55037   6
   1 -11  -5 114.929 5.92109  17
   1 -11  -5 122.116 6.26061   2
   1 -11  -5 119.819 5.84817  10
   1 -11  -5 116.802 5.89669  15
   1  11  -5 120.824 7.04636   4
   0 -11  -5 172.781 8.58058   8
   0 -11   5 190.772 9.36440   6
   0 -11  -5 177.678 8.80391  16
   0 -11  -5 177.445 9.63427   3
   0 -11  -5 172.772 8.66314   9
   0 -11  -5 169.860 8.67451  10
   0 -11   5 171.833 8.64486   8
   0 -11  -5 185.918 9.26073   6
   0 -11  -5 184.406 9.12449   7
   0 -11   5 170.253 9.38155   2
   0 -11  -5 184.585 9.27360   2
   0 -11   5 165.974 9.87451   3
   1 -11   5 295.786 14.8289   3
   1 -11   5 272.709 13.7062  10
  -1 -11  -5 280.434 14.9549   3
   1 -11   5 297.122 13.6387   8
   1 -11   5 276.143 13.7002   9
   1 -11   5 302.934 14.4390   6
   1 -11   5 296.261 14.3980   2
  -1 -11  -5 280.703 13.6495   8
  -1 -11  -5 279.954 13.7839  16
  -1 -11  -5 272.182 14.4175   2
  -1 -11  -5 248.823 13.7042   9
   2 -11   5 5.30462 1.03264   2
   2 -11   5 6.27093 0.74625   9
   2 -11   5 4.23431 0.72326  10
   2 -11   5 6.53537 0.91499   5
   2 -11   5 5.27630 1.16181   6
   2 -11   5 5.65231 0.73038  14
  -2 -11  -5 4.19349 0.55787   8
   2 -11   5 6.46626 1.33294   3
   2 -11   5 5.14382 0.53668   8
   3 -11   5 1.44324 0.35155   9
   3 -11   5 1.33571 0.56010  15
   3 -11   5 1.45923 0.42101  10
   3 -11   5 0.75574 0.59932   5
   3 -11   5 1.09876 0.49211  14
   3 -11   5 1.10874 0.90364   6
   3  11   5 1.71878 0.56603   8
   4 -11   5 75.1780 3.87433  14
   4 -11   5 74.9564 3.66228  10
   4 -11   5 66.9416 3.70814  13
   4 -11   5 74.6141 3.82321  15
   4  11   5 66.4840 3.77933   9
   4  11   5 75.1304 3.73381   8
   5 -11   5 0.20032 0.53281  14
   5 -11   5 0.47710 0.46498  13
   5 -11   5 0.54361 0.14900  10
   5  11   5 0.47336 0.50471  13
   5  11   5 0.69422 0.36048   9
   6 -11   5 17.7365 1.05706  14
   5 -12  -5 0.43935 0.56543  16
   5 -12  -5 1.10536 0.41153  14
   5 -12  -5 1.54882 0.53632  15
   5  12  -5 1.29311 0.39789  12
   5  12  -5 1.58830 0.43273  10
   5  12  -5 0.83490 0.37564   9
   4 -12  -5 143.955 6.95070  15
   4 -12  -5 142.546 7.11672  16
   4 -12  -5 136.861 6.90227  14
   4  12  -5 132.544 6.92672  10
   4  12  -5 130.988 6.87093  12
   4  12  -5 140.549 6.68613   8
   4  12  -5 137.226 6.86123   9
   3 -12  -5 33.8915 1.71164  10
   3 -12  -5 36.4514 2.21987  16
   3 -12  -5 35.7339 2.12044  15
   3 -12  -5 31.6276 2.01917  17
   3 -12  -5 37.3463 2.13340  14
   3  12  -5 32.4891 1.99622  11
   3  12  -5 38.6818 2.03133   8
   3  12  -5 31.0332 2.86508   4
   3  12  -5 35.1651 2.26800   9
   2 -12  -5 55.8191 3.72252   6
   2 -12  -5 59.4789 3.37538  16
   2 -12  -5 63.1085 3.17218  14
   2 -12  -5 56.9122 3.13858  17
   2 -12  -5 60.8616 2.99177  10
   2 -12  -5 60.9406 3.17858  15
   2  12  -5 53.7962 4.16898   4
   2  12  -5 58.3080 3.18627   8
   1 -12  -5 9.87875 1.17839  16
   1 -12  -5 9.73180 0.94587  17
   1 -12  -5 8.59400 0.87142  15
   1 -12  -5 9.24968 1.55794   3
   1 -12  -5 8.84735 1.28507   6
   1 -12  -5 8.54117 1.12813   2
   1 -12  -5 8.09788 0.71664   9
  -1 -12   5 7.88165 0.70998   8
   1 -12  -5 10.0559 1.36052   7
   1 -12  -5 8.54230 0.79094  10
  -1 -12   5 8.14995 1.24480   6
   1  12  -5 7.44018 1.63777   4
   0 -12   5 19.9136 1.98005   6
   0 -12  -5 21.4218 1.84875   7
   0 -12  -5 18.7647 1.69537   6
   0 -12  -5 19.8388 1.22529  10
   0 -12  -5 19.6820 1.26721   9
   0 -12  -5 18.2193 1.83540   2
   0 -12  -5 19.7702 1.13038   8
   0 -12  -5 18.8910 2.20968   3
   0 -12   5 20.9352 1.27211   8
   0 -12  -5 19.0293 1.49883  16
   1 -12   5 1428.33 66.5540   9
   1 -12   5 1346.47 66.1608  10
   1 -12   5 1417.51 66.5432   6
   1 -12   5 1321.20 66.8806   3
   1 -12   5 1366.15 66.4912   2
  -1 -12  -5 1301.89 66.6185   9
  -1 -12  -5 1372.78 67.0833   3
  -1 -12  -5 1344.10 66.5596   2
  -1 -12  -5 1419.85 66.6145   8
  -1 -12  -5 1330.97 67.0077  16
   1 -12   5 1424.61 66.4026   8
   2 -12   5 182.045 8.82380   9
   2 -12   5 168.665 9.43131   2
   2 -12   5 192.438 8.96910  15
   2 -12   5 179.598 8.85676  10
   2 -12   5 178.719 9.68288   6
   2 -12   5 181.861 8.68204   8
   2 -12   5 179.690 8.89339  14
  -2 -12  -5 175.232 8.83837   8
   3 -12   5 460.447 22.1908   9
   3 -12   5 468.208 22.3660  14
  -3 -12  -5 444.538 22.3064   8
   3 -12   5 480.020 22.3925  15
   3 -12   5 464.785 22.2645  10
   3  12   5 448.327 22.3065   8
   4 -12   5 34.3927 1.94707  15
   4 -12   5 27.9256 1.76632  13
   4 -12   5 33.3921 1.96996  14
   4 -12   5 30.8486 1.72386  10
   4  12   5 31.5888 1.86711   8
   5 -12   5 7.37565 0.65385  13
   5 -12   5 7.93428 0.90244  14
   5  12   5 8.88726 0.80103   9
   5  12   5 9.18400 0.74702  13
   5 -13  -5 176.455 8.30458  15
   5 -13  -5 164.146 8.27705  14
   5 -13  -5 164.379 8.34049  16
   5  13  -5 171.906 8.29574  12
   5  13  -5 164.334 8.28955  10
   5  13  -5 170.723 8.18386   9
   4 -13  -5 66.2453 3.54566  14
   4 -13  -5 67.6568 3.66168  16
   4 -13  -5 69.2415 3.51545  15
   4  13  -5 63.9638 3.27314   8
   4  13  -5 65.0608 3.48512  12
   4  13  -5 67.4631 3.55157   9
   3 -13  -5 254.265 12.2889  16
   3 -13  -5 234.742 12.0979  15
   3 -13  -5 242.184 12.1112  14
   3  13  -5 263.045 12.0345   8
   3  13  -5 238.835 12.1565   9
   2 -13  -5 145.593 7.02787  15
   2 -13  -5 149.485 7.18258  16
   2 -13  -5 129.543 7.66663   6
   2 -13  -5 147.304 6.86107  10
   2 -13  -5 131.788 6.96710  17
   2 -13  -5 145.253 7.02703  14
   2  13  -5 118.488 7.88604   4
   2  13  -5 147.160 7.01311   8
   1 -13  -5 3.70532 0.47900  10
   1 -13  -5 3.56854 0.59064   9
   1 -13  -5 4.26525 0.71925  16
   1 -13  -5 4.70558 0.74088  15
   1 -13  -5 5.07356 0.64041  17
   1 -13  -5 4.61848 1.07486   6
  -1 -13   5 3.62342 0.96372   6
  -1 -13   5 4.10455 0.55389   8
   1 -13  -5 3.47774 0.74743   2
   1 -13  -5 3.81447 0.96897   3
   1  13  -5 3.40956 1.33020   4
   0 -13  -5 566.330 26.6589   8
   0 -13  -5 574.903 26.6362  16
   0 -13   5 547.198 27.2170   6
   0 -13  -5 534.949 27.0960   2
   0 -13  -5 539.443 26.9879   7
   0 -13   5 560.896 26.7097   8
   0 -13  -5 576.796 26.9095   9
   0 -13  -5 554.672 26.4913  10
   0 -13  -5 535.132 27.0832   6
   0 -13   5 495.819 26.4899   9
  -1 -13  -5 985.547 47.1132   9
  -1 -13  -5 960.766 47.4547  16
  -1 -13  -5 937.006 47.0335   7
   1 -13   5 1025.24 47.2496   9
  -1 -13  -5 885.980 47.7573   3
   1 -13   5 896.836 47.6694   3
   1 -13   5 951.668 46.5640  10
  -1 -13  -5 998.099 47.2257   8
   1 -13   5 1070.66 47.1455   8
   2 -13   5 1544.71 73.2953   9
   2 -13   5 1534.36 73.1725  10
   2 -13   5 1417.27 73.2845  14
   2 -13   5 1643.29 74.1229  15
  -2 -13  -5 1484.75 73.3644   8
   2 -13   5 1452.46 73.4241   6
   3 -13   5 20.4934 1.46452  14
   3 -13   5 21.8272 1.27819  10
   3 -13   5 20.0155 1.21836   9
   3 -13   5 21.6118 1.53727  15
  -3 -13  -5 19.9259 1.48907   8
   3  13   5 19.4426 1.40646   8
   4 -13   5 295.200 14.1514  14
   4 -13   5 272.785 14.1221  15
   4 -13   5 290.903 14.0011  10
   4  13   5 300.775 14.0617   8
   5 -13   5 10.7647 0.82569  14
   5  13   5 10.7840 0.83265   9
   5  13   5 11.4151 0.90925  13
   5 -14  -5 90.2318 4.28467  15
   5 -14  -5 79.3975 4.29288  16
   5  14  -5 88.2942 4.16090   9
   5  14  -5 82.2442 4.29358  10
   5  14  -5 84.8698 4.25421  12
   4 -14  -5 167.822 8.22852  14
   4 -14  -5 171.663 8.23839  15
   4 -14  -5 174.300 8.40954  16
   4  14  -5 163.111 8.21769   9
   4  14  -5 151.031 7.99153   8
   4  14  -5 170.437 8.23598  12
   3 -14  -5 7.13156 1.04358  16
   3 -14  -5 6.38005 1.00687  14
   3 -14  -5 6.71064 0.79612  15
   3  14  -5 6.59501 1.03980   8
   2 -14  -5 175.325 8.64651  14
   2 -14  -5 170.301 8.60628  15
   2 -14  -5 162.102 8.46072  10
   2 -14  -5 180.766 8.83094  16
   2  14  -5 180.654 8.62971   8
   1 -14  -5 297.521 16.0986   6
   1 -14  -5 326.848 15.3744  10
   1 -14  -5 320.777 15.4377  15
   1 -14  -5 334.979 15.5987  16
   1 -14  -5 334.012 15.3265   9
   1 -14  -5 315.732 15.4261  17
  -1 -14   5 284.736 16.0251   6
   0 -14  -5 293.045 13.7222  17
   0 -14  -5 297.030 13.8632  16
   0 -14   5 267.270 14.4165   6
   0 -14  -5 280.397 13.6599   9
   0 -14  -5 278.686 13.5126   8
   0 -14  -5 274.745 13.6936  10
   0 -14   5 273.773 13.7158   9
  -1 -14  -5 62.0896 4.15682   7
   1 -14   5 64.8820 4.38873   6
  -1 -14  -5 71.9910 3.79383  16
  -1 -14  -5 73.9182 3.74463   9
   1 -14   5 74.9817 3.79109  15
   1 -14   5 71.6808 3.54661   8
  -1 -14  -5 71.0513 3.59134   8
   1 -14   5 71.4992 3.65747   9
   1 -14   5 70.5174 3.72120  10
   2 -14   5 136.679 6.57612   9
   2 -14   5 127.885 6.61818  10
   2 -14   5 131.110 6.69708  15
  -2 -14  -5 135.013 6.59257   8
   3 -14   5 244.847 11.3897  10
   3 -14   5 220.648 11.4439  14
   3 -14   5 228.176 11.2568   9
   3 -14   5 240.897 11.5099  15
  -3 -14  -5 238.854 11.4301   8
   3  14   5 228.937 11.4466   8
  -4 -14  -5 1.77747 0.52307   8
   4 -14   5 0.84217 0.47984  14
   4 -14   5 0.93677 0.38109  15
   4 -14   5 0.82105 0.27018  10
   4  14   5 0.56832 0.33362   8
   5  14   5 6.05745 0.52989  13
   4 -15  -5 35.4821 2.08187  16
   4 -15  -5 37.7212 1.95169  15
   4  15  -5 28.7643 1.89163  12
   4  15  -5 34.2893 2.04828   9
   3 -15  -5 33.3950 1.96372  14
   3 -15  -5 36.1946 2.34827  16
   3 -15  -5 34.7679 1.97941  15
   3  15  -5 29.9788 2.00578   9
   3  15  -5 37.4684 2.03557   8
   2 -15  -5 248.198 12.3140  10
  -2 -15   5 241.005 12.3883   8
   2 -15  -5 254.497 12.4494  15
   2 -15  -5 272.897 12.6468  16
   2  15  -5 255.222 12.4292   8
   1 -15  -5 158.646 8.88652  15
   1 -15  -5 191.134 9.10222  16
  -1 -15   5 178.752 8.89222  15
   1 -15  -5 191.456 8.77574   9
   1 -15  -5 189.925 8.84175  10
  -1 -15   5 185.075 8.86333   8
   1 -15  -5 166.151 8.87350  17
   0 -15   5 160.486 7.90556   8
   0 -15  -5 161.583 7.96089   9
   0 -15  -5 160.803 7.99967  10
   0 -15   5 157.818 8.00932   9
   0 -15  -5 156.414 8.00462  17
   0 -15   5 165.938 8.04827  15
   0 -15  -5 167.176 8.17402  16
  -1 -15  -5 15.8227 1.07961   8
   1 -15   5 17.7673 1.36878  15
   1 -15   5 15.6569 1.04504   8
  -1 -15  -5 18.0370 1.31566  16
  -1 -15  -5 16.9891 1.32944   9
   1 -15   5 16.6789 1.32361   9
   1 -15   5 17.5077 1.18480  10
  -2 -15  -5 1.24686 0.58781   9
   2 -15   5 1.26428 0.47742  10
   2 -15   5 1.27646 0.41484   9
  -2 -15  -5 1.35393 0.45595   8
   2 -15   5 1.24395 0.43589  15
  -2 -15  -5 0.51707 0.48858  16
  -3 -15  -5 0.43781 0.32999   8
   3 -15   5 0.27966 0.53634  15
   3 -15   5 0.14869 0.37709  10
   3 -15   5 0.15397 0.39747  14
   3  15   5 0.36346 0.53132   8
   4 -15   5 85.0555 4.34535  10
  -4 -15  -5 94.4285 4.48929   8
   4 -15   5 83.1654 4.48645  15
   4  15   5 94.4241 4.42913   8
   4 -16  -5 175.431 8.44573  16
   4  16  -5 167.267 8.33634  12
   4  16  -5 167.048 8.31094   9
   3 -16  -5 202.028 9.90449  16
   3 -16  -5 193.353 9.71121  15
   3  16  -5 198.380 9.63658   8
  -2 -16   5 66.1277 3.41278   8
   2 -16  -5 67.5176 3.60447  16
   2 -16  -5 63.3185 3.42339  15
   2 -16  -5 65.1004 3.28252  10
   2  16  -5 63.2984 3.41172   8
   1 -16  -5 223.063 10.9356  16
   1 -16  -5 212.516 10.5925   9
  -1 -16   5 222.130 10.7047   8
   1 -16  -5 219.624 10.7012  10
   0 -16  -5 447.744 23.6046  17
   0 -16   5 483.311 23.6742  15
   0 -16  -5 490.351 23.6055   9
   0 -16   5 500.804 23.6973   8
   0 -16  -5 505.504 23.8094  16
   0 -16   5 476.613 23.6590   9
   0 -16  -5 519.551 23.6609  10
   1 -16   5 405.760 20.9596  10
   1 -16   5 441.487 21.0237  15
  -1 -16  -5 453.585 21.0971  16
  -1 -16  -5 454.423 20.9839   9
   1 -16   5 431.638 20.9382   9
  -1 -16  -5 435.152 20.8262   8
   1 -16   5 409.599 20.7633   8
  -2 -16  -5 106.359 5.18021   8
   2 -16   5 102.738 5.20889  10
   2 -16   5 102.601 5.14977   9
   2 -16   5 109.539 5.31028  15
  -2 -16  -5 99.4234 5.31941   9
   3 -16   5 243.497 11.6200  15
   3 -16   5 228.330 11.4795  10
  -3 -16  -5 238.809 11.5184   8
   4 -16   5 83.7644 4.71244  15
   4 -16   5 84.6301 4.68688  14
  -4 -16  -5 103.370 4.71249   8
   4  16   5 108.243 4.68275   8
   4 -17  -5 3.14528 0.53309  15
   4  17  -5 3.51790 0.52382  12
   3 -17  -5 5.35532 0.67821  15
  -3 -17   5 6.46912 0.68816   8
   3  17  -5 7.42233 0.86632   8
   2 -17  -5 12.6754 0.80154  10
  -2 -17   5 12.5718 1.08567   8
   2 -17  -5 12.3673 0.94426  15
   2 -17  -5 13.4850 1.21825  16
   2  17  -5 13.2784 1.08478   8
   1 -17  -5 339.177 16.7482  10
   1 -17  -5 351.345 16.9545  16
  -1 -17   5 348.448 16.7472   8
   0 -17   5 1.73708 0.40019  15
   0 -17   5 1.14091 0.52402   9
   0 -17  -5 1.90102 0.37606  10
   0 -17  -5 1.98975 0.49203  16
   0 -17  -5 1.72027 0.41796   9
   0 -17   5 1.54450 0.32213   8
  -1 -17  -5 94.8574 5.18649  10
   1 -17   5 108.410 5.25427  15
   1 -17   5 105.201 5.21085  10
  -1 -17  -5 97.7050 5.16241  17
   1 -17   5 102.619 5.16255   9
  -1 -17  -5 110.257 5.22602   9
  -1 -17  -5 101.299 5.27894  16
   2 -17   5 68.0663 3.31464   9
  -2 -17  -5 59.9331 3.51317  16
  -2 -17  -5 69.7703 3.34795   8
   2 -17   5 69.9276 3.44486  10
  -2 -17  -5 62.3707 3.47311   9
   2 -17   5 69.5540 3.50072  15
  -3 -17  -5 100.960 4.76940   8
   3 -17   5 102.027 4.90210  15
   3 -17   5 99.5515 4.76398  10
   3  17   5 83.8899 4.78739   8
   3 -18  -5 60.0245 3.12436  16
  -3 -18   5 57.9851 2.96412   8
   3 -18  -5 55.2923 2.97462  15
   3  18  -5 60.8649 2.93833   8
  -2 -18   5 27.9549 1.51057   8
   2 -18  -5 23.1034 1.47586  15
   2 -18  -5 25.5546 1.28251  10
   2 -18  -5 21.8948 1.63774  16
   2  18  -5 25.2365 1.70328   8
  -1 -18   5 46.4212 2.69014   9
   1 -18  -5 55.0885 2.96961  16
   1 -18  -5 51.7633 2.60042  10
  -1 -18   5 49.0601 2.56685   8
   0 -18  -5 74.6054 3.77120  10
   0 -18   5 68.8453 3.72440  15
   0 -18  -5 75.1463 3.66870   9
   0 -18   5 74.8735 3.74771   9
   0 -18  -5 76.8817 3.95394  16
   0 -18   5 73.3258 3.57501   8
   0 -18   5 68.4807 3.83474  16
  -1 -18  -5 1.67105 0.51374  10
  -1 -18  -5 2.38981 0.45295  16
   1 -18   5 3.57022 0.44975  10
  -1 -18  -5 2.37899 0.51146   9
   1 -18   5 2.78539 0.45137   9
   1 -18   5 2.98538 0.45679  15
  -2 -18  -5 9.92778 0.58751   8
  -2 -18  -5 11.1276 1.09365   9
   2 -18   5 7.97869 0.78322  15
  -2 -18  -5 8.65315 0.68768  17
   2 -18   5 9.67805 0.88766  10
   3 -18   5 2.80917 0.39713  15
   3 -18   5 2.22709 0.35488  10
  -3 -18  -5 2.92381 0.38395   8
   3  18   5 1.75184 0.43502   8
   2 -19  -5 194.595 9.02722  16
  -2 -19   5 168.926 8.80753   8
   2  19  -5 182.750 8.85754   8
   1 -19  -5 123.583 5.64539  10
   1 -19  -5 121.112 5.83045  16
  -1 -19   5 108.587 5.70409   9
  -1 -19   5 106.575 5.56933   8
   0 -19  -5 18.0545 1.42806  16
   0 -19  -5 16.7855 1.18652  10
   0 -19   5 16.3671 1.21448  16
   0 -19   5 18.6425 1.13207   9
   0 -19  -5 17.2705 0.94074   9
   1 -19   5 51.6121 2.51189   9
  -1 -19  -5 48.5411 2.63504  16
   1 -19   5 49.6747 2.56762  15
   1 -19   5 48.4022 2.55825  10
  -1 -19  -5 48.1244 2.58840  10
  -1 -19  -5 49.0597 2.52632   9
  -2 -19  -5 11.4637 0.84330   9
   2 -19   5 12.3485 0.84179  10
   2 -19   5 10.9088 0.91783  15
  -1 -20   5 12.6171 0.83964   9
   1 -20  -5 9.68004 0.92441  16
   1 -20  -5 12.3174 0.70725  10
   0 -20  -5 0.57306 0.32653  16
   0 -20   5 1.07506 0.27846   9
   0 -20  -5 0.19247 0.25335  10
  -1 -20  -5 124.663 6.03683   9
   6   0  -6 96.3833 5.20504  12
   6   0  -6 107.624 5.30129  18
   6   0  -6 109.679 5.26789  11
   5   0  -6 87.4776 5.99342   4
   5   0  -6 91.7172 4.99867  12
   5   0  -6 100.860 5.05065  18
   5   0  -6 109.964 5.09228  11
   5   0  -6 102.762 5.11598  17
   4   0  -6 62.6690 3.23874  10
   4   0  -6 65.4988 3.46238  17
   4   0  -6 67.3241 3.44996  18
   4   0  -6 69.3656 3.58019  16
   4   0  -6 62.2954 3.97954   7
   4   0  -6 61.5457 4.25275   4
   4   0  -6 66.5588 3.43304  11
   3   0  -6 48.9875 2.55928   3
   3   0  -6 40.3956 2.26513   9
   3   0  -6 50.1144 2.93489   7
   3   0  -6 45.6394 2.46469  17
   3   0  -6 44.1814 2.51789   3
   3   0  -6 47.5242 3.21448   4
   3   0  -6 46.4864 2.44214  18
   3   0  -6 43.1585 2.42982   2
   3   0  -6 46.2009 2.34127  10
   3   0  -6 47.1482 2.48063   2
   3   0  -6 46.9979 2.41244  11
   3   0  -6 47.7658 2.58220  16
   2   0  -6 573.006 29.0597   4
   2   0  -6 616.255 28.8331   2
   2   0  -6 586.140 28.8872   7
   2   0  -6 599.102 28.9179   3
   1   0  -6 6.45820 0.99056   2
   1   0  -6 6.41004 1.55026   1
   1   0  -6 6.45451 0.78554   7
   0   0  -6 5832.73 263.259   2
   0   0   6 5545.77 264.859   1
   0   0  -6 5592.43 262.009   7
   0   0   6 5332.25 260.976   5
   0   0  -6 5603.29 264.601   3
   0   0  -6 5302.16 262.547   1
   0   0  -6 5112.58 264.475   1
   0   0   6 5124.99 266.112   1
  -1   0  -6 109.736 5.49455   7
   1   0   6 97.6882 6.93797   1
  -1   0  -6 97.0809 6.96184   1
   1   0   6 111.023 7.04575   1
  -1   0  -6 113.154 6.07605   3
   1   0   6 108.516 5.74461   2
  -1   0  -6 112.443 5.90262   2
  -1   0  -6 110.126 7.54956   1
   1   0   6 108.261 5.99215   3
   1   0   6 112.411 5.50887   5
   2   0   6 1795.96 84.4978   2
   2   0   6 1674.84 83.7657   3
   2   0   6 1727.37 84.5001   5
   3   0   6 25.0728 1.82812   5
   3   0   6 26.2256 2.08305   2
   3   0   6 28.9137 2.43133   3
   3   0   6 23.8765 1.46933   9
   3   0   6 22.8632 1.36540   8
   3   0   6 23.4088 1.45758  13
   4   0   6 63.7897 3.61380   5
   4   0   6 53.7614 2.77054   8
   4   0   6 51.4194 3.89650   3
   4   0   6 52.6652 3.55151   2
   4   0   6 53.8127 2.88566  10
   4   0   6 56.9513 2.95105  13
   4   0   6 53.6752 2.89339   9
   5   0   6 208.423 10.1119   9
   5   0   6 196.860 10.2364  14
   5   0   6 215.812 10.1816  10
   5   0   6 210.229 10.2642  13
   6   0   6 106.862 5.49304  13
   6   0   6 110.867 5.39085  10
   7  -1  -6 0.18049 0.29700  11
   7   1  -6 0.22831 0.27550  11
   6  -1  -6 55.3363 2.93156  18
   6  -1  -6 49.7600 2.80962  12
   6  -1  -6 58.9748 2.89903  11
   6   1  -6 51.7345 2.83387  12
   6   1  -6 55.2483 2.88339  11
   6   1  -6 54.4823 2.92122  18
   5  -1  -6 20.2986 1.37171  18
   5  -1  -6 19.8357 1.30262  11
   5  -1  -6 17.3698 1.18990  12
   5  -1  -6 18.9561 1.56555  17
   5   1  -6 16.9522 1.35213  12
   5   1  -6 19.0581 1.46591  11
   5   1  -6 20.0554 1.57100  18
   5   1  -6 19.6341 1.38001  17
   5   1  -6 16.4166 2.11834   4
   5   1  -6 19.1359 0.99449  10
   4  -1  -6 408.961 19.4533  17
   4  -1  -6 384.208 20.2136   4
   4  -1  -6 395.568 19.4211  11
   4  -1  -6 369.048 19.2961  10
   4  -1  -6 408.275 19.9735   7
   4  -1  -6 414.649 19.4596  18
   4  -1  -6 411.849 19.6073  16
   4   1  -6 415.251 19.6052  16
   4   1  -6 405.318 19.3224  10
   4   1  -6 397.403 20.3745   4
   4   1  -6 415.546 19.4467  11
   4   1  -6 435.562 19.4724  17
   4   1  -6 346.131 19.3706  12
   4   1  -6 416.253 19.4572  18
   4   1  -6 395.492 19.9515   7
   3  -1  -6 254.620 13.5542  11
   3  -1  -6 271.203 14.2061   4
   3  -1  -6 276.334 13.5992  18
   3  -1  -6 268.586 13.4936  10
   3  -1  -6 280.842 13.6028  17
   3  -1  -6 265.037 13.6121  15
   3  -1  -6 292.555 13.7517  16
   3  -1  -6 304.835 14.0376   7
   3   1  -6 284.862 14.3543   4
   3   1  -6 298.611 14.0149   7
   3   1  -6 290.799 13.8675   3
   3   1  -6 287.411 13.7699   2
   3   1  -6 263.682 13.4757   9
   3   1  -6 280.906 13.7378  16
   3   1  -6 278.544 13.6056  18
   3   1  -6 273.727 13.5251  10
   3   1  -6 285.976 13.5995  11
   3   1  -6 284.663 13.5961  17
   2  -1  -6 1141.21 57.5242   4
   2  -1  -6 1168.94 57.4125   7
   2  -1  -6 1201.52 58.3038   2
   2  -1  -6 1173.63 58.0650   3
   2   1  -6 1217.73 57.6896   4
   2   1  -6 1178.54 58.4890   3
   2   1  -6 1238.89 58.6547   2
   2   1  -6 1201.98 57.3986   7
   1  -1  -6 466.041 26.1282   1
   1  -1  -6 488.692 26.3972   1
   1  -1  -6 539.819 25.1353   7
   1  -1  -6 531.085 25.2204   2
   1  -1  -6 529.189 25.3398   3
   1   1  -6 532.316 25.1229   7
   1   1  -6 547.186 25.3872   3
   1   1  -6 527.069 25.2641   2
   1   1  -6 490.901 26.5410   1
   0  -1   6 1588.98 77.2768   1
   0  -1   6 1474.61 76.1118   5
   0  -1   6 1560.73 77.0853   1
   0  -1  -6 1619.76 77.4881   1
   0  -1  -6 1514.02 77.0325   1
   0  -1   6 1478.54 75.8314   2
   0  -1   6 1455.39 76.0412   3
   0  -1  -6 1749.34 77.6915   2
   0  -1  -6 1620.55 76.8650   7
   0  -1  -6 1629.71 77.7460   3
   0   1  -6 1555.33 77.5519   1
   0   1  -6 1632.12 77.4299   2
   0   1   6 1373.69 76.9517   1
   0   1  -6 1647.00 77.6880   3
   0   1  -6 1662.92 76.6518   7
   0   1   6 1689.03 77.1403   1
   0   1  -6 1553.17 77.0981   1
   1  -1   6 4007.05 191.355   3
  -1  -1  -6 3565.11 188.500   1
   1  -1   6 4077.95 189.112   1
  -1  -1  -6 3829.72 189.241   2
   1  -1   6 4059.51 190.136   2
  -1  -1  -6 3963.64 189.060   1
  -1  -1  -6 3910.96 188.557   7
  -1  -1  -6 4016.51 190.914   3
   1  -1   6 3948.26 188.407   5
  -1   1  -6 3720.97 190.395   3
   1   1   6 4024.00 191.453   3
  -1   1  -6 3903.37 189.177   1
  -1   1  -6 4039.72 190.240   2
   1   1   6 4061.63 188.735   5
   1   1   6 3784.52 189.358   2
   1   1   6 3554.81 188.452   1
  -1   1  -6 3932.19 188.443   7
   1   1   6 3832.63 188.498   1
   2  -1   6 217.642 11.2852   3
   2  -1   6 212.860 10.7946   5
   2  -1   6 214.858 10.9860   2
   2   1   6 218.704 11.3010   3
   2   1   6 215.547 10.8297   5
   2   1   6 220.504 11.0393   2
   3  -1   6 1128.90 57.3146   9
   3  -1   6 1117.40 57.3732  13
   3  -1   6 1232.14 57.2285   5
   3  -1   6 1143.83 57.1893   8
   3  -1   6 1242.75 57.3252   2
   3  -1   6 1122.62 57.0873  10
   3  -1   6 1248.74 57.6721   3
   3   1   6 1085.27 57.1575   9
   3   1   6 1253.54 57.2384   5
   3   1   6 1257.61 57.4024   2
   3   1   6 1277.12 57.7131   3
   3   1   6 1086.94 57.0661   8
   4  -1   6 467.624 23.0221  13
   4  -1   6 479.947 23.9035   3
   4  -1   6 463.985 22.8909   8
   4  -1   6 496.521 22.9812  10
   4  -1   6 473.242 23.5584   2
   4  -1   6 479.357 23.6216   5
   4  -1   6 478.600 23.0294   9
   4   1   6 469.786 24.0183   3
   4   1   6 467.782 22.9665   9
   4   1   6 473.436 22.9798  10
   4   1   6 461.586 23.6037   2
   4   1   6 478.107 23.6058   5
   4   1   6 473.503 23.0221   8
   4   1   6 494.825 23.0433  13
   5  -1   6 4.49852 0.56845  10
   5  -1   6 4.37870 0.57364   9
   5  -1   6 3.84752 0.65315  13
   5  -1   6 4.27683 0.66513  14
   5   1   6 4.44014 0.72916  13
   5   1   6 4.54507 0.63806   9
   5   1   6 3.95906 0.72490  14
   5   1   6 4.93590 0.75308  10
   6  -1   6 102.359 4.93635  10
   6  -1   6 101.462 5.06888  13
   6   1   6 91.5353 4.92353  10
   6   1   6 103.358 5.07241  13
   7  -2  -6 64.9615 3.30547  11
   7   2  -6 67.0722 3.31986  11
   6  -2  -6 175.289 9.52826  12
   6  -2  -6 198.800 9.62572  18
   6  -2  -6 193.406 9.59687  17
   6  -2  -6 214.095 9.62681  11
   6   2  -6 193.822 9.61075  18
   6   2  -6 191.859 9.58289  12
   6   2  -6 201.233 9.59997  11
   5  -2  -6 1000.48 47.2429  16
   5  -2  -6 865.746 47.0080  12
   5  -2  -6 955.751 47.5411  18
   5  -2  -6 986.118 47.0884  17
   5  -2  -6 1014.28 47.1749  11
   5   2  -6 1024.70 47.5935  11
   5   2  -6 986.877 47.2084  18
   5   2  -6 931.406 47.1946  10
   5   2  -6 943.215 47.1345  12
   5   2  -6 1078.85 47.1152  17
   4  -2  -6 128.525 7.14073  10
   4  -2  -6 135.073 8.04925   4
   4  -2  -6 161.075 7.42907  17
   4  -2  -6 154.020 7.40823  18
   4  -2  -6 152.163 7.92026   7
   4  -2  -6 151.344 7.35089  11
   4  -2  -6 154.904 7.54787  16
   4  -2  -6 144.139 7.40044  15
   4   2  -6 156.666 7.40247  11
   4   2  -6 132.793 7.32307  12
   4   2  -6 156.088 7.28347  10
   4   2  -6 152.210 7.37799  18
   4   2  -6 154.859 7.38492  17
   4   2  -6 150.147 8.35428   4
   3  -2  -6 232.854 11.4436  16
   3  -2  -6 247.661 11.7445   7
   3  -2  -6 214.804 11.3083  15
   3  -2  -6 233.785 11.2991  17
   3  -2  -6 222.925 11.2946  18
   3  -2  -6 212.185 11.7942   4
   3  -2  -6 232.422 11.3107  11
   3  -2  -6 221.901 11.1800  10
   3   2  -6 245.872 11.7220   7
   3   2  -6 236.228 11.5707   2
   3   2  -6 219.697 11.2733  17
   3   2  -6 232.815 11.2954  18
   3   2  -6 247.052 11.6886   3
   3   2  -6 241.400 11.4527  16
   3   2  -6 245.101 12.1772   4
   3   2  -6 231.859 11.2424  10
   3   2  -6 221.567 11.1976   9
   3   2  -6 236.303 11.2981  11
   2  -2  -6 469.804 25.8967   2
   2  -2  -6 551.968 25.9529   2
   2  -2  -6 515.586 26.0010   3
   2  -2  -6 513.955 26.0866   3
   2  -2  -6 551.232 26.1460   7
   2  -2  -6 496.283 26.1634   4
   2   2  -6 546.063 26.1695   2
   2   2  -6 596.276 26.5252   4
   2   2  -6 573.216 26.1173   7
   2   2  -6 546.864 26.2986   3
   1  -2  -6 461.840 21.5598   2
   1  -2  -6 435.803 21.4955   7
   1  -2  -6 395.711 21.5066   4
   1  -2  -6 443.970 21.6461   3
   1   2  -6 458.602 21.4952   7
   1   2  -6 404.739 22.9422   1
   1   2  -6 477.159 21.8247   3
   1   2  -6 450.663 21.6457   2
   0  -2   6 292.356 16.1139   3
   0  -2  -6 321.138 15.7963   7
   0  -2  -6 330.186 17.4253   1
   0  -2   6 325.719 15.9436   2
   0  -2   6 337.584 17.2524   1
   0  -2   6 312.361 17.2976   1
   0  -2  -6 348.853 16.1384   3
   0  -2  -6 295.464 17.0070   1
   0  -2  -6 336.461 15.9923   2
   0   2  -6 326.319 15.7199   7
   0   2  -6 299.895 17.0871   1
   0   2  -6 331.094 16.1724   3
   0   2  -6 320.444 17.6331   1
   0   2   6 323.333 17.1555   1
   0   2  -6 335.893 16.0938   2
  -1  -2  -6 131.645 8.58928   1
   1  -2   6 138.007 6.72693   5
  -1  -2  -6 134.061 7.10100   2
  -1  -2  -6 123.882 8.33932   1
   1  -2   6 144.981 7.23917   3
   1  -2   6 116.756 8.22670   1
   1  -2   6 133.749 8.32549   1
  -1  -2  -6 147.073 7.31023   3
   1  -2   6 138.104 6.96874   2
  -1   2  -6 137.238 7.27164   3
  -1   2  -6 135.785 7.10723   2
  -1   2  -6 118.797 8.26924   1
   1   2   6 137.586 7.29722   3
   1   2   6 139.244 8.36896   1
   1   2   6 137.025 7.02062   2
   1   2   6 128.175 8.30049   1
  -1   2  -6 129.724 6.66673   7
   2  -2   6 11.8473 1.15834   5
   2  -2   6 12.0059 1.55559   3
   2  -2   6 10.9080 1.29434   2
   2   2   6 11.7632 1.35741   2
   2   2   6 13.2205 1.22818   5
   2   2   6 10.5645 1.59667   3
   3  -2   6 1010.72 52.2027   8
   3  -2   6 1138.56 52.3125   5
   3  -2   6 1040.10 51.9477  10
   3  -2   6 1028.63 52.3354   9
   3  -2   6 998.933 52.1796  13
   3  -2   6 1161.75 52.7633   3
   3  -2   6 1171.23 52.4114   2
   3   2   6 1010.15 52.1418   8
   3   2   6 1154.45 52.8532   3
   3   2   6 1119.57 52.4870   2
   3   2   6 971.567 52.0135   9
   3   2   6 1154.87 52.3285   5
   4  -2   6 1455.79 70.8665  14
   4  -2   6 1400.74 69.5404   8
   4  -2   6 1468.01 70.2851  13
   4  -2   6 1419.92 70.0527   2
   4  -2   6 1462.39 70.1500   5
   4  -2   6 1445.21 70.3344  10
   4  -2   6 1460.43 70.2185   9
   4   2   6 1486.40 70.3615   9
   4   2   6 1472.97 69.9753   8
   4   2   6 1440.56 70.1575   5
   4   2   6 1494.44 70.9523  13
   4   2   6 1377.81 70.5598   3
   4   2   6 1482.27 70.4305  10
   4   2   6 1421.66 70.1966   2
   5  -2   6 108.699 5.66624  14
   5  -2   6 113.930 5.70305  13
   5  -2   6 112.288 5.48928   9
   5  -2   6 116.003 5.57854  10
   5   2   6 105.847 5.58300  10
   5   2   6 112.771 5.71966  13
   5   2   6 112.771 5.55563   9
   6  -2   6 49.0359 2.68774  13
   6  -2   6 48.3496 2.46780  10
   6   2   6 47.3831 2.68617  13
   6   2   6 46.8232 2.48888  10
   7  -3  -6 24.5360 1.37942  11
   6  -3  -6 2.14672 0.64191  18
   6  -3  -6 2.12579 0.41899  11
   6  -3  -6 1.13418 0.71545  17
   6   3  -6 1.77279 0.64231  18
   6   3  -6 1.39728 0.55163  11
   6   3  -6 2.14455 0.41017  12
   5  -3  -6 191.012 9.66404  16
   5  -3  -6 193.017 9.55294  18
   5  -3  -6 199.582 9.56289  17
   5  -3  -6 185.968 9.47834  12
   5  -3  -6 200.805 9.51343  11
   5   3  -6 191.646 9.54767  18
   5   3  -6 180.544 9.47388  12
   5   3  -6 192.492 9.37112  10
   5   3  -6 196.852 9.52509  17
   5   3  -6 197.709 9.53794  11
   4  -3  -6 78.9809 3.71832  17
   4  -3  -6 71.4974 3.68367  18
   4  -3  -6 72.7737 3.80605  16
   4  -3  -6 72.8649 4.20660   7
   4  -3  -6 66.2817 3.57548  11
   4  -3  -6 67.9802 3.67391  15
   4   3  -6 69.5016 3.67855   2
   4   3  -6 71.5609 3.55095  10
   4   3  -6 73.4657 3.62884  11
   4   3  -6 69.9537 4.62008   4
   4   3  -6 66.2641 3.77082   3
   4   3  -6 68.1073 3.62372  17
   4   3  -6 69.5664 3.62163  18
   4   3  -6 67.3479 3.43219   9
   4   3  -6 64.6180 3.59436  12
   3  -3  -6 197.314 9.43517  17
   3  -3  -6 197.198 9.82821   7
   3  -3  -6 187.424 9.27643  10
   3  -3  -6 186.493 9.42809  15
   3  -3  -6 195.693 9.55921  16
   3  -3  -6 179.009 9.86215   4
   3  -3  -6 186.187 9.42219  18
   3   3  -6 185.344 9.40046  17
   3   3  -6 186.891 9.33300   9
   3   3  -6 197.068 9.91648   3
   3   3  -6 194.155 9.36882  10
   3   3  -6 200.645 10.3221   4
   3   3  -6 203.448 9.88023   7
   3   3  -6 193.319 9.41877  18
   3   3  -6 193.271 9.42453  11
   3   3  -6 194.455 9.76875   2
   2  -3  -6 3885.33 201.234   3
   2  -3  -6 4277.25 201.146   2
   2  -3  -6 3672.02 201.739   4
   2  -3  -6 4368.62 202.191   7
   2   3  -6 4327.20 202.184   7
   2   3  -6 4321.78 202.569   2
   2   3  -6 4302.56 203.979   3
   2   3  -6 4198.31 204.445   4
   1  -3  -6 8.58712 0.86981   4
   1  -3  -6 10.8049 1.13394   2
   1  -3  -6 11.2124 1.14982   3
   1   3  -6 10.7881 1.41583   3
   1   3  -6 8.84181 1.99492   1
   1   3  -6 11.0080 1.06469   7
   1   3  -6 11.8322 1.28975   2
   0  -3   6 130.816 6.85303   2
   0  -3  -6 142.191 6.92148   2
   0  -3   6 115.046 8.02565   1
   0  -3  -6 136.793 6.73004   7
   0  -3   6 131.825 8.08824   1
   0  -3   6 119.293 7.01921   3
   0  -3  -6 132.689 8.17400   1
   0  -3  -6 142.125 7.06644   3
   0   3   6 119.957 7.89044   1
   0   3  -6 126.159 8.02334   1
   0   3  -6 132.898 8.54753   1
   0   3  -6 135.705 6.61778   7
   0   3  -6 135.545 7.09246   3
   0   3  -6 145.912 7.06718   2
   1  -3   6 766.899 34.9550   5
   1  -3   6 748.729 35.4949   3
   1  -3   6 701.224 36.6339   1
  -1  -3  -6 760.594 35.3143   2
   1  -3   6 750.650 35.2163   2
  -1  -3  -6 690.101 37.0223   1
  -1  -3  -6 758.467 35.5271   3
  -1  -3  -6 703.045 36.9832   1
   1   3   6 700.462 36.7231   1
  -1   3  -6 654.322 36.5905   1
   2  -3   6 72.7776 4.27723   2
   2  -3   6 75.8791 4.09703   5
   2  -3   6 78.9030 4.59009   3
   2   3   6 76.8528 4.65205   3
   2   3   6 75.6211 4.39624   2
   3  -3   6 387.921 19.3188   9
   3  -3   6 372.345 19.3398  13
   3  -3   6 391.638 19.2920   8
   3  -3   6 429.374 19.8278   5
   3  -3   6 378.432 19.3297  10
   3  -3   6 413.067 20.2366   3
   3  -3   6 420.672 19.8908   2
   3   3   6 417.676 20.0633   2
   3   3   6 429.854 19.8812   5
   3   3   6 432.778 20.4652   3
   3   3   6 377.318 19.2990   8
   3   3   6 361.369 19.3526   9
   4  -3   6 319.254 15.3422  13
   4  -3   6 329.387 15.4051  14
   4  -3   6 309.464 16.0782   3
   4  -3   6 305.270 15.2401   9
   4  -3   6 319.914 15.2811  10
   4  -3   6 315.029 15.9054   5
   4   3   6 324.116 15.3844  13
   4   3   6 317.386 15.3349  10
   4   3   6 310.066 15.9243   5
   4   3   6 312.297 16.0405   2
   4   3   6 297.388 16.3477   3
   4   3   6 313.958 15.2115   8
   4   3   6 318.471 15.3152   9
   5  -3   6 30.3605 1.81592  14
   5  -3   6 29.6292 1.88537  13
   5  -3   6 30.5703 1.58377   9
   5  -3   6 30.6781 1.71825  10
   5   3   6 29.1185 1.81124  10
   5   3   6 29.0608 1.72691   9
   5   3   6 29.6784 1.80902  13
   6  -3   6 57.3139 2.73023  10
   6  -3   6 49.5461 2.86033  14
   6  -3   6 53.0746 2.86958  13
   6   3   6 55.8058 2.82660  10
   6   3   6 53.6226 2.95285  13
   6  -4  -6 1.34674 0.48610  17
   6  -4  -6 0.60407 0.43690  18
   6  -4  -6 0.83284 0.35165  11
   6   4  -6 0.77601 0.34103  12
   6   4  -6 0.38978 0.59491  18
   6   4  -6 1.32010 0.40721  11
   5  -4  -6 1.26592 0.47656  11
   5  -4  -6 0.72250 0.43047  18
   5  -4  -6 1.43841 0.63388  17
   5  -4  -6 1.79858 0.71788  16
   5   4  -6 1.38989 0.36246  10
   5   4  -6 1.35862 0.60499  18
   5   4  -6 0.50715 0.47483  12
   5   4  -6 0.60026 0.38835  11
   4  -4  -6 49.8269 2.63158  15
   4  -4  -6 46.2239 2.57913  11
   4  -4  -6 42.3917 2.54162  14
   4  -4  -6 51.4239 2.71277  17
   4  -4  -6 45.6200 3.02519   7
   4  -4  -6 50.9294 2.91108  16
   4  -4  -6 49.7629 2.68687  18
   4   4  -6 46.4659 2.96180   3
   4   4  -6 51.3719 2.57315  10
   4   4  -6 44.7067 2.59339  12
   4   4  -6 48.6830 3.64478   4
   4   4  -6 51.7807 2.70017  17
   4   4  -6 49.3354 2.60707  11
   4   4  -6 46.7329 2.59483  18
   3  -4  -6 1.48524 0.22929  10
   3  -4  -6 1.46358 0.82604   7
   3  -4  -6 1.70872 0.55792  16
   3  -4  -6 1.38845 0.45526  17
   3  -4  -6 1.62041 0.46857  15
   3  -4  -6 1.80613 0.41618  14
   3   4  -6 1.37602 0.34077  18
   3   4  -6 1.89732 0.78466   2
   3   4  -6 2.42690 0.38852  11
   3   4  -6 1.76472 0.45368  17
   3   4  -6 1.17834 1.13946   4
   3   4  -6 2.20885 0.41577  12
   3   4  -6 1.48380 0.38779  10
   3   4  -6 1.53534 0.37553   9
   3   4  -6 0.71226 0.80605   7
   3   4  -6 1.54680 0.92615   3
   2  -4  -6 1860.88 101.525   2
   2  -4  -6 2048.17 102.249   3
   2  -4  -6 2169.51 102.064   2
   2  -4  -6 1981.44 101.742   3
   2  -4  -6 2166.98 102.478   7
   2   4  -6 2222.14 102.333   7
   2   4  -6 2130.90 103.348   3
   2   4  -6 2194.57 103.475   2
   2   4  -6 2181.05 103.855   4
   1  -4  -6 9.98672 1.16146   7
   1  -4  -6 10.9183 1.14705   2
   1  -4  -6 9.45353 1.18535   6
   1   4  -6 11.7269 1.51583   3
   1   4  -6 9.68779 2.25615   1
   1   4  -6 11.2463 1.40532   2
   1   4  -6 10.2415 1.03262   7
   0  -4  -6 2.77006 0.86198   3
   0  -4  -6 3.33681 0.65863   7
   0  -4   6 3.09809 0.71901   2
   0  -4  -6 5.24456 1.53595   1
   0  -4   6 2.37013 1.35902   1
   0  -4   6 2.03120 0.84083   3
   0  -4  -6 5.98796 1.00067   2
   0   4  -6 4.58838 1.02818   3
   0   4  -6 3.03081 1.29347   1
   0   4  -6 4.17479 1.75790   1
   0   4  -6 3.69075 0.90278   2
   0   4  -6 3.58699 0.53704   7
  -1  -4  -6 1706.58 76.7583   2
   1  -4   6 1621.06 75.9455   3
   1  -4   6 1631.07 76.8606   2
  -1  -4  -6 1573.60 77.5935   1
   1  -4   6 1490.96 77.0918   1
   1  -4   6 1630.50 76.3369   5
   1   4   6 1482.75 77.2389   1
  -1   4  -6 1415.21 77.1156   1
   2  -4   6 3.44265 0.81723   2
   2  -4   6 5.17496 0.76914   5
   2  -4   6 3.87186 1.03043   3
   2   4   6 4.92802 0.97441   2
   2   4   6 4.32130 0.99017   3
   3  -4   6 1.41425 0.37298  10
   3  -4   6 1.76535 0.77058   2
   3  -4   6 1.82825 0.62666   5
   3  -4   6 1.58335 0.38319   9
   3  -4   6 3.10407 1.09702   3
   3  -4   6 1.13151 0.38652  13
   3   4   6 2.24774 0.88762   5
   3   4   6 2.37564 0.42010   8
   3   4   6 1.85534 0.97134   2
   3   4   6 0.83740 1.10293   3
   3   4   6 1.60592 0.47813   9
   4  -4   6 185.114 9.03562  10
   4  -4   6 183.407 9.62449   5
   4  -4   6 175.103 9.75295   3
   4  -4   6 192.695 9.11593  13
   4  -4   6 191.700 8.99771   9
   4  -4   6 188.244 9.52430   2
   4  -4   6 200.026 9.17156  14
   4   4   6 172.865 10.1457   3
   4   4   6 180.618 9.08442   9
   4   4   6 183.211 9.71542   5
   4   4   6 176.715 9.09760  10
   4   4   6 188.677 8.98466   8
   4   4   6 173.710 9.81056   2
   5  -4   6 5.68207 0.76761  12
   5  -4   6 6.67367 0.97143  13
   5  -4   6 6.32227 0.80608  14
   5  -4   6 6.21414 0.47534   9
   5  -4   6 7.45711 0.74238  10
   5   4   6 5.93595 0.79558  13
   5   4   6 6.30924 0.83719   9
   5   4   6 6.06977 0.92659  10
   6  -4   6 34.3021 2.03167  14
   6  -4   6 36.1036 1.81793  10
   6  -4   6 36.6028 2.00308  13
   6   4   6 35.5674 2.10841  13
   6   4   6 36.0241 1.91070  10
   6   4   6 32.5372 1.74761   9
   6  -5  -6 2.08716 0.48785  17
   6  -5  -6 2.04383 0.36615  11
   6  -5  -6 2.13773 0.47557  18
   6   5  -6 2.17225 0.43153  11
   6   5  -6 1.70712 0.49961  12
   6   5  -6 2.07801 0.45362  18
   5  -5  -6 16.7899 1.25574  18
   5  -5  -6 17.6414 1.26553  17
   5  -5  -6 17.0876 1.31769  15
   5  -5  -6 16.3189 1.62948  16
   5  -5  -6 16.7786 1.24253  11
   5   5  -6 16.4890 1.18202  12
   5   5  -6 19.7457 1.38656  11
   5   5  -6 17.4137 1.16497  10
   5   5  -6 18.0724 1.24214  18
   4  -5  -6 1.07953 0.48099  16
   4  -5  -6 1.45163 0.44999  14
   4  -5  -6 1.47161 0.83822   7
   4  -5  -6 1.09000 0.30341  11
   4  -5  -6 2.18607 0.44334  17
   4  -5  -6 1.15565 0.39586  15
   4  -5  -6 1.06638 0.50504  18
   4   5  -6 1.01487 0.52860  11
   4   5  -6 1.38065 0.44984  12
   4   5  -6 1.50341 0.72014   3
   4   5  -6 2.46764 0.46141  10
   4   5  -6 1.04938 0.48206  18
   4   5  -6 1.22611 1.32747   4
   4   5  -6 1.08061 0.64403  17
   3  -5  -6 15.8416 0.90069  10
   3  -5  -6 17.3148 1.17394  14
   3  -5  -6 16.3484 1.21388  17
   3  -5  -6 16.6910 1.44997  16
   3  -5  -6 15.1754 1.08644  18
   3  -5  -6 16.4248 1.12219  15
   3  -5  -6 16.6798 1.74201   7
   3   5  -6 17.1559 1.21592  11
   3   5  -6 20.0654 1.79291   2
   3   5  -6 15.6685 1.18258  18
   3   5  -6 18.1163 2.20887   4
   3   5  -6 15.3988 0.93684   8
   3   5  -6 15.5081 1.17707  17
   3   5  -6 16.9296 1.18080  10
   3   5  -6 18.3625 1.14408   9
   3   5  -6 17.0737 2.03217   3
   2  -5  -6 3446.41 161.995   6
   2  -5  -6 3006.27 159.043   2
   2  -5  -6 3119.82 159.430   3
   2  -5  -6 3253.46 159.687   3
   2  -5  -6 3402.22 159.411   2
   2  -5  -6 3424.76 161.091   7
   2   5  -6 3261.40 162.860   4
   2   5  -6 3500.16 161.589   2
   2   5  -6 3382.75 160.177   7
   2   5  -6 3266.77 162.199   3
   1  -5  -6 810.521 38.0756   6
   1  -5  -6 775.477 37.9170   2
   1  -5  -6 756.552 38.0734   3
   1  -5  -6 759.080 37.9427   7
   1   5  -6 825.984 38.2482   2
   1   5  -6 775.283 38.3855   3
   1   5  -6 781.214 37.8277   7
   0  -5   6 1035.94 49.3195   3
   0  -5  -6 1006.38 48.8442   7
   0  -5   6 905.361 50.7041   1
   0  -5  -6 1066.97 49.2716   3
   0  -5   6 996.645 49.0149   2
   0  -5  -6 1038.11 48.9451   6
   0  -5  -6 1032.57 48.9777   2
   0   5  -6 1018.18 49.1406   2
   0   5  -6 1007.72 49.3495   3
  -1  -5  -6 13.3895 2.60973   1
   1  -5   6 15.8417 1.31141   2
   1  -5   6 15.2602 1.09872   5
   1  -5   6 12.8821 1.69126   3
   1  -5   6 13.0224 2.09440   1
  -1  -5  -6 12.3846 1.79300   3
  -1  -5  -6 13.9074 1.47982   2
   2  -5   6 19.7865 1.69490   2
   2  -5   6 18.3182 1.95161   3
   2  -5   6 19.5498 1.42777   5
   3  -5   6 10.6463 0.86186   9
   3  -5   6 11.9366 1.42629   5
   3  -5   6 9.87380 1.39224   2
   3  -5   6 10.9770 0.87458  10
   3  -5   6 10.4888 0.68495   8
   3  -5   6 9.94738 1.71177   3
   3  -5   6 10.6775 0.97030  14
   3  -5   6 10.6918 0.85956  13
   3   5   6 9.90172 1.65884   2
   3   5   6 9.73277 0.88595   8
   3   5   6 10.8191 1.29095   5
   3   5   6 9.05127 1.67022   3
   4  -5   6 168.245 7.84358  14
   4  -5   6 156.452 8.32289   5
   4  -5   6 162.723 7.63090   9
   4  -5   6 158.506 7.73201  13
   4  -5   6 152.032 8.13829   2
   4  -5   6 159.800 7.67005  10
   4  -5   6 148.347 7.67348  12
   4   5   6 141.872 8.48954   2
   4   5   6 157.696 8.33352   5
   4   5   6 159.384 7.75155   9
   4   5   6 157.562 7.62913   8
   4   5   6 141.129 8.76720   3
   5  -5   6 33.6676 1.80177  10
   5  -5   6 33.1862 1.94392  14
   5  -5   6 30.1108 1.85123  12
   5  -5   6 32.1466 1.87676  13
   5   5   6 31.0050 1.81052   9
   5   5   6 31.5421 1.95181  10
   5   5   6 33.6284 1.93136  13
   6  -5   6 62.4269 3.37250  13
   6  -5   6 62.1260 3.37209  14
   6  -5   6 65.9719 3.19511  10
   6   5   6 67.1494 3.39182  13
   6   5   6 63.8208 3.18678   9
   6   5   6 68.2193 3.31747  10
   6  -6  -6 2.84585 0.45794  11
   6  -6  -6 4.04521 0.52385  17
   6  -6  -6 3.79512 0.50944  18
   6   6  -6 3.69740 0.48220  11
   6   6  -6 2.92111 0.43012  18
   6   6  -6 3.26396 0.40547  10
   6   6  -6 3.19107 0.43654  12
   5  -6  -6 363.704 17.2056  16
   5  -6  -6 343.199 17.0427  15
   5  -6  -6 340.531 17.0130  18
   5  -6  -6 323.872 16.9431  11
   5  -6  -6 355.612 17.0159  17
   5  -6  -6 301.272 16.9642  14
   5   6  -6 349.559 16.9974  18
   5   6  -6 368.481 16.9543  10
   5   6  -6 386.130 17.0456  11
   5   6  -6 369.885 17.0406  12
   4  -6  -6 86.9901 4.54617  16
   4  -6  -6 77.4233 4.80989   7
   4  -6  -6 74.9388 4.26348  11
   4  -6  -6 89.8468 4.46002  15
   4  -6  -6 87.6397 4.44023  17
   4  -6  -6 85.2604 4.37124  14
   4  -6  -6 83.7056 4.40009  18
   4   6  -6 81.8493 4.32370  18
   4   6  -6 88.8021 4.40821  12
   4   6  -6 90.5155 4.42336  11
   4   6  -6 85.8937 5.66237   4
   4   6  -6 90.5907 4.37357  10
   3  -6  -6 375.078 18.4452   7
   3  -6  -6 370.047 18.5331   6
   3  -6  -6 358.387 17.9562  18
   3  -6  -6 372.955 17.9755  17
   3  -6  -6 343.106 17.8204  10
   3  -6  -6 339.608 17.9156  13
   3  -6  -6 388.826 18.1307  16
   3  -6  -6 387.315 17.9981  14
   3  -6  -6 373.701 17.9975  15
   3   6  -6 361.561 17.8335   8
   3   6  -6 374.735 17.9668  10
   3   6  -6 379.597 17.9488   9
   3   6  -6 379.644 17.9713  11
   3   6  -6 382.932 18.6005   2
   3   6  -6 364.114 18.7487   3
   3   6  -6 362.245 17.9345  17
   3   6  -6 390.446 19.0040   4
   2  -6  -6 237.669 11.5612  17
   2  -6  -6 233.671 11.6541  16
   2  -6  -6 234.569 11.5701  15
   2  -6  -6 243.389 11.5406   2
   2  -6  -6 249.659 12.0998   6
   2  -6  -6 236.395 11.5818   3
   2  -6  -6 231.883 11.5637  14
   2  -6  -6 215.396 11.5077   2
   2  -6  -6 244.216 11.9537   7
   2  -6  -6 226.908 11.4459  10
   2  -6  -6 231.476 11.5744   3
   2   6  -6 244.336 12.4556   4
   2   6  -6 226.594 11.4846   8
   2   6  -6 257.682 12.2042   2
   2   6  -6 248.154 12.4004   3
   1  -6  -6 16.7376 1.34484   2
   1  -6  -6 16.8690 1.52648   7
   1  -6  -6 16.1839 1.46571   3
   1  -6  -6 16.4218 1.41641   6
   1   6  -6 16.5929 1.80778   2
   1   6  -6 14.8837 1.87801   3
   0  -6   6 7.85288 1.23335   3
   0  -6  -6 3.93752 0.66220   7
   0  -6  -6 5.03032 0.84777   2
   0  -6  -6 4.95741 0.83975   6
   0  -6  -6 3.73014 0.98171   3
   0   6  -6 5.53814 1.17437   3
   0   6  -6 4.23157 1.00357   2
   1  -6   6 1150.00 56.5733   5
  -1  -6  -6 1180.34 57.3072   3
  -1  -6  -6 1172.15 56.9286   2
   1  -6   6 1220.46 56.9061   2
   1  -6   6 1153.63 57.1910   3
   2  -6   6 93.2664 4.86878   9
   2  -6   6 92.1046 4.79861   8
   2  -6   6 103.898 5.41679   2
   2  -6   6 98.4537 5.73028   3
   2  -6   6 103.030 5.23888   5
   3  -6   6 608.521 28.6283   2
   3  -6   6 542.167 28.0856  13
   3  -6   6 581.004 28.1716   8
   3  -6   6 557.887 28.0807  12
   3  -6   6 606.501 28.5927   5
   3  -6   6 594.712 28.1689  14
   3  -6   6 605.142 28.9811   3
   3  -6   6 588.174 28.4438   9
   3  -6   6 578.801 28.0761  10
   3   6   6 568.339 28.0674   8
   4  -6   6 346.391 16.3708   9
   4  -6   6 340.075 16.4949  13
   4  -6   6 356.270 16.5818  14
   4  -6   6 332.842 16.4463  12
   4  -6   6 337.946 16.4262  10
   4  -6   6 323.230 17.0186   5
   4   6   6 322.411 17.3493   2
   4   6   6 321.710 17.0659   5
   4   6   6 356.430 16.5178   9
   4   6   6 349.306 16.4009   8
   5  -6   6 5.35525 0.87939  13
   5  -6   6 4.14170 0.62938  10
   5  -6   6 4.21284 0.69505  14
   5  -6   6 3.71209 0.54219  12
   5   6   6 3.55854 0.62079  10
   5   6   6 3.74428 0.57626   9
   5   6   6 4.81618 0.73594  13
   5   6   6 3.87161 0.33477   8
   6  -6   6 41.4495 2.38632  14
   6  -6   6 44.0614 2.42355  13
   6   6   6 45.9851 2.39904  10
   6   6   6 44.9791 2.22459   9
   6   6   6 45.0239 2.41119  13
   6  -7  -6 1.61807 0.42804  17
   6  -7  -6 2.09449 0.38511  18
   6   7  -6 2.72327 0.41236  12
   6   7  -6 2.23712 0.42567  11
   6   7  -6 1.85561 0.29392  10
   5  -7  -6 49.6641 2.72258  15
   5  -7  -6 49.8255 2.96052  16
   5  -7  -6 48.0238 2.71760  18
   5  -7  -6 47.1998 2.62371  17
   5  -7  -6 46.5192 2.64765  14
   5   7  -6 47.8094 2.62924  10
   5   7  -6 48.3685 2.71119  11
   5   7  -6 49.1508 2.63969  12
   4  -7  -6 282.269 13.7903  14
   4  -7  -6 300.661 13.9600  16
   4  -7  -6 277.101 13.7675  18
   4  -7  -6 255.847 13.7140  13
   4  -7  -6 290.741 13.8255  15
   4  -7  -6 286.155 13.8043  17
   4   7  -6 278.701 13.7802  12
   4   7  -6 287.191 13.7726  10
   4   7  -6 276.078 14.9564   4
   4   7  -6 288.373 13.7756  11
   3  -7  -6 163.410 8.65262   7
   3  -7  -6 174.712 8.35290  16
   3  -7  -6 147.469 8.13101  18
   3  -7  -6 171.514 8.19899  15
   3  -7  -6 175.006 8.21111  14
   3  -7  -6 161.712 7.96190  10
   3  -7  -6 173.002 8.19670  17
   3  -7  -6 150.075 8.11235  13
   3  -7  -6 168.058 8.76651   6
   3   7  -6 161.209 9.04109   3
   3   7  -6 166.596 8.16554  10
   3   7  -6 168.177 8.05452   8
   3   7  -6 168.253 8.95418   2
   3   7  -6 170.367 9.21564   4
   3   7  -6 168.177 8.18428  11
   3   7  -6 159.125 8.16067   9
   2  -7  -6 1604.47 77.9000  16
   2  -7  -6 1664.40 76.9036   7
   2  -7  -6 1615.15 77.6925  14
   2  -7  -6 1565.95 76.7728   3
   2  -7  -6 1407.31 76.4557   9
   2  -7  -6 1548.07 76.9398   3
   2  -7  -6 1592.34 76.9880  10
   2  -7  -6 1473.88 76.6170   2
   2  -7  -6 1627.65 77.5810  15
   2  -7  -6 1693.44 77.5537   6
   2  -7  -6 1618.30 77.2998  17
   2  -7  -6 1623.93 76.9024   2
   2   7  -6 1563.11 76.9688   8
   2   7  -6 1688.25 77.5162   4
   2   7  -6 1638.49 77.4156   3
   2   7  -6 1515.59 76.8185   9
   2   7  -6 1679.94 77.1898   2
   1  -7  -6 148.563 7.59780   2
   1  -7  -6 146.178 7.75343   3
   1  -7  -6 152.978 7.75403   6
   1  -7  -6 151.063 7.69837   7
   1   7  -6 144.979 8.19290   3
   1   7  -6 145.621 7.96482   2
   0  -7  -6 393.845 19.1664   2
   0  -7   6 372.281 19.5900   3
   0  -7  -6 384.860 19.0492   7
   0  -7  -6 407.306 19.1701   6
   0  -7   6 361.364 19.2192   2
   0  -7  -6 406.614 19.4661   3
  -1  -7  -6 66.4721 4.02026   2
  -1  -7  -6 65.1315 4.32356   3
   1  -7   6 65.5271 3.62658   5
   1  -7   6 68.6665 4.24734   3
   1  -7   6 70.9760 4.02400   2
   2  -7   6 939.674 47.0520   9
   2  -7   6 920.567 46.5988  10
   2  -7   6 933.711 47.3858  14
   2  -7   6 1031.78 47.0048   5
   2  -7   6 998.398 47.5602   3
   2  -7   6 936.154 46.9484   8
   2  -7   6 1034.80 47.2028   2
   3  -7   6 504.125 25.0080   9
   3  -7   6 538.278 25.0067  14
   3  -7   6 486.554 24.9337  15
   3  -7   6 512.042 24.8333   8
   3  -7   6 506.628 25.7531   3
   3  -7   6 532.063 25.4373   5
   3  -7   6 544.243 24.9058  10
   3   7   6 506.008 24.8895   8
   4  -7   6 27.2819 1.55580   9
   4  -7   6 26.8855 1.62281  10
   4  -7   6 27.7572 1.69041  12
   4  -7   6 25.8708 1.71592  13
   4  -7   6 27.2706 1.85126  14
   4   7   6 22.0092 2.11297   5
   4   7   6 28.9816 1.63786   8
   4   7   6 28.5570 1.84430   9
   5  -7   6 136.079 6.99732  13
   5  -7   6 148.768 7.09309  14
   5  -7   6 138.673 6.89051  10
   5   7   6 138.995 7.00729  10
   5   7   6 143.967 7.08333  13
   5   7   6 145.671 6.99249   9
   5   7   6 132.852 6.78198   8
   6  -7   6 16.1876 1.19168  14
   6  -7   6 14.3102 1.01373  13
   6   7   6 16.4987 0.88185   9
   6   7   6 14.2668 0.99979  10
   6   7   6 15.2807 1.07084  13
   6  -8  -6 49.6921 2.77898  17
   6   8  -6 48.9980 2.79029  11
   6   8  -6 60.8395 2.88352  12
   6   8  -6 59.0418 2.73006  10
   5  -8  -6 76.4365 3.89506  15
   5  -8  -6 69.0886 3.87515  18
   5  -8  -6 75.2791 4.04040  16
   5  -8  -6 66.8039 3.83249  14
   5  -8  -6 73.7147 3.85549  17
   5   8  -6 75.3073 3.87591  12
   5   8  -6 74.7648 3.65567   9
   5   8  -6 77.5007 3.91146  11
   5   8  -6 83.5756 3.88931  10
   4  -8  -6 10.1179 0.99801  13
   4  -8  -6 10.5848 1.13758  17
   4  -8  -6 10.6632 1.04007  18
   4  -8  -6 11.3678 1.13494  15
   4  -8  -6 10.6226 1.18971  16
   4  -8  -6 11.2760 1.09425  14
   4   8  -6 11.1883 1.10744  12
   4   8  -6 9.72906 1.10500  11
   4   8  -6 9.48928 1.91623   4
   4   8  -6 11.5873 1.14985  10
   3  -8  -6 17.8010 1.18221  13
   3  -8  -6 16.9952 1.26695  15
   3  -8  -6 16.5629 1.23870  14
   3  -8  -6 15.2037 1.23536  17
   3  -8  -6 14.8385 0.83505  10
   3  -8  -6 16.7453 1.72151   7
   3  -8  -6 13.1786 1.75883   6
   3  -8  -6 15.8170 1.47888  16
   3   8  -6 15.8156 1.11818  11
   3   8  -6 16.9125 2.37107   4
   3   8  -6 15.4770 2.01628   2
   3   8  -6 16.1665 1.12689   8
   3   8  -6 16.1582 1.29318  10
   3   8  -6 15.7290 1.28469   9
   2  -8  -6 201.901 9.76849  17
   2  -8  -6 192.171 9.63551  10
   2  -8  -6 209.397 9.78889  14
   2  -8  -6 206.888 10.2017   7
   2  -8  -6 208.783 10.3547   6
   2  -8  -6 199.730 9.85324  16
   2  -8  -6 207.776 9.77493  15
   2   8  -6 204.782 10.8424   4
   2   8  -6 192.330 10.7137   3
   2   8  -6 194.852 10.4968   2
   2   8  -6 197.303 9.70940   8
   2   8  -6 172.178 9.75885   9
   1  -8  -6 301.849 14.2971   7
   1  -8  -6 305.975 13.8899  14
   1  -8  -6 279.291 14.3692   3
   1  -8  -6 265.249 13.7630   9
   1  -8  -6 282.930 13.8537  17
   1  -8  -6 270.524 13.9104  16
   1  -8  -6 273.959 13.7794  10
   1  -8  -6 302.037 14.3621   6
   1  -8  -6 304.663 14.1886   2
   1   8  -6 269.077 14.5309   2
   1   8  -6 281.355 14.8441   3
   0  -8  -6 525.906 24.2955   6
   0  -8  -6 457.059 23.8766   8
   0  -8  -6 499.944 24.5834   3
   0  -8  -6 506.692 24.1886   7
   0  -8  -6 480.908 24.2572   2
  -1  -8  -6 35.5794 2.54235   2
  -1  -8  -6 35.0594 2.87609   3
   1  -8   6 35.2842 2.10665   5
  -1  -8  -6 32.6590 1.85045   8
   1  -8   6 32.5730 1.79793   8
   1  -8   6 37.8460 2.53525   2
   1  -8   6 33.4197 2.80888   3
   2  -8   6 101.870 5.42023  10
   2  -8   6 106.030 5.41793   9
   2  -8   6 113.870 6.45073   3
   2  -8   6 114.149 5.85296   5
   2  -8   6 109.936 5.46169  14
  -2  -8  -6 92.9504 5.39076   8
   2  -8   6 121.356 6.14532   6
   2  -8   6 114.909 6.05232   2
   2  -8   6 110.794 5.34752   8
   3  -8   6 0.93949 0.78225   2
   3  -8   6 0.66707 0.47630  14
   3  -8   6 0.80890 0.38448   9
   3  -8   6 1.13619 0.80973   5
   3  -8   6 0.88698 0.39593  10
   3  -8   6 1.11505 0.17660   8
   3  -8   6 1.36119 0.48328  15
   3  -8   6 2.27976 1.00630   3
   3   8   6 0.61175 0.34888   8
   4  -8   6 0.48190 0.54320  14
   4  -8   6 0.77372 0.46584  13
   4  -8   6 0.91281 0.39030  10
   4  -8   6 -0.0314 0.32701   9
   4   8   6 0.32579 0.42515   8
   4   8   6 1.21006 0.57501   9
   5  -8   6 16.4373 1.24668  13
   5  -8   6 17.3736 1.04290  10
   5  -8   6 17.9238 1.38765  14
   5   8   6 16.7531 0.91151   8
   5   8   6 14.2309 1.34779  10
   5   8   6 16.0673 1.19751  13
   5   8   6 15.9947 1.15234   9
   6  -8   6 112.034 5.83238  13
   6  -8   6 120.334 5.86573  14
   6   8   6 118.954 5.72532   9
   6   8   6 120.916 5.83814  10
   6   9  -6 8.42540 0.59173  10
   6   9  -6 6.46973 0.60848  11
   5  -9  -6 435.145 21.4643  17
   5  -9  -6 457.709 21.5308  15
   5  -9  -6 413.635 21.4744  14
   5  -9  -6 453.140 21.6509  16
   5   9  -6 451.955 21.5017  12
   5   9  -6 440.825 21.4508  11
   5   9  -6 456.870 21.4641  10
   5   9  -6 442.381 21.3244   9
   4  -9  -6 3.54804 0.54960  15
   4  -9  -6 2.50193 0.75411  16
   4  -9  -6 3.89228 0.65026  14
   4  -9  -6 2.80165 0.60996  17
   4   9  -6 2.47380 0.56955  11
   4   9  -6 3.02918 0.59468  12
   4   9  -6 3.05924 0.63640  10
   3  -9  -6 1.10479 0.63314  16
   3  -9  -6 1.65250 0.17862  10
   3  -9  -6 1.95938 0.92567   7
   3  -9  -6 1.26072 0.49300  17
   3  -9  -6 1.16556 0.89709   6
   3  -9  -6 1.68962 0.41377  14
   3  -9  -6 1.57821 0.41653  15
   3   9  -6 2.12228 1.33637   4
   3   9  -6 0.94465 1.02775   2
   3   9  -6 1.87804 0.42243   8
   3   9  -6 1.54742 0.56774   9
   3   9  -6 1.18659 0.54892  10
   3   9  -6 2.32895 0.94026   3
   3   9  -6 1.31535 0.39580  11
   2  -9  -6 515.464 23.8981  15
   2  -9  -6 515.139 23.8865  17
   2  -9  -6 493.236 23.9999  10
   2  -9  -6 501.815 23.9936  16
   2  -9  -6 491.121 24.2791   7
   2  -9  -6 508.637 24.4917   6
   2  -9  -6 531.874 23.9221  14
   2   9  -6 490.564 23.8211   8
   2   9  -6 470.768 24.6925   2
   2   9  -6 502.406 24.9567   4
   2   9  -6 463.650 24.9021   3
   2   9  -6 439.380 23.8773   9
   1  -9  -6 38.3434 2.51191   7
   1  -9  -6 34.9082 2.27133   2
   1  -9  -6 37.6751 1.93121  15
   1  -9  -6 31.6842 2.46264   3
   1  -9  -6 33.5507 2.06872  16
   1  -9  -6 33.9296 1.86154  10
   1  -9  -6 32.1487 1.83998   9
   1  -9  -6 35.4457 2.52125   6
   1  -9  -6 37.5183 2.02753  14
   1  -9  -6 33.9111 1.92698  17
   0  -9  -6 452.217 21.0865   2
   0  -9  -6 437.711 21.4352   3
   0  -9   6 373.166 20.4933   8
   0  -9  -6 453.068 20.9953   7
   0  -9  -6 456.836 21.0561   6
   0  -9  -6 394.752 20.5944  16
   0  -9  -6 430.274 20.6342   8
   0  -9  -6 418.081 20.5220   9
   0  -9  -6 414.840 20.5226  10
   1  -9   6 1082.32 55.1700   8
  -1  -9  -6 1059.86 54.7405   9
  -1  -9  -6 1214.24 55.4102   2
  -1  -9  -6 1047.84 55.0122   8
   1  -9   6 1234.69 55.8055   3
   1  -9   6 1241.89 55.3664   2
   1  -9   6 1058.58 54.8111   9
  -1  -9  -6 1176.08 55.8225   3
   2  -9   6 0.13141 0.35794   9
   2  -9   6 0.62549 0.98238   3
   2  -9   6 1.16525 0.79836   6
   2  -9   6 -0.1440 0.72444   2
  -2  -9  -6 0.35163 0.26800   8
   2  -9   6 0.54825 0.36085  14
   2  -9   6 -0.2619 0.56253   5
   2  -9   6 0.90994 0.36889  10
   2  -9   6 0.55608 0.26912   8
   3  -9   6 39.6711 2.71559   2
   3  -9   6 38.8164 2.84980   6
   3  -9   6 41.2270 2.31958  15
   3  -9   6 39.9093 2.17395   9
   3  -9   6 42.5581 2.21898  10
   3  -9   6 36.7048 2.63754   5
   3  -9   6 42.4484 2.27925  14
   3   9   6 38.7524 2.28584   8
   4  -9   6 1.58609 0.50481  15
   4  -9   6 1.90656 0.44252  10
   4  -9   6 1.77494 0.49731  13
   4  -9   6 1.83398 0.29990   9
   4  -9   6 1.62221 0.61274  14
   4   9   6 2.06384 0.49825   9
   4   9   6 1.58284 0.48243   8
   5  -9   6 50.2615 2.63950  14
   5  -9   6 42.7998 2.51454  13
   5  -9   6 48.8776 2.43059  10
   5   9   6 48.1439 2.59715  13
   5   9   6 47.8745 2.62451   9
   6  -9   6 30.8289 1.80210  13
   6  -9   6 37.8321 1.94315  14
   6  10  -6 53.2654 2.65053  10
   5 -10  -6 72.8826 3.52911  15
   5 -10  -6 61.7706 3.40784  17
   5 -10  -6 62.3838 3.40537  14
   5 -10  -6 67.5942 3.58558  16
   5  10  -6 66.5813 3.45730  10
   5  10  -6 64.4981 3.37002  11
   5  10  -6 61.9005 3.40892  12
   5  10  -6 67.8566 3.27843   9
   4 -10  -6 123.658 6.44700  16
   4 -10  -6 113.934 6.22065  17
   4 -10  -6 122.574 6.29552  15
   4 -10  -6 132.143 6.34009  14
   4  10  -6 129.338 6.27059  11
   4  10  -6 118.979 6.25797  12
   4  10  -6 133.409 6.33267  10
   3 -10  -6 265.998 14.0660   6
   3 -10  -6 263.688 13.1200  10
   3 -10  -6 290.949 13.4051  15
   3 -10  -6 296.579 13.4341  14
   3 -10  -6 278.617 13.3631  17
   3 -10  -6 276.051 13.5232  16
   3  10  -6 263.494 14.5121   4
   3  10  -6 267.177 13.4265  10
   3  10  -6 279.875 13.2727   8
   3  10  -6 281.724 13.3983   9
   3  10  -6 275.842 13.3546  11
   3  10  -6 237.602 14.1634   2
   2 -10  -6 152.342 8.42261   6
   2 -10  -6 163.321 7.88149  14
   2 -10  -6 158.381 7.97129  16
   2 -10  -6 151.499 8.27857   7
   2 -10  -6 162.223 7.87454  15
   2 -10  -6 160.245 7.71470  10
   2 -10  -6 162.242 7.86800  17
   2  10  -6 155.829 7.81177   8
   2  10  -6 156.554 8.98507   4
   1 -10  -6 1231.60 59.9262  17
   1 -10  -6 1257.82 59.5189   2
   1 -10  -6 1249.03 59.7657   3
   1 -10  -6 1274.88 59.7683   6
   1 -10  -6 1235.08 59.8965  10
   1 -10  -6 1237.58 60.1310  16
   1 -10  -6 1224.56 59.6262   7
   1 -10  -6 1180.41 59.8833  15
   1 -10  -6 1196.41 59.7742   9
   0 -10  -6 388.335 19.0034   8
   0 -10  -6 406.734 19.4308   7
   0 -10  -6 385.290 19.9122   3
   0 -10  -6 375.252 19.0331  16
   0 -10   6 361.480 18.9039   8
   0 -10  -6 390.981 18.9413   9
   0 -10  -6 415.532 19.5449   2
   0 -10  -6 386.496 18.9450  10
   0 -10  -6 418.652 19.5281   6
  -1 -10  -6 105.361 5.37512   8
   1 -10   6 114.933 6.12178   6
  -1 -10  -6 117.313 6.23182   2
   1 -10   6 110.505 6.55210   3
   1 -10   6 106.321 5.36262   8
   1 -10   6 107.087 6.08772   2
  -1 -10  -6 105.208 6.53593   3
  -1 -10  -6 112.316 5.46939   9
   1 -10   6 99.8581 5.40660   9
   2 -10   6 212.473 10.8505   5
   2 -10   6 205.852 11.0127   2
   2 -10   6 205.603 11.4661   3
  -2 -10  -6 198.343 10.4018   8
   2 -10   6 218.074 10.4744  14
   2 -10   6 225.655 10.3288   8
   2 -10   6 215.649 10.4380  10
   2 -10   6 213.462 10.4150   9
   2 -10   6 222.309 11.1936   6
   3 -10   6 326.359 15.8785  14
   3 -10   6 323.940 15.7782  10
   3 -10   6 344.193 15.7453   9
   3 -10   6 329.947 15.8801  15
   3  10   6 301.246 15.7938   8
   4 -10   6 323.233 15.3299   9
   4 -10   6 322.320 15.4647  10
   4 -10   6 296.525 15.5155  13
   4 -10   6 302.393 15.5526  15
   4 -10   6 344.077 15.6507  14
   4  10   6 331.044 15.4940   8
   4  10   6 317.010 15.5999   9
   5 -10   6 242.691 11.3359  14
   5 -10   6 209.360 11.2178  13
   5 -10   6 235.347 11.1289  10
   5  10   6 223.321 11.2833  13
   5  10   6 242.509 11.2769   9
   6  10   6 197.904 9.61795  13
   5 -11  -6 1.03153 0.50659  16
   5 -11  -6 2.18031 0.57382  15
   5  11  -6 1.54579 0.41385  10
   5  11  -6 1.52296 0.30004   9
   5  11  -6 1.78456 0.38724  11
   5  11  -6 1.33210 0.40310  12
   4 -11  -6 105.213 5.37019  16
   4 -11  -6 104.471 5.21664  15
   4 -11  -6 102.411 5.20035  14
   4 -11  -6 96.2964 5.15727  17
   4  11  -6 104.900 5.20354   9
   4  11  -6 99.7896 5.11887  11
   4  11  -6 100.602 5.23517  10
   4  11  -6 101.867 5.17402  12
   3 -11  -6 30.5896 2.61856   6
   3 -11  -6 32.8854 1.91794  15
   3 -11  -6 32.5527 2.09947  16
   3 -11  -6 30.5045 1.96599  17
   3 -11  -6 35.0424 2.03322  14
   3  11  -6 32.1689 1.94784  11
   3  11  -6 31.1895 2.09540   9
   3  11  -6 29.0207 2.81863   4
   3  11  -6 34.3231 1.87533   8
   2 -11  -6 0.60726 0.25025  10
   2 -11  -6 1.39773 0.55720  14
   2 -11  -6 1.14731 0.66807   6
   2 -11  -6 0.77511 0.48276  17
   2 -11  -6 1.35337 0.48451  15
   2  11  -6 0.23991 1.21907   4
   2  11  -6 0.41126 0.37181   8
   1 -11  -6 164.912 8.74671   2
   1 -11  -6 172.161 8.29933   9
   1 -11  -6 177.645 8.32898  10
   1 -11  -6 173.436 8.51983  16
   1 -11  -6 170.991 9.02262   6
   1 -11  -6 164.670 8.37200  15
   1 -11  -6 173.620 8.41685  17
   1 -11  -6 171.439 8.91477   7
   1 -11  -6 159.038 8.94179   3
   0 -11   6 253.210 13.1823   8
   0 -11  -6 282.257 13.1929   8
   0 -11   6 272.821 13.9493   6
   0 -11  -6 263.949 14.2081   3
   0 -11  -6 273.239 13.2225  10
   0 -11  -6 278.879 13.8274   2
   0 -11  -6 264.414 13.3274  16
   0 -11  -6 271.852 13.2118   9
   0 -11  -6 280.436 13.7430   7
   0 -11  -6 276.299 13.8083   6
  -1 -11  -6 74.8576 4.06597  16
   1 -11   6 78.6058 3.91544   8
  -1 -11  -6 78.7975 3.92866   8
   1 -11   6 74.8126 3.99705   9
  -1 -11  -6 69.5198 5.17955   3
  -1 -11  -6 78.8838 4.79076   2
  -1 -11  -6 81.1280 4.54178   7
  -1 -11  -6 79.8800 4.03008   9
   1 -11   6 84.5059 4.81006   6
   1 -11   6 75.4555 5.13402   3
   2 -11   6 517.975 24.8977   8
   2 -11   6 472.021 25.8954   3
   2 -11   6 521.204 24.8670   9
   2 -11   6 539.187 24.8875  10
   2 -11   6 483.355 25.4831   2
   2 -11   6 517.389 24.9242  14
   2 -11   6 524.927 25.6868   6
  -2 -11  -6 542.980 24.8771   8
   3 -11   6 520.901 25.3499  15
  -3 -11  -6 513.354 25.2796   8
   3 -11   6 548.530 25.2511  10
   3 -11   6 536.011 25.3444  14
   3 -11   6 521.453 25.3861   9
   3  11   6 499.283 25.2790   8
   4 -11   6 0.51276 0.52797  14
   4 -11   6 -0.3321 0.33020  15
   4 -11   6 0.14471 0.36213  10
   4  11   6 -0.5069 0.44395   8
   5 -11   6 65.5303 3.21799  14
   5 -11   6 51.2346 3.12848  13
   5 -11   6 60.9650 2.99348  10
   5  11   6 65.0587 3.22677   9
   5  11   6 63.1512 3.18848  13
   5 -12  -6 238.252 11.2852  16
   5 -12  -6 228.510 11.1663  15
   5  12  -6 216.031 11.0118   9
   5  12  -6 233.791 11.1522  10
   5  12  -6 226.581 11.1476  12
   4 -12  -6 19.3119 1.44459  17
   4 -12  -6 26.4710 1.63987  15
   4 -12  -6 24.0505 1.46359  14
   4 -12  -6 21.9576 1.68286  16
   4  12  -6 21.2496 1.45672  11
   4  12  -6 22.6072 1.60522   9
   4  12  -6 22.2627 1.66346  10
   4  12  -6 21.1183 1.43048  12
   3 -12  -6 1.99331 0.56763  16
   3 -12  -6 0.41106 0.58835  14
   3 -12  -6 0.04845 0.46619  17
   3 -12  -6 0.03600 0.48784  15
   3  12  -6 0.71721 0.49118  11
   3  12  -6 1.04295 0.50011   8
   3  12  -6 0.60085 0.67077   9
   2 -12  -6 349.754 18.7619   6
   2 -12  -6 389.178 18.2632  16
   2 -12  -6 377.631 18.1073  17
   2 -12  -6 384.844 17.9721  10
   2 -12  -6 404.761 18.1623  14
   2 -12  -6 376.844 18.1080  15
   2  12  -6 359.883 18.0654   8
   2  12  -6 332.264 19.1077   4
   1 -12  -6 30.7393 1.71018   9
   1 -12  -6 32.7405 2.07324  16
   1 -12  -6 27.7493 2.41631   3
   1 -12  -6 29.2155 2.13409   2
   1 -12  -6 31.0567 2.39283   7
   1 -12  -6 31.4506 2.50401   6
   1 -12  -6 32.7587 1.77571  10
   1 -12  -6 33.6585 1.91706  17
   1 -12  -6 31.1358 1.84444  15
  -1 -12   6 29.4646 2.44433   6
   1  12  -6 31.8875 2.90410   4
   0 -12  -6 187.201 10.1339   6
   0 -12  -6 197.672 9.54545   9
   0 -12  -6 194.166 9.41636   8
   0 -12  -6 197.350 9.67040  16
   0 -12  -6 189.829 10.5465   3
   0 -12   6 196.319 10.2885   6
   0 -12  -6 198.518 9.54646  10
   0 -12  -6 194.194 10.0908   7
   0 -12  -6 190.025 10.1652   2
   0 -12   6 198.188 9.52482   8
  -1 -12  -6 591.195 28.3052   8
   1 -12   6 545.735 28.7010   2
   1 -12   6 551.461 29.1714   3
   1 -12   6 579.143 27.9737   9
  -1 -12  -6 595.083 28.5076   7
  -1 -12  -6 610.236 28.0051   9
  -1 -12  -6 585.141 28.0540  16
   1 -12   6 616.432 28.1945   8
  -1 -12  -6 548.798 28.7373   2
   1 -12   6 594.165 28.7775   6
  -1 -12  -6 554.304 29.2722   3
  -2 -12  -6 154.653 7.49369   8
   2 -12   6 160.982 7.62338  15
   2 -12   6 146.876 7.52554  14
   2 -12   6 150.136 7.48075   9
   2 -12   6 149.276 7.49297  10
   2 -12   6 145.425 8.32105   6
   3 -12   6 151.341 7.47096  15
   3 -12   6 150.834 7.29763   9
  -3 -12  -6 140.456 7.40609   8
   3 -12   6 154.379 7.47093  14
   3 -12   6 153.853 7.38311  10
   3  12   6 143.050 7.42916   8
   4 -12   6 298.059 13.7898  10
   4 -12   6 291.202 13.9300  14
   4 -12   6 271.801 13.8800  15
   4  12   6 278.517 13.8144   8
   5 -12   6 9.21088 0.75756  14
   5  12   6 8.48279 0.87966  13
   5  12   6 7.58944 0.75816   9
   5 -13  -6 190.127 9.26266  16
   5  13  -6 190.544 9.17226  10
   5  13  -6 187.400 9.05226   9
   5  13  -6 184.041 9.16008  12
   4 -13  -6 199.059 10.0098  14
   4 -13  -6 206.435 10.0349  15
   4 -13  -6 216.041 10.2161  16
   4  13  -6 209.906 10.0240  12
   4  13  -6 184.203 9.99359  10
   4  13  -6 206.911 9.99550   9
   3 -13  -6 16.5468 1.25771  17
   3 -13  -6 16.0809 1.33463  14
   3 -13  -6 16.1962 1.41050  16
   3 -13  -6 17.8497 1.20630  15
   3  13  -6 16.1900 1.60797   9
   3  13  -6 15.6322 1.12533   8
   3  13  -6 15.5966 1.10563  11
   2 -13  -6 121.693 6.19595  16
   2 -13  -6 118.193 6.04540  17
   2 -13  -6 122.852 6.05396  15
   2 -13  -6 120.885 5.89907  10
   2  13  -6 114.768 5.99865   8
   1 -13  -6 1.43196 0.52188  17
  -1 -13   6 2.51485 0.76346   6
  -1 -13   6 3.62117 0.58015   8
   1 -13  -6 2.43026 0.78565   6
   1 -13  -6 2.07809 0.50518  16
   1 -13  -6 2.24591 0.40358  15
   1 -13  -6 3.49529 0.57391   9
   1 -13  -6 2.30709 0.43246  10
   1  13  -6 0.87532 1.31669   4
   0 -13   6 10.7898 1.02196   8
   0 -13  -6 11.8413 1.03406   9
   0 -13   6 10.2126 1.66409   6
   0 -13  -6 10.6497 1.51929   6
   0 -13  -6 12.0829 0.74973   8
   0 -13  -6 14.1300 1.70043   7
   0 -13  -6 14.3140 1.05858  10
   0 -13  -6 11.5266 1.28845  16
  -1 -13  -6 258.181 12.3869   8
  -1 -13  -6 233.329 12.9712   7
  -1 -13  -6 254.899 12.5651  16
   1 -13   6 278.431 12.3882   8
   1 -13   6 260.283 12.4657   9
  -1 -13  -6 253.658 12.4964   9
   1 -13   6 243.568 13.2580   6
   2 -13   6 51.5458 2.87585  15
   2 -13   6 49.5022 2.66023   9
   2 -13   6 51.0127 2.75008  10
  -2 -13  -6 55.3343 2.74200   8
   2 -13   6 45.7199 2.45478   8
   3 -13   6 182.071 9.36199  14
   3 -13   6 199.913 9.44277  15
   3 -13   6 200.881 9.32439  10
   3 -13   6 195.725 9.22709   9
  -3 -13  -6 184.191 9.34210   8
   3  13   6 176.715 9.35264   8
   4 -13   6 89.2946 4.57314  15
   4 -13   6 89.4062 4.59427  14
   4 -13   6 89.4313 4.44385  10
  -4 -13  -6 87.0018 4.57883   8
   4  13   6 92.3882 4.47425   8
   5  13   6 62.5415 3.14190   9
   5  13   6 59.6191 3.11161  13
   5 -14  -6 3.27436 0.49761  15
   5  14  -6 4.10354 0.47157  12
   5  14  -6 3.53904 0.54697  10
   4 -14  -6 113.401 5.66151  15
   4 -14  -6 115.947 5.76071  16
   4  14  -6 105.331 5.59029  12
   4  14  -6 114.128 5.63241   9
   3 -14  -6 78.9550 4.28948  16
   3 -14  -6 76.1822 4.07984  15
   3  14  -6 78.8213 3.99372   8
   2 -14  -6 219.539 10.7587  15
   2 -14  -6 224.313 10.6195  10
   2 -14  -6 230.480 10.9587  16
   2 -14  -6 195.014 10.7033  17
   2  14  -6 224.113 10.7584   8
   1 -14  -6 14.1649 0.93645  10
   1 -14  -6 13.2742 1.04642  17
   1 -14  -6 12.4787 0.95996  15
   1 -14  -6 13.8102 1.45299  16
   1 -14  -6 13.7685 0.96901   9
   0 -14  -6 1.44501 0.48063   9
   0 -14  -6 1.37884 0.40334  17
   0 -14   6 1.18435 0.47360   8
   0 -14  -6 1.02741 0.59219  16
   0 -14  -6 1.65024 0.36152  10
   0 -14   6 0.87343 0.55711   9
  -1 -14  -6 146.604 6.97288   8
  -1 -14  -6 143.258 7.08041   9
   1 -14   6 144.732 7.15365  15
  -1 -14  -6 139.691 7.17365  16
   1 -14   6 135.171 7.06677   9
  -2 -14  -6 129.993 7.06395   9
  -2 -14  -6 138.616 6.94526   8
   2 -14   6 138.390 6.99510  10
   2 -14   6 144.528 6.95334   9
   2 -14   6 150.427 7.10770  15
   3 -14   6 33.2959 2.02077  14
   3 -14   6 37.8567 2.21090  15
  -3 -14  -6 38.7927 2.12358   8
   3 -14   6 34.8671 1.86921   9
   3 -14   6 35.6818 2.06045  10
   3  14   6 40.6676 2.21237   8
   4 -14   6 2.23635 0.38817  15
   4 -14   6 1.46569 0.24372  10
  -4 -14  -6 1.56294 0.38315   8
   4 -14   6 1.16174 0.34880  14
   4  14   6 1.87108 0.43486   8
   4 -15  -6 71.4308 3.74024  15
   4  15  -6 75.7635 3.72781   9
   4  15  -6 72.9717 3.72074  12
   3 -15  -6 15.6023 1.19899  15
   3 -15  -6 20.3912 1.71226  16
   3  15  -6 19.0205 1.29114   8
   2 -15  -6 4.00380 0.61514  17
   2 -15  -6 3.56255 0.63140  16
   2 -15  -6 2.87690 0.56322  15
   2 -15  -6 3.83914 0.52952  10
   2  15  -6 4.13266 0.71418   8
   1 -15  -6 8.19679 1.05576  17
   1 -15  -6 9.78182 0.78802  10
   1 -15  -6 11.0069 1.11990  16
   1 -15  -6 11.0027 0.76602   9
   0 -15  -6 39.1601 2.40126  16
   0 -15   6 42.7962 2.38704  15
   0 -15  -6 43.2052 2.29709   9
   0 -15   6 40.9146 2.31930   9
   0 -15  -6 39.3908 2.35815  17
   0 -15  -6 41.0861 2.31635  10
   1 -15   6 45.9452 2.57986  10
  -1 -15  -6 43.4559 2.58935  10
  -1 -15  -6 45.2085 2.52260   9
   1 -15   6 45.9691 2.35194   8
   1 -15   6 48.9270 2.60816   9
   1 -15   6 48.5316 2.58441  15
  -1 -15  -6 44.4111 2.36991   8
  -1 -15  -6 45.6222 2.69078  16
  -2 -15  -6 14.2229 1.34855   9
   2 -15   6 15.8952 1.15563  15
   2 -15   6 14.6686 1.18363  10
   2 -15   6 15.9926 1.11493   9
  -2 -15  -6 13.8192 1.08872   8
   3 -15   6 30.2290 1.77068  15
   3 -15   6 28.4286 1.68799  10
  -3 -15  -6 31.2900 1.76984   8
   3  15   6 27.7622 1.71237   8
   4 -15   6 15.4335 0.94177  10
  -4 -15  -6 19.4648 1.20588   8
   4 -15   6 16.9944 1.07221  15
   4  15   6 18.9399 1.03184   8
   4 -16  -6 0.78582 0.37170  16
   4 -16  -6 0.59420 0.32878  15
   4  16  -6 1.08520 0.31238  12
   4  16  -6 1.14070 0.35466   9
   3 -16  -6 40.1735 2.21080  15
   3 -16  -6 41.0219 2.40703  16
   3  16  -6 37.4025 2.26410   9
   3  16  -6 42.8138 2.18171   8
   2 -16  -6 2.17308 0.57504  16
   2 -16  -6 2.20125 0.31083  10
   2 -16  -6 2.41344 0.42090  15
  -2 -16   6 2.79411 0.51311   8
   2  16  -6 2.20860 0.65641   8
   1 -16  -6 8.79667 0.95995  17
   1 -16  -6 9.31878 1.08417  16
   1 -16  -6 10.0821 0.88753  10
  -1 -16   6 10.7032 0.94167   8
  -1 -16   6 9.62676 0.80176  15
   0 -16   6 3.70602 0.64087   9
   0 -16  -6 3.40839 0.57207  17
   0 -16   6 3.97240 0.67831  15
   0 -16  -6 3.93219 0.62735  10
   0 -16  -6 2.93246 0.49649   9
   0 -16   6 4.13449 0.67276   8
   0 -16  -6 3.56189 0.70429  16
  -1 -16  -6 3.36013 0.57781  10
  -1 -16  -6 2.90881 0.61319   9
   1 -16   6 4.11656 0.58100  15
   1 -16   6 3.41582 0.49260  10
   1 -16   6 3.45522 0.58736   9
  -1 -16  -6 2.84550 0.47216   8
   1 -16   6 3.51532 0.41131   8
  -1 -16  -6 4.70765 0.66061  17
  -2 -16  -6 24.2416 1.40553   8
   2 -16   6 22.9963 1.55309  10
  -2 -16  -6 23.9492 1.70359   9
   2 -16   6 24.9621 1.42717   9
   2 -16   6 25.5804 1.65206  15
   3 -16   6 5.21773 0.69444  10
  -3 -16  -6 4.99630 0.73488   8
   3 -16   6 4.55633 0.69590  15
   3  16   6 5.55725 0.69895   8
  -4 -16  -6 49.6573 2.68191   8
   4 -16   6 52.0109 2.71780  15
   4  16   6 58.7264 2.68046   8
   3 -17  -6 41.2308 2.33067  16
   3 -17  -6 35.3663 1.99119  15
   3  17  -6 33.2043 2.16995   9
   3  17  -6 38.8057 1.95980   8
   2 -17  -6 44.5547 2.23144  10
   2 -17  -6 43.9778 2.56482  16
  -2 -17   6 45.2957 2.40469   8
   2  17  -6 43.7482 2.39255   8
  -1 -17   6 14.1026 1.11974   8
   1 -17  -6 17.7843 1.56537  16
   1 -17  -6 15.9391 0.99628  10
   0 -17  -6 2.63037 0.65095  16
   0 -17  -6 3.10756 0.43254  17
   0 -17  -6 4.12627 0.65133   9
   0 -17   6 4.00716 0.54705   8
   0 -17   6 3.05303 0.48059  15
   0 -17  -6 3.08147 0.52115  10
   0 -17   6 2.60240 0.57708   9
  -1 -17  -6 26.2577 1.62054  10
   1 -17   6 26.8601 1.70229  10
   1 -17   6 28.0173 1.66234   9
  -1 -17  -6 27.0014 1.79560  16
   1 -17   6 28.2573 1.74044  15
  -1 -17  -6 27.4487 1.59487   9
  -1 -17  -6 27.0005 1.65618  17
   2 -17   6 37.2179 2.05560  10
  -2 -17  -6 38.6765 2.08980   9
   2 -17   6 33.3263 2.04916  15
  -2 -17  -6 37.5177 1.88162   8
   2 -17   6 38.0055 1.93419   9
   3 -17   6 25.9798 1.59479  15
  -3 -17  -6 29.3893 1.51385   8
  -3 -17  -6 27.6962 1.69646   9
   3 -17   6 27.3738 1.53000  10
   3  17   6 30.5255 1.66863   8
   3 -18  -6 227.642 10.7944  16
   3  18  -6 209.868 10.6802  12
   3  18  -6 223.713 10.5860   8
   2 -18  -6 2.45020 0.50770  16
  -2 -18   6 2.43660 0.43439   8
   2  18  -6 1.85970 0.57206   8
   1 -18  -6 546.233 27.8636  10
  -1 -18   6 600.868 27.8672   8
   1 -18  -6 588.658 27.9829  16
   0 -18  -6 77.1473 3.76805  10
   0 -18   6 72.7285 3.83230   9
   0 -18  -6 74.1353 3.90187  16
   0 -18   6 71.5590 3.76910  15
   0 -18   6 73.8529 3.61054   8
   0 -18  -6 75.9422 3.66020   9
   1 -18   6 46.9168 2.65022  15
  -1 -18  -6 50.8803 2.60193   9
  -1 -18  -6 47.9453 2.68754  16
   1 -18   6 48.8513 2.69124  10
   1 -18   6 53.8582 2.62546   9
  -1 -18  -6 52.5309 2.72365  10
   2 -18   6 33.8303 1.78578  10
  -2 -18  -6 28.1948 1.79766  17
   2 -18   6 35.8974 1.86203  15
  -2 -18  -6 34.9351 1.85282   9
   3 -18   6 47.9879 2.46862  15
  -2 -19   6 321.207 15.4489   8
  -1 -19   6 5.21863 0.60388  16
   1 -19  -6 5.61162 0.45710  10
  -1 -19   6 4.86999 0.86392   9
  -1 -19   6 6.11632 0.44036   8
   1  19  -6 4.55065 0.74665   8
   0 -19   6 403.196 18.7498   9
   0 -19  -6 372.857 18.8217  16
   0 -19  -6 389.354 18.7403  10
   1 -19   6 111.445 5.96296   9
  -1 -19  -6 121.197 6.08380  10
  -1 -19  -6 133.025 6.00288   9
   1 -19   6 125.637 6.06890  15
  -2 -19  -6 73.5078 4.03951   9
   2 -19   6 80.8888 4.02961  10
   2 -19   6 91.5729 4.10421  15
   0 -20  -6 164.964 7.41881  10
   0 -20   6 140.202 7.38910   9
   6   0  -7 -0.2195 0.36207  11
   6   0  -7 -0.9680 0.61999  18
   5   0  -7 0.06573 0.46819  17
   5   0  -7 0.08243 0.36439  11
   5   0  -7 1.20742 0.45606  18
   4   0  -7 0.04379 0.33398  11
   4   0  -7 -0.2071 0.50339  17
   4   0  -7 -0.0308 0.93078   4
   4   0  -7 0.33993 0.21923  10
   4   0  -7 -0.2123 0.88577   7
   4   0  -7 0.42359 0.51959  18
   4   0  -7 -0.1307 0.60828  16
   3   0  -7 0.71241 0.55697   7
   3   0  -7 0.31092 0.39901  17
   3   0  -7 0.05031 0.36368  11
   3   0  -7 0.04028 0.29980  10
   3   0  -7 -0.8726 0.73693   4
   3   0  -7 2.18868 0.49881   2
   3   0  -7 0.84776 0.33077  18
   3   0  -7 0.60205 0.44916   3
   2   0  -7 0.47771 0.72400   4
   2   0  -7 -0.1532 0.66390   7
   2   0  -7 0.18809 0.65160   2
   2   0  -7 0.28801 0.58422   3
   1   0  -7 0.51464 0.62677   2
   1   0  -7 0.88685 0.62245   7
   1   0  -7 0.37426 0.70682   3
   1   0   7 0.63167 0.55975   2
  -1   0  -7 0.26635 0.67810   2
  -1   0  -7 -0.2363 0.76350   3
   1   0   7 0.33663 0.71768   3
   2   0   7 1.38087 0.99194   3
   2   0   7 0.34061 0.56240   5
  -2   0  -7 0.19977 0.42236   7
   2   0   7 -0.2548 0.67280   2
   3   0   7 -0.2305 0.32614  13
   3   0   7 1.16224 0.80244   5
   3   0   7 -0.1640 0.38592   9
   3   0   7 0.14362 0.79531   2
   3   0   7 -0.3560 0.31454   8
   3   0   7 0.21443 0.97158   3
   4   0   7 0.10365 0.28272   8
   4   0   7 2.02376 0.99236   2
   4   0   7 -0.1226 0.34275  13
   4   0   7 0.16240 0.79374   3
   4   0   7 -0.1937 0.70203   5
   4   0   7 1.23626 0.47964   9
   4   0   7 -0.1031 0.45566  10
   5   0   7 0.26427 0.30212  10
   5   0   7 -0.0978 0.52877  13
   5   0   7 -0.2285 0.34200   9
   5   0   7 0.23140 0.33966  14
   6   0   7 1.29631 0.28891  10
   6   0   7 -0.2576 0.35912  13
   6  -1  -7 20.5161 1.43327  18
   6  -1  -7 22.1965 1.35489  11
   6   1  -7 21.2432 1.51083  11
   6   1  -7 21.0873 1.59105  18
   5  -1  -7 16.0382 1.24401  17
   5  -1  -7 16.3872 1.24045  18
   5  -1  -7 15.6804 1.30853  11
   5   1  -7 15.5335 1.15977  11
   5   1  -7 16.8890 1.46650  17
   5   1  -7 17.3396 1.43677  18
   5   1  -7 13.5827 0.79127  10
   4  -1  -7 228.466 11.0027  18
   4  -1  -7 231.292 10.9836  17
   4  -1  -7 197.520 11.6861   4
   4  -1  -7 211.501 10.7894  10
   4  -1  -7 230.605 11.1820  16
   4  -1  -7 217.698 11.4941   7
   4  -1  -7 226.268 10.9644  11
   4   1  -7 237.803 10.9829  17
   4   1  -7 211.110 11.8613   4
   4   1  -7 215.962 10.8427  10
   4   1  -7 242.466 11.0034  11
   4   1  -7 236.154 11.0042  18
   4   1  -7 217.709 11.5566   7
   3  -1  -7 59.9658 3.12697  17
   3  -1  -7 64.0083 3.63967   7
   3  -1  -7 60.2087 3.24039  16
   3  -1  -7 53.8046 2.92788   3
   3  -1  -7 58.2578 3.79270   4
   3  -1  -7 54.3029 3.05956  11
   3  -1  -7 57.8088 2.99694  10
   3  -1  -7 56.2574 3.12460  15
   3  -1  -7 55.8922 3.08416  18
   3   1  -7 59.7421 3.07352  11
   3   1  -7 62.3420 3.32778   2
   3   1  -7 62.4828 3.62370   7
   3   1  -7 62.0524 3.04575  10
   3   1  -7 61.7207 3.11375  17
   3   1  -7 57.4113 2.95400   9
   3   1  -7 58.1740 3.12993  18
   3   1  -7 63.2022 4.02620   4
   3   1  -7 60.8769 3.31259  16
   3   1  -7 61.2668 3.41356   3
   2  -1  -7 33.5870 2.53249   4
   2  -1  -7 39.8114 2.55151   7
   2  -1  -7 38.1069 2.30310   2
   2  -1  -7 37.2000 2.39979   3
   2   1  -7 37.5347 2.50566   2
   2   1  -7 39.3132 2.78791   4
   2   1  -7 37.5868 2.54488   3
   2   1  -7 37.2564 2.48729   7
   1  -1  -7 51.7791 3.08658   2
   1  -1  -7 51.7740 3.21325   3
   1  -1  -7 51.0481 2.97754   7
   1  -1  -7 47.7736 3.15710   4
   1   1  -7 49.3821 2.95771   7
   1   1  -7 51.1826 3.24693   3
   1   1  -7 51.4734 3.12502   2
   0  -1   7 4.92238 1.46680   1
   0  -1  -7 7.21935 0.97121   7
   0  -1  -7 7.18711 1.04427   2
   0  -1  -7 5.53641 1.90205   1
   0  -1  -7 5.22858 1.06535   3
   0   1  -7 5.66585 0.99173   3
   0   1  -7 3.75083 1.80087   1
   0   1  -7 4.93949 0.99975   2
   0   1  -7 6.35834 0.75457   7
   1  -1   7 196.419 10.1963   2
   1  -1   7 199.910 9.87377   5
   1  -1   7 198.909 10.4601   3
  -1  -1  -7 199.762 10.3351   2
  -1  -1  -7 200.775 9.93422   7
  -1  -1  -7 203.144 10.4973   3
  -1   1  -7 193.275 9.88112   7
  -1   1  -7 194.896 10.5420   3
  -1   1  -7 203.628 10.3747   2
   1   1   7 201.308 9.91017   5
  -2  -1  -7 634.793 31.9481   7
   2  -1   7 654.281 32.6346   3
   2  -1   7 652.952 32.2956   2
   2  -1   7 680.050 32.0744   5
   2   1   7 684.255 32.3545   2
   2   1   7 681.753 32.0814   5
   2   1   7 629.178 32.6257   3
   3  -1   7 490.615 22.8725   2
   3  -1   7 474.180 22.6603   5
   3  -1   7 470.231 23.1685   3
   3  -1   7 427.946 22.1563  10
   3  -1   7 451.254 22.1554   9
   3  -1   7 432.669 22.1588  13
   3  -1   7 433.653 22.0827   8
   3   1   7 450.029 22.1035   8
   3   1   7 480.563 23.2310   3
   3   1   7 491.520 22.6710   5
   3   1   7 477.802 22.8749   2
   3   1   7 432.441 22.1634   9
   4  -1   7 759.058 35.8284  13
   4  -1   7 763.017 35.6885   8
   4  -1   7 732.540 35.5186  10
   4  -1   7 727.821 36.1363   5
   4  -1   7 759.040 35.9896   9
   4  -1   7 692.870 36.4878   3
   4   1   7 681.790 36.1633   2
   4   1   7 724.730 36.1395   5
   4   1   7 672.260 36.5576   3
   4   1   7 764.922 35.5417  10
   4   1   7 769.470 35.8208   8
   4   1   7 772.014 36.0142   9
   4   1   7 764.867 36.1399  13
   5  -1   7 66.9298 3.60655  13
   5  -1   7 65.9011 3.59169  14
   5  -1   7 66.9495 3.45549  10
   5  -1   7 69.7674 3.41881   9
   5   1   7 67.0637 3.44489   9
   5   1   7 61.4313 3.53354  14
   5   1   7 68.0928 3.47650  10
   5   1   7 71.2014 3.56841  13
   6  -1   7 29.5985 1.74728  13
   6  -1   7 31.2739 1.67709  10
   6   1   7 30.7330 1.64723  10
   6   1   7 29.2534 1.74043  13
   6  -2  -7 42.2122 2.25166  11
   6  -2  -7 41.2208 2.35800  18
   6  -2  -7 35.9230 2.16865  17
   6   2  -7 40.7771 2.18961  11
   6   2  -7 38.2067 2.21970  18
   5  -2  -7 141.703 7.17279  17
   5  -2  -7 147.703 7.16913  11
   5  -2  -7 139.180 7.31762  16
   5  -2  -7 144.842 7.22326  18
   5   2  -7 144.769 7.15824  11
   5   2  -7 138.221 6.96384  10
   5   2  -7 143.302 7.16974  18
   5   2  -7 149.195 7.18038  17
   4  -2  -7 131.608 6.31700  17
   4  -2  -7 121.173 6.77246   7
   4  -2  -7 124.793 6.24061  11
   4  -2  -7 128.915 6.44699  16
   4  -2  -7 124.798 6.29886  18
   4  -2  -7 114.083 6.02349  10
   4   2  -7 120.058 7.32115   4
   4   2  -7 123.198 6.25209  18
   4   2  -7 122.262 6.15223  10
   4   2  -7 133.728 6.30052  11
   4   2  -7 129.282 6.29655  17
   3  -2  -7 13.9340 0.89075  10
   3  -2  -7 14.7064 0.99741  17
   3  -2  -7 16.2264 1.04029  18
   3  -2  -7 12.0518 1.51368   4
   3  -2  -7 13.3387 1.12925  15
   3  -2  -7 11.8027 0.89493  11
   3  -2  -7 14.7217 1.38562  16
   3  -2  -7 15.1696 1.44387   7
   3   2  -7 13.4495 0.96962  10
   3   2  -7 14.0034 1.42124   2
   3   2  -7 13.4774 0.92839   9
   3   2  -7 13.7551 1.08190  17
   3   2  -7 12.9692 1.99017   4
   3   2  -7 13.6544 1.09943  11
   3   2  -7 12.2744 1.47912   3
   3   2  -7 13.1366 1.60387   7
   2  -2  -7 9.08846 1.12934   7
   2  -2  -7 11.7977 1.17181   3
   2  -2  -7 10.3521 1.08899   2
   2   2  -7 8.59629 1.07247   7
   2   2  -7 10.8934 1.30778   2
   2   2  -7 9.75799 1.36759   3
   1  -2  -7 70.3125 3.85428   7
   1  -2  -7 72.2822 3.95574   2
   1  -2  -7 59.8977 3.82942   4
   1  -2  -7 69.9018 4.01471   3
   1   2  -7 70.8082 3.83667   7
   1   2  -7 75.7206 4.20263   3
   1   2  -7 66.6818 3.98689   2
   0  -2   7 425.435 25.8753   1
   0  -2  -7 502.858 24.2517   7
   0  -2  -7 516.626 24.4763   2
   0  -2  -7 520.428 24.6290   3
   0   2  -7 451.504 26.2693   1
   0   2  -7 503.368 24.5804   2
   0   2  -7 532.150 24.7528   3
   0   2  -7 523.670 24.1787   7
  -1  -2  -7 43.3125 2.80430   2
  -1  -2  -7 39.5275 2.37422   7
  -1  -2  -7 42.9622 2.96145   3
   1  -2   7 37.0502 2.57850   2
   1  -2   7 39.7450 2.25424   5
   1  -2   7 39.4819 2.87654   3
   1   2   7 31.4387 3.67090   1
  -1   2  -7 39.3835 2.22265   7
   2  -2   7 72.9267 4.80974   3
   2  -2   7 85.0921 4.60284   2
   2  -2   7 76.5393 4.29349   5
   2   2   7 77.8462 4.54315   2
   2   2   7 79.9623 4.35819   5
   2   2   7 78.9472 4.92664   3
   3  -2   7 15.2475 0.99534   8
   3  -2   7 15.7898 1.66445   5
   3  -2   7 14.4109 1.09054   9
   3  -2   7 15.7107 1.76074   2
   3  -2   7 13.5497 0.98210  13
   3  -2   7 13.0495 2.13393   3
   3  -2   7 14.2605 1.13601  10
   3   2   7 15.6457 1.87178   2
   3   2   7 15.7061 2.22610   3
   3   2   7 18.1789 1.08134   8
   3   2   7 13.5490 1.14948   9
   3   2   7 16.2828 1.74286   5
   4  -2   7 30.9461 1.60633   8
   4  -2   7 30.7091 2.48209   2
   4  -2   7 31.4540 2.53884   5
   4  -2   7 33.1984 1.86260  10
   4  -2   7 32.4596 1.82137   9
   4  -2   7 30.4258 1.89032  13
   4   2   7 29.9332 2.57658   5
   4   2   7 30.1031 1.88406   9
   4   2   7 30.2903 1.76846   8
   4   2   7 31.3334 1.85122  13
   4   2   7 31.0471 1.81022  10
   5  -2   7 95.3075 4.84512  13
   5  -2   7 94.3425 4.74865  10
   5  -2   7 93.7515 4.65228   9
   5  -2   7 91.5625 4.86019  14
   5   2   7 92.0772 4.86021  13
   5   2   7 95.9799 4.79100  10
   5   2   7 93.6971 4.72369   9
   6  -2   7 12.8503 1.06008  13
   6  -2   7 12.0962 0.76230  10
   6  -2   7 9.43795 0.79689  14
   6   2   7 13.5312 0.95058  10
   6   2   7 11.4952 1.06795  13
   6  -3  -7 13.4530 1.06707  17
   6  -3  -7 14.3581 1.00706  11
   6  -3  -7 14.3714 1.11013  18
   6   3  -7 14.4892 1.10587  18
   6   3  -7 13.9670 1.07156  11
   5  -3  -7 19.2192 1.53296  18
   5  -3  -7 20.5379 1.36744  17
   5  -3  -7 19.3124 1.74477  16
   5  -3  -7 18.2336 1.23811  11
   5   3  -7 16.4506 1.18638  12
   5   3  -7 19.2160 1.30777  11
   5   3  -7 19.1124 1.14665  10
   5   3  -7 20.3675 1.36767  17
   5   3  -7 18.3049 1.34189  18
   4  -3  -7 110.663 5.53223  18
   4  -3  -7 112.422 5.73251  16
   4  -3  -7 105.487 5.45632  11
   4  -3  -7 116.691 5.55401  17
   4  -3  -7 100.822 5.95914   7
   4  -3  -7 109.354 5.51214  15
   4   3  -7 105.393 6.64907   4
   4   3  -7 103.147 5.25712   9
   4   3  -7 110.729 5.48052  18
   4   3  -7 110.134 5.47947  17
   4   3  -7 115.739 5.53585  11
   4   3  -7 109.777 5.40960  10
   4   3  -7 101.061 5.43225   2
   3  -3  -7 704.441 33.0596  17
   3  -3  -7 671.937 33.2362  10
   3  -3  -7 671.457 33.0494  18
   3  -3  -7 687.370 33.5074   7
   3  -3  -7 686.404 33.1775  16
   3  -3  -7 600.289 32.9730  11
   3  -3  -7 701.478 33.4508  15
   3   3  -7 695.154 33.0429  18
   3   3  -7 685.573 33.0494  11
   3   3  -7 707.394 33.2065  10
   3   3  -7 667.240 33.0942   9
   3   3  -7 701.678 33.4521   2
   3   3  -7 708.141 33.5228   7
   3   3  -7 667.361 33.0192  17
   3   3  -7 704.575 33.5891   3
   3   3  -7 717.781 34.0364   4
   2  -3  -7 203.494 9.90651   2
   2  -3  -7 198.132 10.1440   7
   2   3  -7 202.555 10.2362   2
   2   3  -7 200.207 10.0726   7
   2   3  -7 196.445 10.3505   3
   2   3  -7 192.141 10.4850   4
   1  -3  -7 997.867 50.8501   7
   1  -3  -7 1071.91 51.0627   3
   1  -3  -7 1093.97 50.9430   2
   1   3  -7 1019.90 51.2119   3
   1   3  -7 1055.66 50.8170   7
   1   3  -7 1080.86 51.0990   2
   0  -3  -7 16.0915 1.46416   7
   0  -3  -7 19.2164 1.79457   3
   0  -3  -7 17.9963 1.63822   2
   0  -3   7 13.4347 2.58626   1
   0   3  -7 16.1683 1.27094   7
   0   3  -7 16.2019 3.00682   1
   0   3  -7 17.5953 1.77390   2
   0   3  -7 18.2783 1.71500   3
  -1  -3  -7 982.019 48.0516   2
  -1  -3  -7 1012.18 47.7005   7
   1  -3   7 935.600 48.1856   3
   1  -3   7 1036.06 47.9766   2
   1  -3   7 974.040 47.5780   5
  -1  -3  -7 986.940 48.2599   3
   2  -3   7 48.0730 3.42302   3
   2  -3   7 47.4560 3.10094   2
   2  -3   7 45.7397 2.78426   5
   2   3   7 50.5688 2.90931   5
   3  -3   7 280.144 14.5522  13
   3  -3   7 294.756 14.5550   9
   3  -3   7 297.577 14.4803   8
   3  -3   7 307.310 15.2134   2
   3  -3   7 307.314 14.5766  10
   3  -3   7 313.685 15.0616   5
   3  -3   7 298.372 15.5734   3
   3   3   7 312.933 15.7811   3
   3   3   7 291.498 14.5284   8
   3   3   7 312.720 15.0974   5
   3   3   7 308.660 15.3708   2
   3   3   7 279.810 14.5910   9
   4  -3   7 9.98590 1.41992   5
   4  -3   7 10.3116 0.92360  10
   4  -3   7 9.14368 0.98172  13
   4  -3   7 9.63915 0.54856   8
   4  -3   7 11.4500 1.48978   2
   4  -3   7 9.12077 1.06890  14
   4  -3   7 10.1249 0.89759   9
   4   3   7 9.20465 1.34615   5
   4   3   7 7.55345 1.36775   2
   4   3   7 10.2420 1.04609  13
   4   3   7 9.37499 0.80874   8
   4   3   7 9.43342 1.01035   9
   4   3   7 10.2676 1.00492  10
   5  -3   7 144.158 7.28294  13
   5  -3   7 147.752 7.19290  10
   5  -3   7 149.063 7.09922   9
   5  -3   7 137.532 7.28009  14
   5   3   7 146.278 7.29012  13
   5   3   7 152.059 7.20416   9
   5   3   7 142.117 7.21619  10
   6  -3   7 105.676 4.94792  13
   6  -3   7 95.6910 4.77669  10
   6  -3   7 84.7076 4.86512  14
   6   3   7 98.4785 4.95528  13
   6   3   7 103.230 4.84435  10
   6  -4  -7 21.8904 1.54953  18
   6  -4  -7 21.1638 1.27899  11
   6  -4  -7 19.7621 1.32770  17
   6   4  -7 20.9001 1.32954  11
   6   4  -7 22.1555 1.36834  18
   5  -4  -7 167.462 8.52499  11
   5  -4  -7 189.221 8.63085  17
   5  -4  -7 172.492 8.77046  16
   5  -4  -7 166.798 8.56427  18
   5   4  -7 184.390 8.59906  11
   5   4  -7 161.141 8.51788  12
   5   4  -7 169.148 8.55632  18
   5   4  -7 174.843 8.44930  10
   4  -4  -7 56.8987 3.16504  11
   4  -4  -7 56.4245 3.78510   7
   4  -4  -7 61.8430 3.27763  18
   4  -4  -7 58.6781 3.28456  15
   4  -4  -7 62.3793 3.30777  17
   4  -4  -7 64.6726 3.42824  16
   4   4  -7 59.7332 4.46566   4
   4   4  -7 64.1706 3.28568  11
   4   4  -7 58.9217 3.19676  18
   4   4  -7 61.3979 3.16644  10
   4   4  -7 62.0650 3.20822  17
   3  -4  -7 153.836 7.86032  16
   3  -4  -7 156.901 8.22480   7
   3  -4  -7 153.322 7.58901  10
   3  -4  -7 162.135 7.79248  15
   3  -4  -7 152.388 7.73224  18
   3  -4  -7 148.500 7.72540  14
   3  -4  -7 159.981 7.76732  17
   3   4  -7 159.198 8.24926   7
   3   4  -7 154.554 7.73325  18
   3   4  -7 155.982 8.37965   3
   3   4  -7 160.845 8.79541   4
   3   4  -7 148.396 7.68755  17
   3   4  -7 158.416 7.67636   9
   3   4  -7 157.693 7.75699  11
   3   4  -7 164.896 8.27117   2
   3   4  -7 157.871 7.70942  10
   2  -4  -7 2695.31 137.596   9
   2  -4  -7 2758.15 139.010   3
   2  -4  -7 2896.71 137.957  10
   2  -4  -7 2889.62 137.699   7
   2  -4  -7 2791.39 138.034  17
   2  -4  -7 2703.28 138.174  18
   2  -4  -7 2957.17 138.817   2
   2  -4  -7 2791.84 138.882  16
   2  -4  -7 2889.15 138.398  15
   2   4  -7 2899.98 137.793   8
   2   4  -7 2778.63 138.120   9
   2   4  -7 3007.45 139.904   2
   2   4  -7 2848.55 140.975   3
   2   4  -7 2955.26 140.843   4
   2   4  -7 3133.89 138.479   7
   1  -4  -7 2317.80 113.455   7
   1  -4  -7 2247.00 113.984   2
   1  -4  -7 2277.16 114.698   3
   1   4  -7 2502.20 113.875   2
   1   4  -7 2314.20 112.161   7
   1   4  -7 2318.58 113.836   3
   0  -4  -7 2896.10 145.190   3
   0  -4  -7 3025.43 143.458   7
   0  -4  -7 3116.06 144.303   2
   0  -4   7 2622.47 143.882   1
   0   4  -7 2990.59 143.660   3
   0   4  -7 3008.22 142.765   2
   0   4  -7 2987.15 142.320   7
   1  -4   7 327.911 16.0374   2
  -1  -4  -7 321.491 16.1378   2
   1  -4   7 314.671 15.6465   5
  -1  -4  -7 326.064 15.7989   7
   1  -4   7 310.144 16.3398   3
   2  -4   7 677.130 36.6986   8
   2  -4   7 808.589 37.1746   2
   2  -4   7 765.731 37.4622   3
   2  -4   7 790.565 36.8913   5
   3  -4   7 4.46001 0.56627   8
   3  -4   7 6.13480 1.03831   5
   3  -4   7 4.52763 0.56118   9
   3  -4   7 4.33734 0.73886  10
   3  -4   7 4.63037 1.30093   3
   3  -4   7 5.64301 1.11406   2
   3   4   7 5.06267 0.57527   8
   3   4   7 6.33358 0.98728   5
   3   4   7 5.58941 1.23949   2
   3   4   7 4.64876 1.21466   3
   4  -4   7 92.8631 4.82258  13
   4  -4   7 100.176 4.88944  14
   4  -4   7 96.5707 4.73342   9
   4  -4   7 85.5875 5.35105   5
   4  -4   7 93.3379 4.75159  10
   4   4   7 96.0695 4.84190   9
   4   4   7 87.3843 5.42814   5
   4   4   7 99.1200 4.71782   8
   5  -4   7 43.9966 2.51566  13
   5  -4   7 43.8966 2.24027   9
   5  -4   7 45.2069 2.40706  10
   5  -4   7 47.5645 2.58671  14
   5   4   7 44.1917 2.47438  13
   5   4   7 44.3063 2.43539   9
   5   4   7 42.1435 2.41413  10
   6  -4   7 194.155 9.90414  14
   6  -4   7 212.182 9.79414  10
   6  -4   7 205.406 9.92882  13
   6   4   7 210.123 9.87781  10
   6   4   7 185.066 9.71857   9
   6   4   7 209.199 9.95102  13
   6  -5  -7 117.560 5.82031  18
   6  -5  -7 116.172 5.78794  17
   6  -5  -7 111.563 5.71500  11
   6   5  -7 118.697 5.79198  11
   6   5  -7 115.586 5.77126  18
   6   5  -7 114.292 5.76100  12
   5  -5  -7 15.5283 1.15030  11
   5  -5  -7 16.6481 1.40627  16
   5  -5  -7 17.4592 1.23851  17
   5  -5  -7 17.0368 1.23301  18
   5   5  -7 16.3589 1.20162  18
   5   5  -7 14.3842 1.07607  12
   5   5  -7 16.0783 1.18257  11
   5   5  -7 17.4567 1.11671  10
   4  -5  -7 7.22483 0.81181  18
   4  -5  -7 6.74168 0.84733  17
   4  -5  -7 7.38161 0.88633  14
   4  -5  -7 5.90740 0.92273  16
   4  -5  -7 7.99998 1.01544  15
   4  -5  -7 6.14010 0.61920  11
   4  -5  -7 6.12661 1.02540   7
   4   5  -7 7.23388 0.87728  10
   4   5  -7 7.77284 0.99441  18
   4   5  -7 7.69244 1.07595  17
   4   5  -7 6.18997 0.82401  12
   4   5  -7 5.72406 1.68635   4
   4   5  -7 6.82100 0.82153  11
   3  -5  -7 60.8357 3.11926  14
   3  -5  -7 59.4257 3.09064  17
   3  -5  -7 62.4107 3.11735  15
   3  -5  -7 55.6413 3.07006  18
   3  -5  -7 60.8392 3.32010  16
   3  -5  -7 60.0173 3.70555   7
   3  -5  -7 58.8671 2.90273  10
   3   5  -7 58.3444 3.05069   9
   3   5  -7 54.2087 3.01680  17
   3   5  -7 57.3414 3.07558  11
   3   5  -7 58.8666 3.86680   3
   3   5  -7 58.6456 3.81993   2
   3   5  -7 57.5267 3.08605  10
   3   5  -7 60.7271 4.07933   4
   3   5  -7 57.6658 3.09585  18
   3   5  -7 55.1655 2.87396   8
   2  -5  -7 1082.26 52.7738   3
   2  -5  -7 1111.88 52.5250  17
   2  -5  -7 1112.92 52.5447   2
   2  -5  -7 1164.18 52.9078   7
   2  -5  -7 1119.07 53.2296  16
   2  -5  -7 1061.07 52.8807  10
   2  -5  -7 1028.52 52.6188  18
   2  -5  -7 1015.70 52.5683   9
   2  -5  -7 1106.00 53.4311  15
   2   5  -7 1143.22 53.0700   2
   2   5  -7 1139.98 53.4316   4
   2   5  -7 1069.82 52.4542  10
   2   5  -7 1094.08 53.2879   3
   2   5  -7 1078.81 52.6297   8
   2   5  -7 993.462 52.5202   9
   2   5  -7 1154.98 52.8200   7
   1  -5  -7 1561.91 75.4569   3
   1  -5  -7 1534.84 75.2551   7
   1  -5  -7 1618.12 76.9005   2
   1   5  -7 1560.30 75.7702   3
   1   5  -7 1554.47 75.5599   2
   1   5  -7 1543.34 75.1166   7
   0  -5  -7 488.173 23.5123   2
   0  -5  -7 462.855 23.3039   7
   0  -5  -7 484.067 23.7673   3
   0   5  -7 474.803 23.8677   3
   0   5  -7 473.238 23.6557   2
   1  -5   7 29.3420 2.18095   2
   1  -5   7 28.2035 2.36393   3
  -1  -5  -7 28.1606 2.26519   2
  -1  -5  -7 28.3208 2.59999   3
  -1  -5  -7 26.9910 1.97242   7
   2  -5   7 3.81399 0.92977   2
   2  -5   7 2.82162 0.46713   9
   2  -5   7 4.17115 0.56236   8
   2  -5   7 3.73654 0.76967   5
   2  -5   7 3.18564 1.15930   3
   3  -5   7 236.229 11.2775   9
   3  -5   7 236.642 11.9176   2
   3  -5   7 220.448 12.2640   3
   3  -5   7 227.037 11.2917  10
   3  -5   7 238.107 11.1851   8
   3  -5   7 234.391 11.7841   5
   3   5   7 219.497 11.2604   8
   3   5   7 237.761 11.9138   5
   4  -5   7 78.4008 3.96550  14
   4  -5   7 74.4401 3.78835  10
   4  -5   7 67.0173 4.29794   5
   4  -5   7 76.1931 3.74344   9
   4  -5   7 69.6126 3.78942  13
   4   5   7 72.3827 3.87442   9
   4   5   7 69.6611 4.37482   5
   4   5   7 76.3770 3.73786   8
   5  -5   7 7.19744 0.76190  10
   5  -5   7 5.47592 0.37308   9
   5  -5   7 8.20049 1.01775  14
   5  -5   7 7.09967 0.72528  13
   5   5   7 6.43943 0.91738   9
   5   5   7 6.81164 0.77704  10
   5   5   7 6.48412 0.78140  13
   6  -5   7 70.7909 3.65830  13
   6  -5   7 69.6036 3.64880  14
   6  -5   7 72.7967 3.50810  10
   6   5   7 71.0144 3.47988   9
   6   5   7 73.3021 3.66367  13
   6  -6  -7 158.505 7.76445  18
   6  -6  -7 156.831 7.75008  17
   6   6  -7 169.367 7.76704  11
   6   6  -7 145.455 7.69131  12
   5  -6  -7 2.26301 0.66558  17
   5  -6  -7 1.68918 0.72710  16
   5  -6  -7 2.11076 0.55922  15
   5  -6  -7 2.16150 0.48706  18
   5   6  -7 2.31575 0.45011  18
   5   6  -7 2.06175 0.36767  10
   5   6  -7 2.06629 0.45902  11
   5   6  -7 1.84853 0.47813  12
   4  -6  -7 269.430 13.2150  18
   4  -6  -7 282.002 13.2720  15
   4  -6  -7 284.752 13.2576  17
   4  -6  -7 278.757 13.4246  16
   4  -6  -7 241.550 13.6662   7
   4  -6  -7 282.336 13.2298  14
   4   6  -7 250.013 13.1616  12
   4   6  -7 255.969 14.3706   4
   4   6  -7 286.178 13.1802  10
   4   6  -7 266.051 13.1693  18
   4   6  -7 272.128 13.2085  11
   3  -6  -7 14.6991 1.04526  14
   3  -6  -7 14.7497 1.18694  18
   3  -6  -7 15.3100 1.82438   7
   3  -6  -7 12.8290 0.80074  10
   3  -6  -7 16.3386 1.11258  15
   3  -6  -7 13.9414 1.45109  16
   3  -6  -7 13.1649 1.19551  17
   3   6  -7 13.1038 0.84379   8
   3   6  -7 14.0632 2.10924   2
   3   6  -7 16.4630 2.41408   4
   3   6  -7 13.7754 1.22297  11
   3   6  -7 15.0895 1.95085   3
   3   6  -7 12.2456 0.96921  18
   3   6  -7 14.4980 1.19529  10
   3   6  -7 14.4635 1.25249   9
   2  -6  -7 9.47288 0.85822   2
   2  -6  -7 8.86041 1.11156  16
   2  -6  -7 8.52769 0.57790   9
   2  -6  -7 7.34935 0.93445  18
   2  -6  -7 9.61435 0.80968  15
   2  -6  -7 10.9996 1.01733   3
   2  -6  -7 9.80847 0.96658  14
   2   6  -7 10.5403 1.84075   3
   2   6  -7 8.70570 0.83276   8
   2   6  -7 7.22142 0.95024  10
   2   6  -7 9.78046 1.62994   2
   2   6  -7 6.68220 0.96037   9
   2   6  -7 14.3034 1.86898   4
   1  -6  -7 60.2990 3.56763   3
   1  -6  -7 54.3406 2.94125  17
   1  -6  -7 60.8658 3.33649   2
   1  -6  -7 52.8152 2.86190   9
   1  -6  -7 53.9973 2.87806  10
   1  -6  -7 59.0598 3.43807   7
   1   6  -7 57.4161 3.74569   2
   1   6  -7 55.5233 3.16026   7
   1   6  -7 55.2689 3.77735   3
   0  -6  -7 1285.00 62.4661   3
   0  -6  -7 1270.39 62.1641   2
   0  -6  -7 1299.44 62.0274   7
   1  -6   7 572.869 27.4827   2
  -1  -6  -7 584.645 27.5564   2
  -1  -6  -7 564.641 27.2272   7
   1  -6   7 517.602 27.7756   3
  -1  -6  -7 548.020 27.8948   3
   2  -6   7 139.663 7.81094   3
   2  -6   7 146.526 7.53043   2
   2  -6   7 140.622 6.82065   8
   2  -6   7 145.839 7.26312   5
   2  -6   7 134.352 6.88651   9
   2  -6   7 131.168 6.90225  10
   3  -6   7 438.856 20.7087   8
   3  -6   7 418.294 21.7489   3
   3  -6   7 425.818 20.7618  10
   3  -6   7 445.285 20.8548  14
   3  -6   7 423.434 21.2525   5
   3  -6   7 432.279 21.3840   2
   3  -6   7 440.975 20.7436   9
   3   6   7 404.668 20.7348   8
   3   6   7 432.834 21.4120   5
   4  -6   7 15.2288 1.21037  13
   4  -6   7 17.3548 1.41967  14
   4  -6   7 16.9876 1.14269   9
   4  -6   7 14.6305 1.80091   5
   4  -6   7 16.1230 1.21074  10
   4   6   7 18.8030 1.43838   9
   4   6   7 15.2621 1.67589   5
   4   6   7 16.5145 1.17741   8
   5  -6   7 84.5622 4.53172  13
   5  -6   7 89.6150 4.44354  10
   5  -6   7 90.6873 4.59241  14
   5   6   7 91.6545 4.52946   9
   5   6   7 84.5672 4.55040  10
   5   6   7 90.1165 4.55531  13
   6  -6   7 30.4472 1.68295  14
   6  -6   7 28.4110 1.62785  13
   6   6   7 30.9424 1.69729  13
   6   6   7 30.4315 1.64063  10
   6   6   7 28.8020 1.50506   9
   6  -7  -7 17.1910 1.10318  17
   6  -7  -7 17.7842 1.22216  18
   6   7  -7 17.1240 1.11989  11
   5  -7  -7 103.139 5.19661  15
   5  -7  -7 102.649 5.41647  16
   5  -7  -7 105.404 5.23393  17
   5  -7  -7 98.8118 5.20210  18
   5   7  -7 95.2966 5.15166  12
   5   7  -7 102.604 5.16340  11
   5   7  -7 108.565 5.14205  10
   4  -7  -7 293.388 14.9190  18
   4  -7  -7 321.133 14.9943  15
   4  -7  -7 313.818 15.1380  16
   4  -7  -7 316.746 14.9594  14
   4  -7  -7 308.298 14.9465  17
   4   7  -7 279.064 16.0729   4
   4   7  -7 326.410 14.9317  10
   4   7  -7 306.074 14.9237  11
   4   7  -7 289.145 14.8916  12
   3  -7  -7 1034.86 49.1038  16
   3  -7  -7 948.532 48.1101  10
   3  -7  -7 950.679 48.0396  18
   3  -7  -7 997.627 49.0428  14
   3  -7  -7 1044.74 48.5534  17
   3  -7  -7 993.921 48.6071   7
   3  -7  -7 1012.63 49.1831  15
   3   7  -7 994.864 48.4311   9
   3   7  -7 1049.10 48.6271  11
   3   7  -7 1049.00 48.2503  10
   3   7  -7 894.725 48.9384   3
   3   7  -7 972.438 48.7850   2
   3   7  -7 1037.79 49.2675   4
   3   7  -7 1013.06 48.2284   8
   2  -7  -7 16.4604 1.09325  15
   2  -7  -7 15.5492 1.55577   6
   2  -7  -7 15.7081 1.09880   3
   2  -7  -7 15.7844 0.95380  10
   2  -7  -7 13.7968 0.82145   9
   2  -7  -7 14.4296 1.15573  18
   2  -7  -7 14.6655 1.36187  16
   2  -7  -7 15.0105 1.04573   2
   2  -7  -7 15.4315 1.74507   7
   2  -7  -7 16.6694 1.20593  17
   2  -7  -7 17.0544 1.23892  14
   2   7  -7 16.1899 1.11653   8
   2   7  -7 15.0280 1.26127   9
   2   7  -7 16.2472 1.99517   2
   2   7  -7 14.6874 2.41760   4
   2   7  -7 13.8707 1.20100  10
   2   7  -7 15.5779 2.16162   3
   1  -7  -7 369.034 18.2328  15
   1  -7  -7 365.173 18.3019  16
   1  -7  -7 417.814 18.8583   6
   1  -7  -7 374.669 18.1812  10
   1  -7  -7 362.443 18.1600   9
   1  -7  -7 366.498 18.2276  17
   1  -7  -7 395.114 18.6866   7
   1  -7  -7 409.729 18.6502   2
   1  -7  -7 379.513 18.7736   3
   1   7  -7 363.741 19.2415   3
   1   7  -7 361.462 18.9734   2
   1   7  -7 356.729 18.1935   8
   0  -7  -7 298.925 15.7945   8
   0  -7  -7 355.235 16.3529   7
   0  -7  -7 308.250 15.8707   9
   0  -7  -7 329.133 16.6933   3
   0  -7  -7 351.567 16.4642   2
   1  -7   7 438.105 21.2959   2
  -1  -7  -7 440.571 21.3540   2
   1  -7   7 421.274 21.6902   3
  -1  -7  -7 449.071 21.7631   3
  -1  -7  -7 399.929 20.6100   8
  -1  -7  -7 448.920 21.0711   7
   1  -7   7 398.778 20.5991   8
   2  -7   7 172.423 8.57147   5
  -2  -7  -7 151.696 8.16188   8
   2  -7   7 168.771 8.18563   9
   2  -7   7 160.414 8.10391   8
   2  -7   7 164.239 8.17746  10
   2  -7   7 175.991 8.88343   2
   2  -7   7 174.287 9.21485   3
   3  -7   7 773.007 36.6364   9
   3  -7   7 741.583 37.0054   2
   3  -7   7 783.226 36.6707  10
   3  -7   7 724.156 37.3500   3
   3  -7   7 719.753 36.8824   5
   3  -7   7 794.727 37.5572  14
   3  -7   7 774.721 36.5734   8
   3   7   7 739.458 36.3967   8
   4  -7   7 134.568 6.54240  14
   4  -7   7 114.510 6.42358  13
   4  -7   7 134.666 6.35829   9
   4  -7   7 134.212 6.41509  10
   4   7   7 129.386 6.38506   8
   4   7   7 126.165 6.47863   9
   5  -7   7 147.697 6.92533  10
   5  -7   7 132.433 6.97280  13
   5  -7   7 150.039 7.12754  14
   5   7   7 145.335 7.01380   9
   5   7   7 144.042 7.07127  13
   5   7   7 127.494 6.78422   8
   6  -7   7 75.6781 4.36760  14
   6   7   7 91.5765 4.23862   9
   6   7   7 94.7044 4.39385  13
   6   8  -7 109.005 5.03702  11
   6   8  -7 95.1938 4.97808  12
   6   8  -7 99.4744 4.88155  10
   5  -8  -7 221.886 10.5170  17
   5  -8  -7 222.283 10.5470  15
   5  -8  -7 204.467 10.4692  18
   5  -8  -7 217.808 10.6477  16
   5   8  -7 220.085 10.4586  10
   5   8  -7 209.072 10.4713  11
   5   8  -7 202.421 10.4517  12
   4  -8  -7 241.287 11.6137  16
   4  -8  -7 227.792 11.4015  17
   4  -8  -7 244.020 11.4369  14
   4  -8  -7 241.528 11.4434  15
   4  -8  -7 217.738 11.3614  18
   4   8  -7 227.523 11.3979  10
   4   8  -7 220.639 11.3627  12
   4   8  -7 237.949 11.3893  11
   3  -8  -7 569.340 25.7207  17
   3  -8  -7 522.339 25.6028  10
   3  -8  -7 552.128 25.7369  15
   3  -8  -7 475.679 25.6199  18
   3  -8  -7 542.115 25.7116  14
   3  -8  -7 572.635 25.8778  16
   3  -8  -7 502.769 26.1963   7
   3   8  -7 503.994 26.7304   3
   3   8  -7 549.968 25.5545   8
   3   8  -7 529.486 25.6803   9
   3   8  -7 491.729 26.4293   2
   3   8  -7 520.705 26.8175   4
   3   8  -7 564.562 25.7013  11
   3   8  -7 534.664 25.7019  10
   2  -8  -7 570.782 27.6916  10
   2  -8  -7 568.414 27.5211  16
   2  -8  -7 570.927 27.8881   7
   2  -8  -7 584.708 28.0624   6
   2  -8  -7 597.489 27.6030  14
   2  -8  -7 607.826 27.4307  17
   2  -8  -7 575.269 27.4271  15
   2   8  -7 549.029 28.1659   2
   2   8  -7 526.189 27.3996   9
   2   8  -7 549.134 27.3341   8
   2   8  -7 586.318 28.5793   4
   2   8  -7 524.349 28.4589   3
   1  -8  -7 315.603 15.7679  16
   1  -8  -7 335.104 16.1652   7
   1  -8  -7 322.339 16.2728   3
   1  -8  -7 315.984 15.6835  17
   1  -8  -7 330.989 16.0761   2
   1  -8  -7 330.898 15.6293  10
   1  -8  -7 320.331 15.6032   9
   1  -8  -7 308.858 15.6797  15
   1  -8  -7 340.106 16.3060   6
   1   8  -7 311.927 15.6543   8
   0  -8  -7 37.4408 1.95142   8
   0  -8  -7 36.3838 2.05626   9
   0  -8  -7 39.4881 2.63143   6
   0  -8  -7 38.2113 2.06571  10
   0  -8  -7 39.2889 2.93963   3
   0  -8  -7 38.2421 2.63962   2
   0  -8  -7 32.8312 2.10930  16
   0  -8  -7 40.7026 2.64346   7
   1  -8   7 697.269 37.2437  14
   1  -8   7 697.645 37.3795   8
   1  -8   7 786.959 38.3919   3
   1  -8   7 776.387 37.9372   2
  -1  -8  -7 820.626 38.4312   3
  -1  -8  -7 751.876 37.2894   9
  -1  -8  -7 830.610 38.0220   2
  -1  -8  -7 849.103 37.7551   7
  -1  -8  -7 767.135 37.5524   8
   2  -8   7 152.493 7.42980   9
   2  -8   7 157.170 8.12146   6
   2  -8   7 139.879 7.42128  10
   2  -8   7 157.550 7.35016   8
   2  -8   7 153.937 7.46104  14
   2  -8   7 141.709 8.45319   3
  -2  -8  -7 144.049 7.42291   8
   2  -8   7 155.222 8.13748   2
   2  -8   7 151.030 7.81585   5
   3  -8   7 174.797 8.19851   8
   3  -8   7 171.581 8.35164  10
   3  -8   7 154.772 8.81032   5
   3  -8   7 168.112 8.41621  15
   3  -8   7 175.462 8.45726  14
   3  -8   7 175.543 8.33800   9
   3   8   7 165.330 8.36486   8
   4  -8   7 369.236 17.4939   9
   4  -8   7 365.939 17.5584  10
   4  -8   7 366.927 17.6914  14
   4   8   7 346.269 17.6494   9
   4   8   7 364.771 17.5443   8
   5  -8   7 0.99995 0.32718  13
   5  -8   7 1.52578 0.36993  10
   5  -8   7 2.10141 0.47405  14
   5   8   7 1.98052 0.43953  13
   5   8   7 0.98109 0.19694   8
   5   8   7 1.60635 0.51590   9
   6  -8   7 7.28455 0.64993  14
   6   8   7 7.33251 0.77280  10
   6   8   7 7.34664 0.49300   9
   6   9  -7 0.47410 0.36740  11
   6   9  -7 0.83583 0.15960  10
   5  -9  -7 45.1868 2.75137  16
   5  -9  -7 45.7152 2.45964  15
   5  -9  -7 42.7144 2.41329  17
   5   9  -7 43.4261 2.39824  11
   5   9  -7 43.3450 2.45744  12
   5   9  -7 47.1394 2.39942  10
   4  -9  -7 4.23585 0.74447  15
   4  -9  -7 5.57047 0.74742  14
   4  -9  -7 4.71932 0.72503  17
   4  -9  -7 5.55391 1.00383  16
   4   9  -7 5.27643 0.86494  12
   4   9  -7 5.13982 0.70032  11
   4   9  -7 4.90766 0.71466  10
   3  -9  -7 6.67002 1.23014   7
   3  -9  -7 8.93482 1.36370  16
   3  -9  -7 8.57665 0.52047  10
   3  -9  -7 7.80082 1.08619  17
   3  -9  -7 9.52072 1.08317  14
   3  -9  -7 10.0857 1.10398  15
   3   9  -7 8.37740 1.56349   2
   3   9  -7 7.87992 1.13719   9
   3   9  -7 7.67916 1.12010  10
   3   9  -7 8.42157 0.82889   8
   3   9  -7 7.88347 0.87118  11
   3   9  -7 7.54090 1.78743   4
   2  -9  -7 2.95321 0.46214  15
   2  -9  -7 2.98866 1.01341   6
   2  -9  -7 2.38146 0.51686  16
   2  -9  -7 2.98738 0.99426   7
   2  -9  -7 3.08268 0.57304  17
   2  -9  -7 2.32115 0.34201  10
   2   9  -7 2.54068 1.21481   2
   2   9  -7 1.52695 0.95077   3
   2   9  -7 2.23223 0.63458   9
   1  -9  -7 3.03622 0.97301   6
   1  -9  -7 2.15147 0.39463  10
   1  -9  -7 3.34118 0.54661  15
   1  -9  -7 3.76924 0.55671  17
   1  -9  -7 3.86389 0.92931   2
   1  -9  -7 2.66890 0.57280  16
   1  -9  -7 2.86932 0.97214   7
   1  -9  -7 3.79045 1.04721   3
   1  -9  -7 2.46112 0.44180   9
   1   9  -7 1.81410 0.52771   8
   0  -9   7 96.1372 5.44901   8
   0  -9  -7 114.979 5.50171   9
   0  -9  -7 113.982 6.08787   6
   0  -9  -7 118.204 6.13331   2
   0  -9  -7 118.574 6.08662   7
   0  -9  -7 108.727 5.38924   8
   0  -9  -7 113.647 6.47021   3
   0  -9  -7 104.355 5.56709  16
   0  -9  -7 105.853 5.49385  10
  -1  -9  -7 73.3654 4.16245   9
  -1  -9  -7 85.7052 4.69557   7
  -1  -9  -7 79.2924 4.85931   2
   1  -9   7 75.8991 4.13719   9
   1  -9   7 87.3955 5.39963   3
  -1  -9  -7 83.9087 4.08805   8
   1  -9   7 82.5681 4.88187   2
  -1  -9  -7 84.0858 5.33920   3
   1  -9   7 81.6062 4.07960   8
   2  -9   7 107.053 5.32214   8
  -2  -9  -7 106.878 5.41643   8
   2  -9   7 103.554 5.42055  10
   2  -9   7 109.231 6.11328   6
   2  -9   7 109.547 6.13389   2
   2  -9   7 110.702 6.58229   3
   2  -9   7 109.343 5.41706   9
   2  -9   7 108.315 5.46646  14
   3  -9   7 44.4679 2.46923  14
   3  -9   7 42.1252 2.37606   9
   3  -9   7 43.2078 2.29322  10
   3  -9   7 40.5481 2.34629  15
   3   9   7 40.7798 2.31006   8
   4  -9   7 5.47623 0.77804  10
   4  -9   7 5.34771 0.75444  14
   4  -9   7 4.80058 0.62896   9
   4   9   7 5.31978 0.75800   9
   4   9   7 4.46681 0.59300   8
   5  -9   7 7.89406 0.71014  10
   5  -9   7 8.19465 0.85619  14
   5   9   7 10.3177 0.84371   9
   5   9   7 8.63268 0.53013   8
   5   9   7 8.78202 0.82892  13
   5 -10  -7 1.51374 0.43547  17
   5 -10  -7 2.29502 0.44620  15
   5 -10  -7 0.89519 0.68084  16
   5  10  -7 1.11273 0.36959  12
   5  10  -7 0.49739 0.52946  11
   5  10  -7 1.31020 0.53195  10
   4 -10  -7 23.9806 1.62256  15
   4 -10  -7 22.0339 1.61722  17
   4 -10  -7 23.8234 1.60170  14
   4 -10  -7 24.7290 1.91059  16
   4  10  -7 23.0515 1.44018  12
   4  10  -7 21.8141 1.44846  11
   4  10  -7 23.2170 1.66503  10
   3 -10  -7 0.90913 0.51057  16
   3 -10  -7 -0.6070 0.82789   6
   3 -10  -7 0.17154 0.38160  15
   3 -10  -7 1.34549 0.42443  17
   3 -10  -7 0.84312 0.44224  14
   3  10  -7 0.44792 0.92575   4
   3  10  -7 0.30336 0.42092   8
   3  10  -7 0.34613 0.56200  10
   3  10  -7 0.53836 0.53606  11
   3  10  -7 0.00787 0.59330   9
   2 -10  -7 28.0087 1.96211  16
   2 -10  -7 30.3125 1.81477  17
   2 -10  -7 26.9252 1.52464  10
   2 -10  -7 28.9915 2.15052   7
   2 -10  -7 27.8652 2.42238   6
   2 -10  -7 27.3823 1.66065  15
   2  10  -7 25.8982 1.86623   9
   2  10  -7 26.7021 3.00828   4
   2  10  -7 27.6466 1.74161   8
   1 -10  -7 9.47770 1.31646   6
   1 -10  -7 9.86905 1.17646  16
   1 -10  -7 9.73777 0.78831   9
   1 -10  -7 11.0924 0.88696  17
   1 -10  -7 10.2114 0.84326  10
   1 -10  -7 9.31443 1.23619   2
   1 -10  -7 9.45899 1.40270   3
   1 -10  -7 11.9649 0.96762  15
   1 -10  -7 8.93466 1.31794   7
   1  10  -7 7.59278 1.09061   8
   0 -10  -7 70.7263 4.28308   6
   0 -10  -7 70.6340 3.68616  10
   0 -10  -7 70.8885 4.34837   2
   0 -10  -7 67.8110 3.77926  16
   0 -10  -7 76.2302 4.33172   7
   0 -10   7 66.3432 3.61625   8
   0 -10  -7 73.7015 3.57043   8
   0 -10  -7 72.3318 3.67723   9
   0 -10  -7 76.3864 4.78367   3
   1 -10   7 275.651 14.0684   2
  -1 -10  -7 264.362 13.3288   9
  -1 -10  -7 291.983 13.8786   7
   1 -10   7 264.318 13.3138   9
  -1 -10  -7 280.281 13.2509   8
   1 -10   7 254.614 14.5017   3
  -1 -10  -7 266.587 14.0659   2
  -1 -10  -7 278.222 14.6483   3
   1 -10   7 281.896 13.2503   8
   2 -10   7 32.6805 2.62684   2
   2 -10   7 31.2275 3.02860   3
   2 -10   7 32.2380 1.95909  10
   2 -10   7 33.5617 1.80374   8
   2 -10   7 33.7986 1.96103  14
   2 -10   7 33.3238 1.95284   9
   2 -10   7 34.1964 2.68621   6
  -2 -10  -7 35.0507 1.97012   8
  -3 -10  -7 116.772 6.12826   8
   3 -10   7 124.390 6.18411  15
   3 -10   7 126.230 6.22454  14
   3 -10   7 124.900 6.08951   9
   3 -10   7 125.112 6.11007  10
   3  10   7 117.409 6.15142   8
   4 -10   7 9.22935 0.77226  10
   4 -10   7 11.0650 0.93959  14
   4 -10   7 8.97809 0.66468   9
   4  10   7 10.3262 0.98014   8
   5 -10   7 0.32140 0.38528  14
   5 -10   7 -0.0602 0.23842  10
   5  10   7 0.15693 0.35399  13
   5  10   7 0.48941 0.35251   9
   5 -11  -7 64.7593 3.38104  16
   5 -11  -7 63.7917 3.16481  15
   5  11  -7 61.5082 3.16254  10
   5  11  -7 56.4914 3.06740  11
   5  11  -7 55.4918 3.08384  12
   4 -11  -7 11.4808 0.99001  15
   4 -11  -7 10.3914 1.46062  16
   4 -11  -7 11.0334 1.12335  17
   4  11  -7 10.7124 0.90204  12
   4  11  -7 11.0729 1.01822  10
   4  11  -7 9.36387 0.87927  11
   4  11  -7 11.6013 0.95529   9
   3 -11  -7 149.317 7.79261  15
   3 -11  -7 156.830 7.81462  17
   3 -11  -7 162.367 7.96384  16
   3  11  -7 152.329 7.77533  11
   3  11  -7 157.691 7.80267   9
   3  11  -7 159.664 7.67810   8
   2 -11  -7 215.239 12.0080   6
   2 -11  -7 231.272 11.2240  10
   2 -11  -7 246.167 11.3943  17
   2 -11  -7 210.985 11.8352   7
   2 -11  -7 238.724 11.3666  15
   2 -11  -7 242.125 11.5250  16
   2  11  -7 240.712 11.3204   8
   2  11  -7 219.104 12.5457   4
   1 -11  -7 0.45584 0.46855  17
   1 -11  -7 0.87558 0.32930   9
   1 -11  -7 1.06971 0.55918  16
   1 -11  -7 0.71324 0.32023  15
   1 -11  -7 0.23413 0.82103   6
   1 -11  -7 0.44113 0.60860   3
   1 -11  -7 1.12721 0.36684  10
   1 -11  -7 0.81117 0.85424   7
   1 -11  -7 0.88570 0.72874   2
   1  11  -7 0.61083 0.40587   8
   1  11  -7 1.66738 1.47684   4
   0 -11  -7 916.029 44.0128   9
   0 -11  -7 951.393 43.8984  10
   0 -11  -7 873.816 43.6729  16
   0 -11  -7 902.092 43.5112   8
   0 -11  -7 945.013 43.8539   7
   0 -11  -7 859.504 43.8348   2
   0 -11   7 845.339 43.5099   8
   1 -11   7 41.7372 3.64924   3
  -1 -11  -7 45.9949 2.45906   9
   1 -11   7 40.6490 3.18654   6
   1 -11   7 41.7964 3.07589   2
  -1 -11  -7 47.8667 3.11760   7
  -1 -11  -7 50.1253 2.39080   8
   1 -11   7 44.1900 2.37543   8
  -1 -11  -7 43.3950 3.10083   2
  -1 -11  -7 41.8198 3.51608   3
   1 -11   7 43.6313 2.42111   9
   2 -11   7 25.1659 2.38512   6
   2 -11   7 26.3008 1.43958   8
   2 -11   7 24.4365 1.62213  14
   2 -11   7 27.5865 1.57644  10
   2 -11   7 26.5904 1.65141   9
  -2 -11  -7 25.2638 1.63620   8
  -3 -11  -7 79.4770 4.16860   8
   3 -11   7 80.1992 4.20746  15
   3 -11   7 79.0739 4.05570   9
   3 -11   7 82.8180 4.08784  10
   3 -11   7 80.2849 4.19276  14
   3  11   7 78.8541 4.17537   8
   4 -11   7 1.85519 0.43168  10
   4 -11   7 0.83033 0.33790  15
   4 -11   7 1.29717 0.54591  14
   4  11   7 0.43245 0.43199   8
   5 -11   7 30.8399 1.66225  10
   5 -11   7 33.5145 1.85176  14
   5  11   7 34.2451 1.83416   9
   5  11   7 34.6086 1.84690  13
   5 -12  -7 168.353 8.33734  16
   5  12  -7 173.529 8.22965  10
   5  12  -7 163.048 8.21686  12
   4 -12  -7 105.921 5.25571  16
   4 -12  -7 103.010 5.03985  15
   4 -12  -7 95.6580 4.99127  17
   4  12  -7 105.318 5.02458   9
   4  12  -7 94.9347 5.06520  10
   4  12  -7 93.8292 4.93549  11
   4  12  -7 93.6101 4.96668  12
   3 -12  -7 425.934 20.4866  15
   3 -12  -7 407.971 20.4505  17
   3 -12  -7 438.772 20.6242  16
   3  12  -7 414.372 20.4872   9
   3  12  -7 425.034 20.3410   8
   3  12  -7 417.381 20.4235  11
   2 -12  -7 210.043 10.4127  10
   2 -12  -7 209.665 10.5580  15
   2 -12  -7 215.611 10.5566  17
   2 -12  -7 222.021 10.7291  16
   2  12  -7 214.193 10.5235   8
   1 -12  -7 11.0411 1.15482  17
   1 -12  -7 11.0094 1.02008  15
   1 -12  -7 11.2053 1.34933  16
   1 -12  -7 11.1211 1.43923   6
  -1 -12   7 11.8041 1.62238   6
   1 -12  -7 13.8413 0.95651   9
   1 -12  -7 11.8440 0.94685  10
   1 -12  -7 13.7410 1.45802   7
   1  12  -7 9.71402 1.05014   8
   1  12  -7 11.6341 2.01491   4
   0 -12  -7 9.58897 0.94283   9
   0 -12  -7 8.07192 0.93302  10
   0 -12  -7 8.20900 1.21052   7
   0 -12  -7 8.92622 1.07914  17
   0 -12  -7 5.62739 1.18467   2
   0 -12  -7 9.51503 0.65938   8
   0 -12   7 7.34584 0.92617   8
   0 -12  -7 6.77651 1.15473  16
   0 -12   7 5.42385 1.31528   6
  -1 -12  -7 4.68361 0.70364   8
  -1 -12  -7 4.02770 0.64720   9
   1 -12   7 6.49699 0.93373   9
   1 -12   7 6.76797 1.30865   6
  -1 -12  -7 5.29304 1.11786   7
   2 -12   7 310.703 15.1630  10
   2 -12   7 315.294 15.1257   9
  -2 -12  -7 314.771 15.1146   8
   2 -12   7 322.594 15.0032   8
   2 -12   7 293.350 15.1516  14
  -3 -12  -7 1.00014 0.38956   8
   3 -12   7 1.91488 0.39496  10
   3 -12   7 1.76788 0.45893  15
   3 -12   7 2.15991 0.42661  14
   3 -12   7 1.34159 0.38847   9
   3  12   7 1.26374 0.58034   8
  -4 -12  -7 177.390 8.46306   8
   4 -12   7 186.424 8.39497  10
   4 -12   7 157.907 8.43031  15
   4 -12   7 165.005 8.48017  14
   5 -12   7 1.39585 0.36385  14
   5  12   7 1.54866 0.46260  13
   5 -13  -7 0.27723 0.30526  16
   5 -13  -7 0.82586 0.32098  15
   5  13  -7 1.49076 0.32980  10
   4 -13  -7 135.743 7.20497  15
   4 -13  -7 159.855 7.37176  16
   4  13  -7 134.260 7.16509  12
   4  13  -7 156.775 7.20008   9
   4  13  -7 146.963 7.25205  10
   4  13  -7 139.224 7.14729  11
   3 -13  -7 189.395 9.35946  15
   3 -13  -7 196.074 9.51681  16
   3 -13  -7 179.332 9.32535  17
   3  13  -7 190.281 9.42265   9
   3  13  -7 201.244 9.24940   8
   3  13  -7 179.584 9.27217  11
   2 -13  -7 924.838 44.1804  17
   2 -13  -7 872.914 44.8334  15
   2 -13  -7 940.302 44.3200  16
   2 -13  -7 936.090 44.6608  10
   2  13  -7 912.785 44.1221   8
   1 -13  -7 114.161 5.48081  10
  -1 -13   7 105.355 5.51174   8
   1 -13  -7 112.854 5.73127  16
   1 -13  -7 113.991 5.59373  17
   1 -13  -7 113.682 5.41827   9
   1 -13  -7 102.131 5.49475  15
   1  13  -7 104.310 5.54194   8
   0 -13  -7 19.7859 1.93005   7
   0 -13  -7 22.7387 1.44833   9
   0 -13   7 20.5142 1.43743   8
   0 -13  -7 22.6507 1.39051  10
   0 -13  -7 24.1711 1.47028  17
   0 -13   7 18.8293 2.14577   6
   0 -13  -7 23.2203 1.54255  16
  -1 -13  -7 77.9725 4.01327   9
   1 -13   7 76.7258 4.00042   9
  -1 -13  -7 72.5153 3.83750   8
   1 -13   7 78.6611 3.87206   8
  -2 -13  -7 7.93704 0.73886   8
   2 -13   7 7.50200 0.49723   8
   2 -13   7 6.86780 0.93964   9
   2 -13   7 8.16980 0.94309  10
  -2 -13  -7 8.12106 0.90970   9
   2 -13   7 8.77924 0.88163  15
   3 -13   7 415.530 19.5999  10
   3 -13   7 422.152 19.7082  15
  -3 -13  -7 398.363 19.6056   8
   3 -13   7 383.427 19.6412  14
   3 -13   7 419.504 19.5304   9
   3  13   7 393.145 19.6255   8
   4 -13   7 8.40003 0.88292  14
   4 -13   7 6.17617 0.81313  15
  -4 -13  -7 6.28201 0.78008   8
   4 -13   7 8.23333 0.73538  10
   4  13   7 8.01355 0.88962   8
   5 -13   7 79.3601 3.95683  14
   4 -14  -7 181.657 8.75583  16
   4 -14  -7 180.950 8.63297  15
   4  14  -7 160.896 8.54775  12
   4  14  -7 176.962 8.57559   9
   3 -14  -7 11.8340 0.99018  15
   3 -14  -7 12.4216 1.47857  16
   3 -14  -7 11.6179 0.91872  17
   3  14  -7 13.2098 1.02198   8
   3  14  -7 11.2385 1.16785   9
   2 -14  -7 1.29695 0.31327  10
   2 -14  -7 0.76824 0.55268  17
   2 -14  -7 1.35957 0.41118  15
   2 -14  -7 1.58584 0.54582  16
   2  14  -7 1.27548 0.64841   8
   2  14  -7 1.10827 0.53091  11
   1 -14  -7 83.8376 4.15651   9
   1 -14  -7 83.1125 4.45492  16
   1 -14  -7 84.5432 4.32512  17
   1 -14  -7 85.4196 4.26036  10
  -1 -14   7 81.4227 4.29730   8
   1  14  -7 84.7603 4.34522   8
   0 -14  -7 1123.00 55.4103  10
   0 -14  -7 1124.81 55.3034  16
   0 -14  -7 1170.94 55.7631  17
   0 -14   7 1165.10 55.3530   8
   0 -14  -7 1124.28 55.4943   9
  -1 -14  -7 587.870 29.7852   8
  -1 -14  -7 633.416 29.7767  10
   1 -14   7 604.520 29.7119   9
  -1 -14  -7 638.004 29.7468   9
   2 -14   7 504.710 23.6755  15
   2 -14   7 507.222 23.5624   9
   2 -14   7 457.724 23.5867  10
  -2 -14  -7 470.256 23.6480   9
  -2 -14  -7 500.522 23.5381   8
   3 -14   7 192.901 10.4025  14
   3 -14   7 218.429 10.2990   9
   3 -14   7 220.265 10.4883  15
  -3 -14  -7 228.155 10.4257   8
   3 -14   7 213.089 10.3935  10
   3  14   7 206.267 10.4118   8
   4 -14   7 3.28181 0.49483  15
  -4 -14  -7 3.97978 0.58790   8
   4 -14   7 4.00499 0.49531  10
   4  14   7 2.84376 0.43794   8
   4 -15  -7 49.0990 2.86797  15
   4 -15  -7 61.6382 3.09931  16
   4  15  -7 57.7095 2.89642   9
   4  15  -7 55.3639 2.84098  12
   3 -15  -7 93.7277 4.88154  15
   3 -15  -7 104.013 5.14419  16
   3  15  -7 93.3313 4.78796   8
   2 -15  -7 50.4937 2.83415  17
   2 -15  -7 52.6918 3.10816  16
  -2 -15   7 51.6125 2.82392   8
   2 -15  -7 51.2316 2.78553  15
   2 -15  -7 52.6520 2.66435  10
   2  15  -7 56.5640 2.91023   8
   1 -15  -7 177.091 8.76168  17
   1 -15  -7 177.443 8.87191  16
   1 -15  -7 184.378 8.68949  10
   1  15  -7 168.820 8.74791   8
   0 -15  -7 20.0631 1.31426  17
   0 -15   7 17.2867 1.47834   9
   0 -15  -7 19.3998 1.61297  16
   0 -15  -7 20.0016 1.32930   9
   0 -15  -7 20.1455 1.38200  10
  -1 -15  -7 1003.31 50.8862   8
   1 -15   7 1033.87 51.9543  15
   1 -15   7 1062.66 50.9949   8
  -1 -15  -7 1026.60 50.8040  10
   1 -15   7 1089.81 51.1933   9
  -1 -15  -7 1123.74 51.2935   9
   2 -15   7 34.1286 1.96496  15
   2 -15   7 31.3973 1.86245  10
   2 -15   7 33.3560 1.89023   9
  -2 -15  -7 34.9366 2.10153   9
  -2 -15  -7 33.0998 1.82759   8
  -3 -15  -7 112.941 5.63591   8
   3 -15   7 118.148 5.74302  15
   3 -15   7 118.000 5.66276  10
   3  15   7 108.253 5.66594   8
  -4 -15  -7 11.1218 0.74530   8
   4 -15   7 9.70251 0.71369  15
   4 -15   7 10.7318 0.65097  10
   4  15   7 10.2168 0.68109   8
   4 -16  -7 66.5290 3.33591  16
   4  16  -7 62.0686 3.19143   9
   3 -16  -7 312.890 15.4576  16
   3 -16  -7 301.808 15.3225  15
   3  16  -7 321.298 15.3530   9
   3  16  -7 328.942 15.2256   8
   2 -16  -7 285.215 13.7735  16
   2 -16  -7 277.170 13.4682  10
   2 -16  -7 268.639 13.5894  15
  -2 -16   7 282.475 13.5683   8
   2  16  -7 284.545 13.5948   8
  -1 -16   7 212.673 10.1174   8
   1 -16  -7 211.664 10.1149  10
   1 -16  -7 214.904 10.2962  16
  -1 -16   7 200.654 10.1564  15
   1 -16  -7 199.986 10.1545  17
   1  16  -7 203.349 10.2187   8
   0 -16  -7 264.524 13.0069   9
   0 -16   7 275.942 13.1301  15
   0 -16  -7 266.782 13.2130  16
   0 -16   7 284.225 13.0018   8
   0 -16  -7 254.612 13.0630  17
   0 -16   7 251.380 13.0872   9
   0 -16  -7 281.289 13.0934  10
   1 -16   7 780.852 38.0384   9
   1 -16   7 811.505 38.5242  15
   1 -16   7 730.483 37.6797   8
  -1 -16  -7 800.922 37.8565  17
  -1 -16  -7 804.440 37.8737  10
  -1 -16  -7 790.779 38.1633   9
  -2 -16  -7 95.0142 4.82842   9
   2 -16   7 86.1481 4.70549  10
   2 -16   7 98.7190 4.79141  15
   2 -16   7 96.7580 4.66522   9
  -2 -16  -7 93.8653 4.61618   8
   3 -16   7 42.8865 2.19291  15
   3 -16   7 40.0164 2.09128  10
   3  16   7 38.2516 2.13382   8
   3 -17  -7 181.002 9.32473  15
  -3 -17   7 200.060 9.31604   8
   3  17  -7 193.892 9.20589   8
   2 -17  -7 1.36985 0.49312  16
   2  17  -7 1.34418 0.42080   8
   1 -17  -7 266.288 12.5407  10
  -1 -17   7 254.148 12.5215   8
   1 -17  -7 257.868 12.6935  16
   1  17  -7 256.138 12.6258   8
   0 -17   7 27.9740 1.72827   9
   0 -17   7 29.0705 1.47231   8
   0 -17  -7 27.2550 1.69354  16
   0 -17  -7 27.9671 1.48028   9
   0 -17  -7 26.3710 1.56315  10
   0 -17   7 27.7649 1.69958  15
   0 -17  -7 22.8997 1.54076  17
  -1 -17  -7 1.56658 0.49021   9
  -1 -17  -7 1.93414 0.38993  17
  -1 -17  -7 1.31896 0.38914  10
   1 -17   7 2.04200 0.44641  15
   1 -17   7 1.77567 0.37418   9
   2 -17   7 86.1779 4.39971  10
  -2 -17  -7 82.4603 4.37728  17
   2 -17   7 91.6584 4.47731  15
   2 -17   7 87.0891 4.28416   9
  -2 -17  -7 90.3813 4.46625   9
  -3 -17  -7 3.42756 0.46143  17
  -3 -17  -7 3.14708 0.34968   8
  -2 -18   7 155.951 7.50564   8
   2 -18  -7 153.860 7.64508  16
   2  18  -7 152.471 7.50402   8
   1 -18  -7 17.4254 1.02539  10
  -1 -18   7 18.2070 0.96715   8
   1 -18  -7 13.8293 1.18385  16
   1  18  -7 16.5393 1.22554   8
   0 -18   7 50.9300 2.84309   9
   0 -18  -7 56.3079 3.00488  16
   0 -18  -7 57.8602 2.87754  10
   1 -18   7 28.4215 1.57943  15
  -1 -18  -7 31.5302 1.55618   9
   1 -18   7 27.0694 1.49021   9
   1 -18   7 26.1340 1.64846  10
  -1 -18  -7 24.1147 1.48862  17
   2 -18   7 2.64390 0.39889  15
   2 -18   7 3.09377 0.46912  10
   1 -19  -7 13.4558 1.02955  16
   1 -19  -7 16.8362 0.84623  10
   0 -19  -7 254.652 12.3133  10
   1 -19   7 64.3933 3.16604   9
   6   0  -8 543.369 26.3960  18
   6   0  -8 551.033 26.3764  11
   5   0  -8 48.4333 2.68883  11
   5   0  -8 48.5420 2.76499  18
   5   0  -8 46.6075 2.76150  17
   4   0  -8 677.207 32.9504  10
   4   0  -8 703.460 33.0200  16
   4   0  -8 699.346 32.8515  17
   4   0  -8 624.420 33.3634   7
   4   0  -8 695.928 32.8592  18
   4   0  -8 681.599 32.8250  11
   3   0  -8 438.560 20.4241  10
   3   0  -8 405.711 20.6644   3
   3   0  -8 429.067 20.6125   2
   3   0  -8 420.092 20.4748  11
   3   0  -8 426.914 20.5132  18
   3   0  -8 428.254 20.4943  17
   3   0  -8 408.908 21.2909   4
   3   0  -8 397.762 20.3251   9
   3   0  -8 441.959 20.9978   7
   3   0  -8 435.714 20.6680  16
   2   0  -8 200.598 9.52954  18
   2   0  -8 205.020 9.96284   2
   2   0  -8 174.949 9.50954  11
   2   0  -8 194.467 9.48413  10
   2   0  -8 193.801 9.63494  16
   2   0  -8 208.662 9.98468   7
   2   0  -8 188.943 9.44000   9
   2   0  -8 179.436 9.47998  17
   2   0  -8 198.170 10.0956   3
   2   0  -8 199.138 10.2087   4
   1   0  -8 34.9278 2.42207   7
   1   0  -8 39.9233 2.82027   3
   1   0  -8 34.1495 2.54234   2
   0   0  -8 3.50760 0.92058   3
   0   0  -8 3.60833 1.00085   2
   0   0  -8 3.71834 0.74922   7
  -1   0  -8 1103.21 53.9456   3
   1   0   8 1089.11 53.1544   5
  -1   0  -8 1117.04 53.2413   7
  -1   0  -8 1104.29 53.7607   2
   2   0   8 274.765 14.2703   8
   2   0   8 298.953 15.2789   2
   2   0   8 317.289 14.7091   5
   2   0   8 289.790 15.3939   3
   3   0   8 3805.80 187.520   2
   3   0   8 3979.66 188.681   5
   3   0   8 3869.85 187.299   8
   3   0   8 4076.97 187.662   3
   3   0   8 3791.79 187.653   9
   3   0   8 3838.07 187.693  13
   4   0   8 253.860 12.5472   9
   4   0   8 254.417 12.5732  10
   4   0   8 240.499 13.1841   5
   4   0   8 273.293 12.4485   8
   4   0   8 262.837 12.6020  13
   5   0   8 147.310 6.94822  10
   5   0   8 137.904 6.87258   9
   5   0   8 139.509 6.97202  13
   5   0   8 133.929 6.98582  14
   6   0   8 6.70341 0.72924  10
   6   0   8 5.80746 0.65060  13
   6  -1  -8 56.9459 2.84974  11
   6  -1  -8 55.8603 2.84395  18
   6   1  -8 46.7729 2.81493  18
   6   1  -8 52.6540 2.78289  11
   5  -1  -8 357.436 17.2232  18
   5  -1  -8 332.842 17.1822  17
   5  -1  -8 353.035 17.1805  11
   5   1  -8 370.999 17.2197  17
   5   1  -8 354.363 17.1987  18
   5   1  -8 353.087 17.1849  11
   4  -1  -8 7.87261 1.07215  16
   4  -1  -8 7.98352 0.85637  17
   4  -1  -8 6.01879 0.77069  18
   4  -1  -8 6.10259 0.92181  11
   4  -1  -8 5.71637 0.59283  10
   4  -1  -8 5.83615 1.05225   7
   4   1  -8 6.14936 0.74633  11
   4   1  -8 5.35422 1.23955   7
   4   1  -8 6.59305 1.32523   4
   4   1  -8 6.45300 0.73578  10
   4   1  -8 7.16826 0.84370  17
   4   1  -8 6.70484 0.84599  18
   3  -1  -8 100.069 5.10463  17
   3  -1  -8 103.795 5.67883   7
   3  -1  -8 102.583 5.16490  18
   3  -1  -8 93.6102 5.07439  11
   3  -1  -8 106.036 5.03083  10
   3  -1  -8 92.2894 4.88365   9
   3  -1  -8 93.8126 4.99682   2
   3  -1  -8 104.163 5.33769  16
   3   1  -8 111.079 5.14115  17
   3   1  -8 103.037 5.36275   2
   3   1  -8 105.578 5.68774   7
   3   1  -8 107.807 5.29207  16
   3   1  -8 100.729 6.05093   4
   3   1  -8 97.9925 5.48500   3
   3   1  -8 101.445 5.15492  18
   3   1  -8 96.9877 4.97536   9
   3   1  -8 100.927 5.09961  11
   3   1  -8 104.110 5.05696  10
   2  -1  -8 115.088 5.70099  10
   2  -1  -8 107.370 5.64272   9
   2  -1  -8 119.066 6.21025   3
   2  -1  -8 119.704 5.76667  18
   2  -1  -8 112.151 5.72254  17
   2  -1  -8 118.733 6.09336   2
   2  -1  -8 112.969 5.83684  16
   2  -1  -8 124.662 6.27958   7
   2  -1  -8 108.052 6.27731   4
   2   1  -8 119.559 6.14840   7
   2   1  -8 110.698 5.56423   8
   2   1  -8 115.391 5.86903  16
   2   1  -8 116.890 6.37741   3
   2   1  -8 111.467 5.71750  10
   2   1  -8 120.275 6.55566   4
   2   1  -8 114.705 5.72798  18
   2   1  -8 110.479 5.69731  17
   2   1  -8 113.183 5.68204   9
   2   1  -8 116.736 6.21627   2
   1  -1  -8 889.325 47.2565   4
   1  -1  -8 1015.05 47.1334   7
   1  -1  -8 959.886 47.2818   2
   1  -1  -8 959.158 47.4086   3
   1   1  -8 981.804 47.3230   2
   1   1  -8 999.799 47.5398   3
   1   1  -8 1010.69 47.1225   7
   0  -1  -8 1.06775 0.66700   7
   0  -1  -8 1.44702 0.85301   2
   0  -1  -8 2.13767 0.97428   3
   0   1  -8 1.48338 1.00768   3
   0   1  -8 1.48902 0.62617   7
   0   1  -8 0.68217 0.88343   2
  -1  -1  -8 3.27406 1.10325   3
  -1  -1  -8 2.69250 0.94960   2
  -1  -1  -8 2.48509 0.67291   7
   1   1   8 1.15948 0.47535   5
  -1   1  -8 2.40894 0.59008   7
   2  -1   8 1140.96 55.1365   3
   2  -1   8 1126.25 54.7401   2
  -2  -1  -8 1142.89 54.3304   7
   2  -1   8 1200.42 54.4239   5
   2  -1   8 1075.62 54.3781   8
   2   1   8 968.754 53.9926   8
   2   1   8 1227.34 54.4505   5
   3  -1   8 150.464 8.22350   2
   3  -1   8 149.228 7.45453   9
   3  -1   8 154.670 7.37332   8
   3  -1   8 140.066 7.42457  13
   3  -1   8 154.780 7.99687   5
   3  -1   8 152.983 8.65525   3
   3   1   8 148.847 8.52726   3
   3   1   8 152.063 7.38277   8
   3   1   8 144.489 7.45760   9
   3   1   8 157.948 8.02103   5
   3   1   8 151.164 7.45344  13
   3   1   8 147.757 8.21114   2
   4  -1   8 88.6891 4.49835  13
   4  -1   8 78.7532 5.05414   5
   4  -1   8 88.4734 4.44663  10
   4  -1   8 89.4740 4.30672   8
   4  -1   8 90.8706 4.45839   9
   4   1   8 87.7058 4.47886  13
   4   1   8 83.6892 4.47686  10
   4   1   8 89.1277 4.47696   9
   4   1   8 80.0389 5.08658   5
   4   1   8 91.4687 4.34229   8
   5  -1   8 129.318 6.32770   9
   5  -1   8 131.195 6.46267  13
   5  -1   8 129.261 6.40403  10
   5  -1   8 121.981 6.44451  14
   5   1   8 132.625 6.44874  13
   5   1   8 131.629 6.41939  10
   5   1   8 135.791 6.36371   9
   5   1   8 116.440 6.40376  14
   6  -1   8 24.5225 1.55565  13
   6  -1   8 29.5053 1.54793  10
   6   1   8 28.8037 1.58246  10
   6   1   8 26.8975 1.57373  13
   6  -2  -8 10.1645 0.96098  18
   6  -2  -8 10.0422 0.86288  17
   6  -2  -8 9.74762 0.80601  11
   6   2  -8 10.4375 0.88574  11
   6   2  -8 9.64554 0.93534  18
   5  -2  -8 252.757 12.1509  18
   5  -2  -8 245.963 12.1147  17
   5  -2  -8 242.532 12.0821  11
   5   2  -8 228.146 11.8969  10
   5   2  -8 246.012 12.1008  11
   5   2  -8 258.683 12.1376  17
   5   2  -8 257.761 12.1484  18
   4  -2  -8 213.920 11.9000   7
   4  -2  -8 228.154 11.3457  11
   4  -2  -8 212.785 11.1566  10
   4  -2  -8 244.376 11.4229  17
   4  -2  -8 233.326 11.5994  16
   4  -2  -8 240.151 11.4261  18
   4   2  -8 237.610 11.3728  17
   4   2  -8 238.827 11.4044  18
   4   2  -8 241.401 11.2825  10
   4   2  -8 247.722 11.4125  11
   4   2  -8 209.704 12.3896   4
   3  -2  -8 86.6252 4.48398  16
   3  -2  -8 86.5449 4.28147  17
   3  -2  -8 84.4200 4.85590   7
   3  -2  -8 83.0370 4.29611  18
   3  -2  -8 85.4021 4.13680  10
   3  -2  -8 72.3645 4.14126  11
   3   2  -8 76.3109 4.68457   3
   3   2  -8 83.8557 4.61280   2
   3   2  -8 82.8644 4.28224  18
   3   2  -8 82.9372 4.19101  10
   3   2  -8 83.5196 5.28994   4
   3   2  -8 80.5707 4.12772   9
   3   2  -8 79.5707 4.19438  17
   3   2  -8 83.7100 4.81357   7
   3   2  -8 88.2496 4.28719  11
   2  -2  -8 533.405 25.7106   2
   2  -2  -8 554.686 25.9075   7
   2  -2  -8 529.785 25.4274  18
   2  -2  -8 515.909 25.5261  16
   2  -2  -8 482.669 25.3143   9
   2  -2  -8 536.291 25.8274   3
   2  -2  -8 546.853 25.3735  10
   2  -2  -8 517.309 25.3971  17
   2   2  -8 559.031 26.1399   3
   2   2  -8 521.530 25.9357   2
   2   2  -8 515.696 25.5179  16
   2   2  -8 528.754 25.4063  10
   2   2  -8 557.709 25.8327   7
   2   2  -8 514.106 25.4084  18
   2   2  -8 498.003 25.3686   9
   2   2  -8 505.679 25.2744   8
   2   2  -8 540.743 26.2845   4
   1  -2  -8 52.1264 3.32161   2
   1  -2  -8 55.9579 3.45907   3
   1  -2  -8 52.8057 3.15906   7
   1   2  -8 54.4830 3.63114   3
   1   2  -8 53.9611 3.14595   7
   1   2  -8 54.9653 3.45622   2
   0  -2  -8 486.793 23.3176   2
   0  -2  -8 474.618 23.4503   3
   0  -2  -8 476.108 23.0420   7
   0   2  -8 459.717 22.9379   7
   0   2  -8 448.174 23.5465   3
   0   2  -8 477.240 23.4404   2
  -1  -2  -8 12.1160 1.31861   7
  -1  -2  -8 13.2135 1.68686   2
  -1  -2  -8 10.8102 1.77349   3
   1   2   8 13.3595 1.16077   5
   2  -2   8 449.757 21.6646   5
   2  -2   8 444.933 21.9964   2
   2  -2   8 431.288 22.3449   3
   2  -2   8 414.697 21.2543   8
  -2  -2  -8 441.827 21.6177   7
   2   2   8 464.618 21.7155   5
   3  -2   8 81.9442 4.64471   5
   3  -2   8 74.2255 5.17679   3
   3  -2   8 81.3676 4.85140   2
   3  -2   8 82.7087 4.02041   8
   3  -2   8 79.5476 4.10640   9
   3   2   8 83.9002 4.67718   5
   3   2   8 80.7043 4.92912   2
   3   2   8 71.9243 5.20305   3
   3   2   8 82.4513 4.05555   8
   3   2   8 77.7217 4.14560   9
   4  -2   8 1.95186 0.50505  13
   4  -2   8 2.63113 0.50096   9
   4  -2   8 2.38243 0.39754  10
   4  -2   8 1.39510 0.28585   8
   4  -2   8 1.16763 0.86843   5
   4   2   8 1.37931 0.50648  13
   4   2   8 2.45678 0.39672   8
   4   2   8 2.31786 0.42878   9
   4   2   8 1.36194 0.49498  10
   4   2   8 2.79788 1.00216   5
   5  -2   8 32.1773 1.71948   9
   5  -2   8 32.2685 1.85886  14
   5  -2   8 31.6715 1.83758  10
   5  -2   8 32.4368 1.88775  13
   5   2   8 31.1427 1.91248  13
   5   2   8 32.4597 1.81192   9
   5   2   8 30.9026 1.78776  10
   5   2   8 27.2255 1.74998  14
   6  -2   8 6.32522 0.51894  10
   6  -2   8 5.79706 0.62569  13
   6  -2   8 3.94509 0.52816  14
   6   2   8 4.45560 0.59533  10
   6   2   8 5.46204 0.65195  13
   6  -3  -8 57.8083 3.28665  17
   6  -3  -8 59.8801 3.22859  11
   6  -3  -8 68.5130 3.40225  18
   6   3  -8 61.6221 3.28864  18
   6   3  -8 71.6914 3.36904  11
   5  -3  -8 28.4509 1.80551  17
   5  -3  -8 31.6897 2.19670  16
   5  -3  -8 30.0787 1.78114  11
   5  -3  -8 29.3163 1.81427  18
   5   3  -8 28.4819 1.56250  10
   5   3  -8 29.8024 1.79467  17
   5   3  -8 30.2176 1.96282  18
   5   3  -8 28.5814 1.76619  11
   4  -3  -8 73.0708 3.83985  18
   4  -3  -8 77.4958 4.14504  16
   4  -3  -8 76.9018 3.91833  17
   4  -3  -8 66.2002 3.73573  11
   4  -3  -8 70.0804 4.35663   7
   4   3  -8 74.9449 3.87727  18
   4   3  -8 71.5227 3.74402  10
   4   3  -8 69.8526 4.99979   4
   4   3  -8 80.5058 3.90485  11
   4   3  -8 72.2321 3.80781  17
   3  -3  -8 1197.07 59.2217  17
   3  -3  -8 1238.74 59.3776   7
   3  -3  -8 1237.53 59.9665  16
   3  -3  -8 1078.83 58.7644  11
   3  -3  -8 1278.25 59.5873  15
   3  -3  -8 1251.70 59.3057  10
   3  -3  -8 1190.53 59.6197  18
   3   3  -8 1227.51 59.4419  10
   3   3  -8 1261.15 59.4206   9
   3   3  -8 1193.69 59.3774  18
   3   3  -8 1217.62 59.8613   4
   3   3  -8 1283.34 59.6043  11
   3   3  -8 1229.29 59.3470   7
   3   3  -8 1276.19 59.2919   2
   3   3  -8 1213.64 58.8083  17
   2  -3  -8 248.408 12.3481  17
   2  -3  -8 241.522 12.2896  10
   2  -3  -8 254.152 12.3685  18
   2  -3  -8 246.762 12.2372   9
   2  -3  -8 253.106 12.4677  16
   2  -3  -8 262.748 12.8538   7
   2  -3  -8 263.811 12.3970  15
   2  -3  -8 255.687 12.5926   2
   2   3  -8 258.261 13.0980   3
   2   3  -8 269.997 12.7754   7
   2   3  -8 245.448 12.3279   9
   2   3  -8 248.215 12.2229   8
   2   3  -8 243.595 12.3453  10
   2   3  -8 259.848 13.3199   4
   2   3  -8 262.025 12.9903   2
   2   3  -8 243.163 12.3408  18
   1  -3  -8 358.356 16.9029   7
   1  -3  -8 330.163 17.0759   3
   1  -3  -8 304.550 16.3662   8
   1  -3  -8 329.568 16.9312   2
   1   3  -8 350.958 17.1468   2
   1   3  -8 356.919 17.3549   3
   1   3  -8 355.845 16.8180   7
   0  -3  -8 1610.31 75.3130   7
   0  -3  -8 1521.85 75.6894   3
   0  -3  -8 1600.93 75.5419   2
   0   3  -8 1526.36 75.1554   7
   0   3  -8 1608.91 75.7058   2
   0   3  -8 1507.02 75.8223   3
  -1  -3  -8 137.426 7.92163   3
  -1  -3  -8 143.316 7.37146   7
  -1  -3  -8 145.865 7.79381   2
   2  -3   8 86.4423 5.00542   2
  -2  -3  -8 87.7694 4.65628   7
   2  -3   8 81.1918 4.22388   8
   2  -3   8 79.2197 5.17976   3
   2  -3   8 86.8769 4.62643   5
   2   3   8 85.2241 4.70872   5
   3  -3   8 131.978 6.99616   5
   3  -3   8 130.810 6.39521   8
   3  -3   8 127.153 6.48059  10
   3  -3   8 129.743 6.49105   9
   3  -3   8 129.557 7.22997   2
   3  -3   8 124.617 7.60595   3
   3   3   8 132.904 6.45541   8
   3   3   8 134.993 7.07726   5
   4  -3   8 34.7363 1.94513   9
   4  -3   8 32.3417 1.91712  13
   4  -3   8 36.6509 2.11907  14
   4  -3   8 33.5984 1.71106   8
   4  -3   8 35.2310 1.98527  10
   4  -3   8 31.2080 2.56148   5
   4   3   8 34.9465 2.04924   9
   4   3   8 34.3813 2.04866  13
   4   3   8 34.5188 1.87122   8
   4   3   8 28.4487 2.59383   5
   5  -3   8 7.56540 0.81778  14
   5  -3   8 6.59122 0.86566  10
   5  -3   8 6.99264 0.74391  13
   5  -3   8 6.07753 0.63379   9
   5   3   8 7.80320 0.96863  13
   5   3   8 8.01151 0.88447   9
   5   3   8 8.89299 0.95052  10
   6  -3   8 232.269 11.7817  13
   6   3   8 252.990 11.7709  10
   6  -4  -8 1.18102 0.46799  18
   6  -4  -8 0.57693 0.48979  17
   6  -4  -8 0.87593 0.29587  11
   6   4  -8 0.28565 0.42104  18
   6   4  -8 -0.0524 0.38408  11
   5  -4  -8 124.809 5.95408  17
   5  -4  -8 119.462 6.11138  16
   5  -4  -8 104.254 5.80614  11
   5  -4  -8 119.891 5.94401  18
   5   4  -8 123.657 5.92436  11
   5   4  -8 115.845 5.91683  18
   5   4  -8 111.438 5.73671  10
   4  -4  -8 2.21965 0.45240  11
   4  -4  -8 1.77649 0.58963  18
   4  -4  -8 1.03827 0.97129   7
   4  -4  -8 2.10516 0.63073  17
   4  -4  -8 2.32978 0.59556  15
   4  -4  -8 2.14740 0.75336  16
   4   4  -8 1.78949 0.54489  10
   4   4  -8 1.84619 0.62623  17
   4   4  -8 0.67367 1.29739   4
   4   4  -8 1.46128 0.59407  11
   4   4  -8 1.44270 0.55761  18
   3  -4  -8 1.82041 0.60850  18
   3  -4  -8 1.58981 1.05986   7
   3  -4  -8 2.00221 0.55478  16
   3  -4  -8 2.83555 0.49010  17
   3  -4  -8 2.19550 0.48292  15
   3  -4  -8 2.49198 0.32984  10
   3   4  -8 2.32789 0.97353   3
   3   4  -8 1.57355 1.41139   4
   3   4  -8 2.25426 0.47830   9
   3   4  -8 2.90975 1.01143   2
   3   4  -8 2.61578 0.53816  17
   3   4  -8 2.66730 1.04495   7
   3   4  -8 1.69707 0.49473  10
   3   4  -8 2.74506 0.46877  18
   3   4  -8 3.67698 0.51882  11
   2  -4  -8 0.77847 0.86296   7
   2  -4  -8 0.55612 0.26374   9
   2  -4  -8 0.79698 0.30794  10
   2  -4  -8 1.05293 0.64001   3
   2  -4  -8 1.79866 0.40616  18
   2  -4  -8 0.73501 0.54320   2
   2  -4  -8 0.38862 0.52275  16
   2  -4  -8 0.51614 0.42708  17
   2  -4  -8 0.65873 0.45959  15
   2   4  -8 0.54402 0.43573  18
   2   4  -8 0.56231 1.20403   4
   2   4  -8 0.53974 0.75483   7
   2   4  -8 0.58333 0.44777  10
   2   4  -8 0.04000 0.43859   9
   2   4  -8 -0.0280 0.36852   8
   2   4  -8 0.70517 0.94576   2
   1  -4  -8 247.986 11.7142  15
   1  -4  -8 220.067 11.6357   9
   1  -4  -8 249.708 12.1658   2
   1  -4  -8 246.847 12.1183   7
   1  -4  -8 236.285 11.6646  10
   1  -4  -8 230.896 11.5487   8
   1  -4  -8 223.893 11.6638  17
   1  -4  -8 248.276 12.3396   3
   1   4  -8 265.859 12.4961   2
   1   4  -8 220.333 11.6219   8
   1   4  -8 247.951 11.9753   7
   1   4  -8 245.030 12.5913   3
   0  -4  -8 14.3551 1.86847   3
   0  -4  -8 13.1556 0.89629   8
   0  -4  -8 14.6252 1.63095   2
   0  -4  -8 14.6074 1.52412   7
   0   4  -8 12.5366 1.73082   2
   0   4  -8 13.6668 1.93317   3
  -1  -4  -8 101.696 5.92198   2
  -1  -4  -8 102.999 5.46901   7
   2  -4   8 13.3783 0.98187   8
   2  -4   8 12.8795 0.97303   9
   2  -4   8 16.5805 1.27396   5
   2  -4   8 13.6622 1.98985   3
  -2  -4  -8 15.7706 1.49803   7
   2  -4   8 14.4925 1.71592   2
   2   4   8 16.5975 1.57666   5
   3  -4   8 0.67946 0.90560   2
   3  -4   8 1.47035 0.48589  10
   3  -4   8 1.29189 0.37077   8
   3  -4   8 3.95691 1.35977   3
   3  -4   8 1.35421 0.37338   9
   3  -4   8 2.08163 0.70168   5
   3   4   8 1.77849 0.71927   5
   3   4   8 1.18827 0.46428   8
   4  -4   8 37.0485 2.03505   9
   4  -4   8 35.7573 2.07446  10
   4  -4   8 37.1326 2.13534  14
   4  -4   8 34.2682 2.07155  13
   4   4   8 35.4676 1.99562   8
   4   4   8 35.4988 2.15251  13
   4   4   8 38.9452 2.18527   9
   5  -4   8 45.5263 2.37539  10
   5  -4   8 42.7772 2.40380  13
   5  -4   8 44.6724 2.27038   9
   5  -4   8 47.4818 2.50696  14
   5   4   8 44.1093 2.38461   9
   5   4   8 45.0555 2.49824  10
   5   4   8 43.4910 2.45489  13
   6  -4   8 14.1832 1.01304  13
   6  -4   8 16.6937 1.03194  14
   6  -4   8 15.8238 0.93455  10
   6   4   8 17.6984 1.07346  13
   6   4   8 18.1407 1.12782  10
   6  -5  -8 467.870 21.7561  18
   6  -5  -8 407.151 21.7185  17
   6   5  -8 457.551 21.7323  11
   6   5  -8 470.025 21.7284  18
   5  -5  -8 4.40709 0.72410  18
   5  -5  -8 4.86649 0.61929  17
   5  -5  -8 5.23433 0.86334  16
   5   5  -8 4.82549 0.74879  11
   5   5  -8 4.50820 0.66916  10
   5   5  -8 5.66554 0.72475  18
   4  -5  -8 79.4539 4.21088  16
   4  -5  -8 80.1657 4.06204  18
   4  -5  -8 75.6932 4.02346  17
   4  -5  -8 78.8884 4.04000  15
   4  -5  -8 68.4976 4.47102   7
   4   5  -8 79.5136 3.97972  10
   4   5  -8 77.6448 4.02784  18
   4   5  -8 64.6173 5.18789   4
   4   5  -8 79.6221 4.07931  11
   4   5  -8 79.8557 4.03907  17
   3  -5  -8 1041.64 51.4096  15
   3  -5  -8 1012.79 50.5092  10
   3  -5  -8 1022.41 50.8631   7
   3  -5  -8 1005.86 50.2966  18
   3  -5  -8 1061.49 50.9047  16
   3  -5  -8 1106.01 50.6984  17
   3   5  -8 1081.57 50.5136   9
   3   5  -8 1023.88 51.3898   4
   3   5  -8 1033.50 51.0590   3
   3   5  -8 1042.58 50.2760  18
   3   5  -8 1046.47 50.9105   2
   3   5  -8 1102.95 51.0841  11
   3   5  -8 1018.42 50.4187  10
   2  -5  -8 6.68362 0.92275   3
   2  -5  -8 5.36050 0.64346  17
   2  -5  -8 7.03998 1.10181  16
   2  -5  -8 6.06372 0.51756   9
   2  -5  -8 5.89213 0.84690   2
   2  -5  -8 5.83685 0.86245  15
   2  -5  -8 5.93382 0.62276  10
   2  -5  -8 5.70870 1.12652   7
   2   5  -8 7.29322 1.61781   4
   2   5  -8 5.60650 0.87291   9
   2   5  -8 6.25207 1.24437   2
   2   5  -8 5.54038 0.99681   7
   2   5  -8 4.99004 0.68498  10
   2   5  -8 5.41036 1.28182   3
   2   5  -8 6.36851 0.68687   8
   2   5  -8 5.12358 0.82418  18
   1  -5  -8 31.1373 1.82519  15
   1  -5  -8 32.4081 1.97932  16
   1  -5  -8 31.6305 1.65504   8
   1  -5  -8 33.1887 2.39877   7
   1  -5  -8 33.6780 2.52568   3
   1  -5  -8 31.9498 1.79638   9
   1  -5  -8 32.2488 1.85052  17
   1  -5  -8 35.7250 2.31985   2
   1  -5  -8 34.6758 1.83270  10
   1   5  -8 31.1101 1.81806   8
   1   5  -8 31.6497 2.13217   7
   1   5  -8 33.6004 2.83375   3
   1   5  -8 32.7975 2.71696   2
   0  -5  -8 338.285 18.2242   9
   0  -5  -8 405.124 18.7173   7
   0  -5  -8 399.225 18.9063   2
   0  -5  -8 363.135 18.1640   8
   0  -5  -8 382.666 19.1535   3
  -1  -5  -8 180.400 8.79382   8
  -1  -5  -8 187.328 9.65508   2
  -1  -5  -8 193.244 9.26776   7
   1  -5   8 165.769 8.77456   8
  -1  -5  -8 174.561 9.92628   3
  -2  -5  -8 15.5965 1.54208   7
   2  -5   8 13.1857 0.94493   8
   2  -5   8 12.5107 1.68243   2
   2  -5   8 11.8537 1.03807   9
   2  -5   8 13.9025 1.79246   3
   3  -5   8 79.0296 5.37949   3
   3  -5   8 81.3215 5.11321   2
   3  -5   8 86.2843 4.41314  10
   3  -5   8 94.9622 4.31539   8
   3  -5   8 89.6736 4.43441   9
   3  -5   8 85.1913 4.92796   5
   3   5   8 87.0262 5.06893   5
   3   5   8 85.9331 4.40816   8
   4  -5   8 23.8492 1.42116  10
   4  -5   8 22.7744 1.47117   9
   4  -5   8 24.5213 1.65792  14
   4   5   8 21.9821 1.42013   8
   4   5   8 23.9914 1.64973   9
   5  -5   8 6.61157 0.80850  10
   5  -5   8 6.06115 0.81720  13
   5  -5   8 7.09219 0.48055   9
   5  -5   8 7.66640 1.01481  14
   5   5   8 6.96340 0.77497  10
   5   5   8 5.44213 0.89696   9
   5   5   8 7.40637 0.77786  13
   6  -5   8 2.19605 0.29389  10
   6  -5   8 1.60985 0.28886  13
   6  -5   8 1.93917 0.35344  14
   6   5   8 2.27296 0.39765  13
   6   5   8 1.27085 0.29929  10
   6  -6  -8 116.664 6.12205  17
   6  -6  -8 130.247 6.16842  18
   6   6  -8 126.337 6.13170  11
   5  -6  -8 24.3407 1.67210  18
   5  -6  -8 24.4022 1.69573  17
   5  -6  -8 24.9559 1.93986  16
   5   6  -8 24.6800 1.61133  18
   5   6  -8 25.5571 1.52762  11
   5   6  -8 23.7021 1.46226  10
   4  -6  -8 265.250 12.9100  16
   4  -6  -8 262.836 12.7605  15
   4  -6  -8 264.890 12.7636  17
   4  -6  -8 254.296 12.7218  18
   4   6  -8 264.206 12.7208  11
   4   6  -8 262.236 12.6908  10
   4   6  -8 245.450 12.6831  18
   3  -6  -8 41.4285 2.32144  15
   3  -6  -8 37.8387 3.04824   7
   3  -6  -8 43.1000 2.39134  18
   3  -6  -8 41.1488 2.09390  10
   3  -6  -8 42.6855 2.66859  16
   3  -6  -8 43.2400 2.42917  17
   3   6  -8 37.6714 2.03668   8
   3   6  -8 38.9950 2.30267  18
   3   6  -8 39.8368 2.36239  10
   3   6  -8 38.8242 3.66418   4
   3   6  -8 41.9478 2.29855  11
   3   6  -8 39.1455 3.10122   2
   3   6  -8 37.3888 3.14887   3
   3   6  -8 39.6327 2.32461   9
   2  -6  -8 80.5358 4.09805   9
   2  -6  -8 80.2133 4.30471  18
   2  -6  -8 83.5936 4.19580  10
   2  -6  -8 88.9022 4.47422  16
   2  -6  -8 85.5802 4.36316   2
   2  -6  -8 80.4608 4.44749   3
   2  -6  -8 87.4475 4.80709   7
   2  -6  -8 87.5883 4.34185  15
   2  -6  -8 85.7315 4.32127  17
   2   6  -8 85.0935 5.06617   2
   2   6  -8 84.0348 5.31751   3
   2   6  -8 79.0993 4.27002   9
   2   6  -8 85.7631 5.52803   4
   2   6  -8 88.6452 4.20845   8
   2   6  -8 75.5250 4.30933  10
   1  -6  -8 38.8944 2.29924  18
   1  -6  -8 39.0150 2.04384   8
   1  -6  -8 39.6552 2.40205  16
   1  -6  -8 41.1596 2.24674  10
   1  -6  -8 42.4403 2.31762  15
   1  -6  -8 42.2497 2.90739   3
   1  -6  -8 41.9495 2.21966   9
   1  -6  -8 44.8082 2.81051   2
   1  -6  -8 45.7391 2.76463   7
   1  -6  -8 43.5860 2.25963  17
   1   6  -8 45.5836 3.25732   2
   1   6  -8 40.9637 3.33836   3
   1   6  -8 40.6946 2.27183   8
   0  -6  -8 10.6019 0.82594   8
   0  -6  -8 11.2021 0.98001  10
   0  -6  -8 14.3622 1.36830   7
   0  -6  -8 12.9449 1.85634   3
   0  -6  -8 12.5637 0.98344   9
   0  -6  -8 12.8708 1.58828   2
  -1  -6  -8 3.80581 1.10729   2
   1  -6   8 5.14193 0.62272   8
  -1  -6  -8 4.64075 1.37958   3
  -1  -6  -8 4.02738 0.77091   7
  -1  -6  -8 3.28845 0.48136   9
  -1  -6  -8 3.36953 0.48443   8
   2  -6   8 43.5601 2.26697   8
   2  -6   8 43.3978 3.44483   3
  -2  -6  -8 47.2622 2.88643   7
  -2  -6  -8 42.8064 2.36693   8
   2  -6   8 39.6080 2.35293   9
   2  -6   8 41.4704 3.06872   2
   3  -6   8 72.8263 4.55262   5
   3  -6   8 83.3575 4.09931   9
   3  -6   8 84.5438 4.20709  14
   3  -6   8 80.1349 4.11277  10
   3  -6   8 79.6251 3.97224   8
   3   6   8 76.4869 4.07802   8
   3   6   8 77.9978 4.75168   5
   4  -6   8 67.6047 3.53777  14
   4  -6   8 65.2601 3.38479   9
   4  -6   8 66.0678 3.43796  10
   4   6   8 63.1253 3.52899   9
   4   6   8 67.1572 3.39539   8
   5  -6   8 39.9866 2.18151  10
   5  -6   8 41.5062 2.28799  14
   5  -6   8 33.9024 2.16118  13
   5   6   8 43.6753 2.27626   9
   5   6   8 42.6643 2.33507  13
   6  -6   8 4.43458 0.54239  14
   6   6   8 5.35088 0.54322  10
   6  -7  -8 247.654 13.5334  18
   6  -7  -8 284.807 13.5522  17
   6   7  -8 307.769 13.5591  11
   5  -7  -8 18.2288 1.44672  16
   5  -7  -8 18.2918 1.42381  17
   5  -7  -8 16.4064 1.23628  18
   5   7  -8 19.0203 1.23733  11
   5   7  -8 19.0382 1.22539  10
   4  -7  -8 33.7263 2.02523  17
   4  -7  -8 29.2926 1.95801  15
   4  -7  -8 28.5188 1.80828  18
   4  -7  -8 30.4813 2.08031  16
   4   7  -8 32.7215 1.92982  10
   4   7  -8 30.2158 1.83675  11
   3  -7  -8 34.9985 2.15036  17
   3  -7  -8 34.9196 1.77281  10
   3  -7  -8 34.9073 2.02946  15
   3  -7  -8 33.8529 2.37639  16
   3  -7  -8 32.1026 1.96129  18
   3  -7  -8 30.3268 2.52058   7
   3   7  -8 36.8103 3.47228   4
   3   7  -8 32.6652 1.81335   8
   3   7  -8 32.9131 2.07695   9
   3   7  -8 34.4935 2.91301   2
   3   7  -8 36.3368 2.01674  11
   3   7  -8 35.8687 2.14758  10
   2  -7  -8 2.61048 0.33809   9
   2  -7  -8 1.24662 0.97441   7
   2  -7  -8 3.22295 0.49154   2
   2   7  -8 1.01954 1.40844   4
   2   7  -8 -0.0783 0.98164   2
   2   7  -8 1.01030 1.13432   3
   1  -7  -8 572.082 27.2150   2
   1  -7  -8 591.860 26.7901  17
   1  -7  -8 543.612 26.7612   9
   1  -7  -8 500.831 26.7331  18
   1  -7  -8 567.481 27.4051   3
   1  -7  -8 539.821 26.7721  15
   1  -7  -8 575.202 26.7368  10
   1  -7  -8 600.125 27.3216   7
   1  -7  -8 524.289 26.8325  16
   1   7  -8 556.071 26.7348   8
   1   7  -8 541.151 27.6361   2
   1   7  -8 545.762 27.9364   3
   0  -7  -8 345.930 17.3973   9
   0  -7  -8 395.038 17.9841   7
   0  -7  -8 351.300 17.3180   8
   0  -7  -8 343.214 17.4039  10
   0  -7  -8 361.336 18.0597   2
   0  -7  -8 362.045 18.3373   3
   1  -7   8 435.005 21.6511   8
  -1  -7  -8 476.839 22.9600   3
  -1  -7  -8 468.363 22.5658   2
  -1  -7  -8 407.651 21.7279   9
  -1  -7  -8 479.177 22.1964   7
  -1  -7  -8 432.251 21.6521   8
   2  -7   8 57.2205 3.02087   9
   2  -7   8 55.7387 2.91910   8
   2  -7   8 59.1019 3.80535   2
  -2  -7  -8 52.9942 3.00397   8
   2  -7   8 57.8841 4.01765   3
  -2  -7  -8 60.2866 3.57820   7
   3  -7   8 217.773 10.5483   8
   3  -7   8 225.669 10.7823  14
   3  -7   8 220.681 10.6687   9
   3  -7   8 222.121 10.6952  10
   3   7   8 213.410 10.6737   8
   3   7   8 207.013 11.3341   5
   4  -7   8 20.6253 1.37880   9
   4  -7   8 22.0447 1.44665  14
   4  -7   8 20.3842 1.39529  10
   4   7   8 22.1652 1.28237   8
   4   7   8 21.2565 1.57548   9
   5  -7   8 85.2797 4.44139  14
   5  -7   8 89.4795 4.32022  10
   5   7   8 86.3257 4.35416   9
   5   7   8 83.9090 4.39782  13
   6  -7   8 39.2981 1.91366  14
   6   7   8 32.8971 1.90635  13
   6  -8  -8 139.949 6.41341  17
   6   8  -8 120.636 6.35360  11
   5  -8  -8 3.99094 0.81364  16
   5  -8  -8 5.25333 0.71195  17
   5  -8  -8 4.18929 0.65763  18
   5   8  -8 4.24773 0.54504  11
   5   8  -8 4.98080 0.61494  10
   4  -8  -8 103.059 5.37330  16
   4  -8  -8 98.5272 5.11845  15
   4  -8  -8 102.010 5.16590  17
   4  -8  -8 93.6814 5.07076  18
   4   8  -8 100.935 5.08054  11
   4   8  -8 102.245 5.12404  10
   3  -8  -8 217.323 10.9604  10
   3  -8  -8 246.823 11.2459  15
   3  -8  -8 236.039 11.3873  16
   3  -8  -8 209.937 11.7119   7
   3  -8  -8 246.432 11.2389  17
   3  -8  -8 205.177 11.1295  18
   3   8  -8 217.862 12.3285   4
   3   8  -8 233.558 11.1903   9
   3   8  -8 222.819 11.0063   8
   3   8  -8 228.541 11.1849  10
   3   8  -8 235.507 11.1832  11
   2  -8  -8 70.3910 4.22440   7
   2  -8  -8 63.1742 3.50428  18
   2  -8  -8 70.1296 3.54580  15
   2  -8  -8 70.4806 3.42342  10
   2  -8  -8 68.4994 3.74890  16
   2  -8  -8 71.0296 3.60099  17
   2   8  -8 68.8293 3.49468   8
   2   8  -8 62.4507 4.39908   2
   2   8  -8 65.2393 4.65736   4
   2   8  -8 66.8922 3.61532   9
   2   8  -8 59.7826 4.63033   3
   1  -8  -8 543.407 27.7636   3
   1  -8  -8 563.198 27.1468  15
   1  -8  -8 559.469 27.5683   2
   1  -8  -8 555.177 27.3345   9
   1  -8  -8 534.182 27.2037  16
   1  -8  -8 582.560 27.2899  10
   1  -8  -8 576.841 27.6907   7
   1  -8  -8 587.620 27.1595  17
   1   8  -8 556.930 27.1085   8
   0  -8  -8 93.0026 4.68274   9
   0  -8  -8 91.2178 5.60443   3
   0  -8  -8 91.8278 4.57640   8
   0  -8  -8 85.7409 4.65759  10
   0  -8  -8 101.112 5.33787   7
   0  -8  -8 94.2443 5.37554   2
  -1  -8  -8 56.5881 3.18100   9
  -1  -8  -8 63.0607 3.62378   7
   1  -8   8 55.9594 3.09443  14
  -1  -8  -8 61.1676 3.07490   8
  -1  -8  -8 60.2304 3.96915   2
  -1  -8  -8 61.4181 4.31955   3
   1  -8   8 59.1481 3.06018   8
   2  -8   8 210.579 11.2394   2
  -2  -8  -8 211.109 10.4722   8
   2  -8   8 218.372 10.5227  14
  -2  -8  -8 215.562 10.9884   7
   2  -8   8 210.582 11.2114   6
   2  -8   8 216.252 10.4906   9
   2  -8   8 213.742 10.3940   8
   3  -8   8 571.809 28.3855  10
   3  -8   8 615.885 28.6509   9
   3  -8   8 565.520 28.4163  15
   3  -8   8 598.338 28.3446   8
   3  -8   8 613.924 28.8865  14
   3   8   8 552.094 29.0487   5
   3   8   8 600.216 28.3938   8
   4  -8   8 0.19971 0.36379  14
   4  -8   8 -0.3632 0.32047   9
   4  -8   8 -0.1637 0.39297  10
   4   8   8 0.25971 0.39158   9
   4   8   8 -0.3441 0.38621   8
   5  -8   8 164.436 8.79190  10
   5  -8   8 195.365 8.96298  14
   5   8   8 194.984 8.91166   9
   5   8   8 170.185 8.89719  13
   5  -9  -8 145.331 7.62577  17
   5  -9  -8 159.370 7.79204  16
   5   9  -8 155.202 7.58839  10
   5   9  -8 159.750 7.62273  11
   4  -9  -8 1.76708 0.59466  16
   4  -9  -8 1.86096 0.67058  17
   4  -9  -8 1.76290 0.59587  15
   4   9  -8 2.76972 0.63176  10
   4   9  -8 1.59081 0.60248  11
   3  -9  -8 57.1718 3.02611  17
   3  -9  -8 53.5195 3.09138  16
   3  -9  -8 54.9265 2.99911  15
   3  -9  -8 50.9278 2.62932  10
   3   9  -8 49.8861 2.91530  10
   3   9  -8 52.0786 2.89518  11
   3   9  -8 56.8615 2.92665   9
   3   9  -8 54.2933 2.78276   8
   2  -9  -8 23.4383 1.77434  16
   2  -9  -8 22.5788 2.19142   7
   2  -9  -8 23.8455 1.61757  17
   2  -9  -8 23.5288 1.37578  10
   2  -9  -8 23.7863 1.55326  15
   2   9  -8 20.5843 2.42262   2
   2   9  -8 19.6621 1.64852   9
   2   9  -8 22.4357 2.85927   4
   2   9  -8 21.2241 1.50609   8
   1  -9  -8 408.862 19.7594   9
   1  -9  -8 421.205 19.8033  10
   1  -9  -8 401.569 19.9228  16
   1  -9  -8 427.198 20.4442   7
   1  -9  -8 401.153 20.2754   2
   1  -9  -8 411.928 19.8507  15
   1  -9  -8 379.620 20.4814   3
   1  -9  -8 437.666 19.8693  17
   1   9  -8 395.083 19.8207   8
   0  -9   8 60.1129 3.22186   8
   0  -9  -8 64.6941 3.82431   7
   0  -9  -8 61.7103 3.26147  10
   0  -9  -8 59.5896 3.23227   9
   0  -9  -8 63.7662 3.10225   8
   0  -9  -8 59.6905 4.08214   3
   0  -9  -8 61.3653 3.93088   2
  -1  -9  -8 340.051 18.4971   3
  -1  -9  -8 362.362 17.2740   8
  -1  -9  -8 371.389 17.9020   7
   1  -9   8 357.422 17.2736   8
  -1  -9  -8 349.463 18.1580   2
  -1  -9  -8 361.016 17.3778   9
   2  -9   8 462.415 21.9685  14
  -2  -9  -8 454.106 21.9035   8
   2  -9   8 442.082 22.6824   6
   2  -9   8 461.832 21.9072   9
  -2  -9  -8 446.183 22.4677   7
   2  -9   8 444.426 22.0003  10
   2  -9   8 432.135 22.6550   2
   2  -9   8 478.145 21.9083   8
   3  -9   8 28.8083 1.51399   8
   3  -9   8 31.1208 1.83285   9
   3  -9   8 30.4485 1.83174  10
   3  -9   8 32.0061 1.84550  14
  -3  -9  -8 31.1943 1.91785   8
   3  -9   8 28.7023 1.86857  15
   3   9   8 31.6072 1.93921   8
   4  -9   8 52.9851 2.88630  14
   4  -9   8 51.8721 2.80633  10
   4  -9   8 53.5514 2.68521   9
   4   9   8 53.1714 2.79005   8
   5  -9   8 1.19606 0.41132  14
   5  -9   8 1.40878 0.33949  10
   5   9   8 1.03115 0.39874  13
   5   9   8 1.18594 0.38488   9
   5 -10  -8 206.861 10.3804  17
   5 -10  -8 215.504 10.5323  16
   5  10  -8 211.975 10.3676  10
   5  10  -8 218.308 10.3923  11
   4 -10  -8 389.094 18.7772  16
   4 -10  -8 394.168 18.6508  15
   4 -10  -8 366.128 18.5796  17
   4  10  -8 379.688 18.5898  10
   4  10  -8 387.114 18.5697  11
   3 -10  -8 41.8871 2.37642  15
   3 -10  -8 41.3734 2.70237  16
   3 -10  -8 45.2814 2.50504  17
   3  10  -8 39.9926 2.33441  11
   3  10  -8 39.2604 2.47427  10
   3  10  -8 41.2936 2.21993   8
   3  10  -8 45.4534 2.52019   9
   2 -10  -8 195.043 9.57450  10
   2 -10  -8 189.936 10.2434   7
   2 -10  -8 213.742 9.75741  17
   2 -10  -8 209.811 9.73300  15
   2 -10  -8 192.699 9.81702  16
   2  10  -8 184.321 9.71719   9
   2  10  -8 204.372 9.64462   8
   2  10  -8 177.793 10.8910   4
   1 -10  -8 78.2460 4.00211   9
   1 -10  -8 82.0449 4.05447  10
   1 -10  -8 77.1079 4.09123  15
   1 -10  -8 75.4719 4.52584   2
   1 -10  -8 86.0152 4.16498  17
   1 -10  -8 77.9696 4.76940   3
   1 -10  -8 78.2896 4.63494   7
   1 -10  -8 76.9974 4.23568  16
   1  10  -8 79.5018 4.13006   8
   0 -10  -8 1979.63 100.112  16
   0 -10  -8 1983.68 100.066   3
   0 -10  -8 2192.67 99.4953   8
   0 -10  -8 2011.09 99.7001   2
   0 -10  -8 2078.50 100.212   9
   0 -10   8 1999.47 99.6048   8
   0 -10  -8 1978.15 100.147  10
   0 -10  -8 2299.11 100.442  17
  -1 -10  -8 45.0226 2.33263   8
  -1 -10  -8 39.9755 3.18636   2
   1 -10   8 43.1898 2.37533   9
  -1 -10  -8 36.9480 3.54201   3
   1 -10   8 44.7706 2.33888   8
  -1 -10  -8 44.5998 2.48335   9
  -1 -10  -8 44.6650 2.94167   7
   2 -10   8 727.135 33.0570   9
   2 -10   8 681.245 32.9745  14
  -2 -10  -8 705.793 32.9294   8
  -2 -10  -8 658.838 33.4869   7
   2 -10   8 647.259 33.6942   6
   2 -10   8 660.491 32.9515  10
   2 -10   8 701.352 33.2807   8
   3 -10   8 140.913 7.08741  15
   3 -10   8 144.884 7.12619  14
  -3 -10  -8 137.580 7.07854   8
   3 -10   8 141.194 7.05805  10
   3 -10   8 145.854 7.02093   9
   3  10   8 140.535 7.08136   8
   4 -10   8 0.14376 0.21867   9
   4 -10   8 0.54541 0.38075  14
   4 -10   8 0.49036 0.40738  10
   4  10   8 0.14781 0.29980   8
   5 -10   8 10.6186 0.82444  14
   5 -10   8 10.2289 0.68274  10
   5  10   8 10.6833 0.80896  13
   5  10   8 8.67267 0.81256   9
   5 -11  -8 115.524 6.65520  17
   5 -11  -8 145.082 6.84036  16
   5  11  -8 137.271 6.66960  11
   5  11  -8 146.992 6.70465  10
   4 -11  -8 51.4394 2.96887  16
   4 -11  -8 50.1281 2.73610  15
   4 -11  -8 49.2896 2.69206  17
   4  11  -8 46.5276 2.56923  11
   4  11  -8 41.8817 2.57534  12
   4  11  -8 50.1925 2.62851   9
   4  11  -8 49.5656 2.74253  10
   3 -11  -8 262.710 13.0705  17
   3 -11  -8 261.828 13.2134  16
   3 -11  -8 282.244 13.1129  15
   3  11  -8 274.418 13.1004   9
   3  11  -8 257.002 12.9134   8
   3  11  -8 263.671 13.0573  11
   2 -11  -8 48.6306 2.62879  17
   2 -11  -8 44.5665 2.39266  10
   2 -11  -8 45.9606 2.55552  15
   2 -11  -8 43.7144 2.64645  16
   2 -11  -8 39.4364 3.10963   7
   2  11  -8 45.7220 2.52590   8
   2  11  -8 44.1013 2.70004   9
   1 -11  -8 300.849 15.6720   7
   1 -11  -8 306.741 15.0723  15
   1 -11  -8 305.639 15.0261  10
   1 -11  -8 319.634 15.1059  17
   1 -11  -8 319.670 15.2108  16
   1 -11  -8 310.758 14.9689   9
   1  11  -8 314.883 15.0682   8
   1  11  -8 294.037 16.4524   4
   0 -11  -8 1118.90 55.2579  10
   0 -11  -8 1092.47 55.8374   2
   0 -11  -8 1154.78 55.3039   8
   0 -11  -8 1081.17 55.4630  16
   0 -11  -8 1158.25 56.0824   9
   0 -11  -8 1125.60 55.7170   7
   0 -11  -8 1271.42 55.8757  17
   0 -11   8 1171.02 55.6732   8
   1 -11   8 41.2222 3.02848   6
  -1 -11  -8 42.5301 2.42270   9
   1 -11   8 41.2127 2.39205   9
   1 -11   8 41.9538 2.27158   8
  -1 -11  -8 41.4418 2.23386   8
  -1 -11  -8 41.0027 3.01692   7
   2 -11   8 80.9943 4.26299  10
   2 -11   8 86.7230 4.26697   9
  -2 -11  -8 80.6750 4.18787   8
   2 -11   8 86.6568 4.10631   8
   2 -11   8 77.1161 4.24232  14
   3 -11   8 88.5033 4.45770  10
   3 -11   8 87.9679 4.39979   9
   3 -11   8 87.2150 4.51602  15
  -3 -11  -8 85.1630 4.43638   8
   3 -11   8 86.4362 4.47192  14
   3  11   8 86.8255 4.49141   8
  -4 -11  -8 168.495 8.60197   8
   4 -11   8 173.320 8.61979  14
   4 -11   8 178.570 8.53510  10
   4  11   8 176.997 8.50938   8
   5 -11   8 42.1421 2.09669  10
   5 -11   8 43.6240 2.25229  14
   5  11   8 41.5352 2.27556  13
   5  11   8 42.4003 2.22683   9
   5 -12  -8 0.36966 0.33059  16
   5  12  -8 1.09543 0.40839  10
   4 -12  -8 262.030 12.7786  17
   4 -12  -8 271.198 12.8267  15
   4 -12  -8 277.626 12.9775  16
   4  12  -8 252.465 12.8161  10
   4  12  -8 267.672 12.7493   9
   4  12  -8 237.372 12.7327  12
   4  12  -8 269.182 12.7559  11
   3 -12  -8 15.9593 1.36440  15
   3 -12  -8 15.8426 1.42998  16
   3 -12  -8 16.1838 1.20732  17
   3  12  -8 15.5692 1.32646  11
   3  12  -8 16.6169 1.58946   9
   3  12  -8 16.9035 1.20965   8
   2 -12  -8 18.7140 1.17870  10
   2 -12  -8 20.6700 1.37054  17
   2 -12  -8 19.5224 1.29776  15
   2 -12  -8 18.5819 1.48047  16
   2  12  -8 17.8216 1.47722   8
   1 -12  -8 271.414 15.9981   7
   1 -12  -8 316.805 15.3909  16
   1 -12  -8 332.270 15.3187  17
   1 -12  -8 312.297 15.2124  10
   1 -12  -8 334.879 15.1455   9
   1  12  -8 305.749 15.2497   8
   0 -12  -8 320.381 14.3987  17
   0 -12  -8 299.696 14.3401  10
   0 -12  -8 279.505 14.9351   7
   0 -12  -8 293.527 14.3019   9
   0 -12  -8 277.343 14.4003  16
   0 -12   8 279.658 15.1124   6
   0 -12   8 304.246 14.2868   8
  -1 -12  -8 357.867 17.4461   8
  -1 -12  -8 372.146 17.5965   9
   1 -12   8 369.637 17.4801   8
   1 -12   8 346.124 17.5686   9
  -2 -12  -8 2.23401 0.67088   9
   2 -12   8 1.60235 0.51346   9
  -2 -12  -8 2.72207 0.50238   8
   2 -12   8 1.59388 0.40222  10
   2 -12   8 2.00514 0.34577   8
   3 -12   8 263.848 12.9072  14
   3 -12   8 263.115 12.8623  10
  -3 -12  -8 267.915 12.8806   8
   3 -12   8 278.937 12.8138   9
   3 -12   8 252.070 12.9175  15
   3  12   8 258.944 12.8860   8
   4 -12   8 31.8382 1.85227  14
  -4 -12  -8 32.9089 1.95515   8
   4 -12   8 33.0652 1.76440  10
   4  12   8 34.1904 1.85437   8
   5 -12   8 197.338 9.52824  14
   5  12   8 193.119 9.48931  13
   4 -13  -8 108.146 5.67097  15
   4 -13  -8 126.990 5.83879  16
   4 -13  -8 107.583 5.61727  17
   4  13  -8 120.579 5.73683  10
   4  13  -8 116.970 5.61409   9
   4  13  -8 102.656 5.59191  12
   3 -13  -8 359.992 17.0588  16
   3 -13  -8 349.227 16.8856  15
   3 -13  -8 340.782 16.8607  17
   3  13  -8 337.148 16.8226  11
   3  13  -8 348.365 16.7418   8
   3  13  -8 348.359 16.8965   9
   2 -13  -8 9.03833 0.72110  10
   2 -13  -8 7.91272 1.08051  16
   2 -13  -8 7.99149 0.91256  17
   2 -13  -8 9.19921 1.00612  15
   2  13  -8 7.01034 0.93675   8
   1 -13  -8 27.6347 1.50690   9
  -1 -13   8 26.1640 1.72493   8
   1 -13  -8 27.7955 1.70645  17
   1 -13  -8 29.1689 1.96520  16
   1 -13  -8 28.1880 1.64988  10
   1  13  -8 24.6593 1.73289   8
   0 -13  -8 29.9292 1.76581   9
   0 -13  -8 28.9791 1.78666  10
   0 -13   8 27.6030 1.65230   8
   0 -13  -8 27.7465 1.93872  16
   0 -13  -8 28.4845 1.88961  17
  -1 -13  -8 58.6548 3.29313  10
  -1 -13  -8 59.8673 3.12191   8
   1 -13   8 65.2010 3.18825   8
   1 -13   8 62.2942 3.26946   9
  -1 -13  -8 63.2171 3.34622   9
   2 -13   8 14.8149 0.81790   8
   2 -13   8 16.4424 1.18533  15
  -2 -13  -8 15.3141 1.01269   8
  -2 -13  -8 15.3738 1.44870   9
   2 -13   8 15.1179 1.24797  10
   2 -13   8 16.0449 1.22239   9
   3 -13   8 66.9919 3.64620  14
   3 -13   8 71.9656 3.64063  10
   3 -13   8 72.0275 3.75608  15
   3 -13   8 70.5381 3.56637   9
  -3 -13  -8 75.9194 3.68439   8
   3  13   8 69.9428 3.71762   8
  -4 -13  -8 45.6612 2.37437   8
   4 -13   8 44.0080 2.27850  10
   4  13   8 42.6730 2.25689   8
   4 -14  -8 1.69982 0.37524  15
   4  14  -8 2.38229 0.35146   9
   4  14  -8 1.63416 0.53621  10
   3 -14  -8 10.8466 1.18211  16
   3 -14  -8 10.8732 0.92341  15
   3 -14  -8 11.0470 1.03296  17
   3  14  -8 11.4338 1.11197   9
   3  14  -8 11.1698 0.81932   8
   2 -14  -8 92.1565 4.89784  16
   2 -14  -8 92.3214 4.73737  17
   2 -14  -8 91.3723 4.55198  10
   2 -14  -8 90.0672 4.69246  15
   2  14  -8 94.5152 4.64991   8
   2  14  -8 91.2952 4.69214  11
   1 -14  -8 81.2290 4.17754  10
   1 -14  -8 82.6061 4.25229  17
  -1 -14   8 82.3676 4.22666   8
   1 -14  -8 80.9111 4.33936  16
   1  14  -8 83.4489 4.25409   8
   0 -14  -8 126.997 6.72717  16
   0 -14  -8 136.834 6.68132  10
   0 -14  -8 136.897 6.67686  17
   0 -14  -8 131.631 6.60899   9
   0 -14   8 134.439 6.58923   8
  -1 -14  -8 64.1910 3.52894  10
  -1 -14  -8 65.7449 3.46782   9
  -1 -14  -8 64.2341 3.26455   8
  -1 -14  -8 70.4547 3.54667  17
   1 -14   8 65.7807 3.51099   9
   2 -14   8 12.3816 1.13735  10
  -2 -14  -8 12.1292 0.93887   8
  -2 -14  -8 10.6163 1.08318   9
   2 -14   8 12.0263 1.03712  15
   2 -14   8 13.5447 0.93343   9
   3 -14   8 47.8498 2.57723  15
   3 -14   8 49.0532 2.56116  10
  -3 -14  -8 48.1378 2.49008   8
   3 -14   8 47.9009 2.40681   9
   3  14   8 46.3212 2.53555   8
   4 -14   8 2.28065 0.33417  10
  -4 -14  -8 2.44207 0.34015   8
   4 -14   8 2.65420 0.39005  14
   4 -14   8 2.17646 0.37106  15
   4  14   8 3.45217 0.42798   8
   4 -15  -8 8.38694 0.69510  15
   4  15  -8 9.49944 0.74002   9
   3 -15  -8 64.1824 3.32771  15
   3 -15  -8 64.4708 3.46399  16
   3  15  -8 68.4250 3.17591   8
   3  15  -8 60.4689 3.28878  12
   2 -15  -8 49.0530 2.73470  16
  -2 -15   8 46.3037 2.53817   8
   2 -15  -8 49.3600 2.56154  17
   2 -15  -8 48.7755 2.41813  10
   2 -15  -8 43.1321 2.57034  15
   2  15  -8 49.9568 2.56048   8
   1 -15  -8 6.47773 0.78150  10
   1 -15  -8 6.39582 0.94288  16
   1 -15  -8 5.33751 0.71653  17
   1  15  -8 6.49950 0.96294   8
   0 -15   8 4.17730 0.56246   9
   0 -15  -8 3.13547 0.52722  16
   0 -15  -8 4.63065 0.66389  10
   0 -15  -8 2.98883 0.48034   9
   0 -15  -8 3.73522 0.64335  17
   1 -15   8 264.594 13.0103   8
   1 -15   8 279.721 13.2155  15
  -1 -15  -8 279.824 13.1963  17
  -1 -15  -8 244.970 13.1828  10
   1 -15   8 279.008 13.1700   9
  -1 -15  -8 271.469 13.1674   9
   2 -15   8 60.9923 3.29772  10
   2 -15   8 67.5012 3.25308   9
  -2 -15  -8 62.2411 3.15130   8
   2 -15   8 63.6724 3.32509  15
  -2 -15  -8 60.4311 3.31285   9
   3 -15   8 4.40345 0.69260  10
   3 -15   8 3.47482 0.60911  15
   3  15   8 4.01124 0.62470   8
   3 -16  -8 48.3552 2.51175  16
   3 -16  -8 46.2541 2.35821  15
   3  16  -8 42.6744 2.33448  12
   3  16  -8 43.5436 2.41237   9
   2 -16  -8 98.6800 5.46227  17
  -2 -16   8 112.595 5.47024   8
   2 -16  -8 116.549 5.65226  16
   2 -16  -8 101.923 5.31437  10
   2  16  -8 123.148 5.52079   8
   1 -16  -8 149.247 7.71993  16
  -1 -16   8 147.138 7.60783  15
   1 -16  -8 163.433 7.58171  10
   1  16  -8 158.141 7.69478   8
   0 -16  -8 5.04062 0.64883  10
   0 -16   8 3.55570 0.47945   8
   0 -16   8 4.14474 0.64473  15
   0 -16   8 2.57189 0.63778   9
   0 -16  -8 3.32371 0.61057  17
   0 -16  -8 3.85911 0.74937  16
   0 -16  -8 3.39620 0.57882   9
   1 -16   8 168.298 8.24361   9
   1 -16   8 167.708 8.30391  15
  -1 -16  -8 171.448 8.26818  17
  -1 -16  -8 162.970 8.28272  10
  -1 -16  -8 166.130 8.22156   9
  -2 -16  -8 30.6542 1.72109  17
   2 -16   8 30.4442 1.66520   9
   2 -16   8 30.8900 1.76293  15
   2 -16   8 27.7556 1.77231  10
  -2 -16  -8 33.5432 1.89892   9
   3 -16   8 7.96915 0.77874  15
  -3 -16  -8 7.50519 0.80033   9
   3 -16   8 7.45820 0.69658  10
  -3 -16  -8 7.85538 0.64479  17
   3  16   8 7.94564 0.67336   8
   2 -17  -8 16.5545 1.41201  16
  -2 -17   8 16.4737 1.01695   8
   2  17  -8 15.6479 1.03120   8
   1 -17  -8 257.358 12.7491  16
   1 -17  -8 246.134 12.6301  17
   1 -17  -8 263.943 12.6037  10
  -1 -17   8 260.762 12.5975   8
   1  17  -8 274.707 12.6775   8
   0 -17  -8 65.5355 3.63014  17
   0 -17  -8 80.5112 3.69840  10
   0 -17  -8 71.5268 3.77310  16
   0 -17   8 71.6982 3.72420   9
   0 -17   8 70.3984 3.53988   8
   1 -17   8 7.29364 0.64901   9
  -1 -17  -8 5.30179 0.59027   9
  -1 -17  -8 5.71181 0.62148  17
   1 -17   8 7.54711 0.72937  15
  -1 -17  -8 4.35398 0.61515  10
  -2 -17  -8 23.4043 1.28499   9
   2 -17   8 22.6327 1.12119   9
   2 -17   8 19.0878 1.26055  15
  -2 -17  -8 18.8700 1.23096  17
  -2 -18   8 82.8831 3.96584   8
   2 -18  -8 73.3760 4.08564  16
   2  18  -8 85.8939 3.97503   8
   1 -18  -8 5.85842 0.76560  16
  -1 -18   8 7.73694 0.57585   8
   1 -18  -8 6.69022 0.53614  10
   1  18  -8 5.51571 0.75687   8
   0 -18   8 599.083 28.8107   9
  -1 -18  -8 71.3223 4.14830  17
   1 -18   8 86.3976 4.14533   9
  -1 -18  -8 90.7720 4.12220   9
   1 -18   8 87.9513 4.22216  15
   6   0  -9 -0.4656 0.42261  18
   6   0  -9 0.65664 0.33747  11
   5   0  -9 -0.0104 0.35694  11
   5   0  -9 -0.6378 0.44421  17
   5   0  -9 -0.0358 0.60603  18
   4   0  -9 -0.0342 0.41228  17
   4   0  -9 0.16501 0.58734  18
   3   0  -9 0.03294 0.89277   7
   3   0  -9 0.11217 0.52524   2
   3   0  -9 -0.0756 0.26210   9
   3   0  -9 -0.1852 0.52513  18
   3   0  -9 -0.2281 0.41427  11
   3   0  -9 0.47487 0.49232   3
   3   0  -9 -0.2217 0.61831  16
   3   0  -9 -0.3254 0.47439  17
   3   0  -9 -0.0974 0.35117  10
   2   0  -9 -0.1786 0.35029  11
   2   0  -9 -0.7818 0.48940  16
   2   0  -9 0.77316 0.88044   2
   2   0  -9 0.06659 0.86106   3
   2   0  -9 0.05339 0.80435   7
   2   0  -9 -0.2031 0.38941  17
   2   0  -9 0.40422 0.33854  18
   2   0  -9 -0.0153 0.76795   4
   2   0  -9 0.83789 0.36321   9
   2   0  -9 0.07320 0.38055  10
   1   0  -9 0.08760 0.28145   8
   1   0  -9 0.68187 0.83090   4
   1   0  -9 1.93599 0.92762   2
   1   0  -9 0.11392 0.73951   7
   1   0  -9 -0.1751 0.87880   3
   1   0  -9 0.13912 0.30065  10
   0   0  -9 0.32162 0.49576   7
   0   0  -9 -0.0167 0.26828   8
   0   0  -9 0.13071 1.04843   3
   0   0  -9 0.10003 0.95695   2
  -1   0  -9 -0.0403 0.54217   7
  -1   0  -9 -0.6517 0.38311   8
   2   0   9 0.70777 0.62950   5
   2   0   9 -0.1583 0.37143   8
   3   0   9 0.84665 1.00442   5
   4   0   9 0.16286 0.31990   9
   4   0   9 0.35530 0.28757   8
   4   0   9 0.01259 0.29790  13
   4   0   9 0.03193 0.42568  10
   5   0   9 0.58979 0.50744  10
   5   0   9 0.61596 0.51503  13
   5   0   9 0.21850 0.50075  14
   6   0   9 -0.4435 0.21705  10
   6   0   9 -0.2988 0.23480  13
   6  -1  -9 53.1910 2.94990  11
   6  -1  -9 63.3087 3.04043  18
   6   1  -9 51.2455 2.95753  11
   6   1  -9 64.7969 3.10564  18
   5  -1  -9 1.45359 0.52668  11
   5  -1  -9 1.09018 0.64018  18
   5  -1  -9 1.47766 0.68755  17
   5   1  -9 0.96724 0.51125  17
   5   1  -9 1.54183 0.48623  18
   5   1  -9 1.49921 0.56913  11
   4  -1  -9 60.2022 3.33190  18
   4  -1  -9 55.7987 3.15085  11
   4  -1  -9 62.6664 3.31242  17
   4  -1  -9 62.0627 3.54994  16
   4  -1  -9 60.0844 3.02062  10
   4   1  -9 61.1838 3.32564  18
   4   1  -9 61.2348 3.08399  10
   4   1  -9 58.7668 3.19874  11
   4   1  -9 61.8864 3.28344  17
   3  -1  -9 323.533 14.9306  18
   3  -1  -9 310.719 14.8016  10
   3  -1  -9 264.844 14.7258   2
   3  -1  -9 277.175 14.6359   9
   3  -1  -9 287.810 14.8260  11
   3  -1  -9 312.877 15.0763  16
   3  -1  -9 304.827 15.4121   7
   3  -1  -9 311.106 14.8926  17
   3   1  -9 317.506 14.9180  18
   3   1  -9 284.069 15.2047   3
   3   1  -9 326.241 14.8927  11
   3   1  -9 302.134 14.7372   9
   3   1  -9 299.889 15.1229   2
   3   1  -9 326.957 14.8365  10
   3   1  -9 310.955 15.4308   7
   3   1  -9 322.780 14.8812  17
   3   1  -9 323.901 15.0878  16
   3   1  -9 290.163 15.7966   4
   2  -1  -9 0.98719 0.69069   7
   2  -1  -9 1.11229 0.28301  11
   2  -1  -9 0.16167 0.41187  17
   2  -1  -9 0.70426 0.38754  10
   2  -1  -9 0.53737 0.35365  18
   2  -1  -9 0.34968 0.53543  16
   2   1  -9 1.50184 0.98547   4
   2   1  -9 0.71067 0.17706   8
   2   1  -9 0.61860 0.38769   9
   2   1  -9 0.28698 0.75205   2
   2   1  -9 1.15624 0.86597   3
   2   1  -9 0.27445 0.52683  16
   2   1  -9 0.49632 0.41618  10
   2   1  -9 0.62384 0.46878  18
   1  -1  -9 69.9686 4.34857   3
   1  -1  -9 66.1955 3.54875   9
   1  -1  -9 60.2273 3.50134  17
   1  -1  -9 73.8385 3.43406   8
   1  -1  -9 68.7160 3.58663  10
   1  -1  -9 73.2910 4.06403   7
   1  -1  -9 65.5621 4.15925   2
   1   1  -9 65.7089 3.45184   8
   1   1  -9 70.3808 4.51593   3
   1   1  -9 72.7538 4.26569   2
   1   1  -9 74.7198 4.06123   7
   1   1  -9 65.7977 3.60442  10
   1   1  -9 69.8947 3.58967   9
   0  -1  -9 537.725 26.2375   3
   0  -1  -9 491.484 25.2431   8
   0  -1  -9 549.166 25.6813   7
   0  -1  -9 534.900 26.0532   2
   0   1  -9 524.121 26.1434   2
   0   1  -9 564.690 25.6651   7
   0   1  -9 513.957 26.3143   3
   0   1  -9 481.959 25.2536   8
  -1  -1  -9 49.0544 2.87218   7
  -1  -1  -9 43.4971 2.45917   8
   2  -1   9 77.2626 3.91622   8
   2   1   9 75.7788 3.92279   8
   2   1   9 77.7498 4.33563   5
   3  -1   9 673.870 36.0551   2
   3  -1   9 726.736 35.7850   5
   3  -1   9 779.776 35.6489   8
   3  -1   9 727.258 35.2864   9
   3  -1   9 670.404 36.4459   3
   3   1   9 732.206 35.2686  13
   3   1   9 787.109 35.6402   8
   3   1   9 742.873 35.8374   5
   3   1   9 746.404 35.3072   9
   4  -1   9 8.83916 0.75593   9
   4  -1   9 7.21200 0.70067  13
   4  -1   9 6.24926 0.67222   8
   4  -1   9 6.69953 0.89191  10
   4   1   9 6.84417 0.67181   8
   4   1   9 6.63440 0.71842  13
   4   1   9 7.65870 0.76647   9
   5  -1   9 14.9887 1.14806  13
   5  -1   9 15.5309 1.20530  10
   5  -1   9 14.7987 1.02710   9
   5  -1   9 13.1936 1.19321  14
   5   1   9 13.0214 1.13022  14
   5   1   9 14.7692 1.10163   9
   5   1   9 14.1009 1.04335  10
   5   1   9 13.8510 1.03932  13
   6  -1   9 28.4116 1.49752  10
   6   1   9 30.4818 1.57599  10
   6   1   9 26.4838 1.58718  13
   6  -2  -9 83.0833 4.04450  18
   6  -2  -9 76.3122 3.95647  11
   6   2  -9 81.2281 4.02326  18
   6   2  -9 77.2626 3.99194  11
   5  -2  -9 8.32033 1.16892  17
   5  -2  -9 8.08230 0.73993  11
   5  -2  -9 8.94707 1.21962  18
   5   2  -9 8.41985 0.87304  17
   5   2  -9 6.22815 0.40748  10
   5   2  -9 8.87500 1.10859  11
   5   2  -9 8.96193 1.19084  18
   4  -2  -9 106.006 5.53330  10
   4  -2  -9 111.284 5.77210  17
   4  -2  -9 119.583 5.97445  16
   4  -2  -9 101.285 5.68315  11
   4  -2  -9 115.467 5.84259  18
   4   2  -9 119.866 5.80377  17
   4   2  -9 118.120 5.83191  18
   4   2  -9 119.202 5.76361  11
   4   2  -9 117.506 5.68190  10
   3  -2  -9 846.206 38.8690  10
   3  -2  -9 747.829 38.6795  11
   3  -2  -9 838.292 38.7916  18
   3  -2  -9 862.170 38.9462  16
   3  -2  -9 802.146 39.3162   7
   3  -2  -9 833.012 38.7582  17
   3   2  -9 859.521 39.0287  11
   3   2  -9 794.112 38.7546  18
   3   2  -9 765.866 39.0775   2
   3   2  -9 750.913 39.2406   3
   3   2  -9 798.447 38.7272  17
   3   2  -9 789.838 38.7892   9
   3   2  -9 794.962 39.0255  10
   3   2  -9 802.228 39.3030   7
   3   2  -9 781.727 39.7710   4
   2  -2  -9 60.1698 3.75830   3
   2  -2  -9 59.8039 3.18194  17
   2  -2  -9 60.6963 3.18547  10
   2  -2  -9 61.4426 3.33710  16
   2  -2  -9 64.9299 3.66992   2
   2  -2  -9 63.4135 3.85717   7
   2  -2  -9 61.2195 3.22791  18
   2  -2  -9 58.9690 3.11187   9
   2   2  -9 62.6647 3.71434   7
   2   2  -9 60.7137 4.05225   4
   2   2  -9 63.5055 3.90167   2
   2   2  -9 61.5382 3.19997   9
   2   2  -9 62.6038 3.24349  10
   2   2  -9 59.9896 3.03679   8
   2   2  -9 56.9134 3.98152   3
   2   2  -9 61.8315 3.26775  18
   1  -2  -9 965.779 48.9804   9
   1  -2  -9 1005.26 48.8304   8
   1  -2  -9 1067.33 49.1167   7
   1  -2  -9 987.248 48.8094  10
   1  -2  -9 975.682 48.6257  17
   1  -2  -9 1061.83 49.4268   3
   1  -2  -9 1048.69 49.2989   2
   1   2  -9 1042.82 49.0631   7
   1   2  -9 1058.32 49.6555   3
   1   2  -9 1000.45 49.3251   2
   1   2  -9 992.109 48.9138   8
   1   2  -9 962.023 48.6597   9
   1   2  -9 999.038 48.6922  10
   0  -2  -9 936.683 43.9751   3
   0  -2  -9 838.288 43.1734   8
   0  -2  -9 944.277 43.4357   7
   0  -2  -9 928.002 43.7690   2
   0  -2  -9 805.367 43.0280   9
   0   2  -9 951.948 43.9464   2
   0   2  -9 920.517 43.3412   7
   0   2  -9 875.081 42.9930   8
   0   2  -9 857.839 44.0557   3
  -1  -2  -9 189.465 9.05966   7
  -1  -2  -9 168.270 9.69794   3
  -1  -2  -9 168.565 8.59175   8
  -2  -2  -9 56.4692 3.88564   7
   2  -2   9 75.2331 3.47355   8
   2   2   9 69.5124 3.95613   5
   3  -2   9 3.35280 0.59879   9
   3  -2   9 3.69386 1.14254   2
   3  -2   9 1.43783 1.23323   3
   3  -2   9 3.82563 0.49146   8
   3  -2   9 2.42637 0.90919   5
   3   2   9 2.45211 0.96298   5
   3   2   9 2.60563 0.51042   8
   3   2   9 3.04148 0.52298  13
   4  -2   9 0.61552 0.43932   9
   4  -2   9 1.06059 0.45381  10
   4  -2   9 0.56504 0.25725   8
   4   2   9 0.65486 0.33986  13
   4   2   9 0.79545 0.48525   9
   4   2   9 0.71879 0.32853   8
   5  -2   9 142.253 6.87255   9
   5  -2   9 154.752 6.98839  10
   5  -2   9 134.667 7.00375  14
   5  -2   9 134.563 6.96702  13
   5   2   9 144.708 6.93351   9
   5   2   9 147.219 7.01680  13
   5   2   9 125.580 6.94015  14
   5   2   9 140.640 6.98482  10
   6  -2   9 114.545 5.11666  10
   6   2   9 106.468 5.16646  13
   6   2   9 92.3217 5.11030  10
   6  -3  -9 67.7204 3.97116  18
   6  -3  -9 72.5249 3.91119  11
   6  -3  -9 84.6497 3.99865  17
   6   3  -9 82.0966 3.98327  18
   6   3  -9 88.1253 3.99433  11
   5  -3  -9 250.062 11.6195  17
   5  -3  -9 203.730 11.4923  11
   5  -3  -9 243.714 11.6000  18
   5   3  -9 234.183 11.5688  18
   5   3  -9 259.576 11.6156  11
   5   3  -9 228.867 11.3967  10
   4  -3  -9 196.864 9.81836  18
   4  -3  -9 178.013 9.72218  11
   4  -3  -9 200.856 10.0354  16
   4  -3  -9 202.356 9.81562  17
   4   3  -9 204.418 9.72583  10
   4   3  -9 200.928 9.79560  18
   4   3  -9 199.585 9.80382  17
   4   3  -9 207.326 9.80464  11
   3  -3  -9 141.225 6.70128  10
   3  -3  -9 140.685 6.87677  18
   3  -3  -9 142.131 6.81384  17
   3  -3  -9 132.937 7.43687   7
   3  -3  -9 145.825 7.04929  16
   3   3  -9 144.376 6.86025  11
   3   3  -9 129.412 6.74723  17
   3   3  -9 126.834 7.37667   7
   3   3  -9 139.382 6.73105   9
   3   3  -9 133.903 6.77708  10
   3   3  -9 132.526 7.29471   2
   3   3  -9 135.779 6.80269  18
   3   3  -9 124.123 7.40089   3
   3   3  -9 130.020 7.92367   4
   2  -3  -9 231.906 11.8992   7
   2  -3  -9 236.627 11.3725  18
   2  -3  -9 241.540 11.2950  10
   2  -3  -9 236.206 11.3424  17
   2  -3  -9 219.704 11.2199   9
   2  -3  -9 231.746 11.6509   2
   2  -3  -9 220.947 11.4375  16
   2   3  -9 235.312 12.0278   2
   2   3  -9 233.714 11.7862   7
   2   3  -9 226.531 11.3380  18
   2   3  -9 230.465 12.1988   3
   2   3  -9 233.227 11.3162   9
   2   3  -9 230.176 11.3489  10
   2   3  -9 238.223 12.3948   4
   2   3  -9 227.823 11.1860   8
   1  -3  -9 87.5268 4.23225   8
   1  -3  -9 81.1910 4.35844  17
   1  -3  -9 88.8482 5.15687   3
   1  -3  -9 88.1550 4.89073   7
   1  -3  -9 90.0360 5.01216   2
   1  -3  -9 82.9831 4.35073   9
   1  -3  -9 88.7290 4.36658  10
   1   3  -9 76.4663 4.42872  10
   1   3  -9 85.1884 4.30558   8
   1   3  -9 90.0293 4.77593   7
   1   3  -9 92.3450 5.21357   2
   1   3  -9 82.0732 4.42580   9
   1   3  -9 89.7218 5.42821   3
   0  -3  -9 167.939 8.55622  17
   0  -3  -9 168.947 8.62849   9
   0  -3  -9 158.618 8.61217  10
   0  -3  -9 186.380 9.60758   3
   0  -3  -9 170.759 8.53210   8
   0  -3  -9 191.282 9.09206   7
   0  -3  -9 189.129 9.37563   2
   0   3  -9 176.359 9.72592   3
   0   3  -9 177.393 9.48540   2
   0   3  -9 168.102 8.58047   8
  -1  -3  -9 106.278 5.56466   8
  -1  -3  -9 121.506 6.05379   7
  -1  -3  -9 108.129 6.63546   3
  -1  -3  -9 113.883 6.49625   2
   2  -3   9 584.886 29.6767   8
  -2  -3  -9 625.412 30.1511   7
   2   3   9 640.954 30.1775   5
   3  -3   9 141.676 7.93109   5
   3  -3   9 148.974 7.44287   9
   3  -3   9 135.027 8.16305   2
   3  -3   9 164.791 7.35038   8
   3   3   9 149.874 8.00128   5
   3   3   9 153.789 7.39877   8
   4  -3   9 14.4672 1.11764   9
   4  -3   9 14.1951 1.16044  10
   4  -3   9 14.3080 0.82230   8
   4  -3   9 15.0288 1.26960  14
   4   3   9 13.8140 1.24712   9
   4   3   9 14.1471 1.17714  13
   4   3   9 14.3059 1.01904   8
   5  -3   9 50.8543 2.78021  10
   5  -3   9 53.4133 2.66647   9
   5  -3   9 47.2823 2.70702  13
   5  -3   9 52.8150 2.81384  14
   5   3   9 53.1546 2.78011  13
   5   3   9 52.1366 2.82879  10
   5   3   9 54.5527 2.72010   9
   6  -3   9 13.3419 0.80842  10
   6   3   9 13.3740 0.86439  13
   6   4  -9 519.404 24.9985  18
   5  -4  -9 6.02270 1.00679  16
   5  -4  -9 7.46001 1.12398  18
   5  -4  -9 7.39961 0.85278  17
   5   4  -9 5.84160 0.84500  18
   5   4  -9 5.93032 0.64945  10
   5   4  -9 5.86539 0.80640  11
   4  -4  -9 206.916 10.0576  18
   4  -4  -9 208.505 10.0654  17
   4  -4  -9 199.673 10.1886  16
   4   4  -9 203.099 9.95287  10
   4   4  -9 202.137 9.99369  18
   4   4  -9 199.088 9.96655  17
   4   4  -9 203.151 10.0126  11
   3  -4  -9 376.244 18.4041  10
   3  -4  -9 371.618 19.1055   7
   3  -4  -9 393.407 18.5748  18
   3  -4  -9 393.368 18.5479  17
   3  -4  -9 406.671 18.7216  16
   3   4  -9 347.133 19.0150   2
   3   4  -9 369.375 19.3063   3
   3   4  -9 400.413 18.5691  11
   3   4  -9 365.610 19.0727   7
   3   4  -9 390.761 18.5265  18
   3   4  -9 357.075 19.5765   4
   3   4  -9 407.260 18.5265  10
   3   4  -9 376.631 18.4561   9
   2  -4  -9 336.628 16.0121   9
   2  -4  -9 342.348 16.4085   2
   2  -4  -9 327.828 16.1510  18
   2  -4  -9 323.808 16.2420  16
   2  -4  -9 340.780 16.7224   7
   2  -4  -9 306.721 16.5066   3
   2  -4  -9 326.979 16.0808  10
   2  -4  -9 337.868 16.1536  17
   2   4  -9 329.669 17.0609   3
   2   4  -9 347.048 16.8910   2
   2   4  -9 331.632 16.5793   7
   2   4  -9 321.733 16.1292  18
   2   4  -9 334.753 17.2585   4
   2   4  -9 335.016 16.0105   8
   2   4  -9 345.703 16.1359   9
   2   4  -9 323.936 16.1516  10
   1  -4  -9 210.206 10.9800  16
   1  -4  -9 236.057 11.4259   7
   1  -4  -9 218.917 10.7466   8
   1  -4  -9 229.777 10.8794   9
   1  -4  -9 235.628 11.5048   2
   1  -4  -9 218.390 10.9010  10
   1  -4  -9 206.139 10.8761  17
   1   4  -9 235.983 11.7958   2
   1   4  -9 228.512 11.2427   7
   1   4  -9 211.986 10.8806  18
   1   4  -9 220.661 10.9521   9
   1   4  -9 228.692 11.9770   3
   1   4  -9 222.647 10.8450   8
   0  -4  -9 777.044 37.2312   3
   0  -4  -9 757.428 36.4885   8
   0  -4  -9 791.379 36.7154   7
   0  -4  -9 716.522 36.2453  10
   0  -4  -9 802.851 36.9798   2
   0  -4  -9 709.575 36.1964  17
   0  -4  -9 767.918 36.2505   9
   0   4  -9 702.476 36.1985   8
  -1  -4  -9 192.193 10.3513   2
  -1  -4  -9 184.872 9.42978   8
  -1  -4  -9 202.708 9.93099   7
   2  -4   9 586.252 29.0193   8
  -2  -4  -9 597.823 29.5021   7
   2   4   9 625.499 29.5677   5
   3  -4   9 186.816 8.74058   8
   3  -4   9 156.859 9.54226   2
   3  -4   9 186.381 8.85058   9
   3   4   9 189.756 8.79990   8
   3   4   9 171.689 9.35709   5
   4  -4   9 10.6231 1.05409   9
   4  -4   9 10.7672 1.06122  10
   4  -4   9 11.7057 1.00882  14
   4   4   9 11.2722 0.94058  13
   4   4   9 11.9618 0.93209   8
   4   4   9 11.7490 1.19361   9
   5  -4   9 2.83950 0.48101   9
   5  -4   9 2.37642 0.46202  14
   5  -4   9 3.55193 0.57017  10
   5   4   9 1.40951 0.52868  10
   5   4   9 2.07675 0.44664  13
   5   4   9 2.39303 0.51360   9
   6  -4   9 8.05950 0.52472  10
   6   4   9 7.75142 0.60867  13
   6  -5  -9 12.8591 0.98682  17
   6  -5  -9 16.4071 1.15729  18
   5  -5  -9 146.861 7.04747  17
   5  -5  -9 142.881 7.03962  18
   5  -5  -9 139.376 7.13790  16
   5   5  -9 133.007 6.86618  10
   5   5  -9 149.479 7.02969  11
   5   5  -9 133.368 6.98743  18
   4  -5  -9 457.312 21.6838  18
   4  -5  -9 447.267 21.8318  16
   4  -5  -9 457.076 21.6992  17
   4   5  -9 463.187 21.6866  11
   4   5  -9 430.016 21.6396  18
   4   5  -9 427.563 21.6064  10
   3  -5  -9 413.329 19.7209  15
   3  -5  -9 384.658 19.5273  10
   3  -5  -9 407.091 19.8656  16
   3  -5  -9 393.010 19.6878  17
   3  -5  -9 415.561 19.7134  18
   3   5  -9 411.439 19.6696  18
   3   5  -9 387.831 20.8718   4
   3   5  -9 382.519 20.2907   2
   3   5  -9 403.772 19.6841  11
   3   5  -9 429.731 19.6847  10
   3   5  -9 428.779 19.6354   9
   2  -5  -9 180.325 8.79526   9
   2  -5  -9 192.653 9.01301  15
   2  -5  -9 175.259 9.22152   3
   2  -5  -9 182.972 9.56448   7
   2  -5  -9 184.164 8.98234  17
   2  -5  -9 186.501 8.89415  10
   2  -5  -9 176.399 9.11613   2
   2  -5  -9 175.516 8.95722  18
   2  -5  -9 186.826 9.10509  16
   2   5  -9 178.283 8.92177  18
   2   5  -9 178.157 9.72508   2
   2   5  -9 192.113 8.84532   8
   2   5  -9 177.122 10.1240   4
   2   5  -9 186.286 8.97166   9
   2   5  -9 178.979 8.96404  10
   2   5  -9 174.840 9.91121   3
   2   5  -9 174.798 9.38154   7
   1  -5  -9 139.517 7.52257  16
   1  -5  -9 150.809 8.25806   3
   1  -5  -9 157.994 8.00062   7
   1  -5  -9 159.528 7.44679  10
   1  -5  -9 154.848 7.40343   9
   1  -5  -9 158.646 7.48277  18
   1  -5  -9 150.948 7.44483  17
   1  -5  -9 147.081 7.24197   8
   1  -5  -9 155.616 8.00117   2
   1   5  -9 145.572 7.49984   9
   1   5  -9 148.245 8.35263   2
   1   5  -9 149.761 7.39344   8
   1   5  -9 143.218 8.41914   3
   1   5  -9 141.308 7.41834  18
   0  -5  -9 815.918 38.4738   2
   0  -5  -9 785.324 37.7273  17
   0  -5  -9 817.277 38.2559   7
   0  -5  -9 821.140 38.8307   3
   0  -5  -9 755.048 37.7545  10
   0  -5  -9 733.669 38.0066   8
   0  -5  -9 791.471 37.8373   9
   0   5  -9 755.771 37.7209   8
   1  -5   9 324.634 16.9430   8
  -1  -5  -9 397.510 17.5759   7
  -1  -5  -9 346.794 18.2740   3
  -1  -5  -9 360.656 17.9275   2
  -1  -5  -9 342.958 17.0786   9
  -1  -5  -9 334.581 16.9494   8
  -2  -5  -9 1095.31 51.4940   8
   2  -5   9 1063.66 52.9032   3
   2  -5   9 1057.89 51.5021   9
   2  -5   9 1068.45 51.8490   8
   3  -5   9 138.726 6.65157   9
  -3  -5  -9 123.658 7.06823   7
   3  -5   9 125.136 6.64261  10
   3  -5   9 137.494 6.51977   8
   3   5   9 140.985 6.62314   8
   3   5   9 128.240 7.22678   5
   4  -5   9 30.7167 1.75609   9
   4  -5   9 27.1161 1.75947  10
   4  -5   9 31.7420 1.93121  14
   4   5   9 26.3143 1.74544   9
   4   5   9 27.5733 1.72645  13
   4   5   9 30.4899 1.68097   8
   5  -5   9 166.044 8.48132   9
   5  -5   9 185.216 8.76406  14
   5   5   9 183.457 8.66927   9
   5   5   9 172.130 8.69052  13
   5  -6  -9 26.3038 1.71610  18
   5  -6  -9 26.3509 1.75164  16
   5  -6  -9 24.7177 1.57694  17
   5   6  -9 24.8678 1.45836  10
   5   6  -9 26.3731 1.68723  11
   4  -6  -9 35.1062 2.10137  17
   4  -6  -9 35.4669 2.28836  16
   4  -6  -9 36.9314 2.19045  18
   4   6  -9 35.8755 2.01490  10
   4   6  -9 34.1029 2.01657  18
   4   6  -9 36.9560 2.19731  11
   3  -6  -9 2993.62 141.870  16
   3  -6  -9 2931.37 141.722  15
   3  -6  -9 3021.32 141.212  17
   3  -6  -9 3009.97 141.074  18
   3  -6  -9 2680.07 140.483   7
   3  -6  -9 2847.52 140.346  10
   3   6  -9 2902.85 141.077  10
   3   6  -9 3012.83 140.868   9
   3   6  -9 3069.41 141.251  11
   3   6  -9 2728.67 140.745  18
   2  -6  -9 2.11912 0.79324   7
   2  -6  -9 1.78031 0.39056  10
   2  -6  -9 2.28840 0.54402   2
   2  -6  -9 1.68796 0.42929  17
   2  -6  -9 1.58938 0.49531  16
   2  -6  -9 1.63679 0.56383  15
   2  -6  -9 2.48832 0.41757   9
   2  -6  -9 1.97245 0.56599  18
   2  -6  -9 1.21477 0.49172   3
   2   6  -9 1.50211 1.09567   3
   2   6  -9 1.77940 0.56081  10
   2   6  -9 1.81308 0.45403   9
   2   6  -9 1.89438 1.11520   2
   2   6  -9 1.11621 0.45904  18
   2   6  -9 1.94190 0.50768   8
   2   6  -9 2.38466 1.47235   4
   1  -6  -9 1266.28 62.8060  18
   1  -6  -9 1295.61 62.7342  17
   1  -6  -9 1242.40 62.3811  16
   1  -6  -9 1290.02 62.7881   9
   1  -6  -9 1306.18 62.5820   2
   1  -6  -9 1349.60 62.6043   7
   1  -6  -9 1403.21 62.7861  10
   1  -6  -9 1325.17 63.0300  15
   1   6  -9 1297.70 63.0394   2
   1   6  -9 1304.49 62.4095   8
   1   6  -9 1234.75 63.1790   3
   1   6  -9 1195.33 62.0943   9
   0  -6  -9 2.90036 0.53522   9
   0  -6  -9 3.53360 1.22721   3
   0  -6  -9 3.71914 0.55071  10
   0  -6  -9 3.17522 1.00169   7
   0  -6  -9 4.07040 0.57209  17
   0  -6  -9 3.56314 0.56362   8
   0  -6  -9 3.34356 1.05227   2
   0   6  -9 3.33266 0.57314   8
  -1  -6  -9 512.320 22.7579   7
  -1  -6  -9 433.289 23.4173   3
   1  -6   9 426.104 22.1174   8
  -1  -6  -9 479.700 22.1456   8
  -1  -6  -9 443.516 22.2300   9
  -2  -6  -9 13.4533 1.14821   8
  -2  -6  -9 13.8022 1.42503   7
   2  -6   9 12.8791 1.00548   8
   2  -6   9 13.5307 1.17859   9
   2  -6   9 11.0028 1.91169   3
   2   6   9 12.7689 1.42544   5
  -3  -6  -9 169.105 9.79255   7
   3  -6   9 203.005 9.45121  14
   3  -6   9 194.449 9.34635  10
   3  -6   9 198.418 9.34531   9
   3  -6   9 190.140 9.21683   8
   3   6   9 174.870 9.91403   5
   3   6   9 193.130 9.33301   8
   4  -6   9 64.1170 3.45233  14
   4  -6   9 66.1000 3.33559   9
   4  -6   9 66.4462 3.38843  10
   4   6   9 60.4427 3.39595   9
   4   6   9 66.1705 3.32217   8
   4   6   9 63.3027 3.39014  13
   5  -6   9 61.6842 3.25643  14
   5  -6   9 61.8092 3.13884  10
   5   6   9 63.7797 3.23293   9
   5   6   9 60.0160 3.21220  13
   5  -7  -9 21.0357 1.35379  18
   5  -7  -9 21.1010 1.38006  17
   5  -7  -9 22.0252 1.77362  16
   5   7  -9 21.6685 1.50224  11
   5   7  -9 22.2671 1.31510  10
   4  -7  -9 1.62225 0.58833  15
   4  -7  -9 1.67347 0.58724  16
   4  -7  -9 2.22742 0.51254  17
   4  -7  -9 1.81081 0.59789  18
   4   7  -9 1.98625 0.56504  10
   4   7  -9 1.76225 0.46197  11
   3  -7  -9 675.181 35.9829   7
   3  -7  -9 748.217 35.8132  15
   3  -7  -9 739.958 35.4133  17
   3  -7  -9 722.859 35.4299  10
   3  -7  -9 761.434 35.3954  18
   3  -7  -9 758.694 35.5584  16
   3   7  -9 683.513 36.5965   4
   3   7  -9 769.479 35.3679   9
   3   7  -9 700.446 35.1471   8
   3   7  -9 749.918 35.3981  10
   3   7  -9 758.515 35.4110  11
   2  -7  -9 309.128 14.7248  18
   2  -7  -9 325.418 14.6510  10
   2  -7  -9 321.555 14.7685  15
   2  -7  -9 306.599 15.3653   7
   2  -7  -9 285.967 14.6309   2
   2  -7  -9 323.111 14.7703  17
   2  -7  -9 271.088 14.6714   3
   2  -7  -9 288.665 14.4861   9
   2  -7  -9 307.551 14.8559  16
   2   7  -9 281.374 15.5298   2
   2   7  -9 276.324 15.7733   3
   2   7  -9 313.957 14.7581   9
   2   7  -9 302.742 14.7653  10
   2   7  -9 294.163 15.9794   4
   2   7  -9 316.539 14.6337   8
   1  -7  -9 439.901 20.8304  17
   1  -7  -9 432.244 20.7519   9
   1  -7  -9 440.333 20.7929  10
   1  -7  -9 442.054 20.8351  15
   1  -7  -9 444.704 21.4056   7
   1  -7  -9 425.738 20.9046  16
   1  -7  -9 402.109 21.4397   3
   1  -7  -9 419.291 20.8082  18
   1  -7  -9 427.043 21.3031   2
   1   7  -9 422.890 20.7697   8
   0  -7  -9 175.527 9.10575   7
   0  -7  -9 172.749 9.27532   2
   0  -7  -9 181.024 8.56808  17
   0  -7  -9 167.542 8.56795  10
   0  -7  -9 174.439 8.56088   9
   0  -7  -9 169.777 9.53815   3
   0  -7  -9 178.439 8.44331   8
   0   7  -9 166.127 8.55212   8
  -1  -7  -9 0.99203 0.97453   2
  -1  -7  -9 2.44597 0.94966   7
   1  -7   9 0.71471 0.40155   8
  -1  -7  -9 0.23433 1.03758   3
  -1  -7  -9 0.14821 0.38586   8
  -1  -7  -9 0.62519 0.50382   9
   2  -7   9 29.0422 2.87380   3
   2  -7   9 33.2131 2.72486   2
   2  -7   9 35.4807 1.92588   8
  -2  -7  -9 33.3889 2.42895   7
   2  -7   9 38.1091 1.99494   9
  -2  -7  -9 34.7564 2.03527   8
   3  -7   9 214.343 10.0668  14
   3  -7   9 209.389 9.83072   8
   3  -7   9 190.258 9.96042  10
   3  -7   9 203.628 9.95596   9
   3   7   9 195.944 9.93777   8
   4  -7   9 3.95960 0.68312  14
   4  -7   9 4.89169 0.79864  10
   4  -7   9 4.41874 0.67937   9
   4   7   9 3.07391 0.49907   8
   4   7   9 3.49658 0.65835   9
   5  -7   9 10.6281 1.08399  14
   5  -7   9 11.8502 0.81293  10
   5   7   9 12.8805 1.06487   9
   5   7   9 12.4223 1.04089  13
   5  -8  -9 35.1409 2.02969  16
   5  -8  -9 30.4912 1.77876  18
   5  -8  -9 30.7279 1.84887  17
   5   8  -9 30.7865 1.81048  11
   5   8  -9 35.1538 1.81339  10
   4  -8  -9 35.3037 2.06075  15
   4  -8  -9 33.0889 2.08431  18
   4  -8  -9 34.8234 2.40925  16
   4  -8  -9 36.2723 2.06461  17
   4   8  -9 35.4096 2.13374  11
   4   8  -9 37.3134 2.13626  10
   3  -8  -9 12.5171 0.72642  10
   3  -8  -9 10.7234 1.14864  18
   3  -8  -9 11.9684 1.23819  15
   3  -8  -9 11.3519 1.08608  17
   3  -8  -9 11.4763 1.23715  16
   3   8  -9 11.5713 1.26829  10
   3   8  -9 11.8468 1.28436   9
   3   8  -9 12.3240 1.27705  11
   3   8  -9 10.2385 0.73541   8
   2  -8  -9 839.380 37.9800  17
   2  -8  -9 794.746 38.3195  10
   2  -8  -9 768.838 38.5478   7
   2  -8  -9 791.659 38.0635  16
   2  -8  -9 806.963 38.2629  15
   2  -8  -9 733.306 37.8902  18
   2   8  -9 814.780 37.9147   8
   2   8  -9 802.262 37.9669   9
   2   8  -9 730.346 39.1372   4
   1  -8  -9 161.997 8.85429   2
   1  -8  -9 176.675 9.07215   7
   1  -8  -9 168.961 8.53120  16
   1  -8  -9 164.131 9.08214   3
   1  -8  -9 173.919 8.41721  15
   1  -8  -9 168.985 8.38571  10
   1  -8  -9 165.056 8.39273  18
   1  -8  -9 188.128 8.46981  17
   1  -8  -9 163.799 8.32961   9
   1   8  -9 168.495 8.37185   8
   0  -8  -9 191.206 9.42028   9
   0  -8  -9 192.700 9.28946   8
   0  -8  -9 200.123 9.44965  10
   0  -8  -9 184.493 10.1239   2
   0  -8  -9 177.054 10.3454   3
   0  -8  -9 197.771 9.42687  17
   0  -8  -9 192.892 10.0061   7
  -1  -8  -9 16.0773 1.14415   8
  -1  -8  -9 16.2384 1.31658   9
  -1  -8  -9 15.1673 2.04669   2
  -1  -8  -9 17.0944 2.28676   3
  -1  -8  -9 16.3647 1.91416   7
   2  -8   9 27.4252 1.64142   8
  -2  -8  -9 29.3129 2.21030   7
  -2  -8  -9 27.7185 1.66611   8
   2  -8   9 30.2831 1.77110  14
   2  -8   9 27.5380 1.78968   9
   3  -8   9 1.22757 0.38132  15
   3  -8   9 1.05652 0.43143  14
  -3  -8  -9 1.83425 0.57887   8
   3  -8   9 2.06146 0.40811  10
   3   8   9 1.83442 0.57780   8
   4  -8   9 45.3464 2.49855  14
   4  -8   9 45.1125 2.45446  10
   4  -8   9 45.3099 2.38746   9
   4   8   9 44.4253 2.36250   8
   5  -8   9 30.2315 1.60453  10
   5  -8   9 25.6842 1.66968  14
   5   8   9 29.7799 1.65153  13
   5   8   9 30.7465 1.64201   9
   5  -9  -9 5.46209 0.88471  16
   5  -9  -9 5.42531 0.66400  17
   5   9  -9 4.33195 0.73285  10
   5   9  -9 4.36297 0.66796  11
   4  -9  -9 170.479 8.35701  17
   4  -9  -9 173.410 8.51714  16
   4  -9  -9 176.430 8.40536  15
   4   9  -9 161.174 8.30624  11
   4   9  -9 161.682 8.31908  10
   3  -9  -9 1.36720 0.47083  17
   3  -9  -9 1.10821 0.53910  16
   3  -9  -9 1.59810 0.59256  15
   3  -9  -9 1.36197 0.17488  10
   3   9  -9 2.44408 0.65183  10
   3   9  -9 1.48443 0.48716   9
   3   9  -9 1.70773 0.47763  11
   3   9  -9 1.56828 0.31680   8
   2  -9  -9 187.735 8.80789  10
   2  -9  -9 184.310 9.07539  16
   2  -9  -9 181.340 8.91813  15
   2  -9  -9 175.414 9.50302   7
   2  -9  -9 189.391 8.96860  17
   2   9  -9 185.261 8.82985   8
   2   9  -9 167.008 8.94876   9
   2   9  -9 163.479 10.1639   4
   1  -9  -9 177.661 8.87942  16
   1  -9  -9 180.287 8.76876  15
   1  -9  -9 176.126 8.66733   9
   1  -9  -9 184.182 8.80709  17
   1  -9  -9 179.288 8.72911  10
   1  -9  -9 169.147 9.17700   2
   1  -9  -9 178.492 9.41669   7
   1   9  -9 170.788 8.74461   8
   0  -9   9 12.9175 1.05331   8
   0  -9  -9 9.24225 1.56796   3
   0  -9  -9 10.6320 1.74630   2
   0  -9  -9 10.7601 1.08551   9
   0  -9  -9 12.8600 1.61813   7
   0  -9  -9 10.8793 0.96489  17
   0  -9  -9 11.4385 0.95573  10
   0  -9  -9 8.91336 0.83387   8
  -1  -9  -9 36.3992 2.15194   9
  -1  -9  -9 33.6257 2.56411   7
  -1  -9  -9 35.9200 1.97383   8
   1  -9   9 34.8660 2.00114   8
   2  -9   9 105.576 5.42149  14
   2  -9   9 99.1948 6.13252   6
   2  -9   9 110.787 5.29627   8
  -2  -9  -9 106.311 5.34291   8
   2  -9   9 108.963 5.41574   9
   3  -9   9 174.579 8.33611  14
   3  -9   9 174.049 8.26078   9
   3  -9   9 175.195 8.29467  10
   3  -9   9 158.016 8.03756   8
   3  -9   9 156.838 8.26886  15
  -3  -9  -9 165.895 8.30103   8
   3   9   9 167.518 8.28510   8
   4  -9   9 40.9934 2.26623  10
   4  -9   9 42.2342 2.30585  14
   4  -9   9 41.1194 2.15193   9
   4   9   9 40.2505 2.23110   8
   5  -9   9 19.2981 1.27514  14
   5   9   9 22.5897 1.25399   9
   5   9   9 21.7566 1.25706  13
   5 -10  -9 15.8826 1.13947  16
   5 -10  -9 10.9605 0.89526  17
   5  10  -9 12.8799 0.87225  10
   5  10  -9 15.2431 0.94155  11
   4 -10  -9 25.4431 1.74422  17
   4 -10  -9 27.0566 1.75049  15
   4 -10  -9 25.6886 2.02957  16
   4  10  -9 25.5309 1.60512  10
   4  10  -9 25.2478 1.71243  11
   3 -10  -9 68.9157 3.77098  15
   3 -10  -9 70.4452 3.86634  16
   3 -10  -9 75.0186 3.80651  17
   3  10  -9 70.6807 3.75415  11
   3  10  -9 68.4295 3.49689   8
   3  10  -9 72.7761 3.80339   9
   3  10  -9 66.9198 3.78782  10
   2 -10  -9 29.2192 1.73952  10
   2 -10  -9 31.2178 2.01601  16
   2 -10  -9 31.8935 1.90613  17
   2 -10  -9 30.9044 1.85198  15
   2  10  -9 32.9534 1.89271   8
   2  10  -9 30.3324 1.95369   9
   1 -10  -9 65.6821 3.38248   9
   1 -10  -9 68.2477 3.51849  17
   1 -10  -9 66.9046 3.59320  16
   1 -10  -9 64.7550 3.49309  15
   1 -10  -9 64.6828 3.45945  10
   1 -10  -9 65.7019 4.07376   7
   1  10  -9 63.6584 4.78983   4
   1  10  -9 68.9015 3.56818   8
   0 -10  -9 556.871 26.9750   8
   0 -10  -9 532.596 27.6572   7
   0 -10  -9 585.034 27.0690  17
   0 -10  -9 590.842 27.0490  10
   0 -10  -9 550.442 27.0036   9
   0 -10   9 538.650 26.9818   8
  -1 -10  -9 21.8435 2.20875   7
  -1 -10  -9 21.0156 1.56153   9
  -1 -10  -9 22.4624 1.34542   8
   1 -10   9 21.2388 1.38553   8
   2 -10   9 1.65385 0.46736  14
   2 -10   9 1.48012 0.39604   8
  -2 -10  -9 1.68591 0.50980   8
   2 -10   9 1.63525 0.42607   9
   3 -10   9 36.0309 2.03416   9
  -3 -10  -9 33.8437 1.99612   8
   3 -10   9 33.3959 2.06365  15
   3 -10   9 36.3220 2.07541  10
   3 -10   9 35.2976 2.10024  14
   3  10   9 35.7704 2.11067   8
   4 -10   9 10.1988 0.89934  10
   4 -10   9 9.21199 0.83153  14
   4 -10   9 8.84423 0.60581   9
  -4 -10  -9 8.78543 1.06278   8
   4  10   9 8.69931 0.74229   8
   5 -10   9 0.10294 0.27338  14
   5 -10   9 0.46550 0.19814  10
   5  10   9 0.88608 0.30884  13
   5  10   9 0.84037 0.28571   9
   5 -11  -9 12.0036 0.99017  16
   5  11  -9 11.5341 0.85915  10
   4 -11  -9 164.901 8.31913  15
   4 -11  -9 175.260 8.50621  16
   4 -11  -9 164.725 8.30091  17
   4  11  -9 170.219 8.34067  10
   4  11  -9 168.127 8.28024  11
   4  11  -9 168.418 8.23313   9
   3 -11  -9 148.096 7.38502  17
   3 -11  -9 146.587 7.40956  15
   3 -11  -9 146.114 7.56391  16
   3  11  -9 151.932 7.37150   9
   3  11  -9 145.233 7.34740  11
   3  11  -9 148.837 7.17994   8
   2 -11  -9 164.952 8.35936  15
   2 -11  -9 169.442 8.52821  16
   2 -11  -9 177.195 8.43244  17
   2 -11  -9 163.096 8.23989  10
   2  11  -9 170.933 8.31060   8
   2  11  -9 165.519 8.45936   9
   1 -11  -9 6.12781 0.87548  15
   1 -11  -9 5.84337 0.78442   9
   1 -11  -9 8.00650 1.14751  17
   1 -11  -9 6.62277 0.87791  10
   1  11  -9 8.45438 1.17764   8
   0 -11  -9 28.0071 1.71851   9
   0 -11  -9 26.8655 1.83692  17
   0 -11   9 28.6315 1.63370   8
   0 -11  -9 27.4079 1.76091  10
  -1 -11  -9 28.6702 1.59733   8
   1 -11   9 27.6698 1.68029   8
  -1 -11  -9 30.5437 1.83468   9
   1 -11   9 25.4971 1.82390   9
  -2 -11  -9 6.77944 0.91417   9
  -2 -11  -9 6.42398 0.69820   8
   2 -11   9 5.67794 0.65603   8
   2 -11   9 6.11115 0.71827   9
   3 -11   9 97.3243 5.13986  14
   3 -11   9 104.873 5.05910   9
  -3 -11  -9 106.389 5.11837   8
   3 -11   9 94.2247 5.12485  15
   3 -11   9 100.769 5.07741  10
   3  11   9 101.835 5.07890   8
  -4 -11  -9 95.7307 4.74096   8
   4 -11   9 86.7789 4.74162  14
   4 -11   9 97.6150 4.72080  10
   4  11   9 97.5242 4.67597   8
   4 -12  -9 22.0599 1.59280  16
   4 -12  -9 19.7467 1.37559  17
   4 -12  -9 24.5546 1.42834  15
   4  12  -9 24.4401 1.38389   9
   4  12  -9 23.5824 1.59156  10
   4  12  -9 24.3332 1.49128  11
   3 -12  -9 15.7788 1.37394  16
   3 -12  -9 15.8760 1.18117  15
   3 -12  -9 16.9744 1.19112  17
   3  12  -9 15.9318 1.51588   9
   3  12  -9 17.7804 1.18612  11
   3  12  -9 15.1935 0.93824   8
   2 -12  -9 166.838 8.14878  10
   2 -12  -9 164.221 8.28530  17
   2 -12  -9 171.146 8.44037  16
   2 -12  -9 165.083 8.27618  15
   2  12  -9 173.417 8.20273   8
   2  12  -9 158.745 8.37408   9
   1 -12  -9 225.337 11.8885  16
   1 -12  -9 239.524 11.7663  10
   1 -12  -9 255.309 11.8788  17
   1 -12  -9 245.934 11.6597   9
   1  12  -9 238.696 11.8195   8
   0 -12  -9 194.636 9.54314   9
   0 -12  -9 198.999 9.62788  17
   0 -12   9 184.524 9.50558   8
   0 -12  -9 198.441 9.58542  10
   1 -12   9 35.1647 2.23197   9
   1 -12   9 38.0656 2.02433   8
  -1 -12  -9 38.8369 2.24310  10
  -1 -12  -9 36.4003 1.98249   8
  -1 -12  -9 39.5757 2.23781   9
  -2 -12  -9 37.8597 2.06161   8
  -2 -12  -9 36.6160 2.17412   9
   2 -12   9 37.9181 1.93104   8
   2 -12   9 35.7947 2.15701   9
   3 -12   9 24.4706 1.62960  15
   3 -12   9 28.1478 1.52793   9
  -3 -12  -9 30.8317 1.70769   8
   3 -12   9 26.9611 1.66492  14
   3 -12   9 26.7385 1.70893  10
   3  12   9 29.1170 1.75906   8
   4 -12   9 12.9504 0.96251  14
  -4 -12  -9 12.9161 0.90649   8
   4 -12   9 11.5960 0.80507  10
   4  12   9 13.2877 0.94157   8
   4 -13  -9 111.803 5.83611  16
   4 -13  -9 109.909 5.67901  17
   4  13  -9 123.410 5.65796   9
   4  13  -9 118.841 5.75807  10
   4  13  -9 113.352 5.67822  11
   3 -13  -9 24.5999 1.52404  15
   3 -13  -9 21.8039 1.60323  16
   3 -13  -9 24.5723 1.42462  17
   3  13  -9 20.1325 1.17167   8
   3  13  -9 22.2637 1.70885   9
   3  13  -9 21.7494 1.50804  11
   2 -13  -9 7.29456 0.85435  17
   2 -13  -9 6.96191 0.75249  15
   2 -13  -9 6.81375 0.63603  10
   2 -13  -9 7.69519 1.01634  16
   2  13  -9 7.52582 0.83055   8
   2  13  -9 5.84290 0.90504   9
   2  13  -9 7.90738 0.84564  11
   1 -13  -9 127.642 6.79668  16
   1 -13  -9 142.546 6.80070  17
   1 -13  -9 128.339 6.66033  10
  -1 -13   9 132.757 6.69675   8
   1  13  -9 140.720 6.77395   8
   0 -13  -9 138.338 6.94651   9
   0 -13  -9 143.350 7.00968  10
   0 -13   9 135.461 6.93684   8
   0 -13  -9 143.617 7.04405  17
  -1 -13  -9 147.245 7.35822   9
  -1 -13  -9 152.853 7.40802  17
  -1 -13  -9 146.119 7.18574   8
  -1 -13  -9 143.884 7.40894  10
   1 -13   9 143.068 7.35198   9
   1 -13   9 155.469 7.27511   8
  -2 -13  -9 124.740 6.44315   9
   2 -13   9 132.302 6.35676   9
   2 -13   9 123.020 6.34948  10
  -2 -13  -9 126.933 6.27689   8
   2 -13   9 130.500 6.41060  15
   3 -13   9 125.604 5.76904   9
  -3 -13  -9 122.587 5.83031   8
   3 -13   9 116.253 5.86724  15
   3 -13   9 106.104 5.81356  10
   3  13   9 118.212 5.87375   8
  -4 -13  -9 113.275 5.69524   8
   4  13   9 118.307 5.65529   8
   4 -14  -9 113.827 5.55769  16
   4  14  -9 107.634 5.37911   9
   3 -14  -9 399.214 18.3609  16
   3 -14  -9 374.402 18.2177  17
   3  14  -9 356.352 18.1848  11
   2 -14  -9 60.3808 3.30016  16
   2 -14  -9 57.7037 3.12060  17
   2 -14  -9 54.9550 3.01482  15
   2 -14  -9 58.5001 2.89273  10
   2  14  -9 57.2406 3.08232  11
   2  14  -9 58.9193 2.99893   8
  -1 -14   9 254.956 12.5308   8
   1 -14  -9 244.615 12.5022  10
   1 -14  -9 270.941 12.6023  17
   1 -14  -9 248.016 12.6622  16
   1  14  -9 267.417 12.5836   8
   0 -14  -9 26.2079 1.50586   9
   0 -14  -9 24.4759 1.67357  17
   0 -14  -9 24.2115 1.50378  10
   0 -14   9 23.0403 1.43181   8
  -1 -14  -9 17.2773 1.21666   9
   1 -14   9 20.6207 1.40072   9
  -1 -14  -9 16.0919 1.20700  17
  -1 -14  -9 17.1261 1.23736  10
  -2 -14  -9 17.1291 1.04479   8
   2 -14   9 17.2561 1.11041   9
   2 -14   9 15.6172 1.14697  10
  -2 -14  -9 19.1199 1.47873   9
   2 -14   9 17.8249 1.20447  15
   3 -14   9 311.900 15.6564  10
   3 -14   9 321.347 15.5598   9
   3 -14   9 310.908 15.6981  15
  -3 -14  -9 352.418 15.6419   8
   3 -15  -9 200.489 9.89136  16
   2 -15  -9 85.2343 4.33755  16
  -2 -15   9 81.3345 4.17671   8
   2 -15  -9 85.0603 4.20568  17
   2  15  -9 85.4329 4.19024   8
   2  15  -9 77.8406 4.19163  11
   1 -15  -9 41.1126 2.51107  16
   1 -15  -9 42.1464 2.25623  10
   1 -15  -9 41.8171 2.30355  17
   1  15  -9 42.5395 2.34441   8
   0 -15  -9 119.647 6.46678  17
   0 -15  -9 135.038 6.46904  10
   0 -15  -9 135.553 6.37774   9
   1 -15   9 5.59173 0.96527   9
  -1 -15  -9 7.57309 0.92124   9
   1 -15   9 5.23110 0.47551   8
  -1 -15  -9 6.75254 0.98424  10
  -1 -15  -9 6.07037 0.94165  17
   2 -15   9 134.115 6.48821   9
   2 -15   9 120.721 6.50095  10
  -2 -15  -9 134.214 6.54163  17
   2 -15   9 133.186 6.57537  15
  -2 -15  -9 138.446 6.60128   9
   3 -15   9 47.5527 2.49786  15
   3 -15   9 52.1966 2.50355  10
  -3 -15  -9 48.2564 2.57406   9
  -3 -15  -9 44.8112 2.49168  17
   3 -16  -9 0.11354 0.31652  16
   3  16  -9 0.14677 0.30456   9
   2 -16  -9 51.9591 2.90373  16
   2 -16  -9 50.2026 2.79176  17
  -2 -16   9 57.5954 2.77143   8
   2  16  -9 55.9349 2.72969   8
  -1 -16   9 224.357 10.2041   8
   1 -16  -9 207.022 10.3326  16
  -1 -16   9 205.287 10.2287  15
   1 -16  -9 219.765 10.1850  10
   1 -16  -9 192.792 10.2198  17
   1  16  -9 198.335 10.1990  11
   1  16  -9 220.141 10.2733   8
   0 -16   9 3.18210 0.61773  15
   0 -16  -9 4.48432 0.66732  17
   0 -16   9 2.99419 0.50808   9
   0 -16   9 3.76705 0.57385   8
   0 -16  -9 5.10385 0.63030  10
   1 -16   9 182.189 9.08035   9
  -1 -16  -9 187.442 9.06330   9
  -1 -16  -9 194.985 9.12614  17
   1 -16   9 194.621 9.14521  15
  -1 -16  -9 171.277 9.11005  10
  -2 -16  -9 75.8601 3.77288  17
   2 -16   9 71.8870 3.74798  10
   2 -16   9 75.5423 3.67589   9
  -2 -16  -9 80.3796 3.79098   9
   2 -16   9 69.8775 3.77214  15
   2 -17  -9 95.7842 4.94178  16
   2  17  -9 101.797 4.81748   8
   1 -17  -9 13.7680 0.85066  10
   1 -17  -9 14.1031 1.07912  16
  -1 -17   9 16.9495 1.00464   8
   1  17  -9 15.7010 1.08699   8
   0 -17  -9 479.943 23.6067  10
   0 -17   9 521.417 23.6382   9
   0 -17   9 457.561 23.6275  15
   0 -17   9 502.751 23.5045   8
   1 -17   9 83.0826 3.84859   9
  -1 -17  -9 77.2501 3.84173  17
   1 -17   9 69.8210 3.84694  15
   0 -18  -9 19.3199 1.09123  10
   6   0 -10 8.14566 0.66083  11
   6   0 -10 9.40421 0.75671  18
   5   0 -10 371.800 16.8139  18
   5   0 -10 351.021 16.7694  17
   5   0 -10 313.835 16.7160  11
   4   0 -10 17.8834 1.11177  10
   4   0 -10 19.2365 1.42102  11
   4   0 -10 18.4147 1.30551  17
   4   0 -10 18.7939 1.57475  18
   3   0 -10 411.851 18.9137  10
   3   0 -10 392.158 18.7687   9
   3   0 -10 409.655 19.1629  16
   3   0 -10 406.664 18.9673  17
   3   0 -10 355.065 19.0304   2
   3   0 -10 363.876 19.4911   7
   3   0 -10 405.367 19.0160  18
   3   0 -10 378.281 18.9265  11
   2   0 -10 8.23265 0.72573  11
   2   0 -10 7.75167 0.94048  16
   2   0 -10 8.65039 0.78268  17
   2   0 -10 9.85372 1.10912  18
   2   0 -10 7.34159 1.36130   2
   2   0 -10 8.10910 0.97893   9
   2   0 -10 9.05677 1.34892   7
   2   0 -10 7.98860 0.96237  10
   1   0 -10 133.697 6.53103   8
   1   0 -10 132.021 7.15722   7
   1   0 -10 133.322 7.58277   3
   1   0 -10 136.835 6.67486   9
   1   0 -10 139.071 7.41511   2
   1   0 -10 125.584 6.68923  10
   0   0 -10 205.523 10.7886   9
   0   0 -10 212.324 11.6526   2
   0   0 -10 227.961 10.6955   8
   0   0 -10 228.946 11.1734   7
   0   0 -10 220.887 11.8296   3
  -1   0 -10 80.3220 4.14049   8
   2   0  10 483.763 23.3661   8
   3   0  10 708.316 33.0016   8
   3   0  10 649.539 32.7472   9
   4   0  10 649.932 31.4655   8
   4   0  10 651.283 31.3614   9
   5   0  10 5.05448 0.79604  14
   5   0  10 6.43775 0.87625  10
   5   0  10 6.27373 0.58758   9
   6  -1 -10 29.7920 1.67239  11
   6   1 -10 32.1784 1.68116  11
   6   1 -10 32.2943 1.73350  18
   5  -1 -10 56.3192 3.14960  17
   5  -1 -10 62.3319 3.20886  18
   5  -1 -10 56.6909 3.05723  11
   5   1 -10 58.7819 3.12365  11
   5   1 -10 61.0161 3.10566  18
   5   1 -10 55.0157 3.04784  17
   4  -1 -10 491.304 25.5472  11
   4  -1 -10 534.717 25.6273  17
   4  -1 -10 552.121 25.6620  18
   4  -1 -10 534.100 25.4394  10
   4   1 -10 528.724 25.6251  18
   4   1 -10 524.705 25.4880  10
   4   1 -10 517.359 25.5879  11
   4   1 -10 554.580 25.6173  17
   3  -1 -10 3.27351 1.08891   7
   3  -1 -10 3.98857 0.63514  17
   3  -1 -10 2.50299 0.68294  18
   3  -1 -10 2.30263 0.75438  16
   3  -1 -10 2.12977 0.53004  10
   3  -1 -10 2.77466 0.41816  11
   3   1 -10 2.58257 1.08710   7
   3   1 -10 3.03893 0.58919  11
   3   1 -10 2.43910 0.51380  10
   3   1 -10 2.46621 0.56897  17
   3   1 -10 2.40219 0.38614   9
   3   1 -10 3.17281 0.54745  18
   2  -1 -10 377.675 17.0401  18
   2  -1 -10 390.267 17.0011  10
   2  -1 -10 361.923 16.9076   9
   2  -1 -10 355.966 17.5035   2
   2  -1 -10 343.516 17.1057  16
   2  -1 -10 347.134 17.5833   7
   2  -1 -10 328.219 16.9493  17
   2  -1 -10 331.899 17.5739   3
   2   1 -10 339.253 17.5995   2
   2   1 -10 327.095 16.9682  17
   2   1 -10 332.182 16.9394  11
   2   1 -10 367.591 17.0235  18
   2   1 -10 352.290 17.5105   7
   2   1 -10 335.665 17.7385   3
   2   1 -10 352.995 16.9952  10
   2   1 -10 345.192 16.9341   9
   1  -1 -10 8.31825 1.45853   3
   1  -1 -10 6.64093 0.90300   9
   1  -1 -10 6.53522 0.81972  17
   1  -1 -10 8.27528 0.96073  10
   1  -1 -10 6.49973 1.24663   2
   1  -1 -10 6.24841 0.62323   8
   1  -1 -10 6.68830 1.04431   7
   1   1 -10 5.66607 1.33882   4
   1   1 -10 7.76649 1.05828   7
   1   1 -10 6.71643 0.80538  10
   1   1 -10 8.21385 0.97927   9
   1   1 -10 8.64888 0.71476   8
   1   1 -10 6.26421 1.43965   3
   1   1 -10 7.49081 1.32137   2
   0  -1 -10 29.5471 1.63898   8
   0  -1 -10 30.8009 2.69739   2
   0  -1 -10 27.1106 2.73695   3
   0  -1 -10 28.5397 1.87127   9
   0  -1 -10 30.3882 2.23219   7
   0   1 -10 30.8069 1.73424   8
   0   1 -10 27.9577 1.78272   9
   0   1 -10 28.4470 2.49595   2
   0   1 -10 30.5577 2.18060   7
   0   1 -10 27.6820 2.82107   3
  -1  -1 -10 1.37432 0.47120   8
  -1  -1 -10 1.78685 0.74803   7
  -1   1 -10 1.30798 0.48696   8
   2  -1  10 65.7848 3.31092   8
   2   1  10 62.7105 3.34421   8
   3  -1  10 293.874 14.4130   9
   3  -1  10 301.160 14.3201   8
   3   1  10 289.943 14.3310   8
   4  -1  10 1.10236 0.39113   9
   4  -1  10 0.48686 0.32172   8
   4   1  10 0.95649 0.32914   8
   4   1  10 0.72860 0.35515  13
   4   1  10 0.88162 0.52729   9
   5  -1  10 322.761 14.3530   9
   5  -1  10 287.306 14.4395  14
   5  -1  10 302.644 14.4042  10
   5   1  10 311.639 14.3604   9
   5   1  10 296.017 14.4131  13
   5   1  10 290.493 14.4046  10
   5   1  10 267.579 14.4046  14
   6  -2 -10 37.8455 2.01129  18
   6   2 -10 35.5777 1.98222  18
   6   2 -10 39.3398 1.97752  11
   5  -2 -10 53.0781 2.81030  17
   5  -2 -10 48.1650 2.67227  11
   5  -2 -10 52.5979 2.76156  18
   5   2 -10 49.5942 2.68782  17
   5   2 -10 53.6171 2.82914  18
   5   2 -10 47.8960 2.69823  11
   4  -2 -10 1.92004 0.38772  11
   4  -2 -10 1.93634 0.75851  16
   4  -2 -10 2.64730 0.54028  17
   4  -2 -10 2.05589 0.25499  10
   4  -2 -10 1.97929 0.68876  18
   4   2 -10 1.63029 0.64184  17
   4   2 -10 1.45226 0.58406  11
   4   2 -10 1.99121 0.65473  18
   4   2 -10 2.01255 0.43332  10
   3  -2 -10 215.935 10.7069  16
   3  -2 -10 216.605 10.5673  18
   3  -2 -10 217.411 10.4132  10
   3  -2 -10 198.529 11.0807   7
   3  -2 -10 219.386 10.5280  17
   3   2 -10 192.617 11.0562   7
   3   2 -10 220.073 10.3859   9
   3   2 -10 201.466 10.4710  17
   3   2 -10 216.722 10.4712  10
   3   2 -10 233.234 10.5321  11
   3   2 -10 210.721 10.5335  18
   2  -2 -10 233.964 12.7368   3
   2  -2 -10 263.030 12.2352  18
   2  -2 -10 249.560 12.1715  17
   2  -2 -10 251.864 12.6278   2
   2  -2 -10 249.528 12.1554  10
   2  -2 -10 246.253 12.7608   7
   2  -2 -10 260.210 12.0877   9
   2  -2 -10 250.769 12.3140  16
   2   2 -10 237.651 13.1129   4
   2   2 -10 239.668 12.8373   2
   2   2 -10 249.482 12.1426   9
   2   2 -10 242.472 12.6529   7
   2   2 -10 228.651 13.0025   3
   2   2 -10 253.729 12.1721  11
   2   2 -10 254.110 12.2034  18
   2   2 -10 240.522 11.9681   8
   2   2 -10 271.282 12.2121  10
   1  -2 -10 205.572 10.8773   3
   1  -2 -10 210.604 10.7371   2
   1  -2 -10 210.863 10.5758   7
   1  -2 -10 198.188 9.85896   8
   1  -2 -10 212.105 10.0496  10
   1  -2 -10 211.118 10.0086   9
   1  -2 -10 191.561 9.97665  17
   1   2 -10 193.710 10.0318   9
   1   2 -10 202.196 10.8095   2
   1   2 -10 202.226 11.1111   3
   1   2 -10 203.202 9.91478   8
   1   2 -10 205.507 10.4670   7
   1   2 -10 203.514 10.0811  10
   0  -2 -10 319.901 16.3259   8
   0  -2 -10 350.765 16.8667   7
   0  -2 -10 338.342 17.4633   3
   0  -2 -10 344.846 16.4491   9
   0  -2 -10 340.252 16.5145  10
   0  -2 -10 353.487 17.3182   2
   0   2 -10 326.279 16.5626   9
   0   2 -10 342.102 17.3636   2
   0   2 -10 336.304 16.3684   8
   0   2 -10 324.782 17.5988   3
  -1  -2 -10 11.3413 1.05131   8
  -1  -2 -10 12.4084 1.50582   7
  -1   2 -10 12.1766 1.10563   8
   2  -2  10 54.6474 2.89041   8
   3  -2  10 254.022 12.6960   9
   3  -2  10 259.953 12.5930   8
   3   2  10 263.732 12.6328   8
   4  -2  10 34.9071 1.94955   9
   4  -2  10 31.6496 1.95110  10
   4  -2  10 32.3747 1.66484   8
   4  -2  10 32.4221 1.92712  14
   4   2  10 31.6765 1.76946   8
   4   2  10 31.3983 1.89523  13
   4   2  10 32.1841 1.97697   9
   5  -2  10 8.58846 0.77358  14
   5  -2  10 8.93909 0.62479   9
   5  -2  10 7.95726 0.75284  10
   5   2  10 8.55274 0.71974  13
   5   2  10 8.87348 0.95804  10
   5   2  10 9.28198 0.73732   9
   6  -3 -10 37.6458 2.00170  18
   6   3 -10 36.8211 1.95892  11
   5  -3 -10 11.9945 1.20471  17
   5  -3 -10 13.5190 1.09186  18
   5   3 -10 13.4311 1.26496  18
   5   3 -10 12.4535 1.19254  11
   4  -3 -10 90.2463 4.76392  16
   4  -3 -10 88.7048 4.51011  18
   4  -3 -10 87.4445 4.48769  17
   4   3 -10 90.0171 4.51997  11
   4   3 -10 86.3436 4.47117  18
   4   3 -10 83.3018 4.39249  10
   4   3 -10 83.5963 4.46935  17
   3  -3 -10 53.9557 2.69503  10
   3  -3 -10 51.2878 2.85187  18
   3  -3 -10 48.7589 3.48807   7
   3  -3 -10 51.6810 2.80581  17
   3  -3 -10 52.2467 2.99525  16
   3   3 -10 49.8875 2.80048  18
   3   3 -10 53.0474 2.81622  10
   3   3 -10 44.3349 3.87325   4
   3   3 -10 50.9884 2.71509   9
   3   3 -10 54.0453 2.81119  11
   2  -3 -10 389.864 19.1577   7
   2  -3 -10 361.688 19.0066   3
   2  -3 -10 376.526 18.8638   2
   2  -3 -10 385.455 18.4928  17
   2  -3 -10 402.327 18.6499  16
   2  -3 -10 396.237 18.5370  18
   2  -3 -10 388.324 18.4726  10
   2  -3 -10 392.871 18.3928   9
   2   3 -10 384.909 18.3282   8
   2   3 -10 375.317 18.5210  10
   2   3 -10 367.492 19.1955   2
   2   3 -10 387.105 18.4795   9
   2   3 -10 368.524 19.4545   3
   2   3 -10 370.006 18.9558   7
   2   3 -10 372.557 18.4941  18
   2   3 -10 373.740 19.5642   4
   1  -3 -10 55.5717 2.46579   8
   1  -3 -10 47.2225 2.67961  10
   1  -3 -10 48.0175 2.63947  17
   1  -3 -10 47.9893 3.33815   2
   1  -3 -10 49.4313 3.29540   7
   1  -3 -10 50.5832 2.64899   9
   1   3 -10 44.7353 2.72040   9
   1   3 -10 51.7657 2.57092   8
   1   3 -10 45.4676 3.51865   2
   1   3 -10 47.8534 3.78194   3
   1   3 -10 46.5872 2.61908  18
   1   3 -10 44.8484 2.74444  10
   0  -3 -10 53.6313 2.93613  17
   0  -3 -10 57.3236 3.07948  10
   0  -3 -10 58.7702 3.53092   7
   0  -3 -10 56.6312 3.00071   9
   0  -3 -10 55.6428 4.09646   3
   0  -3 -10 54.5349 2.90560   8
   0  -3 -10 58.2946 3.84996   2
   0   3 -10 55.4501 2.93452   8
  -1  -3 -10 795.489 38.1517   8
  -1  -3 -10 790.202 38.6492   7
   2  -3  10 40.9975 2.18418   8
  -2  -3 -10 39.9936 2.34741   8
   3  -3  10 11.1183 1.15465   9
   3  -3  10 12.6900 0.97441   8
   3   3  10 11.1391 1.04834  13
   3   3  10 12.4454 0.94243   8
   4  -3  10 3.85152 0.60497  10
   4  -3  10 4.41647 0.72030  14
   4  -3  10 5.62692 0.88577   9
   4  -3  10 4.09274 0.36785   8
   4   3  10 3.98969 0.66560   9
   4   3  10 4.79102 0.79232  13
   4   3  10 4.08110 0.51515   8
   5  -3  10 52.2867 2.59530   9
   5  -3  10 51.0031 2.67908  10
   5  -3  10 49.9031 2.73166  14
   5   3  10 54.7546 2.71768   9
   5   3  10 51.6336 2.76784  10
   5   3  10 51.0135 2.73605  13
   6  -4 -10 1.02275 0.34326  18
   6   4 -10 0.73993 0.28375  11
   5  -4 -10 7.50844 0.84568  18
   5  -4 -10 6.66971 0.78550  17
   5   4 -10 7.57904 1.02771  18
   5   4 -10 7.29194 0.78180  11
   5   4 -10 7.47075 0.53597  10
   4  -4 -10 75.7344 3.96317  17
   4  -4 -10 81.4586 4.06552  18
   4  -4 -10 76.4532 4.13961  16
   4   4 -10 74.8342 3.90098  10
   4   4 -10 79.7809 3.94845  11
   4   4 -10 74.3981 3.93386  18
   4   4 -10 69.2603 3.87105  17
   3  -4 -10 84.3889 5.43176   7
   3  -4 -10 98.4832 5.16767  16
   3  -4 -10 99.1288 5.01525  18
   3  -4 -10 96.6147 4.92360  17
   3  -4 -10 98.5009 4.78705  10
   3   4 -10 99.3587 4.92073  10
   3   4 -10 96.4355 4.88154   9
   3   4 -10 95.8832 4.90316  18
   3   4 -10 84.3169 5.90411   4
   3   4 -10 102.985 4.98846  11
   2  -4 -10 47.2321 3.17958   3
   2  -4 -10 51.2536 3.55888   7
   2  -4 -10 48.1986 3.06519   2
   2  -4 -10 54.7591 2.75469  10
   2  -4 -10 51.4266 2.90621  16
   2  -4 -10 53.3033 2.90007  18
   2  -4 -10 54.1435 2.78015  17
   2  -4 -10 51.2083 2.63519   9
   2   4 -10 52.3157 2.62872   8
   2   4 -10 52.3244 2.87356  10
   2   4 -10 52.6965 2.82533   9
   2   4 -10 47.4470 3.96765   4
   2   4 -10 44.6362 3.74442   3
   2   4 -10 50.7132 2.75594  18
   2   4 -10 48.7652 3.30441   7
   2   4 -10 47.7713 3.60732   2
   1  -4 -10 8.91058 0.97170  10
   1  -4 -10 7.88096 0.58968   8
   1  -4 -10 8.60518 1.17149   7
   1  -4 -10 8.57677 0.92985   9
   1  -4 -10 7.94546 1.31589   2
   1  -4 -10 10.1637 0.91224  18
   1  -4 -10 9.90261 0.82181  17
   1   4 -10 8.88157 1.14443   9
   1   4 -10 7.73105 1.54112   2
   1   4 -10 8.62627 0.83372  18
   1   4 -10 9.21572 0.88143   8
   1   4 -10 8.49075 1.69585   3
   0  -4 -10 144.927 7.74177  10
   0  -4 -10 154.568 7.69414  17
   0  -4 -10 161.571 7.64208   8
   0  -4 -10 156.845 8.24907   7
   0  -4 -10 157.389 8.54844   2
   0  -4 -10 158.420 7.76660   9
   0   4 -10 156.917 7.70964   8
  -1  -4 -10 61.4350 3.26496  17
  -1  -4 -10 64.9479 3.32037   8
  -1  -4 -10 64.3255 3.92250   7
  -2  -4 -10 104.974 6.07663   7
  -2  -4 -10 106.790 5.58667   8
   2  -4  10 117.952 5.52795   8
   3  -4  10 73.5963 3.65992   8
   3  -4  10 72.2131 3.79981   9
   3   4  10 70.8191 3.75207   8
   4  -4  10 36.3565 2.10618  10
   4  -4  10 37.1480 2.00194   9
   4  -4  10 37.0941 2.19104  14
   4   4  10 36.1315 1.98669   8
   4   4  10 35.5544 2.06532   9
   4   4  10 34.7151 2.02173  13
   5  -4  10 0.29754 0.21218   9
   5  -4  10 0.26728 0.34518  14
   5  -4  10 0.42878 0.29341  10
   5   4  10 -0.0480 0.39372   9
   5   4  10 0.59021 0.31277  13
   5  -5 -10 40.3179 2.23589  18
   5  -5 -10 35.9937 2.12365  17
   5   5 -10 37.3229 2.07753  18
   5   5 -10 43.5498 2.21389  11
   5   5 -10 34.6434 1.93147  10
   4  -5 -10 18.4302 1.50362  18
   4  -5 -10 19.0309 1.48807  17
   4  -5 -10 16.8146 1.49463  16
   4   5 -10 16.6099 1.29802  10
   4   5 -10 15.4613 1.38988  18
   4   5 -10 17.1240 1.41914  11
   3  -5 -10 636.235 30.9475  10
   3  -5 -10 663.733 31.0762  17
   3  -5 -10 666.211 31.0864  18
   3  -5 -10 637.825 31.1902  16
   3   5 -10 625.587 31.0240  18
   3   5 -10 631.585 30.9698   9
   3   5 -10 629.102 31.0430  11
   3   5 -10 654.601 31.0437  10
   2  -5 -10 394.250 18.8268   9
   2  -5 -10 422.983 18.9530  10
   2  -5 -10 376.573 19.1603   2
   2  -5 -10 382.935 18.9898  17
   2  -5 -10 375.416 19.5779   7
   2  -5 -10 409.629 19.0372  18
   2  -5 -10 394.332 19.1278  16
   2   5 -10 362.687 19.7464   2
   2   5 -10 393.223 18.9775  18
   2   5 -10 375.699 20.1713   4
   2   5 -10 384.187 18.9895   9
   2   5 -10 401.708 18.8540   8
   2   5 -10 406.585 19.0406  10
   1  -5 -10 78.5041 3.85619  10
   1  -5 -10 75.4570 4.50047   2
   1  -5 -10 74.7046 3.85424  17
   1  -5 -10 79.2225 4.50542   7
   1  -5 -10 73.1123 3.78929   9
   1  -5 -10 76.5674 3.90745  18
   1  -5 -10 69.3863 4.73597   3
   1   5 -10 73.3150 3.77804   8
   1   5 -10 70.5789 4.87811   2
   1   5 -10 66.5691 4.98314   3
   1   5 -10 69.4031 3.81882  18
   1   5 -10 73.5543 3.94012   9
   0  -5 -10 353.351 16.2518   8
   0  -5 -10 334.410 16.3168  17
   0  -5 -10 338.998 17.1569   2
   0  -5 -10 330.015 16.3858  10
   0  -5 -10 323.099 17.4572   3
   0  -5 -10 337.765 16.3686   9
   0  -5 -10 349.934 16.9224   7
   0   5 -10 321.718 16.3240   8
  -1  -5 -10 49.7221 2.79472   9
   1  -5  10 45.3447 2.58053   8
  -1  -5 -10 53.4234 3.33761   7
  -1  -5 -10 53.7257 2.65381   8
  -1  -5 -10 42.8515 3.71519   3
  -2  -5 -10 32.9155 2.03367   8
   2  -5  10 36.1794 1.96003   8
  -2  -5 -10 32.6083 2.58661   7
   3  -5  10 29.4633 1.83345   9
   3  -5  10 29.0683 1.65892   8
   3   5  10 29.9426 1.72107   8
   4  -5  10 43.6892 2.46218  10
   4  -5  10 45.3759 2.50910  14
   4  -5  10 48.1399 2.44157   9
   4   5  10 42.2962 2.44914   9
   4   5  10 44.4474 2.42295  13
   4   5  10 43.7882 2.37375   8
   5  -5  10 14.6149 1.06465  10
   5  -5  10 13.6611 1.02074  14
   5   5  10 15.2089 0.97912   9
   5   5  10 14.4409 0.96941  13
   5  -6 -10 5.80856 0.75460  17
   5  -6 -10 5.59790 0.73407  18
   5  -6 -10 5.49852 0.91738  16
   5   6 -10 5.30424 0.71380  11
   5   6 -10 5.48431 0.55102  10
   4  -6 -10 5.56750 0.82369  17
   4  -6 -10 5.81538 1.04439  16
   4  -6 -10 6.66879 1.07318  18
   4   6 -10 5.88337 0.93787  18
   4   6 -10 4.54829 0.65107  10
   4   6 -10 5.32503 0.78908  11
   3  -6 -10 177.219 9.23068  16
   3  -6 -10 179.380 8.91129  10
   3  -6 -10 191.077 9.14705  17
   3  -6 -10 193.025 9.13253  18
   3   6 -10 167.360 9.01883  18
   3   6 -10 186.600 9.12761  11
   3   6 -10 179.650 9.10222  10
   3   6 -10 193.601 9.04939   9
   2  -6 -10 3.55874 0.61086   2
   2  -6 -10 2.97342 0.48588  10
   2  -6 -10 2.58664 0.56144  16
   2  -6 -10 3.52447 0.47450   9
   2  -6 -10 3.25327 0.65597  18
   2  -6 -10 3.05652 0.63373  17
   2  -6 -10 4.61441 1.22683   7
   2   6 -10 2.63886 1.55161   4
   2   6 -10 2.81951 0.65799  10
   2   6 -10 3.22757 0.46645   8
   2   6 -10 2.31206 1.18467   2
   2   6 -10 2.20217 0.65242   9
   2   6 -10 3.40809 0.47455  18
   1  -6 -10 216.629 10.2007   9
   1  -6 -10 203.907 11.0005   3
   1  -6 -10 216.085 10.2739  17
   1  -6 -10 214.266 10.2648  18
   1  -6 -10 215.315 10.8901   7
   1  -6 -10 204.777 10.8413   2
   1  -6 -10 213.740 10.2528  10
   1   6 -10 201.066 10.3209   9
   1   6 -10 188.133 11.2985   2
   1   6 -10 188.196 11.3761   3
   1   6 -10 205.177 10.2049  18
   1   6 -10 226.835 10.2136   8
   0  -6 -10 12.9563 1.17939  10
   0  -6 -10 13.4273 1.80908   7
   0  -6 -10 13.3735 0.93765   8
   0  -6 -10 13.4395 1.12765  17
   0  -6 -10 11.4498 2.02140   3
   0  -6 -10 12.7062 1.86697   2
   0  -6 -10 12.4298 1.16287   9
   0   6 -10 13.1710 1.18199   8
  -1  -6 -10 1.74876 1.26570   3
  -1  -6 -10 1.76157 0.36705   8
  -1  -6 -10 1.70868 0.73869   7
  -1  -6 -10 3.18235 1.21174   2
   1  -6  10 1.72799 0.46294   8
   2  -6  10 67.3576 3.21742   8
  -2  -6 -10 58.3193 3.26417   8
   2  -6  10 58.5069 3.31035   9
  -2  -6 -10 61.6445 3.89836   7
   3  -6  10 11.7484 0.96598   8
   3  -6  10 11.7718 0.99163  14
   3  -6  10 11.6969 1.13090   9
   3   6  10 11.9150 0.97589   8
   4  -6  10 19.7217 1.27643  10
   4  -6  10 21.0310 1.32279   9
   4  -6  10 19.5649 1.35828  14
   4   6  10 21.2540 1.29157   8
   4   6  10 21.3961 1.36886   9
   4   6  10 19.4099 1.28516  13
   5  -6  10 12.0937 0.94971  14
   5  -6  10 13.9560 0.88772  10
   5   6  10 15.5238 1.06915   9
   5   6  10 12.9642 1.01171  13
   5  -7 -10 59.5370 3.37437  16
   5  -7 -10 63.3265 3.16431  17
   5  -7 -10 58.2567 3.16682  18
   5   7 -10 63.0652 3.05628  10
   5   7 -10 60.4253 3.14178  11
   4  -7 -10 12.3281 1.04031  17
   4  -7 -10 11.7738 1.01559  18
   4  -7 -10 11.8539 1.23423  16
   4   7 -10 12.5798 1.02422  11
   4   7 -10 12.6692 1.16397  10
   3  -7 -10 485.839 23.7864  10
   3  -7 -10 475.849 24.1047  16
   3  -7 -10 490.317 23.9624  18
   3  -7 -10 520.153 24.0205  17
   3   7 -10 495.878 23.9332   9
   3   7 -10 514.028 23.9994  11
   3   7 -10 484.295 23.9706  10
   2  -7 -10 9.26056 1.03387  16
   2  -7 -10 8.34535 0.94670  17
   2  -7 -10 8.75065 0.89282  18
   2  -7 -10 7.29215 1.39434   7
   2  -7 -10 9.33420 0.87604  10
   2   7 -10 8.76090 1.19553  10
   2   7 -10 8.79031 0.88988   8
   2   7 -10 7.94335 1.20441   9
   2   7 -10 6.48819 1.78843   4
   1  -7 -10 3.16097 0.56685  10
   1  -7 -10 3.35871 0.97849   2
   1  -7 -10 3.51504 0.52001   9
   1  -7 -10 2.94676 0.60564  18
   1  -7 -10 3.00584 0.58087  16
   1  -7 -10 3.71878 1.16962   7
   1  -7 -10 3.45139 0.64587  17
   1   7 -10 4.14355 0.78902   9
   1   7 -10 2.95228 0.58935   8
   0  -7 -10 105.197 5.08685   8
   0  -7 -10 105.627 5.24540  10
   0  -7 -10 107.994 5.25881   9
   0  -7 -10 97.6660 5.98017   2
   0  -7 -10 97.6143 5.85970   7
   0  -7 -10 106.713 5.25840  17
   0  -7 -10 90.9767 6.16318   3
   0   7 -10 106.800 5.25708   8
  -1  -7 -10 3.80320 1.27122   2
  -1  -7 -10 5.75136 1.19451   7
  -1  -7 -10 5.47191 0.80539   8
  -1  -7 -10 4.89023 0.73820   9
   2  -7  10 90.1801 4.76914   9
   2  -7  10 97.6910 4.70928   8
  -2  -7 -10 91.7053 4.77936   8
   2  -7  10 94.4476 4.82534  14
   3  -7  10 -0.6569 0.48163   9
   3  -7  10 -0.0489 0.31337  10
  -3  -7 -10 -0.3233 0.51421   8
   3  -7  10 0.15631 0.33523  14
   3   7  10 0.51580 0.35203   8
   4  -7  10 0.76835 0.53307  14
   4  -7  10 0.90030 0.39598   9
   4  -7  10 0.94143 0.46946  10
   4   7  10 1.64765 0.41497   8
   4   7  10 1.38814 0.57760   9
   4   7  10 1.71014 0.39277  13
   5  -7  10 4.70105 0.49742  10
   5  -7  10 4.32788 0.60379  14
   5   7  10 5.15505 0.57844   9
   5   7  10 4.96981 0.53506  13
   5  -8 -10 283.121 15.2455  17
   5  -8 -10 309.658 15.3631  16
   5   8 -10 341.893 15.2683  11
   5   8 -10 326.012 15.1883  10
   4  -8 -10 18.1471 1.74002  16
   4  -8 -10 17.9970 1.27977  17
   4  -8 -10 19.3597 1.35236  18
   4   8 -10 16.9986 1.23045  10
   4   8 -10 17.1021 1.24029  11
   3  -8 -10 40.0814 2.64272  16
   3  -8 -10 41.6834 2.33995  17
   3  -8 -10 40.5461 2.01193  10
   3  -8 -10 38.0180 2.32455  18
   3   8 -10 41.1019 2.39186   9
   3   8 -10 40.1961 2.30355  10
   3   8 -10 39.8253 2.40301  11
   2  -8 -10 17.2145 1.42196  16
   2  -8 -10 16.8498 1.21469  18
   2  -8 -10 17.5455 1.32246  17
   2  -8 -10 19.4182 1.21933  10
   2   8 -10 17.3663 1.55275   9
   2   8 -10 17.8078 1.26683   8
   1  -8 -10 562.929 29.7485  16
   1  -8 -10 648.386 29.6887  10
   1  -8 -10 587.346 30.2941   7
   1  -8 -10 644.823 29.8443   9
   1  -8 -10 592.897 29.6689  18
   1  -8 -10 640.604 29.7305  17
   1   8 -10 626.373 29.6511   8
   0  -8 -10 290.627 14.1177  10
   0  -8 -10 275.171 14.7038   7
   0  -8 -10 285.475 14.0641   9
   0  -8 -10 295.312 13.9299   8
   0  -8 -10 302.989 14.1194  17
   0   8 -10 280.092 14.0893   8
  -1  -8 -10 223.615 10.9278   9
  -1  -8 -10 230.806 10.7846   8
  -1  -8 -10 214.160 11.5024   7
   1  -8  10 214.544 10.7990   8
   2  -8  10 364.222 16.9081   8
  -2  -8 -10 337.387 16.9548   8
   2  -8  10 348.407 17.0178  14
   2  -8  10 347.886 17.0020   9
   3  -8  10 14.3856 0.85403   8
   3  -8  10 13.3222 1.18734  10
   3  -8  10 14.6735 1.26134  14
   3  -8  10 16.7160 1.09824   9
  -3  -8 -10 12.8268 1.30677   8
   3   8  10 16.1797 1.26278   8
   4  -8  10 126.666 6.10552   9
   4  -8  10 122.062 6.16253  10
   4  -8  10 130.091 6.27805  14
   4   8  10 114.466 6.18349  13
   4   8  10 129.442 6.11639   8
   5  -8  10 3.65073 0.52283  14
   5  -8  10 3.67823 0.50506  10
   5  -9 -10 72.0488 3.64182  17
   5  -9 -10 72.9989 3.77480  16
   5   9 -10 72.0813 3.63856  11
   4  -9 -10 642.118 31.8792  16
   4  -9 -10 676.369 31.7749  17
   4   9 -10 698.390 31.7665  11
   4   9 -10 624.348 31.6281   9
   4   9 -10 654.661 31.7509  10
   3  -9 -10 127.379 6.57869  16
   3  -9 -10 135.935 6.52218  17
   3   9 -10 122.556 6.41622  11
   3   9 -10 126.088 6.45705  10
   3   9 -10 129.633 6.45491   9
   2  -9 -10 168.808 8.63852  17
   2  -9 -10 173.945 8.77465  16
   2  -9 -10 177.171 8.52781  10
   2   9 -10 177.207 8.52848   8
   2   9 -10 171.861 8.69940   9
   1  -9 -10 530.356 25.3058  17
   1  -9 -10 495.710 25.3483  16
   1  -9 -10 539.478 25.2445   9
   1  -9 -10 518.628 25.2343  10
   1   9 -10 527.595 25.2423   8
   0  -9 -10 628.523 29.6095  10
   0  -9 -10 659.140 29.6183  17
   0  -9  10 595.240 29.5831   8
   0  -9 -10 621.843 29.5619   9
   0  -9 -10 598.365 29.4272   8
   0  -9 -10 582.263 30.1995   7
   0   9 -10 601.213 29.5840   8
  -1  -9 -10 22.3974 1.34431   8
   1  -9  10 20.8022 1.32246   8
  -1  -9 -10 20.6177 1.58123   9
   2  -9  10 458.873 21.3560   8
   2  -9  10 448.551 21.4500   9
   2  -9  10 434.940 21.4665  14
  -2  -9 -10 428.978 21.3955   8
   3  -9  10 338.295 15.5405   9
   3  -9  10 336.789 15.6191  14
   3  -9  10 308.501 15.5458  10
  -3  -9 -10 330.310 15.5682   8
   3  -9  10 283.513 15.5272  15
   3   9  10 322.661 15.5484   8
   4  -9  10 66.8840 3.80528  14
   4  -9  10 74.0818 3.67626   9
  -4  -9 -10 76.6904 3.81812   8
   4   9  10 76.4182 3.74386   8
   4   9  10 78.5846 3.84973  13
   5 -10 -10 142.249 7.73432  16
   5  10 -10 163.218 7.65244  11
   5  10 -10 165.671 7.61315  10
   4 -10 -10 208.114 9.64248  17
   4 -10 -10 198.340 9.73647  16
   4  10 -10 183.599 9.47621   9
   4  10 -10 191.690 9.59076  10
   4  10 -10 198.587 9.58802  11
   3 -10 -10 113.402 5.93717  16
   3 -10 -10 116.994 5.80393  17
   3  10 -10 111.326 5.80328  10
   3  10 -10 115.645 5.71116   9
   3  10 -10 111.036 5.72409  11
   2 -10 -10 30.6115 2.07055  16
   2 -10 -10 34.0675 1.88754  10
   2 -10 -10 32.7143 2.10921  17
   2  10 -10 33.7858 1.94016   8
   2  10 -10 34.2702 2.26312   9
   1 -10 -10 18.3869 1.19521   9
   1 -10 -10 17.5991 1.30773  17
   1 -10 -10 19.0143 1.34116  10
   1 -10 -10 15.8989 1.49794  16
   1  10 -10 16.5874 1.46774   8
   0 -10 -10 22.6798 1.47030  17
   0 -10 -10 22.3573 1.50202   9
   0 -10  10 22.4683 1.51077   8
   0 -10 -10 20.2562 1.43520  10
   0  10 -10 25.1303 1.72139   8
  -1 -10 -10 40.8870 2.18096   8
  -1 -10 -10 40.2471 2.41960   9
  -1 -10 -10 40.7757 2.28798  17
   1 -10  10 41.8432 2.21387   8
   2 -10  10 16.6188 1.10220   8
  -2 -10 -10 17.9808 1.54421   9
   2 -10  10 15.3851 1.09640  14
  -2 -10 -10 18.0220 1.22584   8
   2 -10  10 16.0510 1.35027   9
   3 -10  10 145.099 7.15233  14
   3 -10  10 151.815 7.06032   9
   3 -10  10 142.350 7.12153  10
  -3 -10 -10 142.838 7.10595   8
   3 -10  10 128.309 7.07405  15
   3  10  10 148.932 7.12237   8
   4 -10  10 37.4616 1.96167  14
   4 -10  10 35.5834 1.95026  10
  -4 -10 -10 35.6564 2.03346   8
   4 -10  10 32.1987 1.73543   9
   4  10  10 34.6406 1.93611  13
   4  10  10 37.2996 1.91390   8
   4 -11 -10 364.009 19.1414  17
   4 -11 -10 412.028 19.2764  16
   4  11 -10 404.075 19.1535  10
   4  11 -10 390.276 19.0421   9
   4  11 -10 411.248 19.1406  11
   3 -11 -10 17.0237 1.23895  17
   3 -11 -10 16.0104 1.62852  16
   3  11 -10 15.3404 1.23461  10
   3  11 -10 17.5214 1.44457   9
   3  11 -10 16.9488 1.21031  11
   2 -11 -10 170.252 8.00206  10
   2 -11 -10 169.324 8.14185  17
   2 -11 -10 155.715 8.21177  16
   2  11 -10 160.813 8.03375   8
   2  11 -10 161.270 8.15972   9
   1 -11 -10 5.95407 1.14248  16
   1 -11 -10 7.69979 1.17657  17
   1 -11 -10 8.13021 0.96105  10
   1 -11 -10 6.75260 0.71292   9
   1  11 -10 7.40734 1.16423   8
   0 -11  10 75.1080 3.71021   8
   0 -11 -10 69.7752 3.68060   9
   0 -11 -10 66.9886 3.68914  10
   0 -11 -10 74.4165 3.78022  17
   0  11 -10 68.0314 3.80545   8
  -1 -11 -10 44.8672 2.61948   9
   1 -11  10 45.3552 2.42906   8
  -1 -11 -10 45.7854 2.59676  17
   1 -11  10 49.6010 2.70830   9
  -1 -11 -10 44.9042 2.37486   8
   2 -11  10 2.82265 0.61016   9
  -2 -11 -10 3.14086 0.71262   9
   2 -11  10 4.24479 0.55961   8
   3 -11  10 113.634 5.96179  10
  -3 -11 -10 127.079 5.98039   8
   3 -11  10 126.569 5.94540   9
   3 -11  10 108.514 5.97766  15
   3 -11  10 119.005 5.98220  14
   3  11  10 125.253 6.00456   8
   4 -11  10 0.32559 0.27115  14
  -4 -11 -10 -0.1866 0.29913   8
   4 -11  10 -0.0747 0.25033  10
   4  11  10 0.05120 0.39270  13
   4  11  10 -0.0362 0.22262   8
   4 -12 -10 3.86114 0.69474  16
   4 -12 -10 5.26720 0.74738  17
   4  12 -10 5.36062 0.74853  11
   4  12 -10 5.06518 0.44520   9
   4  12 -10 5.97584 0.66682  10
   3 -12 -10 339.135 15.9860  17
   3 -12 -10 326.689 16.1004  16
   3  12 -10 323.378 15.9818   9
   3  12 -10 327.047 15.9538  11
   2 -12 -10 44.9473 2.48409  17
   2 -12 -10 41.9070 2.20243  10
   2 -12 -10 40.8080 2.48060  16
   2  12 -10 41.4839 2.35551  11
   2  12 -10 39.9253 2.45085   9
   2  12 -10 44.6820 2.34568   8
   1 -12 -10 682.065 35.0927   9
   1 -12 -10 698.497 35.3530  16
   1 -12 -10 759.391 35.3177  17
   1 -12 -10 775.778 35.3525  10
   1  12 -10 745.439 35.2697   8
   0 -12  10 180.703 8.96746   8
   0 -12 -10 189.514 9.06923  17
   0 -12 -10 189.332 8.98197   9
   0 -12 -10 169.651 9.01150  10
   0  12 -10 185.099 9.07972   8
  -1 -12 -10 0.79055 0.51426  17
  -1 -12 -10 1.16745 0.52397  10
   1 -12  10 -0.0460 0.52058   9
  -1 -12 -10 1.03693 0.55026   9
  -1 -12 -10 0.94917 0.25657   8
  -2 -12 -10 443.505 21.0323   8
  -2 -12 -10 416.367 21.1760   9
   2 -12  10 440.531 21.1691  15
   2 -12  10 433.771 20.9511   8
   2 -12  10 448.172 21.1156   9
   3 -12  10 72.5951 3.48116   9
  -3 -12 -10 70.9207 3.53609   8
   3 -12  10 64.3541 3.52239  15
   3 -12  10 67.6105 3.52206  10
   3  12  10 70.5778 3.56866   8
   4 -12  10 50.0079 2.73823  10
  -4 -12 -10 56.3038 2.80624   8
   4  12  10 54.5931 2.79082  13
   4  12  10 58.1272 2.73708   8
   4 -13 -10 2.76864 0.44305  16
   3 -13 -10 158.420 8.03216  16
   3 -13 -10 159.458 7.93247  17
   3  13 -10 165.533 7.93962   9
   3  13 -10 161.890 7.92882  11
   2 -13 -10 27.7122 1.68741  17
   2 -13 -10 24.6310 1.36704  10
   2 -13 -10 23.6328 1.68691  16
   2  13 -10 24.5657 1.67329   9
   2  13 -10 27.0479 1.56636   8
   2  13 -10 26.6291 1.56331  11
   1 -13 -10 29.0803 1.61277  10
   1 -13 -10 25.4853 1.73686  16
   1 -13 -10 28.5999 1.72688  17
  -1 -13  10 27.5445 1.75010   8
   1  13 -10 29.8030 1.90367   8
   0 -13  10 3.75984 0.45542   8
   0 -13 -10 3.01052 0.62014  17
   0 -13 -10 2.74274 0.56226  10
   0 -13 -10 4.02244 0.70006   9
   0  13 -10 2.76135 0.56391   8
   1 -13  10 6.88148 0.78192   8
   1 -13  10 6.39256 1.02579   9
  -1 -13 -10 7.62478 0.84570  10
  -1 -13 -10 7.80220 0.83304   9
  -1 -13 -10 7.73606 0.80260  17
  -2 -13 -10 19.8213 1.38766  17
   2 -13  10 18.8597 1.40046  15
  -2 -13 -10 19.6147 1.14732   8
  -2 -13 -10 20.1335 1.56672   9
   2 -13  10 20.6640 1.35555   9
   3 -13  10 13.3793 0.96785  10
   3 -13  10 14.9715 0.95698  15
  -3 -13 -10 14.9084 1.00282   8
   3 -13  10 15.2034 0.88871   9
   3  13  10 15.0952 0.99178   8
   3 -14 -10 26.5733 1.47835  17
   3  14 -10 26.2584 1.52600  11
   2 -14 -10 45.3444 2.57878  16
   2 -14 -10 50.5467 2.51286  17
   2  14 -10 45.2999 2.58542   9
   2  14 -10 45.7416 2.44103   8
   1 -14 -10 26.1223 1.71925  17
   1 -14 -10 26.7814 1.49673  10
   1 -14 -10 23.9492 1.76710  16
  -1 -14  10 27.0801 1.64818   8
   1  14 -10 28.7042 1.79659   8
   0 -14 -10 1.65950 0.43480  17
   0 -14  10 1.27892 0.47008   8
   0 -14 -10 2.36280 0.42716  10
   0 -14 -10 1.80679 0.35663   9
   0  14 -10 3.14032 0.54807   8
   1 -14  10 0.62774 0.38643   9
  -1 -14 -10 0.32469 0.35178  17
  -1 -14 -10 1.25777 0.52625  10
  -1 -14 -10 0.57251 0.34599   9
  -2 -14 -10 1.07089 0.41522   9
   2 -14  10 1.07145 0.43176   9
   2 -14  10 0.41484 0.33639  15
  -2 -14 -10 1.10559 0.36438  17
   3 -14  10 1.74683 0.30544  10
  -3 -14 -10 0.88647 0.31827  17
  -3 -14 -10 1.12540 0.24322   8
   3 -14  10 1.31803 0.29614  15
   3  14  10 1.65431 0.31439   8
   3  15 -10 118.813 5.81925   9
   2 -15 -10 0.07658 0.31525  17
  -2 -15  10 -0.1043 0.36157   8
   2 -15 -10 -0.0268 0.34987  16
   2  15 -10 -0.0048 0.28132  11
   2  15 -10 -0.4308 0.32393   8
   2  15 -10 -0.4502 0.62366   9
   1 -15 -10 0.77682 0.37033  17
   1 -15 -10 0.20469 0.33808  10
   1 -15 -10 0.09427 0.48907  16
   1  15 -10 0.76964 0.43154   8
   0 -15 -10 90.5011 4.88862  17
   0 -15 -10 100.520 4.87492  10
   0  15 -10 101.142 4.97733   8
  -1 -15 -10 10.7488 0.90856   9
   1 -15  10 9.95751 0.85732   9
  -1 -15 -10 9.69945 1.06684  10
  -1 -15 -10 10.4057 0.84722  17
   1 -15  10 10.7955 0.87032  15
   2 -15  10 10.4352 0.82662  10
  -2 -15 -10 13.4165 0.85657  17
   2 -15  10 12.9345 0.86838   9
   2 -15  10 11.8331 0.87284  15
  -2 -15 -10 10.7576 1.03323   9
  -2 -16  10 7.05090 0.58063   8
   2 -16 -10 6.54005 0.73563  16
   2  16 -10 6.70913 0.49370   8
  -1 -16  10 225.795 11.7442  15
   1 -16 -10 251.618 11.7647  17
   1 -16 -10 249.576 11.6944  10
   0 -16  10 207.397 10.6459   9
   0 -16  10 226.196 10.5270   8
   0  16 -10 221.318 10.6749   8
   1 -16  10 80.6014 3.65718   9
  -1 -16 -10 67.4249 3.63459  10
   1 -16  10 60.3912 3.62343  15
  -1 -16 -10 80.1385 3.64855  17
   2 -16  10 64.8340 3.17214   9
  -2 -16 -10 61.5350 3.22136   9
  -2 -16 -10 67.2955 3.25466  17
   2 -16  10 65.2642 3.27042  15
   5   0 -11 -0.1071 0.40401  17
   5   0 -11 -0.5612 0.40241  18
   5   0 -11 0.34665 0.28941  11
   4   0 -11 0.00735 0.45768  18
   4   0 -11 -0.2809 0.50403  11
   4   0 -11 0.00576 0.31864  10
   4   0 -11 0.72962 0.45568  17
   3   0 -11 -0.0152 0.40543  10
   3   0 -11 -0.2613 0.43111  11
   3   0 -11 0.16269 0.36052  17
   3   0 -11 -0.3716 0.42451  18
   2   0 -11 0.40102 0.50489  10
   2   0 -11 -0.3650 0.44947   9
   2   0 -11 0.10763 0.41758  11
   2   0 -11 0.14110 0.59820  18
   2   0 -11 1.16594 0.93313   7
   2   0 -11 0.65551 0.35086  17
   2   0 -11 -0.2406 0.77184   2
   1   0 -11 0.91854 0.97556   7
   1   0 -11 1.59907 1.03557   2
   1   0 -11 0.84005 0.40869   8
   1   0 -11 -0.0970 0.40607  18
   1   0 -11 0.51603 1.02383   3
   1   0 -11 0.54209 0.55502   9
   1   0 -11 2.10169 0.62794  10
   0   0 -11 -0.4643 1.00178   2
   0   0 -11 0.75699 0.85590   3
   0   0 -11 0.22086 0.56508   9
   0   0 -11 0.02663 0.29366   8
  -1   0 -11 0.05978 0.49520   8
   2   0  11 0.14318 0.31689   8
   3   0  11 0.31816 0.44113   8
   4   0  11 0.55467 0.48826   9
   4   0  11 0.20819 0.25850   8
   5   0  11 0.23949 0.44247  14
   5  -1 -11 14.5626 0.95886  11
   5  -1 -11 15.9150 1.05847  17
   5  -1 -11 17.3336 1.16098  18
   5   1 -11 12.6683 0.99924  17
   5   1 -11 15.8917 1.01804  11
   5   1 -11 17.4569 1.31269  18
   4  -1 -11 335.484 15.6311  18
   4  -1 -11 303.742 15.5342  11
   4  -1 -11 307.694 15.4114  10
   4  -1 -11 338.647 15.6141  17
   4   1 -11 327.702 15.4760  10
   4   1 -11 307.987 15.5585  11
   4   1 -11 301.710 15.5481  17
   4   1 -11 341.285 15.6457  18
   3  -1 -11 57.6402 3.07304  17
   3  -1 -11 60.4360 3.15981  18
   3  -1 -11 60.5631 3.04324  10
   3   1 -11 52.9473 3.08024  17
   3   1 -11 59.2261 3.22050  18
   3   1 -11 57.6520 3.02762  10
   3   1 -11 53.3644 3.02310  11
   3   1 -11 60.4643 2.90406   9
   2  -1 -11 1.63450 0.46798   9
   2  -1 -11 1.01113 0.61611  16
   2  -1 -11 3.34719 1.10023   7
   2  -1 -11 1.78564 0.41962  10
   2  -1 -11 1.96424 0.41474  17
   2  -1 -11 1.53792 0.64304  18
   2   1 -11 1.61334 0.73538   7
   2   1 -11 1.45670 0.52308   9
   2   1 -11 2.14166 0.64812  18
   2   1 -11 1.77020 0.55966  10
   2   1 -11 1.85592 0.49023  11
   1  -1 -11 295.343 15.5365   7
   1  -1 -11 312.064 15.0209   9
   1  -1 -11 313.332 14.8602   8
   1  -1 -11 331.015 15.0612  18
   1  -1 -11 280.987 15.9099   3
   1  -1 -11 299.136 15.0605  10
   1   1 -11 321.724 15.1014  10
   1   1 -11 288.409 15.7997   2
   1   1 -11 313.875 15.0447   9
   1   1 -11 322.702 14.8951   8
   1   1 -11 292.875 16.0556   3
   1   1 -11 302.231 15.5345   7
   1   1 -11 324.364 15.0619  18
   0  -1 -11 15.3904 2.25404   3
   0  -1 -11 15.1843 1.35995   9
   0  -1 -11 14.0872 1.75827   7
   0  -1 -11 13.6196 2.11095   2
   0  -1 -11 15.8313 1.13415   8
   0   1 -11 14.6915 1.96074   3
   0   1 -11 14.0216 1.20912   9
   0   1 -11 14.0431 1.15275   8
   0   1 -11 15.3132 1.87756   2
  -1  -1 -11 12.4899 1.13121   8
  -1   1 -11 13.3491 1.18409   8
  -2  -1 -11 229.658 10.9347   8
   2  -1  11 217.456 10.7968   8
   2   1  11 215.568 10.8100   8
   3  -1  11 43.4238 2.56913   9
   3  -1  11 45.2541 2.43284   8
   3   1  11 46.2887 2.40819   8
   4  -1  11 29.1530 1.86112  14
   4  -1  11 29.6189 1.56215   8
   4  -1  11 31.6431 1.83964   9
   4   1  11 30.1269 1.84261   9
   4   1  11 30.1169 1.61671   8
   5  -1  11 51.6507 2.77459  10
   5  -1  11 58.7896 2.72508   9
   5  -1  11 54.9548 2.80271  14
   5   1  11 54.1333 2.79454  10
   5   1  11 53.7020 2.72176   9
   5   1  11 50.0210 2.76995  14
   5  -2 -11 33.9758 1.98042  18
   5  -2 -11 30.8191 1.90358  17
   5   2 -11 37.2063 1.97234  18
   5   2 -11 37.2352 1.98315  11
   4  -2 -11 24.0770 1.69905  17
   4  -2 -11 25.5176 1.61802  18
   4   2 -11 26.1298 1.60264  18
   4   2 -11 25.0852 1.52657  11
   4   2 -11 23.0771 1.44427  10
   4   2 -11 23.5980 1.48502  17
   3  -2 -11 30.4443 2.10963  18
   3  -2 -11 30.4811 1.96924  17
   3  -2 -11 31.9436 2.05137  16
   3  -2 -11 30.8385 1.79229  10
   3   2 -11 32.3124 1.93389  11
   3   2 -11 31.2936 1.89355  10
   3   2 -11 31.6275 1.73988   9
   3   2 -11 31.9976 1.92917  18
   2  -2 -11 28.5043 1.88385  18
   2  -2 -11 25.9003 2.48208   7
   2  -2 -11 25.8820 1.73044  17
   2  -2 -11 23.3467 1.85911  16
   2  -2 -11 28.9875 1.71627  10
   2  -2 -11 26.7723 1.62914   9
   2   2 -11 24.5160 2.06769   7
   2   2 -11 26.2656 1.69515   9
   2   2 -11 25.3368 1.79792  18
   2   2 -11 25.9316 1.67909  11
   2   2 -11 25.6001 1.75532  10
   1  -2 -11 159.179 7.38852   8
   1  -2 -11 156.568 7.58036   9
   1  -2 -11 157.239 7.60350  10
   1  -2 -11 148.420 8.17441   7
   1  -2 -11 145.186 7.52165  17
   1  -2 -11 138.895 8.46517   3
   1  -2 -11 145.191 8.29882   2
   1  -2 -11 161.772 7.61937  18
   1   2 -11 144.384 7.65220  10
   1   2 -11 158.656 7.62286  18
   1   2 -11 161.049 7.47082   8
   1   2 -11 145.731 8.47223   2
   1   2 -11 145.778 8.71975   3
   1   2 -11 155.798 7.63269   9
   0  -2 -11 271.732 12.9098   9
   0  -2 -11 252.323 13.8158   2
   0  -2 -11 272.789 12.7618   8
   0  -2 -11 265.126 13.3592   7
   0  -2 -11 233.888 13.9204   3
   0   2 -11 274.214 12.8027   8
   0   2 -11 263.601 12.9348   9
  -1  -2 -11 0.17560 0.50427   8
  -1   2 -11 0.35658 0.56577   8
   2  -2  11 435.790 20.9548   8
  -2  -2 -11 430.584 21.0190   8
   3  -2  11 6.87661 1.01970   9
   3  -2  11 8.53815 0.84059   8
   3   2  11 7.24644 0.95176   8
   4  -2  11 8.68712 1.03197   9
   4  -2  11 9.35736 1.01244  14
   4  -2  11 8.99500 0.60736   8
   4   2  11 9.63347 0.76848   8
   4   2  11 9.84184 0.87988   9
   5  -2  11 7.05200 0.56602   9
   5  -2  11 6.99001 0.81695  10
   5  -2  11 7.24148 0.64766  14
   5   2  11 6.85083 0.61833   9
   5   2  11 6.51709 0.67233  10
   5   2  11 6.29771 0.57124  14
   5  -3 -11 36.9961 2.06293  17
   5  -3 -11 37.7565 2.09614  18
   5   3 -11 37.3561 2.04629  11
   5   3 -11 38.7059 2.08388  18
   4  -3 -11 196.186 9.48445  18
   4  -3 -11 191.779 9.45514  17
   4   3 -11 186.074 9.40147  11
   4   3 -11 191.191 9.34361  10
   4   3 -11 191.438 9.44202  18
   3  -3 -11 79.8060 4.12413  10
   3  -3 -11 85.8057 4.36660  18
   3  -3 -11 80.9973 4.28191  17
   3   3 -11 82.2690 4.13196   9
   3   3 -11 81.2271 4.26620  11
   3   3 -11 79.1902 4.18990  10
   3   3 -11 84.3757 4.31725  18
   2  -3 -11 99.1973 4.81549  18
   2  -3 -11 91.0680 4.73316  17
   2  -3 -11 87.7203 5.47211   7
   2  -3 -11 97.8219 4.62928   9
   2  -3 -11 98.4913 4.75753  10
   2  -3 -11 87.4662 4.89297  16
   2   3 -11 92.6794 4.72988  11
   2   3 -11 95.7624 4.76163   9
   2   3 -11 89.9180 4.50726   8
   2   3 -11 91.8382 4.75437  18
   2   3 -11 82.1964 5.75147   4
   2   3 -11 94.4379 4.82233  10
   1  -3 -11 515.228 24.6408   8
   1  -3 -11 513.041 24.8377  17
   1  -3 -11 486.704 25.5444   2
   1  -3 -11 559.951 24.9210  18
   1  -3 -11 520.880 25.4642   7
   1  -3 -11 549.872 24.8995  10
   1  -3 -11 527.447 24.8381   9
   1   3 -11 462.702 26.0050   3
   1   3 -11 471.391 25.7416   2
   1   3 -11 526.889 24.8722  18
   1   3 -11 520.891 24.7583   8
   1   3 -11 527.321 24.9297  10
   1   3 -11 523.615 24.8973   9
   1   3 -11 479.481 25.9345   4
   0  -3 -11 0.41482 1.04212   2
   0  -3 -11 1.32949 1.16852   3
   0  -3 -11 1.38310 0.43565  17
   0  -3 -11 2.11105 0.93246   7
   0  -3 -11 0.87190 0.57723   9
   0  -3 -11 1.71301 0.57601  10
   0   3 -11 1.43560 0.38237   8
  -1  -3 -11 544.797 25.1763   8
  -1   3 -11 497.372 25.2058   8
  -2  -3 -11 18.3429 1.44449   8
   2  -3  11 17.2152 1.31412   8
   3  -3  11 0.41469 0.38099   8
   3  -3  11 0.50851 0.50117   9
   3   3  11 0.58104 0.47263   8
   4  -3  11 18.2304 1.34433   9
   4  -3  11 19.9683 1.27173  14
   4  -3  11 16.7623 1.24345  10
   4   3  11 17.8013 1.14086   8
   4   3  11 19.2882 1.26821   9
   5  -3  11 19.9913 1.23894  14
   5  -3  11 21.2396 1.11366   9
   5  -3  11 21.0946 1.30605  10
   5   3  11 21.1198 1.28335   9
   5  -4 -11 140.813 6.69775  18
   5  -4 -11 130.167 6.64006  17
   5   4 -11 129.463 6.64712  18
   5   4 -11 137.856 6.63941  11
   4  -4 -11 259.180 12.5882  16
   4  -4 -11 257.131 12.4274  17
   4  -4 -11 257.647 12.4165  18
   4   4 -11 248.670 12.3973  18
   4   4 -11 240.665 12.3257  10
   4   4 -11 259.029 12.3948  11
   3  -4 -11 23.7401 1.72208  17
   3  -4 -11 22.9591 1.42116  10
   3  -4 -11 26.4868 1.65976  18
   3   4 -11 24.5937 1.71668  18
   3   4 -11 26.0016 1.72937  11
   3   4 -11 25.0342 1.66417  10
   3   4 -11 25.0958 1.52488   9
   2  -4 -11 43.5123 2.47085  17
   2  -4 -11 40.2475 2.47289  16
   2  -4 -11 44.1826 2.55853  18
   2  -4 -11 44.1398 2.23555   9
   2  -4 -11 38.2533 3.15416   7
   2  -4 -11 43.8695 2.39254  10
   2   4 -11 35.8287 3.46763   4
   2   4 -11 45.3275 2.46959   9
   2   4 -11 41.5810 2.16690   8
   2   4 -11 42.9041 2.37650  18
   2   4 -11 42.0256 2.48803  10
   1  -4 -11 326.980 15.6276  17
   1  -4 -11 318.278 16.2539   7
   1  -4 -11 344.376 15.6132   9
   1  -4 -11 338.204 15.6913  18
   1  -4 -11 330.808 15.6636  10
   1  -4 -11 308.686 16.3128   2
   1   4 -11 289.332 16.5768   2
   1   4 -11 323.693 15.5432   8
   1   4 -11 316.126 15.6303  18
   1   4 -11 329.902 15.6938   9
   1   4 -11 296.208 16.7929   4
   0  -4 -11 7.53049 1.59150   3
   0  -4 -11 10.9777 0.98273  10
   0  -4 -11 9.71305 1.36667   7
   0  -4 -11 9.40067 1.13855   9
   0  -4 -11 9.28511 1.57311   2
   0  -4 -11 10.5882 0.98544  17
   0  -4 -11 10.6480 0.87478   8
   0   4 -11 11.0283 1.05820   8
  -1  -4 -11 1.22458 0.43240  17
  -1  -4 -11 1.08764 0.49444   8
  -1  -4 -11 1.13908 0.64400   9
  -1  -4 -11 0.76737 0.85826   7
  -1   4 -11 0.58621 0.58193   8
   2  -4  11 3.02851 0.53886   8
  -2  -4 -11 3.10683 0.50673   8
   3  -4  11 23.0070 1.60763   9
   3  -4  11 23.8865 1.41772   8
   3   4  11 23.1057 1.54377   8
   4  -4  11 24.2524 1.59084  14
   4  -4  11 21.2447 1.41344  10
   4  -4  11 22.6649 1.49260   9
   4   4  11 24.9699 1.39020   8
   4   4  11 24.4119 1.61792   9
   5  -4  11 57.1763 3.01163  14
   5   4  11 59.9363 2.99355   9
   5  -5 -11 0.69106 0.52468  18
   5  -5 -11 -0.3586 0.40119  17
   5   5 -11 0.26340 0.31312  18
   5   5 -11 -0.1646 0.32367  11
   4  -5 -11 223.209 10.8646  18
   4  -5 -11 216.362 10.8500  17
   4  -5 -11 225.840 11.0475  16
   4   5 -11 224.803 10.8100  10
   4   5 -11 203.724 10.8146  18
   4   5 -11 235.371 10.8839  11
   3  -5 -11 19.2460 1.49434  16
   3  -5 -11 18.7723 1.16056  10
   3  -5 -11 19.6378 1.49751  17
   3  -5 -11 19.1090 1.37514  18
   3   5 -11 19.1774 1.42365   9
   3   5 -11 18.8684 1.33352  11
   3   5 -11 16.9113 1.26789  18
   3   5 -11 17.0248 1.44633  10
   2  -5 -11 25.0249 1.54496  17
   2  -5 -11 23.0902 1.53229  10
   2  -5 -11 25.3186 1.77490  18
   2  -5 -11 22.8291 1.31650   9
   2  -5 -11 22.1759 1.79995  16
   2   5 -11 17.7763 2.63985   4
   2   5 -11 25.6286 1.64848  18
   2   5 -11 22.5716 1.71476  10
   2   5 -11 24.8351 1.70232   9
   2   5 -11 24.6701 1.38579   8
   1  -5 -11 732.154 34.6736  18
   1  -5 -11 740.219 34.6652  10
   1  -5 -11 761.695 34.7990   9
   1  -5 -11 696.003 35.2489   7
   1  -5 -11 758.030 34.6559  17
   1   5 -11 672.358 35.8750   4
   1   5 -11 704.281 34.6976   9
   1   5 -11 641.720 35.6408   2
   1   5 -11 751.167 34.5713   8
   1   5 -11 720.609 34.6312  18
   0  -5 -11 130.784 6.32253   9
   0  -5 -11 120.233 6.78751   7
   0  -5 -11 114.957 7.10371   2
   0  -5 -11 125.659 6.25874  17
   0  -5 -11 125.715 6.34305  10
   0  -5 -11 127.800 6.14198   8
   0   5 -11 124.865 6.26480   8
  -1  -5 -11 162.965 7.63136   8
  -1  -5 -11 152.794 7.64454  17
  -1  -5 -11 147.616 7.75693   9
   1  -5  11 154.249 7.63678   8
  -1  -5 -11 145.028 8.22040   7
  -1   5 -11 160.438 7.77942   8
  -2  -5 -11 87.8017 4.70938  17
   2  -5  11 95.2507 4.70756   8
  -2  -5 -11 95.6867 4.78734   8
   3  -5  11 132.520 6.62772   8
   3  -5  11 135.895 6.76522   9
  -3  -5 -11 137.444 6.80582   8
   3  -5  11 135.189 6.80174  14
   3   5  11 135.142 6.70116   8
   4  -5  11 7.73084 0.91039   9
   4  -5  11 7.67286 0.77080  10
   4  -5  11 8.05666 0.83645  14
   4   5  11 8.00190 1.08357   9
   4   5  11 7.14367 0.68742  13
   4   5  11 8.89316 0.78038   8
   5  -5  11 50.1687 2.59065  10
   5   5  11 52.1430 2.63652   9
   5  -6 -11 121.347 6.49512  18
   5  -6 -11 136.405 6.54938  17
   5   6 -11 148.879 6.54923  11
   5   6 -11 123.571 6.37349  10
   4  -6 -11 4.25827 0.56494  18
   4  -6 -11 3.49957 0.70430  17
   4  -6 -11 3.08284 0.82409  16
   4   6 -11 3.39844 0.52042  11
   4   6 -11 3.98901 0.65425  10
   3  -6 -11 1.50638 0.49356  17
   3  -6 -11 1.02565 0.52595  16
   3  -6 -11 1.75910 0.48728  18
   3  -6 -11 1.09257 0.31313  10
   3   6 -11 1.61307 0.53477   9
   3   6 -11 1.45156 0.46775  10
   3   6 -11 1.91581 0.65674  11
   3   6 -11 0.64179 0.54600  18
   2  -6 -11 484.261 24.4531  16
   2  -6 -11 534.001 24.3904  18
   2  -6 -11 499.288 24.2887  10
   2  -6 -11 540.611 24.3884  17
   2   6 -11 494.364 24.3951  10
   2   6 -11 517.632 24.3665   9
   2   6 -11 454.174 24.2877  18
   2   6 -11 500.613 24.1897   8
   1  -6 -11 56.5545 2.95766  10
   1  -6 -11 54.2862 2.86530   9
   1  -6 -11 52.8569 3.49277   7
   1  -6 -11 55.0302 2.90005  17
   1  -6 -11 55.9009 3.00791  18
   1   6 -11 50.4397 2.90317  18
   1   6 -11 55.2097 2.88836   8
   1   6 -11 53.1297 3.09329   9
   1   6 -11 45.4716 4.24499   4
   0  -6 -11 745.446 36.9922  17
   0  -6 -11 730.645 37.5775   7
   0  -6 -11 760.873 37.0631  10
   0  -6 -11 769.018 37.0249   8
   0  -6 -11 822.947 37.1694   9
   0   6 -11 778.164 36.9886   8
  -1  -6 -11 44.9926 3.11538   7
  -1  -6 -11 47.9723 2.57638   8
   1  -6  11 45.7997 2.59181   8
  -1  -6 -11 48.5017 2.56891  17
  -1  -6 -11 48.5153 2.77958   9
   2  -6  11 551.275 26.3977   8
  -2  -6 -11 544.025 26.4470   8
  -3  -6 -11 1.23806 0.41587   8
   3  -6  11 0.08233 0.34036  14
   3  -6  11 0.46650 0.30523   8
   3  -6  11 0.48504 0.37899   9
   3   6  11 0.54418 0.35192   8
   4  -6  11 158.911 7.64208  14
   4  -6  11 146.018 7.53875  10
   4  -6  11 163.144 7.51827   9
   4   6  11 143.755 7.53337  13
   4   6  11 150.900 7.58081   9
   4   6  11 157.451 7.48329   8
   5  -6  11 62.1949 3.16439  14
   5   6  11 62.3166 3.10918   9
   5  -7 -11 16.3818 1.09533  17
   5   7 -11 11.6442 0.91235  11
   5   7 -11 15.0095 0.77872  10
   4  -7 -11 128.894 6.63557  18
   4  -7 -11 134.465 6.63036  17
   4  -7 -11 127.073 6.74431  16
   4   7 -11 135.028 6.61140  11
   4   7 -11 140.349 6.61732  10
   3  -7 -11 25.0938 1.77052  16
   3  -7 -11 25.7292 1.75386  18
   3  -7 -11 24.5581 1.33982  10
   3  -7 -11 26.6023 1.62721  17
   3   7 -11 26.7213 1.77461  11
   3   7 -11 26.5197 1.77860  10
   3   7 -11 24.5212 1.66534   9
   2  -7 -11 2.15085 0.46388  10
   2  -7 -11 1.98641 0.49750  17
   2  -7 -11 2.87783 0.50454  18
   2  -7 -11 1.10871 0.66837  16
   2   7 -11 2.32470 0.41125   8
   2   7 -11 2.67615 0.68172  10
   2   7 -11 2.13417 0.72392   9
   1  -7 -11 15.0831 1.25397  10
   1  -7 -11 15.5365 1.33697  17
   1  -7 -11 13.9607 1.29397  18
   1  -7 -11 14.8528 1.13237   9
   1   7 -11 15.2771 1.26282   8
   1   7 -11 14.6615 1.53421   9
   0  -7 -11 32.3575 1.90336  17
   0  -7 -11 32.4977 1.70912   8
   0  -7 -11 30.6375 1.89977   9
   0  -7 -11 32.1788 2.05602  10
   0   7 -11 35.5751 2.08692   8
  -1  -7 -11 202.861 10.1419  17
   1  -7  11 205.763 10.1253   8
  -1  -7 -11 205.888 10.2383   9
  -1  -7 -11 211.235 10.0902   8
   2  -7  11 135.914 6.93951  14
   2  -7  11 131.577 6.90886   9
   2  -7  11 139.606 6.83797   8
  -2  -7 -11 146.315 6.91015   8
   3  -7  11 1.18097 0.39928  14
   3  -7  11 0.94607 0.25793   8
   3  -7  11 1.33060 0.52456   9
  -3  -7 -11 1.21662 0.41913   8
   3   7  11 1.11316 0.38713   8
  -4  -7 -11 51.1230 2.77677   8
   4  -7  11 52.6664 2.62038   9
   4  -7  11 51.2130 2.75915  14
   4  -7  11 51.4990 2.70951  10
   4   7  11 49.2554 2.64245  13
   4   7  11 48.6268 2.57169   8
   5  -8 -11 3.54916 0.51063  17
   5   8 -11 4.32667 0.52600  11
   4  -8 -11 92.7645 4.99157  16
   4  -8 -11 103.119 4.88484  17
   4  -8 -11 93.1632 4.84563  18
   4   8 -11 97.9860 4.86861  10
   4   8 -11 94.8300 4.84893  11
   3  -8 -11 9.34808 1.07956  18
   3  -8 -11 9.73417 1.14133  16
   3  -8 -11 11.6797 1.23049  17
   3   8 -11 10.0489 1.11450   9
   3   8 -11 11.0846 1.24830  10
   3   8 -11 10.6419 1.20022  11
   2  -8 -11 7.68566 1.06699  18
   2  -8 -11 9.08853 1.30159  16
   2  -8 -11 9.67193 0.87891  10
   2  -8 -11 8.99186 0.96516  17
   2   8 -11 9.82205 0.86662   8
   2   8 -11 9.17277 1.36533   9
   1  -8 -11 463.884 21.0833  17
   1  -8 -11 434.615 20.9436   9
   1  -8 -11 452.243 21.0404  10
   1  -8 -11 404.905 21.0127  18
   1   8 -11 452.386 21.0009   8
   1   8 -11 395.271 21.1054   9
   0  -8 -11 16.2198 1.29140  18
   0  -8 -11 16.1509 0.93356   8
   0  -8 -11 18.0516 1.33550   9
   0  -8 -11 16.3250 1.37127  10
   0  -8 -11 17.6587 1.35062  17
   0   8 -11 16.3629 1.45285   8
  -1  -8 -11 14.8377 1.38289   9
  -1  -8 -11 14.7879 1.09052   8
   1  -8  11 17.4733 1.08933   8
  -1  -8 -11 12.8834 1.09630  17
   2  -8  11 0.18111 0.42766   8
   2  -8  11 1.02183 0.35649  14
  -2  -8 -11 -0.5810 0.51183   8
   2  -8  11 0.40728 0.57241   9
   3  -8  11 73.6105 3.94049  14
   3  -8  11 80.0879 3.94578   9
   3  -8  11 72.2936 3.70094   8
  -3  -8 -11 75.3207 3.90740   8
   3   8  11 80.4030 3.94239   8
   4  -8  11 13.5244 1.06987  14
  -4  -8 -11 14.1089 1.16377   8
   4  -8  11 13.6774 0.87806   9
   4  -8  11 12.5779 0.92400  10
   4   8  11 13.9645 0.95568   8
   4  -9 -11 22.9148 1.49465  17
   4  -9 -11 21.1878 1.52643  16
   4   9 -11 19.4782 1.30963  11
   4   9 -11 21.8814 1.47185  10
   3  -9 -11 61.1897 3.42072  16
   3  -9 -11 64.0627 3.30476  17
   3   9 -11 64.1928 3.29938  11
   3   9 -11 64.2256 3.31435   9
   3   9 -11 58.5374 3.38791  10
   2  -9 -11 97.3126 5.36517  16
   2  -9 -11 108.580 5.31383  17
   2  -9 -11 108.916 5.20355  10
   2   9 -11 102.759 5.40314   9
   2   9 -11 103.224 5.16701   8
   1  -9 -11 869.009 42.3068   9
   1  -9 -11 890.728 42.0864  17
   1  -9 -11 880.056 42.5513  10
   1   9 -11 854.364 41.9970   8
   0  -9 -11 0.44985 0.37991  17
   0  -9 -11 -0.1755 0.50813   9
   0  -9 -11 1.08629 0.39981  10
   0  -9  11 1.15637 0.49729   8
   0   9 -11 0.13842 0.59946   8
   1  -9  11 139.805 6.84012   8
  -1  -9 -11 137.675 6.90820  17
  -1  -9 -11 130.933 6.75412   8
  -1  -9 -11 143.171 6.95907   9
  -2  -9 -11 20.1651 1.73445   9
   2  -9  11 22.2658 1.36441  14
   2  -9  11 20.9345 1.42574   9
  -2  -9 -11 21.9828 1.35138   8
   2  -9  11 22.9389 1.35791   8
  -2  -9 -11 22.8341 1.38171  17
   3  -9  11 1.54954 0.38500   9
   3  -9  11 1.50480 0.53731  10
  -3  -9 -11 0.57940 0.51596   8
   3  -9  11 1.15020 0.48560  14
   3   9  11 1.79815 0.39678   8
  -4  -9 -11 4.48307 0.62480   8
   4  -9  11 5.19371 0.56404  14
   4  -9  11 4.74038 0.41637   9
   4   9  11 4.87506 0.62623   8
   4   9  11 4.45979 0.63240  13
   4 -10 -11 8.45831 0.76270  17
   4 -10 -11 8.08612 0.92478  16
   4  10 -11 8.30366 0.92979  11
   4  10 -11 7.21039 0.75588  10
   3 -10 -11 2.95457 0.52834  17
   3 -10 -11 2.83065 0.74841  16
   3  10 -11 1.70467 0.65461  10
   3  10 -11 2.81220 0.48362   9
   3  10 -11 2.04536 0.63348  11
   2 -10 -11 5.58230 0.88285  17
   2 -10 -11 3.93675 0.76835  16
   2 -10 -11 5.32496 0.68295  10
   2  10 -11 5.91670 0.72119   9
   2  10 -11 4.80864 0.80300   8
   1 -10 -11 259.800 12.7942   9
   1 -10 -11 270.100 12.9743  17
   1 -10 -11 263.943 12.9378  10
   1  10 -11 265.996 12.9231   8
   0 -10 -11 40.9414 2.35816  17
   0 -10  11 40.1678 2.29582   8
   0 -10 -11 40.3777 2.36852  10
   0 -10 -11 38.1963 2.26790   9
   0  10 -11 41.5110 2.41011   8
  -1 -10 -11 57.2769 3.02726   9
  -1 -10 -11 50.6014 2.88814  17
  -1 -10 -11 54.0874 2.77733   8
   1 -10  11 55.7046 2.87626   8
  -2 -10 -11 2.50859 0.71275   9
   2 -10  11 2.98865 0.41143   8
  -2 -10 -11 3.03385 0.55956  17
   2 -10  11 2.73641 0.61115   9
  -2 -10 -11 2.82431 0.50068   8
  -3 -10 -11 0.03910 0.32988   8
   3 -10  11 -0.2774 0.40062  14
   3 -10  11 -0.1828 0.32733  10
   3 -10  11 -0.1494 0.30531   9
   3  10  11 -0.3094 0.46227   8
  -4 -10 -11 1.09720 0.25007  17
  -4 -10 -11 1.38176 0.42864   8
   4 -10  11 1.71062 0.38455  10
   4 -10  11 1.26090 0.38965  14
   4  10  11 1.26871 0.35287  13
   4  10  11 1.41061 0.31327   8
   4 -11 -11 16.5568 1.18170  16
   4 -11 -11 17.4819 1.03827  17
   4  11 -11 15.6102 1.04492  10
   3 -11 -11 26.5625 1.89733  16
   3 -11 -11 29.2377 1.62278  17
   3  11 -11 27.6559 1.72768  11
   3  11 -11 26.5545 1.70745   9
   3  11 -11 25.7485 1.78658  10
   2 -11 -11 139.954 7.44856  16
   2 -11 -11 147.016 7.21982  10
   2 -11 -11 155.705 7.40815  17
   2  11 -11 149.943 7.22857   8
   2  11 -11 145.233 7.38525   9
   2  11 -11 149.524 7.34428  11
   1 -11 -11 543.211 25.1704  17
   1 -11 -11 514.717 25.0984  10
   1  11 -11 501.832 25.0877   8
   0 -11 -11 37.1754 2.20758  10
   0 -11 -11 37.4209 2.10845  17
   0 -11 -11 37.5566 2.09081   9
   0 -11  11 36.6504 2.04651   8
   0  11 -11 36.2194 2.25007   8
  -1 -11 -11 182.763 9.52017  10
  -1 -11 -11 178.672 9.25550   8
   1 -11  11 199.453 9.39721   8
  -1 -11 -11 203.729 9.49954   9
  -1 -11 -11 196.951 9.48288  17
   2 -11  11 120.097 5.65582   8
   2 -11  11 125.132 5.85376   9
  -2 -11 -11 110.214 5.69323   8
  -2 -11 -11 110.337 5.79003  17
  -2 -11 -11 114.222 5.86189   9
   3 -11  11 14.3247 0.93618   9
   3 -11  11 12.5807 1.04041  10
   3 -11  11 11.1896 0.81155  15
  -3 -11 -11 13.6495 0.99604  17
   3 -11  11 11.7922 0.90639  14
  -3 -11 -11 12.1887 0.86050   8
   3  11  11 12.2065 0.90492   8
   3 -12 -11 4.78475 0.77134  16
   3 -12 -11 4.98744 0.63285  17
   3  12 -11 5.45321 0.88778   9
   3  12 -11 3.98137 0.58572  11
   2 -12 -11 94.5794 4.67571  10
   2 -12 -11 92.8940 4.94127  16
   2 -12 -11 102.956 4.89929  17
   2  12 -11 96.2318 4.88428   9
   2  12 -11 93.8757 4.70782   8
   2  12 -11 92.8569 4.81655  11
  -1 -12  11 1.58344 0.51967   8
   1 -12 -11 2.24055 0.48552  10
   1 -12 -11 1.04942 0.45960  17
   1  12 -11 1.87946 0.63196   8
   0 -12  11 1.84002 0.49261   8
   0 -12 -11 1.93026 0.54455  10
   0 -12 -11 1.21431 0.40736  17
   0 -12 -11 1.80740 0.40976   9
   0  12 -11 1.32082 0.48706   8
  -1 -12 -11 0.01479 0.51916  10
   1 -12  11 0.60363 0.53932   9
  -1 -12 -11 1.02323 0.50760   9
   1 -12  11 0.88607 0.37733   8
  -1 -12 -11 0.36687 0.50344  17
  -2 -12 -11 8.36097 0.80056  17
  -2 -12 -11 8.69891 1.17360   9
  -2 -12 -11 9.27689 0.65443   8
   2 -12  11 9.30592 0.79630  15
   2 -12  11 8.83367 0.97928   9
   3 -12  11 100.808 4.61184   9
  -3 -12 -11 86.0228 4.58925   8
   3 -12  11 80.5532 4.62444  15
  -3 -12 -11 98.8890 4.67415  17
   3 -12  11 95.1568 4.69483  10
   3  12  11 102.041 4.66532   8
   3 -13 -11 10.6928 0.78440  17
   3  13 -11 10.3986 0.76947  11
   2 -13 -11 10.3078 0.58542  10
   2 -13 -11 11.9432 1.07480  17
   2 -13 -11 9.20782 0.95930  16
   2  13 -11 11.8294 1.08178  11
   2  13 -11 12.2042 1.03844   9
   2  13 -11 11.9210 0.77483   8
   1 -13 -11 20.7730 1.32281  10
   1 -13 -11 21.3058 1.36244  17
  -1 -13  11 21.5585 1.42958   8
   1  13 -11 21.4032 1.34489   8
   0 -13 -11 0.36449 0.37518  17
   0 -13 -11 0.52978 0.35416  10
   0 -13  11 0.56477 0.31320   8
   0 -13 -11 0.12774 0.34120   9
   0  13 -11 0.31350 0.44149   8
  -1 -13 -11 37.8024 2.20500  10
   1 -13  11 38.1104 1.93766   8
  -1 -13 -11 36.0029 2.03978   9
  -1 -13 -11 36.4100 2.12657  17
   1 -13  11 38.9574 2.09336   9
  -2 -13 -11 53.6083 2.88702   9
  -2 -13 -11 57.4665 2.89631  17
   2 -13  11 56.6659 2.87475   9
   2 -13  11 52.4503 2.85532  15
   2 -14 -11 370.186 17.1422  17
   2 -14 -11 316.002 17.1481  16
   2  14 -11 358.021 17.0041   8
   2  14 -11 374.739 17.1887   9
   2  14 -11 353.328 17.1213  11
  -1 -14  11 -0.0732 0.42115   8
   1 -14 -11 0.14394 0.34546  10
   1 -14 -11 0.42442 0.50756  17
   1  14 -11 -0.0570 0.50881   8
   0 -14 -11 94.4156 4.69920  17
   0 -14  11 94.9116 4.64222   8
   0 -14 -11 88.3539 4.66759  10
   0  14 -11 95.4409 4.75888   8
   1 -14  11 6.86070 0.89691  15
  -1 -14 -11 6.89955 0.76556   9
   1 -14  11 6.23039 0.46732   8
   1 -14  11 7.46277 0.73122   9
  -1 -14 -11 5.81510 0.68278  17
   2 -14  11 35.1927 1.92192  15
  -2 -14 -11 36.7321 1.91251  17
  -2 -14 -11 35.2436 2.00772   9
   2 -14  11 35.4769 1.86017   9
   2 -15 -11 48.0994 2.45760  17
   1 -15 -11 98.3997 5.40829  10
   1 -15 -11 112.149 5.50663  17
   1  15 -11 111.339 5.49092  11
   1  15 -11 123.303 5.47386   8
   0 -15 -11 36.0261 2.02139  10
   0 -15 -11 39.5709 2.04976  17
   0 -15  11 39.0003 1.96872   8
   0  15 -11 38.1502 2.08566   8
   1 -15  11 52.8460 2.87872   9
  -1 -15 -11 56.0840 2.95640  10
   1 -15  11 60.6934 2.92540  15
  -1 -15 -11 60.2615 2.81405   9
  -1 -15 -11 52.2063 2.87687  17
   0 -16 -11 7.89731 0.63635  17
   0 -16 -11 8.26274 0.60955  10
   5   0 -12 30.5052 1.72607  18
   4   0 -12 892.110 39.1017  18
   4   0 -12 794.846 38.9412  10
   4   0 -12 799.657 39.0346  17
   4   0 -12 761.260 39.0085  11
   3   0 -12 -0.3134 0.41132  10
   3   0 -12 0.44871 0.45293  18
   3   0 -12 0.07371 0.50139  17
   2   0 -12 995.994 47.2410   9
   2   0 -12 965.243 47.1172  10
   2   0 -12 976.300 47.7158  18
   1   0 -12 1266.55 69.8579   7
   1   0 -12 1502.08 69.6793  10
   1   0 -12 1542.17 70.3065  18
   1   0 -12 1449.97 69.5536   8
   1   0 -12 1462.60 69.9302   9
   0   0 -12 115.312 5.64743   8
   0   0 -12 110.722 5.83212   9
  -1   0 -12 13.9786 1.24261   8
  -2   0 -12 11.3755 1.09252   8
   2   0  12 10.7644 1.10954   8
   3   0  12 129.630 6.41167   8
   4   0  12 8.09270 0.56238   8
   4   0  12 8.91617 0.83117   9
   4   0  12 9.08740 0.80330  14
   5   0  12 358.419 17.2098   9
   5  -1 -12 41.7192 2.21741  17
   5  -1 -12 44.0196 2.29094  18
   5   1 -12 39.8128 2.18241  11
   5   1 -12 45.4601 2.27553  18
   4  -1 -12 29.2768 1.77674  17
   4  -1 -12 31.0255 1.75944  18
   4   1 -12 26.5978 1.60681  17
   4   1 -12 27.2856 1.52146  10
   4   1 -12 29.2184 1.73269  18
   4   1 -12 27.1975 1.60284  11
   3  -1 -12 79.6407 4.25280  17
   3  -1 -12 87.7850 4.24577  10
   3  -1 -12 84.3794 4.35366  18
   3   1 -12 77.8891 4.25101  11
   3   1 -12 83.0755 4.27613  10
   3   1 -12 89.3277 4.42722  18
   2  -1 -12 51.6919 2.89439  17
   2  -1 -12 54.5006 2.94886  10
   2  -1 -12 55.4676 2.93186   9
   2  -1 -12 60.4406 3.14610  18
   2   1 -12 55.1880 3.04347  10
   2   1 -12 46.8048 2.84594  11
   2   1 -12 57.1594 3.01605  18
   2   1 -12 58.5570 2.96641   9
   1  -1 -12 90.4725 4.38352   9
   1  -1 -12 88.6342 4.46296  18
   1  -1 -12 69.5129 4.80405   7
   1  -1 -12 86.1996 4.38743  10
   1  -1 -12 80.4297 4.11201   8
   1   1 -12 80.8284 4.16746   8
   1   1 -12 81.0456 4.46041  10
   1   1 -12 85.0309 4.42716   9
   1   1 -12 88.6463 4.37857  18
   0  -1 -12 85.8685 4.24410   8
   0  -1 -12 81.5972 4.37445   9
   0   1 -12 82.3610 4.39231   9
   0   1 -12 84.9666 4.27274   8
  -1  -1 -12 28.8703 1.81114   8
  -1   1 -12 28.7633 1.74007   8
   2  -1  12 3.69264 0.61196   8
  -2  -1 -12 3.89447 0.58559   8
   2   1  12 2.89654 0.59884   8
   3  -1  12 154.149 7.38869   8
   3   1  12 146.347 7.40289   8
   4  -1  12 213.504 11.7503   8
   4  -1  12 253.703 11.9916  14
   4   1  12 262.864 11.9738   9
   4   1  12 251.389 11.8095   8
   5  -1  12 0.21247 0.17084   9
   5   1  12 -0.1881 0.24925   9
   5  -2 -12 4.92878 0.59258  17
   5  -2 -12 7.95344 0.93598  18
   5   2 -12 7.76515 0.89295  18
   5   2 -12 6.16063 0.55715  11
   4  -2 -12 2.46475 0.50143  18
   4  -2 -12 1.99270 0.47849  17
   4   2 -12 1.78866 0.48001  18
   4   2 -12 1.67567 0.51503  11
   4   2 -12 1.97691 0.36070  10
   3  -2 -12 1.09109 0.47582  18
   3  -2 -12 0.62690 0.55110  17
   3  -2 -12 0.58158 0.37211  10
   3   2 -12 1.73229 0.51852  11
   3   2 -12 0.50217 0.27309   9
   3   2 -12 1.23439 0.47179  18
   3   2 -12 0.48577 0.49869  10
   2  -2 -12 4.77599 0.73337   9
   2  -2 -12 4.66093 0.69760  10
   2  -2 -12 8.06889 0.96226  18
   2  -2 -12 6.27766 0.93746  17
   2   2 -12 5.90726 0.81683  10
   2   2 -12 5.75104 0.89128  11
   2   2 -12 5.78123 0.99286   9
   2   2 -12 5.23333 0.78133  18
   1  -2 -12 29.4561 2.66483   7
   1  -2 -12 35.7194 2.04747   9
   1  -2 -12 33.6207 2.17898  18
   1  -2 -12 34.0150 2.13185  10
   1  -2 -12 30.4073 1.65224   8
   1   2 -12 34.5976 2.18829  10
   1   2 -12 35.6725 2.14962  18
   1   2 -12 32.8546 1.83913   8
   1   2 -12 33.6985 2.14517   9
   0  -2 -12 51.7542 2.88222   9
   0  -2 -12 52.4600 2.66042   8
   0  -2 -12 43.1252 3.15797   7
   0   2 -12 53.2837 2.73546   8
   0   2 -12 47.7364 2.91463   9
  -1  -2 -12 23.4289 1.81891   9
  -1  -2 -12 30.4704 1.78426   8
  -1   2 -12 29.7103 1.86635   8
   2  -2  12 310.954 14.7559   8
  -2  -2 -12 313.440 14.8051   8
   2   2  12 285.616 14.8251   8
   3  -2  12 214.923 10.4456   9
   3  -2  12 207.808 10.3092   8
   3   2  12 213.536 10.3467   8
   4  -2  12 48.0200 2.61621  14
   4  -2  12 51.0431 2.63863   9
   4   2  12 46.9173 2.59715   9
   4   2  12 48.5719 2.45441   8
   5   2  12 18.2181 0.98458   9
   5  -3 -12 252.834 13.4540  17
   5  -3 -12 307.651 13.5093  18
   5   3 -12 281.401 13.4840  18
   5   3 -12 272.236 13.4515  11
   4  -3 -12 32.3807 1.99623  18
   4  -3 -12 29.9697 1.79409  17
   4   3 -12 32.2136 1.72349  10
   4   3 -12 29.7710 1.85754  11
   4   3 -12 31.4201 1.93734  18
   3  -3 -12 68.4580 3.53000  18
   3  -3 -12 64.9027 3.26766  10
   3  -3 -12 60.7892 3.41847  17
   3   3 -12 67.3171 3.40405  10
   3   3 -12 68.7647 3.48962  18
   3   3 -12 57.2057 3.32288  11
   3   3 -12 61.7844 3.20474   9
   2  -3 -12 20.6297 1.43536  10
   2  -3 -12 19.5571 1.24103   9
   2  -3 -12 20.0124 1.45362  18
   2  -3 -12 18.9236 1.31258  17
   2   3 -12 20.8703 1.49225   9
   2   3 -12 21.2681 1.54180  10
   2   3 -12 18.4774 1.28927  11
   2   3 -12 20.2413 1.39981  18
   1  -3 -12 94.8089 4.90502  10
   1  -3 -12 95.1284 4.91990  18
   1  -3 -12 91.9200 4.82805  17
   1  -3 -12 94.4555 4.87091   9
   1   3 -12 95.6532 4.97954   9
   1   3 -12 98.4828 4.78386   8
   1   3 -12 96.8755 4.89236  18
   1   3 -12 95.7755 5.01958  10
   0  -3 -12 0.80236 0.57469  10
   0  -3 -12 0.86882 0.39048   8
   0  -3 -12 0.51936 0.58197   9
   0  -3 -12 0.79246 0.92570   7
   0   3 -12 0.37532 0.50049   8
   0   3 -12 0.41276 0.66200   9
  -1  -3 -12 531.535 26.0158   8
  -1  -3 -12 522.957 26.1525   9
  -1   3 -12 562.473 26.0690   8
  -2  -3 -12 692.736 34.1552   8
   2  -3  12 724.606 34.1197   8
   3  -3  12 19.7139 1.52846   9
   3  -3  12 20.7015 1.33254   8
  -3  -3 -12 23.9094 1.64367   8
   3   3  12 21.0593 1.42505   8
   4  -3  12 140.722 6.99707   9
   4  -3  12 138.789 7.05406  14
   4   3  12 146.538 6.90173   8
   5  -4 -12 -0.1891 0.30995  18
   5  -4 -12 -0.5322 0.33807  17
   5   4 -12 -0.2073 0.27133  11
   4  -4 -12 48.7988 2.62347  17
   4  -4 -12 54.4453 2.67304  18
   4   4 -12 45.9309 2.60317  18
   4   4 -12 44.3796 2.58223  11
   4   4 -12 51.5199 2.57264  10
   3  -4 -12 27.5362 1.75846  17
   3  -4 -12 28.3945 1.62128  10
   3  -4 -12 31.6181 1.85217  18
   3   4 -12 30.0263 1.92694  18
   3   4 -12 29.9440 1.64801   9
   3   4 -12 30.0221 1.86110  10
   3   4 -12 29.4752 1.88626  11
   2  -4 -12 20.0072 1.42444  10
   2  -4 -12 20.6828 1.45743  18
   2  -4 -12 18.6972 1.33972  17
   2  -4 -12 20.9489 1.16771   9
   2   4 -12 19.8365 1.47739  11
   2   4 -12 19.3199 1.37088  18
   2   4 -12 21.4707 1.60409  10
   2   4 -12 21.3820 1.55375   9
   1  -4 -12 4.40764 0.64557   9
   1  -4 -12 6.07088 0.89441  18
   1  -4 -12 7.85287 1.04931  10
   1  -4 -12 5.15318 0.72631  17
   1   4 -12 4.97448 0.79561   8
   1   4 -12 5.00599 0.84343   9
   1   4 -12 5.43383 0.63380  18
   0  -4 -12 10.2968 0.99265  17
   0  -4 -12 9.41973 1.18847  10
   0  -4 -12 10.4119 1.18663   9
   0  -4 -12 9.57367 0.80566   8
   0   4 -12 9.88368 1.07883   8
  -1  -4 -12 20.6478 1.41637   8
  -1  -4 -12 19.5495 1.67793   9
  -1   4 -12 21.3599 1.62776   8
   2  -4  12 29.2350 1.72084   8
  -2  -4 -12 31.1210 1.95915   8
   3  -4  12 84.3128 4.16050   8
  -3  -4 -12 82.6501 4.34580   8
   3  -4  12 82.7875 4.31353   9
   3   4  12 82.9770 4.20873   8
   4  -4  12 0.79864 0.33300   9
   4  -4  12 0.61179 0.36587  14
   4   4  12 -0.0757 0.35117   9
   4   4  12 0.34898 0.31465   8
   5  -5 -12 2.57053 0.35293  18
   5  -5 -12 1.52203 0.34859  17
   5   5 -12 2.67450 0.42078  11
   4  -5 -12 90.0202 4.55818  17
   4  -5 -12 91.0164 4.52595  18
   4   5 -12 90.4338 4.50211  11
   4   5 -12 78.4733 4.46681  18
   4   5 -12 95.8389 4.47321  10
   3  -5 -12 56.8752 2.92036  18
   3  -5 -12 51.9358 2.94228  17
   3  -5 -12 52.4422 2.69064  10
   3  -5 -12 52.3749 2.99200  16
   3   5 -12 55.7768 2.95310  11
   3   5 -12 53.1042 2.80436   9
   3   5 -12 51.0532 2.84241  18
   3   5 -12 52.7884 2.93862  10
   2  -5 -12 9.95584 0.96782  17
   2  -5 -12 10.3277 1.30785  18
   2  -5 -12 10.9469 1.02489  10
   2   5 -12 10.1419 1.26310  10
   2   5 -12 9.28983 1.11308  18
   2   5 -12 9.53580 1.25509   9
   2   5 -12 9.15541 1.15803  11
   1  -5 -12 102.798 5.37451  17
   1  -5 -12 109.186 5.44722  10
   1  -5 -12 102.306 5.34729   9
   1  -5 -12 114.295 5.49645  18
   1   5 -12 101.713 5.40457  18
   1   5 -12 105.484 5.45026   9
   1   5 -12 108.638 5.31428   8
   0  -5 -12 63.1801 3.55707   9
   0  -5 -12 68.1761 3.50623  17
   0  -5 -12 63.8481 3.60828  10
   0  -5 -12 65.6400 3.33965   8
   0   5 -12 70.1886 3.52567   8
  -1  -5 -12 204.252 10.3149  17
  -1  -5 -12 205.783 10.2742   8
   1  -5  12 214.443 10.3327   8
  -1  -5 -12 211.676 10.4578   9
  -1   5 -12 216.337 10.4021   8
   2  -5  12 155.135 7.32103   8
  -2  -5 -12 140.697 7.32872   8
  -3  -5 -12 47.6294 2.67166   8
   3  -5  12 49.7227 2.67842  14
   3  -5  12 49.6776 2.72752   9
   3  -5  12 50.8055 2.53678   8
   3   5  12 48.5468 2.60335   8
   4  -5  12 7.35361 0.76633   9
   4  -5  12 6.49097 0.85179  10
  -4  -5 -12 4.90996 0.71802   8
   4  -5  12 5.34515 0.69918  14
   4   5  12 6.53160 0.62640   8
   4   5  12 5.29690 0.72937   9
   4  -6 -12 288.447 14.3397  17
   4  -6 -12 285.899 14.3362  18
   4   6 -12 312.624 14.3057  10
   4   6 -12 294.469 14.3239  11
   3  -6 -12 60.4990 2.98592  10
   3  -6 -12 61.7482 3.21021  18
   3  -6 -12 60.0570 3.18435  17
   3  -6 -12 57.3055 3.29600  16
   3   6 -12 61.4466 3.18442  18
   3   6 -12 57.6947 3.10062   9
   3   6 -12 63.2222 3.27853  11
   3   6 -12 60.7429 3.18953  10
   2  -6 -12 2.44495 0.51584  10
   2  -6 -12 2.04111 0.66245  18
   2  -6 -12 3.07176 0.65919  17
   2  -6 -12 2.53766 0.52616  16
   2   6 -12 2.60973 0.45870  18
   2   6 -12 3.02907 0.40943   8
   2   6 -12 2.38995 0.69481  10
   2   6 -12 3.05586 0.71029   9
   2   6 -12 3.40259 0.67943  11
   1  -6 -12 108.026 5.41505   9
   1  -6 -12 110.040 5.52187  10
   1  -6 -12 108.025 5.50709  17
   1  -6 -12 111.597 5.49534  18
   1   6 -12 107.294 5.40271   8
   1   6 -12 98.3978 5.41792  18
   1   6 -12 113.021 5.61348   9
   0  -6 -12 31.1456 1.87598   9
   0  -6 -12 33.1946 2.04936  10
   0  -6 -12 30.6849 1.84022  17
   0  -6 -12 32.8697 1.65604   8
   0   6 -12 32.5637 1.86439   8
   0   6 -12 28.8176 1.90496  18
  -1  -6 -12 48.1510 2.64349   9
  -1  -6 -12 45.9280 2.48974   8
   1  -6  12 45.4865 2.57834   8
  -1  -6 -12 45.6427 2.55021  17
  -1   6 -12 46.1251 2.59256   8
   2  -6  12 1.78844 0.37305   8
  -2  -6 -12 2.23882 0.59603   8
  -3  -6 -12 77.9758 3.90148   8
   3  -6  12 73.3427 3.73658   8
   3  -6  12 71.4500 3.86403   9
   3  -6  12 77.3800 3.92374  14
   3   6  12 78.7371 3.85285   8
   4  -6  12 92.6759 4.49962   9
  -4  -6 -12 89.0910 4.56003   8
   4  -6  12 90.4524 4.56286  10
   4  -6  12 93.6379 4.58099  14
   4   6  12 87.4078 4.56005   9
   4   6  12 91.6352 4.45778   8
   4  -7 -12 364.402 20.2365  18
   4  -7 -12 413.960 20.3624  16
   4  -7 -12 441.016 20.2930  17
   4   7 -12 439.353 20.2772  11
   4   7 -12 441.004 20.2518  10
   3  -7 -12 59.6185 3.46302  16
   3  -7 -12 64.2450 3.41331  18
   3  -7 -12 66.2604 3.44489  17
   3   7 -12 66.5917 3.44019  10
   3   7 -12 63.4414 3.29448   9
   3   7 -12 65.4543 3.36747  11
   2  -7 -12 47.6594 2.65842  18
   2  -7 -12 44.7245 2.70847  16
   2  -7 -12 50.7412 2.68421  17
   2  -7 -12 49.0672 2.61507  10
   2   7 -12 49.3488 2.83283  10
   2   7 -12 49.9230 2.67538  11
   2   7 -12 51.8451 2.81168   9
   2   7 -12 46.8366 2.44633   8
   1  -7 -12 31.1932 1.91352  18
   1  -7 -12 30.0353 1.78004  17
   1  -7 -12 27.1240 1.68749   9
   1  -7 -12 29.9437 1.88115  10
   1   7 -12 27.5310 2.06895   9
   1   7 -12 28.6094 1.77493   8
   0  -7 -12 48.0997 2.69131  17
   0  -7 -12 51.1974 2.77367  10
   0  -7 -12 46.8553 2.63348  18
   0  -7 -12 47.7145 2.70787   9
   0   7 -12 47.8372 2.71262   8
   1  -7  12 12.2694 1.08640   8
  -1  -7 -12 10.5122 0.88585   8
  -1  -7 -12 9.12935 1.27861   9
  -1  -7 -12 9.98938 1.03228  17
  -1   7 -12 9.70960 1.04529   8
  -2  -7 -12 108.083 5.80756  17
   2  -7  12 118.760 5.78873   8
   2  -7  12 117.661 5.86541  14
   2  -7  12 116.971 5.92009   9
  -2  -7 -12 122.079 5.84243   8
  -3  -7 -12 9.73376 0.89472   8
   3  -7  12 10.6943 0.87582  14
   3  -7  12 9.38964 0.62055   8
   3   7  12 11.0421 0.85177   8
   4  -7  12 32.2064 1.94784  10
  -4  -7 -12 37.1285 1.99744   8
   4  -7  12 41.2800 1.91625   9
   4  -7  12 39.2492 2.00595  14
   4   7  12 38.5257 1.87886   8
   4   7  12 33.1752 2.00283   9
   4  -8 -12 537.690 25.9508  16
   4  -8 -12 539.840 25.8628  17
   4   8 -12 513.462 25.8197  10
   4   8 -12 556.548 25.8547  11
   3  -8 -12 8.15887 1.11739  17
   3  -8 -12 7.13650 1.29152  16
   3  -8 -12 9.06230 0.95737  18
   3   8 -12 9.22049 0.76425   9
   3   8 -12 9.28596 1.15355  10
   3   8 -12 10.2142 1.14844  11
   2  -8 -12 165.791 8.66977  18
   2  -8 -12 178.690 8.71865  17
   2  -8 -12 166.738 8.78986  16
   2  -8 -12 182.112 8.64470  10
   2   8 -12 186.792 8.75565  11
   2   8 -12 182.148 8.77155   9
   2   8 -12 172.277 8.52078   8
   1  -8 -12 284.631 13.9485  10
   1  -8 -12 294.754 13.9707  17
   1  -8 -12 267.256 13.9221  18
   1  -8 -12 289.496 13.8419   9
   1   8 -12 280.388 14.0563   9
   1   8 -12 299.433 13.9048   8
   0  -8 -12 1.15189 0.42081  10
   0  -8 -12 0.62494 0.51746  17
   0  -8 -12 0.65643 0.53139   9
   0  -8 -12 0.42624 0.48183  18
   0   8 -12 -0.2918 0.58553   8
  -1  -8 -12 191.848 9.61400   8
  -1  -8 -12 200.044 9.73186  17
   1  -8  12 208.457 9.70258   8
  -1  -8 -12 193.613 9.79503   9
  -1   8 -12 194.864 9.77456   8
   2  -8  12 165.428 8.31215   9
   2  -8  12 172.367 8.22801   8
   2  -8  12 163.872 8.32116  14
  -2  -8 -12 174.489 8.24374   8
  -2  -8 -12 173.799 8.45075   9
  -2  -8 -12 159.785 8.27336  17
  -3  -8 -12 46.7808 2.44883   8
   3  -8  12 47.2124 2.44736   9
   3  -8  12 44.9611 2.50505  14
   3   8  12 46.2168 2.48594   8
   4  -8  12 16.4872 1.08484  14
   4  -8  12 18.7959 0.96998   9
   4   8  12 18.6691 0.96937   8
   3  -9 -12 299.519 15.2577  16
   3  -9 -12 318.563 15.1938  17
   3   9 -12 335.662 15.2350  10
   3   9 -12 268.310 15.1439  11
   3   9 -12 341.973 15.1404   9
   2  -9 -12 1.42095 0.46597  17
   2  -9 -12 1.05610 0.37538  10
   2  -9 -12 0.62435 0.60947  16
   2   9 -12 1.45937 0.73670   9
   2   9 -12 1.08679 0.29661   8
   2   9 -12 1.22476 0.61998  11
   1  -9 -12 91.9581 4.71950  10
   1  -9 -12 93.4492 4.52337   9
   1  -9 -12 95.7283 4.72200  17
   1   9 -12 89.5790 4.89152   9
   1   9 -12 89.4983 4.62158   8
   0  -9 -12 128.486 6.35176  17
   0  -9 -12 127.970 6.30219   9
   0  -9 -12 127.869 6.37808  10
   0  -9  12 116.977 6.28707   8
   0   9 -12 129.103 6.34271   8
   1  -9  12 0.87467 0.34505   8
  -1  -9 -12 0.36635 0.48456  17
  -1  -9 -12 0.31579 0.28448   8
  -1  -9 -12 0.68681 0.45107   9
  -1   9 -12 1.16667 0.48742   8
  -2  -9 -12 67.7486 3.63581  17
   2  -9  12 75.3256 3.54615   8
  -2  -9 -12 74.4836 3.58181   8
  -2  -9 -12 63.8535 3.71120   9
   2  -9  12 69.7334 3.70522   9
   3  -9  12 15.8394 0.99698   9
   3  -9  12 14.5221 0.99119  14
  -3  -9 -12 16.3446 1.12701   8
  -3  -9 -12 13.3405 0.95209  17
   3   9  12 16.7996 1.15365   8
   4 -10 -12 14.1598 0.92204  17
   4  10 -12 14.5212 0.88982  10
   3 -10 -12 4.81066 0.69314  17
   3 -10 -12 3.41960 0.56482  16
   3  10 -12 3.43946 0.50193  11
   3  10 -12 3.90188 0.67177  10
   3  10 -12 5.00657 0.59626   9
   2 -10 -12 176.927 8.74691  10
   2 -10 -12 179.040 8.87297  17
   2 -10 -12 175.058 8.92902  16
   2  10 -12 165.104 8.67213   8
   2  10 -12 200.835 8.94908   9
   2  10 -12 183.955 8.86121  11
   1 -10 -12 32.9053 1.97422  17
   1 -10 -12 33.7509 2.00275  10
   1  10 -12 33.5970 2.28897   9
   1  10 -12 35.3854 2.00905   8
   0 -10 -12 35.1327 1.99120   9
   0 -10  12 34.9647 2.02925   8
   0 -10 -12 33.3978 2.00207  17
   0 -10 -12 35.7495 2.12829  10
   0  10 -12 35.7626 2.15731   8
  -1 -10 -12 230.992 11.1347   9
  -1 -10 -12 223.593 11.0743  17
   1 -10  12 228.439 11.0205   8
  -1  10 -12 223.611 11.1074   8
  -2 -10 -12 107.041 5.56975  17
  -2 -10 -12 113.304 5.49751   8
   2 -10  12 112.830 5.47370   8
  -2 -10 -12 111.897 5.72583   9
   2 -10  12 115.208 5.60464   9
  -3 -10 -12 53.8137 2.73095   8
   3 -10  12 47.2668 2.75734  14
  -3 -10 -12 55.5379 2.76097  17
   3 -10  12 57.6731 2.75168   9
   3  10  12 56.7645 2.78003   8
   3 -11 -12 36.3521 2.29180  16
   3 -11 -12 44.9872 2.24862  17
   3  11 -12 38.8076 2.24937  10
   3  11 -12 45.5143 2.24372  11
   3  11 -12 45.1699 2.18239   9
   2 -11 -12 4.45011 0.43153  10
   2 -11 -12 4.93646 0.69676  17
   2  11 -12 4.53799 0.54766  11
   2  11 -12 3.29644 0.41288   8
   2  11 -12 4.19123 0.61305   9
   1 -11 -12 363.371 17.7501  17
   1 -11 -12 347.803 17.7054  10
   1  11 -12 386.918 17.6953   8
   0 -11 -12 30.8913 1.88794  10
   0 -11 -12 28.7081 1.70000   9
   0 -11 -12 31.8066 1.87575  17
   0 -11  12 29.3539 1.71604   8
   0  11 -12 31.8547 1.93613   8
  -1 -11 -12 4.72438 0.67870   9
  -1 -11 -12 6.17023 0.90353  17
   1 -11  12 6.89253 0.66205   8
  -1 -11 -12 5.79771 0.82018  10
  -1  11 -12 8.42778 0.89757   8
   2 -11  12 256.536 12.7144  15
  -2 -11 -12 262.168 12.6864  17
  -2 -11 -12 270.168 12.7629   9
  -2 -11 -12 256.573 12.5592   8
   3 -11  12 5.28135 0.55192   9
  -3 -11 -12 4.94057 0.47477  17
  -3 -11 -12 4.16451 0.39622   8
   3  11  12 4.68532 0.71166   8
   3 -12 -12 0.86591 0.30445  17
   3  12 -12 0.26668 0.24821  11
   2  12 -12 118.419 6.07427  11
   2  12 -12 127.209 6.15199   9
   1 -12 -12 11.6346 0.95636  10
  -1 -12  12 11.5248 0.89466   8
   1 -12 -12 12.2463 1.11842  17
   1  12 -12 12.2916 0.89017   8
   0 -12 -12 49.1272 2.70053  17
   0 -12  12 51.3975 2.58715   8
   0 -12 -12 48.2584 2.68433  10
   0 -12 -12 49.2013 2.52391   9
   0  12 -12 50.2703 2.71931   8
  -1 -12 -12 23.2887 1.49062   9
  -1 -12 -12 23.4741 1.50249  17
  -1 -12 -12 23.2056 1.46742  10
   1 -12  12 23.8235 1.35803   8
  -1  12 -12 24.0867 1.64747   8
  -2 -12 -12 48.6830 2.52407  17
  -2 -12 -12 51.5180 2.65092   9
   2 -12  12 46.1207 2.51104   9
   2 -13 -12 0.67211 0.32718  17
   2  13 -12 0.16257 0.36419   9
   2  13 -12 0.12139 0.30445  11
   1 -13 -12 1.10298 0.36685  17
   1 -13 -12 1.14939 0.33253  10
  -1 -13  12 1.17375 0.43659   8
   1  13 -12 0.74261 0.43298   8
   0 -13 -12 22.5887 1.43694  10
   0 -13 -12 21.4494 1.45587  17
   0 -13  12 23.9372 1.37397   8
   0  13 -12 22.2108 1.38724   8
  -1 -13 -12 0.51877 0.32492  17
  -1 -13 -12 0.43420 0.26310   9
   1 -13  12 0.07586 0.47540   9
  -1 -13 -12 0.23717 0.47112  10
  -1  13 -12 0.98236 0.41323   8
  -2 -13 -12 39.5802 2.13108  17
   2 -13  12 42.0933 2.11120   9
   1 -14 -12 13.5097 0.82168  10
   1 -14 -12 14.5077 0.93808  17
   1  14 -12 14.2832 0.92479   8
   1  14 -12 13.8904 0.94169  11
   0 -14 -12 18.4906 1.12071  17
   0 -14 -12 18.9546 1.17278  10
   0  14 -12 16.8134 1.12239   8
  -1 -14 -12 8.88025 0.63123   9
  -1 -14 -12 8.91828 0.71892  17
   1 -14  12 9.64311 0.72256  15
   4   0 -13 -0.4358 0.40254  18
   3   0 -13 -0.1792 0.38599  10
   3   0 -13 -0.6555 0.59779  18
   2   0 -13 0.15393 0.41269   9
   2   0 -13 -0.0313 0.45500  18
   2   0 -13 0.04123 0.54798  10
   1   0 -13 -0.0214 0.14448   8
   1   0 -13 -0.8284 0.61357  18
   1   0 -13 0.08136 0.41727  10
   1   0 -13 1.79116 0.66564   9
   0   0 -13 1.75118 0.51482   9
   0   0 -13 1.26494 0.44600   8
   2   0  13 1.39307 0.54868   8
   3   0  13 0.30567 0.41116   8
   4   0  13 1.43925 0.35508   9
   4  -1 -13 1.51819 0.35978  17
   4  -1 -13 1.79051 0.45210  18
   4   1 -13 1.87355 0.28258  10
   4   1 -13 1.53338 0.59300  18
   3  -1 -13 52.6028 3.16271  17
   3  -1 -13 58.5895 3.12555  10
   3  -1 -13 66.2056 3.35222  18
   3   1 -13 63.6447 3.17471  10
   3   1 -13 63.7895 3.24471  18
   2  -1 -13 5.81615 0.92152  18
   2  -1 -13 5.99534 1.01381  10
   2  -1 -13 5.02719 0.80211   9
   2   1 -13 5.25136 0.80012  18
   2   1 -13 4.94845 0.71240  10
   2   1 -13 5.34376 0.69314   9
   1  -1 -13 14.6621 1.37848   9
   1  -1 -13 15.8536 1.45248  10
   1  -1 -13 17.0578 1.56636  18
   1   1 -13 15.3832 1.23774   9
   1   1 -13 15.9817 1.50819  18
   1   1 -13 16.5896 1.49219  10
   1   1 -13 15.0904 0.92515   8
   0  -1 -13 17.7798 1.22037   8
   0  -1 -13 19.9552 1.58000   9
   0   1 -13 20.2271 1.61699   9
   0   1 -13 17.8227 1.30015   8
  -1  -1 -13 16.4464 1.18411   8
  -1  -1 -13 16.2264 1.37345   9
  -1   1 -13 17.1311 1.21130   8
   2  -1  13 87.0900 4.39822   8
  -2  -1 -13 88.6374 4.47162   8
   2   1  13 87.7869 4.37156   8
  -2   1 -13 79.5665 4.47560   8
   3  -1  13 51.8627 2.64946   8
  -3  -1 -13 47.4192 2.82855   8
   3   1  13 51.7176 2.65807   8
   4  -1  13 -0.3343 0.42110   9
   4  -1  13 -0.0213 0.27287  14
   4   1  13 -0.1897 0.41727   9
   4   1  13 0.18619 0.27758  14
   4  -2 -13 11.0399 0.95997  17
   4  -2 -13 11.9176 0.98236  18
   4   2 -13 11.1676 0.79037  11
   4   2 -13 12.2509 0.95680  18
   4   2 -13 11.6654 0.69351  10
   3  -2 -13 50.8986 2.65858  18
   3  -2 -13 44.6360 2.37070  10
   3  -2 -13 41.7411 2.40422  17
   3   2 -13 47.7409 2.47252  10
   3   2 -13 44.5336 2.49567  18
   3   2 -13 42.4103 2.42173  11
   2  -2 -13 0.75718 0.29692   9
   2  -2 -13 0.24755 0.66258  18
   2  -2 -13 -0.5209 0.50310  10
   2  -2 -13 -0.2864 0.33158  17
   2   2 -13 0.18315 0.56686  10
   2   2 -13 0.07881 0.49969   9
   2   2 -13 0.16412 0.44018  18
   2   2 -13 0.58426 0.32312  11
   1  -2 -13 1.17742 0.56487   9
   1  -2 -13 0.45930 0.66735  18
   1  -2 -13 1.34491 0.46640  10
   1   2 -13 0.48798 0.45175  18
   1   2 -13 0.58101 0.27986   8
   1   2 -13 1.34211 0.64966  10
   1   2 -13 0.22744 0.64781   9
   0  -2 -13 29.4130 1.95325   9
   0  -2 -13 28.8729 1.63126   8
   0   2 -13 27.9485 1.87140   9
   0   2 -13 29.4748 1.74603   8
  -1  -2 -13 53.0412 3.21112   9
  -1  -2 -13 56.3767 3.01006   8
  -1   2 -13 57.6952 3.06962   8
  -2  -2 -13 151.033 7.38211   8
   2  -2  13 147.759 7.31837   8
   2   2  13 146.610 7.34627   8
  -2   2 -13 145.554 7.41329   8
   3  -2  13 157.256 7.53266   8
  -3  -2 -13 160.063 7.67825   8
   3  -2  13 147.350 7.62071   9
   3   2  13 152.231 7.54634   8
   4  -2  13 37.5774 2.09753  14
   4  -2  13 39.6401 2.11060   9
   4   2  13 40.2053 2.09194   9
   4  -3 -13 118.772 5.92058  18
   4   3 -13 121.704 5.90904  18
   4   3 -13 112.330 5.85099  11
   4   3 -13 123.941 5.80340  10
   3  -3 -13 39.3739 2.26077  17
   3  -3 -13 43.7378 2.30704  18
   3  -3 -13 39.6746 2.10808  10
   3   3 -13 39.1406 2.19005  10
   3   3 -13 37.2042 2.22025  11
   3   3 -13 42.5668 2.25810  18
   2  -3 -13 199.867 10.2892  17
   2  -3 -13 195.916 10.1073   9
   2  -3 -13 207.213 10.2913  10
   2  -3 -13 229.332 10.4165  18
   2   3 -13 224.833 10.3875  10
   2   3 -13 208.398 10.2751   9
   2   3 -13 215.595 10.3567  18
   2   3 -13 199.319 10.2812  11
   1  -3 -13 33.3847 1.99209   9
   1  -3 -13 35.1047 2.15830  10
   1  -3 -13 34.8196 2.04437  18
   1   3 -13 30.3123 1.78611   8
   1   3 -13 31.9183 2.20168  10
   1   3 -13 35.0529 2.18922   9
   1   3 -13 33.8873 1.98894  18
   0  -3 -13 146.562 7.38291   8
   0  -3 -13 154.827 7.62302   9
   0  -3 -13 140.126 7.60223  10
   0   3 -13 152.439 7.58625  18
   0   3 -13 152.947 7.68361   9
   0   3 -13 162.343 7.49522   8
  -1  -3 -13 3.86395 0.84072   9
  -1  -3 -13 5.35304 0.64163   8
  -1   3 -13 4.38807 0.72432   8
   2  -3  13 655.896 32.6135   8
  -2  -3 -13 689.658 32.6604   8
  -2   3 -13 658.840 32.6910   8
   2   3  13 706.725 32.7102   8
  -3  -3 -13 45.8020 2.63808   8
   3  -3  13 48.3038 2.70736   9
   3  -3  13 51.0660 2.53904   8
   3   3  13 51.0050 2.62407   8
   4  -3  13 69.5153 3.43840  14
  -4  -3 -13 65.2323 3.46474   8
   4  -3  13 67.7451 3.39199   9
   4   3  13 63.8520 3.24832   8
   4   3  13 69.5177 3.40861   9
   4  -4 -13 42.5284 2.33916  17
   4  -4 -13 47.5110 2.43320  18
   4   4 -13 42.0783 2.26461  11
   4   4 -13 42.3241 2.35888  18
   3  -4 -13 77.4688 3.83948  10
   3  -4 -13 87.4168 4.10642  18
   3  -4 -13 79.2137 3.99276  17
   3   4 -13 77.7000 4.00082  10
   3   4 -13 74.1908 3.96725  11
   3   4 -13 69.8289 3.75584   9
   3   4 -13 77.5285 3.97546  18
   2  -4 -13 28.3877 1.75892  17
   2  -4 -13 27.0411 1.62734  10
   2  -4 -13 29.5968 1.95540  18
   2   4 -13 27.1463 1.87588  10
   2   4 -13 27.6782 1.75548  11
   2   4 -13 27.0389 1.76132   9
   2   4 -13 25.8444 1.67856  18
   1  -4 -13 608.857 29.0489   9
   1  -4 -13 608.896 29.1488  10
   1  -4 -13 543.974 29.0463  17
   1  -4 -13 632.315 29.1582  18
   1   4 -13 590.288 29.0979  18
   1   4 -13 635.020 29.1644   9
   1   4 -13 600.719 28.9694   8
   0  -4 -13 442.647 22.0132  10
   0  -4 -13 462.620 21.9869   9
   0  -4 -13 433.721 21.7691   8
   0  -4 -13 460.023 21.9937  18
   0   4 -13 471.525 21.8994   8
   0   4 -13 437.375 21.9542  18
   0   4 -13 464.561 22.0670   9
   1  -4  13 166.632 8.60999   8
  -1  -4 -13 175.643 8.75549   9
  -1  -4 -13 182.883 8.56999   8
  -1   4 -13 173.080 8.62155   8
   2  -4  13 11.4070 0.91049   8
  -2  -4 -13 11.5875 0.98851   8
  -2   4 -13 12.2732 1.40072   8
  -3  -4 -13 109.623 5.18926   8
   3  -4  13 99.2566 5.00259   8
   3  -4  13 100.111 5.16260   9
   3  -4  13 101.906 5.16233  14
   3   4  13 100.978 5.07900   8
   4  -4  13 21.2719 1.15274   9
  -4  -4 -13 20.2301 1.23455   8
   4   4  13 19.0353 1.22300   9
   4   4  13 20.9642 1.05190   8
   4  -5 -13 44.1586 2.33928  17
   4   5 -13 44.8860 2.28371  10
   4   5 -13 44.9148 2.37596  11
   3  -5 -13 8.21938 1.12103  18
   3  -5 -13 6.81503 0.50789  10
   3  -5 -13 6.18381 0.74745  17
   3   5 -13 6.66179 0.71254  11
   3   5 -13 7.10277 0.56443   9
   3   5 -13 6.46430 0.95761  18
   3   5 -13 7.09053 0.78216  10
   2  -5 -13 72.7879 3.71944  10
   2  -5 -13 74.5123 3.77014  18
   2  -5 -13 73.8646 3.77113  17
   2   5 -13 65.3737 3.68133  11
   2   5 -13 66.7060 3.69641  18
   2   5 -13 77.9833 3.77455   9
   2   5 -13 71.2377 3.77344  10
   1  -5 -13 92.4304 4.93467  10
   1  -5 -13 104.568 4.82205   9
   1  -5 -13 88.7990 4.81919  17
   1  -5 -13 98.5931 4.96559  18
   1   5 -13 89.0098 4.88632  18
   1   5 -13 101.179 5.01576   9
   1   5 -13 94.2999 4.74960   8
   0  -5 -13 373.003 18.9159  17
   0  -5 -13 417.386 18.9849   9
   0  -5 -13 406.262 19.0473  10
   0  -5 -13 333.302 18.7148   8
   0  -5 -13 414.750 19.0115  18
   0   5 -13 393.171 19.0794   9
   0   5 -13 396.910 18.9074   8
   0   5 -13 392.568 18.9529  18
  -1  -5 -13 332.373 17.0862   9
   1  -5  13 350.883 17.0069   8
  -1  -5 -13 353.745 16.9436   8
  -1   5 -13 365.297 17.0511   8
   2  -5  13 23.0368 1.42435   8
  -2  -5 -13 21.3284 1.35383   8
  -2   5 -13 20.8988 1.81181   8
  -3  -5 -13 31.1672 1.80878   8
   3  -5  13 31.9374 1.65860   8
   3  -5  13 33.0150 1.82650  14
   3  -5  13 29.6351 1.80398   9
   3   5  13 34.3655 1.76943   8
   4  -5  13 19.9052 1.21018   9
   4  -5  13 24.0289 1.31985  14
   4   5  13 24.5086 1.15536   8
   4  -6 -13 190.694 9.23620  18
   4  -6 -13 195.307 9.26021  17
   4   6 -13 173.052 9.17230  10
   4   6 -13 200.364 9.23995  11
   3  -6 -13 6.58451 0.79758  17
   3  -6 -13 7.81942 1.04369  18
   3   6 -13 8.83800 1.02299  10
   3   6 -13 8.09719 0.60395   9
   3   6 -13 8.27986 0.95934  11
   2  -6 -13 49.2799 2.78197  17
   2  -6 -13 55.0085 2.92760  18
   2  -6 -13 50.5323 2.77110  10
   2   6 -13 55.6197 2.89740   9
   2   6 -13 51.2673 2.87037  11
   2   6 -13 52.3539 2.86369  10
   1  -6 -13 62.6430 3.09608   9
   1  -6 -13 55.5024 3.15482  17
   1  -6 -13 60.1089 3.27691  18
   1  -6 -13 61.4581 3.26485  10
   1   6 -13 62.1174 3.09200   8
   1   6 -13 62.6866 3.37944   9
   1   6 -13 56.7856 3.13695  18
   0  -6 -13 12.4709 1.21984   9
   0  -6 -13 11.6437 1.26485  18
   0  -6 -13 11.9164 1.08854  10
   0  -6 -13 11.6399 1.09187  17
   0   6 -13 12.3733 1.18835   8
   0   6 -13 11.8498 1.12369  18
  -1  -6 -13 243.583 11.6424   8
   1  -6  13 231.979 11.7064   8
  -1  -6 -13 232.454 11.8332   9
  -1   6 -13 253.159 11.7860   8
  -2  -6 -13 161.775 8.30787   9
   2  -6  13 173.871 8.07255   8
  -2  -6 -13 159.037 8.07706   8
   2  -6  13 165.366 8.15480  14
   3  -6  13 74.1965 3.81501  14
  -3  -6 -13 73.8277 3.77461   8
   3  -6  13 70.6233 3.61484   8
   3  -6  13 77.8210 3.78702   9
   3   6  13 76.9435 3.79083   8
   4  -6  13 -0.1232 0.19761   9
   4  -6  13 0.00644 0.25050  14
   4   7 -13 44.3230 2.23281  10
   4   7 -13 42.6419 2.25700  11
   3  -7 -13 66.7639 3.48277  18
   3  -7 -13 69.0684 3.50642  17
   3  -7 -13 64.9597 3.54992  16
   3   7 -13 69.8973 3.57480  10
   3   7 -13 71.0193 3.54433  11
   3   7 -13 67.9885 3.37565   9
   2  -7 -13 304.780 14.2487  10
   2  -7 -13 275.375 14.2788  18
   2  -7 -13 301.387 14.3270  17
   2   7 -13 286.204 14.3443  10
   2   7 -13 298.421 14.2955   9
   2   7 -13 297.228 14.3163  11
   1  -7 -13 75.4928 3.78906   9
   1  -7 -13 77.0772 3.93577  10
   1  -7 -13 73.2337 3.92569  18
   1  -7 -13 77.7923 3.92206  17
   1   7 -13 77.5208 3.83872   8
   1   7 -13 75.7926 4.10067   9
   0  -7 -13 117.183 5.65013   9
   0  -7 -13 109.279 5.61507  18
   0  -7 -13 107.805 5.58838  17
   0  -7 -13 105.058 5.65891  10
   0   7 -13 119.509 5.59249   8
  -1  -7 -13 0.59302 0.34422  17
   1  -7  13 0.39129 0.47958   8
  -1  -7 -13 0.63474 0.46663   9
  -1  -7 -13 0.38465 0.33675   8
  -1   7 -13 0.50130 0.45353   8
   2  -7  13 85.3040 4.03090   8
   2  -7  13 74.6212 4.08691  14
  -2  -7 -13 76.6557 4.20659   9
  -2  -7 -13 86.0613 4.08452   8
  -3  -7 -13 105.758 5.01254   8
   3  -7  13 100.023 5.02288   9
   3  -7  13 95.8506 5.01375  14
   3  -8 -13 35.6032 1.96620  17
   3   8 -13 36.1254 2.03763  11
   3   8 -13 34.9080 1.84279   9
   3   8 -13 36.7429 1.99576  10
   2  -8 -13 433.447 20.4180  17
   2  -8 -13 395.715 20.3565  18
   2  -8 -13 425.252 20.3149  10
   2   8 -13 414.221 20.3929  11
   2   8 -13 439.054 20.4044   9
   1  -8 -13 564.286 25.7780  10
   1  -8 -13 516.609 25.5838   9
   1  -8 -13 552.752 25.7842  17
   1  -8 -13 503.958 25.7319  18
   1   8 -13 528.839 25.8172   9
   1   8 -13 536.106 25.6759   8
   0  -8 -13 3.28659 0.54950   9
   0  -8 -13 4.03841 0.48702  18
   0  -8 -13 3.85041 0.66648  10
   0  -8 -13 3.73530 0.49606  17
   0   8 -13 3.91370 0.64430   8
   1  -8  13 70.6721 3.37681   8
  -1  -8 -13 62.4193 3.19155   8
  -1  -8 -13 61.3124 3.37573  18
  -1  -8 -13 68.6069 3.46603   9
  -1  -8 -13 64.3466 3.38515  17
  -1   8 -13 67.7669 3.44472   8
   2  -8  13 8.96874 0.87795   9
  -2  -8 -13 8.28351 0.99849   9
  -2  -8 -13 8.10717 0.79068   8
   2  -8  13 9.48652 0.68236   8
  -3  -8 -13 120.303 6.02450   8
   3  -8  13 121.636 6.05106   9
   3   8  13 127.886 6.06602   8
   3  -9 -13 1.13301 0.38867  17
   3   9 -13 1.11177 0.25221   9
   3   9 -13 1.17203 0.35212  11
   3   9 -13 1.19570 0.40080  10
   2  -9 -13 0.73151 0.29456  10
   2  -9 -13 1.20261 0.60091  17
   2   9 -13 1.50331 0.63599   9
   2   9 -13 0.69691 0.41092  11
   1  -9 -13 26.9095 1.63374  17
   1  -9 -13 28.3043 1.68574  10
   1   9 -13 28.3319 1.77308   9
   1   9 -13 25.8865 1.50892   8
   0  -9 -13 38.6182 2.12381   9
   0  -9  13 39.9242 2.17859   8
   0  -9 -13 39.1353 2.19342  17
   0  -9 -13 40.6247 2.34549  10
   0   9 -13 42.4036 2.28483   8
  -1  -9 -13 113.091 5.75077   9
   1  -9  13 116.635 5.68102   8
  -1  -9 -13 108.957 5.71549  17
  -1   9 -13 121.401 5.76402   8
  -2  -9 -13 76.4548 3.55543   8
  -2  -9 -13 72.3855 3.73990   9
   2  -9  13 67.5392 3.54086   8
   3  -9  13 4.29139 0.51025   9
  -3  -9 -13 4.48904 0.51235   8
   3   9  13 3.90654 0.52501   8
   2 -10 -13 40.3709 2.03913  10
   2 -10 -13 41.4994 2.20241  17
   2  10 -13 37.7524 2.21775   9
   2  10 -13 43.3172 2.29518  11
   1 -10 -13 27.0824 1.66061  10
   1 -10 -13 30.2436 1.67480  17
   1  10 -13 28.1939 1.53592   8
   1  10 -13 28.3652 1.79511   9
   0 -10 -13 7.91231 1.01060  10
   0 -10  13 9.07251 0.78111   8
   0 -10 -13 7.27273 0.78198  17
   0 -10 -13 8.21212 0.71817   9
   0  10 -13 8.54621 1.02004   8
  -1 -10 -13 21.0521 1.41946   9
  -1 -10 -13 19.0810 1.50189  10
  -1 -10 -13 21.0157 1.36755  17
   1 -10  13 19.9827 1.19631   8
  -1  10 -13 20.1126 1.34632   8
   2 -10  13 2.98647 0.41871   9
  -2 -10 -13 1.98006 0.56928   9
   2 -10  13 2.30170 0.29093   8
   2 -10  13 2.60795 0.42218  15
  -2 -10 -13 2.92221 0.36572  17
   2 -11 -13 0.85129 0.48121  17
   2  11 -13 1.27467 0.49974  11
   2  11 -13 1.03882 0.40778   9
   1 -11 -13 79.5279 3.77483  10
   1 -11 -13 67.4534 3.77611  17
   1  11 -13 74.0981 3.87392   9
   1  11 -13 77.7457 3.71632   8
   0 -11 -13 7.54492 0.54814   9
   0 -11 -13 8.19311 0.73316  17
   0 -11  13 7.83466 0.87528   8
   0 -11 -13 6.75384 0.92599  10
   0  11 -13 7.94335 0.76403   8
   1 -11  13 108.581 5.01918   8
  -1 -11 -13 106.116 5.07742   9
  -1 -11 -13 89.8254 5.13477  10
  -1 -11 -13 100.197 5.06798  17
  -1  11 -13 104.818 5.13451   8
  -2 -11 -13 193.389 8.87129   9
  -2 -11 -13 180.469 8.82654  17
   2 -11  13 166.526 8.81990  15
   2 -11  13 185.919 8.83178   9
   2  12 -13 24.2076 1.35795  11
  -1 -12  13 1.84153 0.41648   8
   1 -12 -13 1.20312 0.47538  17
   1 -12 -13 0.93036 0.31325  10
   1  12 -13 1.04152 0.50096  11
   1  12 -13 0.80583 0.61802   9
   1  12 -13 1.21934 0.26827   8
   0 -12 -13 15.4063 1.02248  17
   0 -12  13 17.2330 0.98137   8
   0 -12 -13 15.7497 1.03599  10
   0  12 -13 15.4184 1.03756   8
   1 -12  13 9.05488 0.59972   8
  -1 -12 -13 7.40067 0.76135  10
  -1 -12 -13 8.71511 0.70235  17
  -1 -12 -13 9.30197 0.69129   9
  -1  12 -13 8.97962 0.78872   8
   1 -13 -13 114.534 5.71495  17
   1 -13 -13 115.597 5.62984  10
   1  13 -13 119.011 5.72027  11
   0 -13 -13 75.8539 3.67953  10
   0 -13 -13 78.2300 3.69703  17
   0 -13  13 62.3593 3.60953   8
   0  13 -13 78.8605 3.66474   8
   4   0 -14 4.14745 0.60604  18
   3   0 -14 38.9643 2.05511  10
   3   0 -14 38.1578 2.15990  18
   2   0 -14 23.2420 1.63404  10
   2   0 -14 23.0132 1.33965   9
   2   0 -14 25.3088 1.56910  18
   1   0 -14 442.080 21.7205   9
   1   0 -14 458.251 21.7840  18
   1   0 -14 447.017 21.8023  10
   0   0 -14 18.9356 1.61219   9
   0   0 -14 17.1777 1.13982   8
   0   0 -14 19.1843 1.36404  18
  -1   0 -14 80.7698 3.86006   8
  -1   0 -14 68.9827 3.96287   9
  -2   0 -14 249.954 12.3634   8
   2   0  14 258.230 12.3569   8
  -3   0 -14 20.2355 1.34385   8
   3   0  14 22.3656 1.20887   8
   4  -1 -14 14.5731 0.98817  18
   3  -1 -14 126.004 6.01139  18
   3  -1 -14 110.636 5.86244  10
   3   1 -14 118.165 5.92024  10
   3   1 -14 126.155 6.03675  18
   2  -1 -14 159.354 8.11584   9
   2  -1 -14 172.363 8.34238  18
   2  -1 -14 162.680 8.28984  10
   2   1 -14 171.234 8.33803  10
   2   1 -14 177.328 8.37728  18
   2   1 -14 167.770 8.19061   9
   1  -1 -14 182.388 9.24294  10
   1  -1 -14 186.175 9.12201   9
   1  -1 -14 193.710 9.23831  18
   1   1 -14 188.069 9.18926  18
   1   1 -14 191.974 9.18393   9
   1   1 -14 173.276 9.20772  10
   0  -1 -14 140.355 6.99754   9
   0  -1 -14 139.325 6.75482   8
   0  -1 -14 139.471 6.94663  18
   0   1 -14 139.171 6.79311   8
   0   1 -14 137.125 6.93720  18
   0   1 -14 136.308 6.97196   9
  -1  -1 -14 249.657 11.9126   8
  -1  -1 -14 236.550 12.0513   9
  -1   1 -14 248.756 11.9393   8
   2  -1  14 3.31684 0.55042   8
  -2  -1 -14 3.09217 0.49135   8
   2   1  14 3.51868 0.47109   8
  -2   1 -14 2.49199 0.51017   8
  -3  -1 -14 141.709 6.89753   8
   3  -1  14 137.836 6.77576   8
  -3   1 -14 138.150 6.90499   8
   3   1  14 139.975 6.79546   8
   4  -2 -14 60.1729 2.94074  18
   4   2 -14 54.2028 2.90788  18
   3  -2 -14 52.9347 2.74797  10
   3  -2 -14 54.3405 2.91315  18
   3   2 -14 55.6044 2.89698  18
   3   2 -14 56.2498 2.85604  10
   2  -2 -14 513.566 25.5834  10
   2  -2 -14 531.787 25.6348  18
   2   2 -14 538.193 25.6211  18
   2   2 -14 552.741 25.5196   9
   2   2 -14 515.625 25.6129  10
   1  -2 -14 87.3787 4.76508  10
   1  -2 -14 92.2711 4.76862  18
   1  -2 -14 101.678 4.72964   9
   1   2 -14 90.3477 4.72753   9
   1   2 -14 88.8618 4.85626  10
   1   2 -14 97.2224 4.82893  18
   0  -2 -14 116.004 5.79540   9
   0  -2 -14 107.593 5.50973   8
   0  -2 -14 113.245 5.74904  18
   0   2 -14 112.244 5.61412   8
   0   2 -14 113.429 5.78682  18
   0   2 -14 119.405 5.87473   9
  -1  -2 -14 15.6115 1.34211   9
  -1  -2 -14 17.8835 1.20073   8
  -1   2 -14 17.7166 1.34919   8
  -2  -2 -14 68.2365 3.49037   8
   2  -2  14 68.0815 3.46040   8
  -2   2 -14 64.6663 3.45847   8
   2   2  14 66.2491 3.46830   8
   3  -2  14 1.00718 0.35852  14
   3  -2  14 0.74799 0.29439   8
   3  -2  14 0.44006 0.35562   9
  -3  -2 -14 0.47921 0.49849   8
   3   2  14 1.06708 0.37190   8
  -3   2 -14 0.59919 0.55530   8
   4  -3 -14 85.5530 4.25916  18
   3  -3 -14 1.20845 0.22290  10
   3  -3 -14 1.12907 0.33626  17
   3  -3 -14 1.46154 0.44587  18
   3   3 -14 1.90100 0.43936  18
   3   3 -14 1.37752 0.46419  10
   2  -3 -14 182.864 8.75363  10
   2  -3 -14 191.205 8.83732  18
   2   3 -14 180.429 8.68921   9
   2   3 -14 173.340 8.80025  10
   2   3 -14 161.883 8.73608  18
   1  -3 -14 1.40769 0.61688  10
   1  -3 -14 2.71604 0.53689  18
   1  -3 -14 1.48141 0.50059   9
   1   3 -14 1.74008 0.48315  18
   1   3 -14 0.87473 0.64882   9
   1   3 -14 0.89374 0.65851  10
   0  -3 -14 4.19993 0.72804  18
   0  -3 -14 5.43179 0.81555   9
   0  -3 -14 5.35797 0.66495  10
   0   3 -14 4.86731 0.68743   9
   0   3 -14 4.41368 0.69405  18
   0   3 -14 4.16863 0.55843   8
  -1  -3 -14 75.0700 4.17920   9
  -1  -3 -14 84.0938 4.02225   8
  -1   3 -14 80.4780 4.12160   8
  -2  -3 -14 9.97033 1.06985   8
   2  -3  14 12.5853 1.07195   8
   2   3  14 12.0270 1.10082   8
  -2   3 -14 11.1908 1.21130   8
   3  -3  14 42.0230 2.28328  14
   3  -3  14 43.3297 2.10654   8
  -3  -3 -14 41.9927 2.21378   8
   3  -3  14 40.0661 2.29368   9
  -3   3 -14 39.3975 2.23976   8
   3   3  14 43.3639 2.16034   8
   3  -4 -14 70.8639 3.93078  10
   3  -4 -14 82.3567 4.16536  18
   3  -4 -14 79.5108 4.10998  17
   3   4 -14 88.2451 4.10245  10
   3   4 -14 86.7691 4.10210  11
   3   4 -14 83.4287 4.11478  18
   2  -4 -14 18.4245 1.28335  18
   2  -4 -14 16.1368 1.22326  17
   2  -4 -14 19.5334 1.26496  10
   2   4 -14 16.9781 1.20278  18
   2   4 -14 17.6041 1.21716  11
   2   4 -14 17.7709 1.43473  10
   2   4 -14 17.1623 1.23698   9
   1  -4 -14 1.59419 0.48901  18
   1  -4 -14 1.33413 0.43879  10
   1  -4 -14 0.91497 0.41596   9
   1   4 -14 -0.6811 0.62368   9
   1   4 -14 1.00644 0.18099   8
   1   4 -14 0.48584 0.43302  11
   1   4 -14 0.65995 0.41869  18
   0  -4 -14 28.8257 1.85215   9
   0  -4 -14 28.6318 1.75896  18
   0  -4 -14 27.5757 1.78023  10
   0   4 -14 27.0087 2.04451   9
   0   4 -14 29.2328 1.83683  18
   0   4 -14 28.5807 1.58682   8
   1  -4  14 6.77106 1.02714   8
  -1  -4 -14 8.38237 0.75431   8
  -1  -4 -14 7.34603 1.00332   9
  -1   4 -14 7.77426 0.85602   8
  -2  -4 -14 127.799 6.27182   8
   2  -4  14 129.890 6.26674   8
  -2   4 -14 126.236 6.30736   8
   2   4  14 124.017 6.28085   8
   3  -4  14 48.0859 2.51088   9
  -3  -4 -14 47.4217 2.41642   8
   3  -4  14 41.6873 2.44062  14
   3  -4  14 46.0244 2.28863   8
   3   4  14 49.4972 2.38516   8
   3  -5 -14 25.0624 1.44235  17
   3  -5 -14 24.3593 1.52205  18
   3   5 -14 27.8942 1.48527  10
   2  -5 -14 16.7446 1.18811  18
   2  -5 -14 17.3335 1.04404  10
   2  -5 -14 14.8197 1.18498  17
   2   5 -14 16.3741 1.06934   9
   2   5 -14 17.3319 1.19717  10
   2   5 -14 16.5003 1.25498  18
   2   5 -14 14.3077 1.04876  11
   1  -5 -14 0.36176 0.59509  18
   1  -5 -14 0.30373 0.39310  10
   1  -5 -14 0.35153 0.31255   9
   1  -5 -14 -0.0192 0.46593  17
   1   5 -14 0.32071 0.21871   8
   1   5 -14 0.02286 0.30944  11
   1   5 -14 0.02199 0.50114  18
   1   5 -14 -0.0672 0.44721   9
   0  -5 -14 18.6816 1.35890   9
   0  -5 -14 17.4424 1.24458  18
   0  -5 -14 15.9055 1.28058  10
   0   5 -14 16.5037 1.37859   9
   0   5 -14 17.4461 1.32868  18
   0   5 -14 17.9692 1.23735   8
   1  -5  14 157.145 8.20295   8
  -1  -5 -14 164.006 8.10212   8
  -1  -5 -14 178.439 8.35187   9
  -1   5 -14 157.715 8.22476  18
  -1   5 -14 180.226 8.26376   8
  -2  -5 -14 2.84764 0.46471   8
   2  -5  14 3.95369 0.56681   8
   2  -5  14 3.85503 0.55172  14
  -2  -5 -14 2.34399 0.71012   9
  -2   5 -14 2.19804 0.62288   8
  -3  -5 -14 48.8444 2.45779   8
   3  -5  14 47.1331 2.54079   9
   3  -5  14 47.0566 2.50982  14
   3   5  14 49.0122 2.44300   8
   3  -6 -14 18.5956 1.13301  17
   3  -6 -14 16.6171 1.12249  18
   3   6 -14 20.8180 1.15945  10
   3   6 -14 19.0173 1.11634  11
   2  -6 -14 468.646 21.5743  18
   2  -6 -14 429.491 21.5227  17
   2  -6 -14 426.081 21.4769  10
   2   6 -14 428.699 21.5721  10
   2   6 -14 477.938 21.5258   9
   1  -6 -14 21.8445 1.45511  17
   1  -6 -14 24.1726 1.56682  10
   1  -6 -14 22.3352 1.21396   9
   1  -6 -14 23.1490 1.44145  18
   1   6 -14 22.1017 1.19067   8
   1   6 -14 22.9387 1.65625   9
   1   6 -14 22.1816 1.48393  11
   0  -6 -14 58.9628 3.29095  10
   0  -6 -14 57.1214 3.15529  18
   0  -6 -14 64.0011 3.18349   9
   0   6 -14 59.6325 3.26143   9
   0   6 -14 61.7279 3.13203   8
  -1  -6 -14 55.2782 2.91387   9
   1  -6  14 52.9456 2.80989   8
  -1  -6 -14 52.1632 2.91263  18
  -1   6 -14 55.7967 2.93923   8
  -2  -6 -14 14.8788 1.13653   9
   2  -6  14 11.9099 0.95251   8
  -2  -6 -14 13.4767 0.91021   8
  -2   6 -14 11.6750 0.99571   8
  -3  -6 -14 0.09204 0.31315   8
   3  -6  14 1.19084 0.30938   9
   3  -6  14 0.66212 0.27560  14
   3   6  14 0.60692 0.34227   8
   3  -7 -14 75.7731 3.87830  17
   3   7 -14 82.1437 3.92882  10
   3   7 -14 75.4565 3.87065  11
   2  -7 -14 78.2487 4.02556  18
   2  -7 -14 87.4999 3.97623  10
   2  -7 -14 78.4770 4.06157  17
   2   7 -14 75.0671 4.07810  10
   2   7 -14 84.3876 4.05682   9
   2   7 -14 75.2325 4.02794  11
   1  -7 -14 307.062 14.5034  18
   1  -7 -14 312.469 14.4987  10
   1  -7 -14 283.288 14.4711  17
   1   7 -14 291.825 14.4756  11
   1   7 -14 311.915 14.5584   9
   1   7 -14 284.581 14.3337   8
   0  -7 -14 7.01063 0.82449  10
   0  -7 -14 6.60154 0.81079  17
   0  -7 -14 6.83997 0.82516   9
   0  -7 -14 6.04444 0.70652  18
   0   7 -14 6.97869 0.88254   8
   0   7 -14 5.01821 0.86359   9
  -1  -7 -14 102.337 5.60636  18
   1  -7  14 116.736 5.62303   8
  -1  -7 -14 115.154 5.66167   9
  -1   7 -14 118.159 5.62864   8
  -2  -7 -14 46.2500 2.22387   8
   2  -7  14 44.0197 2.23980   8
  -2  -7 -14 42.1468 2.31021  18
   2  -7  14 42.0555 2.40269   9
  -2  -7 -14 46.6301 2.43371   9
  -2   7 -14 44.6838 2.37581   8
  -3  -7 -14 111.998 5.49086   8
   3   7  14 114.357 5.52009   8
   3  -8 -14 56.1402 2.84033  17
   2  -8 -14 158.671 7.53084  10
   2  -8 -14 139.302 7.58872  18
   2  -8 -14 158.304 7.64636  17
   2   8 -14 149.688 7.66413  10
   2   8 -14 172.049 7.64058   9
   1  -8 -14 46.2309 2.59571  18
   1  -8 -14 48.3837 2.57677  17
   1  -8 -14 50.6004 2.57604  10
   1   8 -14 48.3682 2.41728   8
   1   8 -14 52.9777 2.67956   9
   1   8 -14 48.1413 2.59372  11
   0  -8 -14 88.0043 4.37894  10
   0  -8  14 83.8088 4.30057   8
   0  -8 -14 85.6897 4.29432  17
   0  -8 -14 73.1502 4.23194  18
   0  -8 -14 89.5674 4.23463   9
   0   8 -14 89.5670 4.23783   8
   1  -8  14 3.62139 0.52500   8
  -1  -8 -14 5.36732 0.70994   9
  -1  -8 -14 4.60186 0.69799  18
  -1   8 -14 5.70662 0.74263   8
  -2  -8 -14 71.7096 3.58359   9
   2  -8  14 70.2153 3.42450   8
  -2   8 -14 67.5349 3.54724   8
   2   9 -14 320.802 15.6935  11
   2   9 -14 329.073 15.6843   9
   1  -9 -14 1.71365 0.32426  10
   1  -9 -14 1.51417 0.37984  17
   1   9 -14 0.46457 0.33461  11
   1   9 -14 1.37013 0.46740   9
   1   9 -14 0.86923 0.18080   8
   0  -9 -14 33.9226 1.94542  17
   0  -9  14 35.6766 1.90232   8
   0  -9 -14 34.1803 2.02587  10
   0  -9 -14 34.9410 1.81706   9
   0   9 -14 36.2826 1.86101   8
  -1  -9 -14 227.863 10.8226   9
  -1   9 -14 217.293 10.8126   8
  -2  -9 -14 0.38521 0.44382   9
   2 -10 -14 179.162 8.96607  17
   2  10 -14 189.748 8.95315   9
   1 -10 -14 9.93453 0.71773  10
   1  10 -14 11.9037 0.94576   9
   1  10 -14 11.7288 0.98293  11
   0 -10 -14 243.729 11.3294  10
   0 -10 -14 230.084 11.2825  17
   0 -10  14 241.784 11.2737   8
   0  10 -14 214.911 11.2381   8
   1 -10  14 1.58913 0.24376   8
  -1 -10 -14 1.63787 0.28306   9
  -1 -10 -14 1.93224 0.30471  17
  -1  10 -14 1.41127 0.37939   8
   1 -11 -14 93.7844 4.76655  17
   1 -11 -14 99.1123 4.71186  10
   0 -11  14 53.9721 2.48940   8
   0 -11 -14 50.9978 2.52612  10
   0 -11 -14 41.8378 2.48016  17
   0  11 -14 49.1632 2.45129   8
   3   0 -15 -0.0010 0.31686  18
   3   0 -15 -0.0609 0.20233  10
   2   0 -15 -0.7786 0.47287  10
   2   0 -15 -0.2043 0.58182  18
   1   0 -15 -0.1661 0.58215  10
   1   0 -15 -0.2182 0.43164  18
   1   0 -15 -0.6402 0.43171   9
   0   0 -15 0.50775 0.62486  18
   0   0 -15 0.00416 0.42548   9
  -1   0 -15 -0.3556 0.34702   8
  -1   0 -15 -0.6171 0.38658  18
  -1   0 -15 -1.2259 0.63667   9
   2   0  15 0.16325 0.29339   8
  -2   0 -15 0.23076 0.31087   8
  -3   0 -15 0.11710 0.26096   8
   3   0  15 -0.2762 0.21450  14
   3   0  15 0.09940 0.16070   8
   3  -1 -15 106.622 5.40175  10
   3   1 -15 113.735 5.52612  18
   3   1 -15 115.491 5.45279  10
   2  -1 -15 178.900 9.33550  18
   2  -1 -15 211.362 9.33231  10
   2   1 -15 189.131 9.33048  10
   2   1 -15 182.938 9.32410  18
   1  -1 -15 105.118 5.46836   9
   1  -1 -15 110.337 5.63347  10
   1  -1 -15 114.208 5.59241  18
   1   1 -15 115.732 5.63363  18
   1   1 -15 106.156 5.59147  10
   1   1 -15 115.848 5.54188   9
   0  -1 -15 133.447 6.88014   9
   0  -1 -15 141.666 6.94035  18
   0   1 -15 137.784 6.90879   9
   0   1 -15 142.472 6.90074  18
  -1  -1 -15 4.13832 0.56954   8
  -1  -1 -15 3.62703 0.51897  18
  -1  -1 -15 2.05105 0.70792   9
  -1   1 -15 2.54238 0.62406  18
  -1   1 -15 3.32744 0.37964   8
  -1   1 -15 2.24966 0.73445   9
  -2  -1 -15 21.6725 1.31186   8
   2  -1  15 21.4850 1.33744   8
  -2   1 -15 19.9486 1.25372   8
   2   1  15 22.3433 1.35689   8
   3   1  15 9.95986 0.59219   8
   3  -2 -15 17.2145 1.14194  18
   3   2 -15 21.6841 1.09046  10
   3   2 -15 17.1953 1.11341  18
   2  -2 -15 275.541 12.8524  18
   2  -2 -15 275.457 12.7853  10
   2   2 -15 257.826 12.7956  10
   2   2 -15 245.419 12.8019  18
   1  -2 -15 14.5690 1.09221  10
   1  -2 -15 13.6768 1.11772  18
   1  -2 -15 14.1762 0.96162   9
   1   2 -15 13.6651 1.30337  10
   1   2 -15 14.1329 1.07236  18
   1   2 -15 13.6978 1.13719   9
   0  -2 -15 1.19894 0.44668  18
   0  -2 -15 1.56990 0.57845   9
   0  -2 -15 1.15662 0.67438  10
   0   2 -15 1.74516 0.61448  18
   0   2 -15 0.71992 0.65434   9
  -1  -2 -15 51.7834 2.83825   9
  -1  -2 -15 53.3451 2.78532  18
  -1  -2 -15 49.4352 2.50316   8
  -1   2 -15 47.3860 2.56086   8
  -1   2 -15 50.5542 2.76452   9
  -1   2 -15 49.3151 2.67613  18
   2  -2  15 0.78287 0.40259   8
  -2  -2 -15 1.76969 0.38049   8
   2   2  15 0.86496 0.31772   8
  -2   2 -15 1.13828 0.34682   8
   3  -3 -15 65.0776 3.13449  18
   3   3 -15 58.0764 3.05205  10
   2  -3 -15 49.2587 2.56180  18
   2  -3 -15 48.8155 2.46573  10
   2   3 -15 49.8228 2.60618  10
   2   3 -15 44.4145 2.36806   9
   2   3 -15 47.2093 2.53228  18
   1  -3 -15 64.9810 3.70521  18
   1  -3 -15 74.4307 3.57873   9
   1  -3 -15 76.1904 3.73579  10
   1   3 -15 73.1826 3.69947  18
   1   3 -15 69.5878 3.75189  10
   1   3 -15 75.5584 3.73617   9
   0  -3 -15 3.70699 0.71049  10
   0   3 -15 3.46999 0.72629   9
   0   3 -15 6.26768 0.74784  18
   0   3 -15 4.22144 0.46506   8
  -1  -3 -15 28.3909 1.59487  18
   1  -3  15 27.5312 1.63154   8
  -1  -3 -15 28.9289 1.80291   9
  -1  -3 -15 22.1241 1.30605   8
  -1   3 -15 26.1198 1.55176  18
  -1   3 -15 25.3010 1.46225   8
  -2  -3 -15 28.1197 1.54501   8
   2  -3  15 28.1055 1.59455  14
   2  -3  15 29.4171 1.60507   8
  -2   3 -15 30.2398 1.68061   8
   2   3  15 27.6016 1.57139   8
   3  -4 -15 7.11708 0.62640  18
   3   4 -15 6.81212 0.63525  10
   2  -4 -15 22.8030 1.22853  10
   2  -4 -15 17.0301 1.25168  18
   2   4 -15 20.3401 1.34366  18
   2   4 -15 20.3582 1.26791  10
   2   4 -15 20.3912 1.11524   9
   1  -4 -15 0.99105 0.22792   9
   1  -4 -15 0.66847 0.43985  18
   1  -4 -15 0.89930 0.52820  10
   1   4 -15 0.50534 0.53303   9
   1   4 -15 0.83180 0.37077  18
   0  -4 -15 365.738 17.7853  10
   0  -4 -15 379.688 17.7317  18
   0  -4 -15 375.107 17.6999   9
   0   4 -15 360.797 17.7156  18
   0   4 -15 358.120 17.7523   9
   0   4 -15 356.869 17.5872   8
  -1  -4 -15 554.613 25.8359   9
   1  -4  15 559.916 25.7917   8
  -1   4 -15 527.615 25.7957  18
  -1   4 -15 499.974 25.7426   8
   2  -4  15 515.844 22.4702   8
  -2  -4 -15 452.339 22.5641   9
   2  -4  15 472.379 22.5250  14
  -2  -4 -15 449.204 22.4187   8
  -2   4 -15 434.583 22.4961  18
   2   4  15 479.609 22.4961   8
   2  -5 -15 39.7285 2.32542  18
   2  -5 -15 42.6065 2.23923  10
   2   5 -15 46.8518 2.44141  10
   2   5 -15 48.6192 2.25222   9
   1  -5 -15 86.5394 4.45791  18
   1  -5 -15 87.7777 4.44458  10
   1   5 -15 91.1136 4.44833   9
   0  -5 -15 25.0984 1.44233   9
   0  -5 -15 22.9360 1.62376  10
   0  -5 -15 23.6395 1.43782  18
   0   5 -15 24.0613 1.28187   8
   0   5 -15 21.8615 1.37232  18
   1  -5  15 398.813 19.6023   8
  -1  -5 -15 413.176 19.6562   9
  -1   5 -15 407.811 19.5864   8
  -2  -5 -15 75.5247 4.01109  18
   2  -5  15 78.0988 3.94596   8
   2   5  15 87.9335 4.01939   8
   2  -6 -15 154.531 7.54864  18
   2  -6 -15 154.430 7.46709  10
   2   6 -15 154.518 7.47365   9
   1  -6 -15 31.3790 1.69248  10
   1   6 -15 24.3608 1.53209  11
   1   6 -15 30.2295 1.73519   9
   0  -6 -15 10.0799 0.83734  18
   0  -6 -15 10.2631 0.90674  10
   0  -6 -15 9.09791 0.68371   9
   0   6 -15 10.9559 1.18758   9
   0   6 -15 10.5226 0.69080   8
  -1  -6 -15 14.2554 1.11131   9
   1  -6  15 14.4153 0.90937   8
  -1  -6 -15 12.5886 0.91863  18
  -1   6 -15 11.9766 0.89886   8
  -2  -6 -15 79.6165 4.52454  18
   2  -6  15 94.5517 4.42433   8
  -2   6 -15 98.5651 4.50593   8
   2   7 -15 182.142 8.77968   9
   1  -7 -15 133.256 6.07729  10
   1  -7 -15 115.796 6.05414  18
   1   7 -15 128.603 6.11067   9
   1   7 -15 114.838 6.02439  11
   0  -7 -15 144.298 7.12474  18
   0  -7 -15 149.259 7.04662   9
   0  -7  15 151.530 7.13502   8
   0  -7 -15 146.099 7.17408  10
   0   7 -15 142.171 7.04083   8
   0   7 -15 134.272 7.10197  11
   0   7 -15 152.107 7.24073   9
   1  -7  15 91.5536 4.11485   8
  -1  -7 -15 81.3829 4.09627   9
  -1  -7 -15 74.9587 4.08367  18
  -1   7 -15 82.0285 4.08073   8
   1  -8 -15 34.4427 1.84274  10
   1   8 -15 34.3730 1.86945  11
   1   8 -15 37.9586 1.93034   9
   0  -8 -15 138.885 7.07432  10
   0   8 -15 149.596 6.96185   8
  -1  -8 -15 52.9681 2.69570   9
   1  -8  15 56.8842 2.69896   8
  -1   8 -15 50.3441 2.67800   8
   0  -9 -15 1.95543 0.32939  10
   2   0 -16 79.8866 3.52471  10
   2   0 -16 60.9174 3.53352  18
   1   0 -16 7.43850 0.71728  18
   1   0 -16 6.39048 0.67736  10
   1   0 -16 5.58505 0.48591   9
   0   0 -16 32.7672 1.79652  18
   0   0 -16 31.6692 1.75736   9
  -1   0 -16 11.0505 0.85087  18
  -1   0 -16 10.5620 0.90808   9
   2  -1 -16 17.9793 1.15828  18
   2  -1 -16 18.6644 1.04839  10
   2   1 -16 19.5955 1.15699  10
   2   1 -16 19.5604 1.13436  18
   1  -1 -16 61.4930 3.02716  18
   1  -1 -16 61.0166 3.01429  10
   1   1 -16 61.0782 3.06243  18
   1   1 -16 59.6183 2.91650   9
   1   1 -16 50.1127 3.00746  10
   0  -1 -16 88.9714 4.47964  18
   0  -1 -16 92.8176 4.46766   9
   0   1 -16 86.3342 4.47609  18
   0   1 -16 89.4298 4.45775   9
  -1  -1 -16 72.9575 3.59187  18
  -1  -1 -16 68.1281 3.60118   9
  -1   1 -16 71.7620 3.59065  18
   2  -2 -16 111.152 4.76056  10
   2   2 -16 83.1236 4.76148  10
   1  -2 -16 173.688 8.71689  10
   1  -2 -16 177.788 8.73049  18
   1   2 -16 177.040 8.71619  18
   1   2 -16 186.244 8.64986   9
   0  -2 -16 36.7331 2.16501  10
   0  -2 -16 38.9924 2.07054   9
   0  -2 -16 40.9807 2.15906  18
   0   2 -16 40.9918 2.13566   9
   0   2 -16 41.8201 2.13443  18
   1  -2  16 218.406 10.8053   8
  -1  -2 -16 232.882 10.8291  18
  -1   2 -16 216.921 10.8041  18
   1  -3 -16 6.35068 0.65295  18
   1  -3 -16 4.79559 0.61224  10
   1   3 -16 4.60809 0.66216  10
   1   3 -16 5.49645 0.61323  18
   1   3 -16 5.82764 0.59115   9
   0  -3 -16 31.3062 1.65201   9
   0  -3 -16 32.3192 1.78427  10
   0   3 -16 29.3138 1.75329   9
   0   3 -16 33.7987 1.73235  18
  -1  -3 -16 75.9488 3.80625   9
   1  -4 -16 6.58520 0.59230  10
   1   4 -16 7.06982 0.63239   9
   0  -4 -16 14.0912 0.79472   9
   0  -4 -16 12.0947 0.92845  18
   0   4 -16 13.3198 0.92384   9
  -1  -4 -16 24.1379 1.34414   9
   1   5 -16 41.4834 2.12564   9
   0   0   0    0.00    0.00   0

 _exptl_absorpt_process_details 'SADABS 2014/4'
 _exptl_absorpt_correction_type   multiscan
 _exptl_absorpt_correction_T_max  0.7142
 _exptl_absorpt_correction_T_min  0.6197
 _exptl_special_details
)
 The following wavelength and cell were deduced by SADABS from the
 direction cosines etc. They are given here for emergency use only:
 CELL 1.54173    6.293   17.814   13.758   89.971   91.807   89.990
)

;
_shelx_hkl_checksum   10027

