data_x13441 

# start Validation Reply Form
_vrf_PLAT029_I
;
PROBLEM: _diffrn_measured_fraction_theta_full Low .......      0.937       
RESPONSE: This is a consequence of rejections during data processing 
caused by overlapping reflections that could not be adequately 
separated.  It is a common occurrence with data from some twinned 
crystals, but is of no particular consequence.  The molecular model 
and the packing of symmetry equivalents is beyond any doubt.
;
# end Validation Reply Form

 
_audit_creation_method            SHELXL-2013 
# CIF file edited on-the-fly by script CIFFIX (S. Parkin, 2013). 
# CIFFIX: http://xray.uky.edu/people/parkin/programs/ciffix 
 
_publ_section_exptl_refinement 
; 
H atoms were found in difference Fourier maps and subsequently placed 
at idealized positions with constrained distances of 0.98 \%A (RCH~3~), 
0.99 \%A (R~2~CH~2~), 1.00 \%A (R~3~CH) and 0.95 \%A (C~sp2~H). U~iso~(H) 
values were set to either 1.2U~eq~ or 1.5U~eq~ (RCH~3~) of the attached 
atom. 

To ensure satisfactory refinement of disordered groups in the structure, 
a combination of constraints and restraints were employed. The constraints 
(SHELXL command EADP) were used to fix parameters of superimposed or 
partially overlapping fragments.  Restraints (SHELXL commands SAME, SADI 
and RIGU) were used to maintain the integrity of ill-defined or disordered 
groups. 
 
The crystal was twinned by non-merohedry. This was dealt with using standard 
SHELXL methods (an HKLF 5 format *.hkl file, the BASF command, and MERG 0). 
; 
 
_publ_section_references 
; 
Bruker-AXS (2006). 
  <i>APEX2</i> Bruker-AXS Inc., Madison, Wisconsin, USA. 
 
Hope, H. (1994). 
  <i>Prog. Inorg. Chem.</i> <b>41</b>, 1--19. 
 
Parkin, S. & Hope, H. (1998). 
  <i>J. Appl. Cryst.</i> <b>31</b>, 945--953. 
 
Parkin, S. (2000). 
  <i>Acta Cryst.</i> A<b>56</b>, 157--162. 
 
Parkin, S. (2013). 
  <i>CIFFIX</i>, http://xray.uky.edu/people/parkin/programs/ciffix 
 
Sheldrick, G.M. (2008a). 
  <i>Acta Cryst.</i> <b>A</b>64, 112--122. 
 
Sheldrick, G.M. (2008b). 
  <i>TWINABS</i> University of G\"ottingen, Germany. 
 
Spek, A.L. (2009). 
  <i>Acta Cryst.</i> <b>D</b>65, 148--155. 
; 
 
_chemical_name_systematic 
; 
 ? 
; 
_chemical_name_common             ? 
_chemical_melting_point           ? 
_chemical_formula_moiety          'C48 H50 Si2' 
_chemical_formula_sum             'C48 H50 Si2' 
_chemical_formula_weight          683.06 
 
loop_ 
 _atom_type_symbol 
 _atom_type_description 
 _atom_type_scat_dispersion_real 
 _atom_type_scat_dispersion_imag 
 _atom_type_scat_source 
 'C'  'C'   0.0181   0.0091 
 'International Tables Vol C Tables 4.2.6.8 and 6.1.1.4' 
 'H'  'H'   0.0000   0.0000 
 'International Tables Vol C Tables 4.2.6.8 and 6.1.1.4' 
 'Si'  'Si'   0.2541   0.3302 
 'International Tables Vol C Tables 4.2.6.8 and 6.1.1.4' 
 
_space_group_crystal_system       triclinic 
_space_group_IT_number            2 
_space_group_name_H-M_alt         'P -1' 
_space_group_name_Hall            '-P 1' 
 
_shelx_space_group_comment 
; 
The symmetry employed for this shelxl refinement is uniquely defined 
by the following loop, which should always be used as a source of 
symmetry information in preference to the above space-group names. 
They are only intended as comments. 
; 
 
loop_ 
 _space_group_symop_operation_xyz 
 'x, y, z' 
 '-x, -y, -z' 
 
_cell_length_a                    7.8372(2) 
_cell_length_b                    10.8273(3) 
_cell_length_c                    12.2376(4) 
_cell_angle_alpha                 69.940(2) 
_cell_angle_beta                  84.785(2) 
_cell_angle_gamma                 73.608(2) 
_cell_volume                      935.77(5) 
_cell_formula_units_Z             1 
_cell_measurement_temperature     90.0(2) 
_cell_measurement_reflns_used     4864 
_cell_measurement_theta_min       3.85 
_cell_measurement_theta_max       68.22 
 
_exptl_crystal_description        needle 
_exptl_crystal_colour             blue 
_exptl_crystal_density_meas       ? 
_exptl_crystal_density_method     ? 
_exptl_crystal_density_diffrn     1.212 
_exptl_crystal_F_000              366 
_exptl_transmission_factor_min    ? 
_exptl_transmission_factor_max    ? 
_exptl_crystal_size_max           0.350 
_exptl_crystal_size_mid           0.030 
_exptl_crystal_size_min           0.020 
_exptl_absorpt_coefficient_mu     1.099 
_shelx_estimated_absorpt_T_min    0.700 
_shelx_estimated_absorpt_T_max    0.978 
_exptl_absorpt_correction_type    multi-scan 
_exptl_absorpt_correction_T_min   0.786 
_exptl_absorpt_correction_T_max   0.929 
_exptl_absorpt_process_details    '<i>TWINABS</i> (Sheldrick, 2008b)' 
 
_exptl_special_details 
; 
The crystal was mounted with polyisobutene oil on the tip of a fine glass 
fibre, fastened in a copper mounting pin with electrical solder.  It was 
placed directly into the cold stream of a liquid nitrogen based cryostat, 
according to published methods (Hope, 1994; Parkin & Hope, 1998). 
 
Diffraction data were collected with the crystal at 90K, which is standard 
practice in this laboratory for the majority of flash-cooled crystals. 
; 
 
_diffrn_ambient_temperature       90.0(2) 
_diffrn_radiation_wavelength      1.54178 
_diffrn_radiation_type            CuK\a 
_diffrn_source                    'fine-focus rotating anode' 
_diffrn_measurement_device_type   'Bruker X8 Proteum diffractometer' 
_diffrn_measurement_method        '\f and \w scans' 
_diffrn_detector_area_resol_mean  5.6 
_diffrn_reflns_number             3062 
_diffrn_reflns_av_unetI/netI      0.0400 
_diffrn_reflns_av_R_equivalents   ? 
_diffrn_reflns_limit_h_min        -9 
_diffrn_reflns_limit_h_max        9 
_diffrn_reflns_limit_k_min        -11 
_diffrn_reflns_limit_k_max        13 
_diffrn_reflns_limit_l_min        0 
_diffrn_reflns_limit_l_max        14 
_diffrn_reflns_theta_min          3.845 
_diffrn_reflns_theta_max          67.939 
_diffrn_reflns_theta_full         67.679 
_diffrn_measured_fraction_theta_max                0.936 
_diffrn_measured_fraction_theta_full               0.937 
_diffrn_reflns_Laue_measured_fraction_max          0.936 
_diffrn_reflns_Laue_measured_fraction_full         0.937 
_diffrn_reflns_point_group_measured_fraction_max   0.936 
_diffrn_reflns_point_group_measured_fraction_full  0.937 
 
_reflns_number_total              3062 
_reflns_number_gt                 2780 
_reflns_threshold_expression      'I > 2\s(I)' 
_reflns_Friedel_coverage          0.000 
_reflns_Friedel_fraction_max      . 
_reflns_Friedel_fraction_full     . 
 
_reflns_special_details 
; 
_reflns_Friedel_fraction is defined as the number of unique 
Friedel pairs measured divided by the number that would be 
possible theoretically, ignoring centric projections and 
systematic absences. 
; 
 
_computing_data_collection        '<i>APEX2</i> (Bruker-AXS, 2006)' 
_computing_cell_refinement        '<i>APEX2</i> (Bruker-AXS, 2006)' 
_computing_data_reduction         '<i>APEX2</i> (Bruker-AXS, 2006)' 
_computing_structure_solution     '<i>SHELXS-97</i> (Sheldrick, 2008a)' 
_computing_structure_refinement   '<i>SHELXL-2013</i> (Sheldrick, 2008a)' 
_computing_molecular_graphics     '<i>XP in SHELXTL</i> (Sheldrick, 2008a)' 
_computing_publication_material 
'<i>SHELX</i> (Sheldrick, 2008a) and <i>CIFFIX</i> (Parkin, 2013)' 
 
_refine_special_details 
; 
Refinement progress was checked using <i>Platon</i> (Spek, 2009) and by 
an <i>R</i>-tensor (Parkin, 2000). The final model was further checked 
with the IUCr utility <i>checkCIF</i>. 
; 
 
_refine_ls_structure_factor_coef  Fsqd 
_refine_ls_matrix_type            full 
_refine_ls_weighting_scheme       calc 
_refine_ls_weighting_details 
'w=1/[\s^2^(Fo^2^)+(0.1400P)^2^+0.2218P] where P=(Fo^2^+2Fc^2^)/3' 
_atom_sites_solution_primary      direct 
_atom_sites_solution_secondary    difmap 
_atom_sites_solution_hydrogens    geom 
_refine_ls_hydrogen_treatment     constr 
_refine_ls_extinction_method      none 
_refine_ls_extinction_coef        . 
_refine_ls_number_reflns          3062 
_refine_ls_number_parameters      245 
_refine_ls_number_restraints      22 
_refine_ls_R_factor_all           0.0630 
_refine_ls_R_factor_gt            0.0590 
_refine_ls_wR_factor_ref          0.1837 
_refine_ls_wR_factor_gt           0.1776 
_refine_ls_goodness_of_fit_ref    1.058 
_refine_ls_restrained_S_all       1.059 
_refine_ls_shift/su_max           0.000 
_refine_ls_shift/su_mean          0.000 
 
loop_ 
 _atom_site_label 
 _atom_site_type_symbol 
 _atom_site_fract_x 
 _atom_site_fract_y 
 _atom_site_fract_z 
 _atom_site_U_iso_or_equiv 
 _atom_site_adp_type 
 _atom_site_occupancy 
 _atom_site_site_symmetry_order 
 _atom_site_calc_flag 
 _atom_site_refinement_flags_posn 
 _atom_site_refinement_flags_adp 
 _atom_site_refinement_flags_occupancy 
 _atom_site_disorder_assembly 
 _atom_site_disorder_group 
Si1 Si 0.58860(9) 0.17809(7) 0.18651(6) 0.0246(3) Uani 1 1 d D . . . . 
C1 C 0.5231(3) 0.4275(2) 0.4202(2) 0.0224(5) Uani 1 1 d . . . . . 
C2 C 0.3852(3) 0.4179(2) 0.5027(2) 0.0217(5) Uani 1 1 d . . . . . 
C3 C 0.2648(3) 0.3405(2) 0.5062(2) 0.0227(5) Uani 1 1 d . . . . . 
H3 H 0.2806 0.2912 0.4534 0.027 Uiso 1 1 calc R U . . . 
C4 C 0.1251(3) 0.3342(2) 0.5838(2) 0.0223(5) Uani 1 1 d . . . . . 
C5 C 0.0000(3) 0.2581(2) 0.5844(2) 0.0242(6) Uani 1 1 d . . . . . 
C6 C -0.1352(4) 0.2574(3) 0.6623(2) 0.0273(6) Uani 1 1 d . . . . . 
H6 H -0.2166 0.2064 0.6636 0.033 Uiso 1 1 calc R U . . . 
C7 C -0.1587(4) 0.3305(3) 0.7418(2) 0.0277(6) Uani 1 1 d . . . . . 
H7 H -0.2559 0.3276 0.7942 0.033 Uiso 1 1 calc R U . . . 
C8 C -0.0462(4) 0.4046(3) 0.7452(2) 0.0250(6) Uani 1 1 d . . . . . 
C9 C 0.1019(3) 0.4069(2) 0.6664(2) 0.0229(6) Uani 1 1 d . . . . . 
C10 C 0.2223(3) 0.4810(3) 0.6641(2) 0.0236(5) Uani 1 1 d . . . . . 
H10 H 0.2092 0.5271 0.7191 0.028 Uiso 1 1 calc R U . . . 
C11 C 0.3614(3) 0.4904(2) 0.5843(2) 0.0218(5) Uani 1 1 d . . . . . 
C12 C 0.5491(3) 0.3529(3) 0.3409(2) 0.0228(5) Uani 1 1 d . . . . . 
C13 C 0.5704(3) 0.2867(3) 0.2768(2) 0.0242(6) Uani 1 1 d . . . . . 
C14 C 0.5801(4) 0.0077(3) 0.2839(3) 0.0334(7) Uani 1 1 d . . . . . 
H14 H 0.6918 -0.0480 0.3294 0.040 Uiso 1 1 calc R U . . . 
C15 C 0.4778(4) -0.0742(3) 0.2507(3) 0.0319(6) Uani 1 1 d . . . . . 
H15A H 0.4118 -0.0313 0.1759 0.038 Uiso 1 1 calc R U . . . 
H15B H 0.5300 -0.1741 0.2726 0.038 Uiso 1 1 calc R U . . . 
C16 C 0.4102(4) -0.0166(3) 0.3464(3) 0.0381(7) Uani 1 1 d . . . . . 
H16A H 0.4208 -0.0811 0.4272 0.046 Uiso 1 1 calc R U . . . 
H16B H 0.3026 0.0617 0.3305 0.046 Uiso 1 1 calc R U . . . 
C17 C 0.4016(3) 0.2558(3) 0.0808(2) 0.0255(6) Uani 1 1 d . . . . . 
H17 H 0.2800 0.2644 0.1153 0.031 Uiso 1 1 calc R U . . . 
C18 C 0.4216(4) 0.2314(3) -0.0342(3) 0.0376(7) Uani 1 1 d . . . . . 
H18A H 0.5368 0.1737 -0.0505 0.045 Uiso 1 1 calc R U . . . 
H18B H 0.3162 0.2223 -0.0665 0.045 Uiso 1 1 calc R U . . . 
C19 C 0.4176(5) 0.3685(3) -0.0309(3) 0.0399(7) Uani 1 1 d . . . . . 
H19A H 0.3097 0.4441 -0.0610 0.048 Uiso 1 1 calc R U . . . 
H19B H 0.5304 0.3955 -0.0450 0.048 Uiso 1 1 calc R U . . . 
C20 C 0.8093(9) 0.1455(8) 0.1209(9) 0.0288(16) Uani 0.531(6) 1 d D U P A 1 
H20 H 0.8241 0.0943 0.0648 0.035 Uiso 0.531(6) 1 calc R U P A 1 
C21 C 0.9706(8) 0.1134(7) 0.1944(7) 0.0367(12) Uani 0.531(6) 1 d D U P A 1 
H21A H 0.9508 0.1169 0.2745 0.044 Uiso 0.531(6) 1 calc R U P A 1 
H21B H 1.0774 0.0429 0.1848 0.044 Uiso 0.531(6) 1 calc R U P A 1 
C22 C 0.9191(7) 0.2430(6) 0.0970(5) 0.0375(14) Uani 0.531(6) 1 d D U P A 1 
H22A H 0.9945 0.2538 0.0268 0.045 Uiso 0.531(6) 1 calc R U P A 1 
H22B H 0.8680 0.3277 0.1163 0.045 Uiso 0.531(6) 1 calc R U P A 1 
C20' C 0.7953(11) 0.1903(10) 0.0950(10) 0.0288(16) Uani 0.469(6) 1 d D U P A 2 
H20' H 0.7951 0.2833 0.0401 0.035 Uiso 0.469(6) 1 calc R U P A 2 
C21' C 0.9765(9) 0.0965(8) 0.1432(7) 0.0367(12) Uani 0.469(6) 1 d D U P A 2 
H21C H 1.0809 0.1341 0.1205 0.044 Uiso 0.469(6) 1 calc R U P A 2 
H21D H 0.9814 0.0316 0.2236 0.044 Uiso 0.469(6) 1 calc R U P A 2 
C22' C 0.8929(8) 0.0710(7) 0.0536(6) 0.0408(17) Uani 0.469(6) 1 d D U P A 2 
H22C H 0.8453 -0.0099 0.0778 0.049 Uiso 0.469(6) 1 calc R U P A 2 
H22D H 0.9448 0.0926 -0.0253 0.049 Uiso 0.469(6) 1 calc R U P A 2 
C23 C 0.0172(4) 0.1828(3) 0.4990(3) 0.0282(6) Uani 1 1 d . . . . . 
H23A H -0.0765 0.1354 0.5133 0.042 Uiso 1 1 calc R U . . . 
H23B H 0.1339 0.1161 0.5086 0.042 Uiso 1 1 calc R U . . . 
H23C H 0.0054 0.2480 0.4195 0.042 Uiso 1 1 calc R U . . . 
C24 C -0.0791(4) 0.4878(3) 0.8248(3) 0.0325(7) Uani 1 1 d . . . . . 
H24A H -0.1937 0.4853 0.8637 0.049 Uiso 1 1 calc R U . . . 
H24B H -0.0812 0.5825 0.7795 0.049 Uiso 1 1 calc R U . . . 
H24C H 0.0160 0.4501 0.8833 0.049 Uiso 1 1 calc R U . . . 
 
loop_ 
 _atom_site_aniso_label 
 _atom_site_aniso_U_11 
 _atom_site_aniso_U_22 
 _atom_site_aniso_U_33 
 _atom_site_aniso_U_23 
 _atom_site_aniso_U_13 
 _atom_site_aniso_U_12 
Si1 0.0209(4) 0.0292(4) 0.0306(4) -0.0205(3) 0.0006(3) -0.0042(3) 
C1 0.0298(14) 0.0178(12) 0.0198(12) -0.0076(10) -0.0010(10) -0.0045(10) 
C2 0.0278(13) 0.0172(12) 0.0206(13) -0.0089(10) 0.0003(10) -0.0036(10) 
C3 0.0267(13) 0.0203(12) 0.0246(13) -0.0138(10) 0.0012(10) -0.0042(9) 
C4 0.0276(14) 0.0165(11) 0.0217(13) -0.0064(10) -0.0018(10) -0.0035(9) 
C5 0.0226(12) 0.0206(12) 0.0299(14) -0.0109(11) -0.0001(10) -0.0036(9) 
C6 0.0276(14) 0.0240(13) 0.0314(14) -0.0084(11) -0.0018(11) -0.0089(10) 
C7 0.0278(13) 0.0245(13) 0.0269(14) -0.0067(11) 0.0046(10) -0.0049(10) 
C8 0.0287(14) 0.0228(12) 0.0230(13) -0.0094(11) 0.0030(10) -0.0049(10) 
C9 0.0279(13) 0.0170(12) 0.0219(13) -0.0060(10) 0.0010(10) -0.0038(9) 
C10 0.0297(14) 0.0203(12) 0.0219(12) -0.0107(10) 0.0015(10) -0.0043(10) 
C11 0.0277(13) 0.0176(11) 0.0201(12) -0.0083(10) -0.0018(10) -0.0030(9) 
C12 0.0266(13) 0.0221(12) 0.0217(13) -0.0094(11) 0.0004(9) -0.0072(10) 
C13 0.0236(13) 0.0238(12) 0.0276(13) -0.0122(11) 0.0005(10) -0.0058(10) 
C14 0.0375(16) 0.0251(14) 0.0408(16) -0.0164(12) -0.0157(12) -0.0013(11) 
C15 0.0345(15) 0.0277(14) 0.0390(16) -0.0187(13) -0.0014(12) -0.0071(11) 
C16 0.0515(19) 0.0310(15) 0.0321(16) -0.0148(13) 0.0019(13) -0.0066(13) 
C17 0.0237(13) 0.0290(13) 0.0277(14) -0.0156(11) 0.0014(10) -0.0055(10) 
C18 0.0392(17) 0.0473(18) 0.0327(16) -0.0227(15) -0.0019(12) -0.0087(13) 
C19 0.0522(19) 0.0394(17) 0.0288(16) -0.0121(13) 0.0024(13) -0.0132(14) 
C20 0.0202(17) 0.031(5) 0.038(4) -0.019(3) 0.0013(19) -0.002(2) 
C21 0.0265(18) 0.035(2) 0.046(4) -0.012(2) 0.002(2) -0.0071(15) 
C22 0.031(3) 0.035(3) 0.045(3) -0.011(2) 0.003(2) -0.009(2) 
C20' 0.0202(17) 0.031(5) 0.038(4) -0.019(3) 0.0013(19) -0.002(2) 
C21' 0.0265(18) 0.035(2) 0.046(4) -0.012(2) 0.002(2) -0.0071(15) 
C22' 0.029(3) 0.041(4) 0.055(4) -0.027(3) 0.016(3) -0.004(3) 
C23 0.0281(14) 0.0270(13) 0.0335(15) -0.0148(12) -0.0002(11) -0.0076(10) 
C24 0.0384(16) 0.0355(15) 0.0303(15) -0.0187(13) 0.0139(12) -0.0150(12) 
 
_geom_special_details 
; 
 All esds (except the esd in the dihedral angle between two l.s. planes) 
 are estimated using the full covariance matrix.  The cell esds are taken 
 into account individually in the estimation of esds in distances, angles 
 and torsion angles; correlations between esds in cell parameters are only 
 used when they are defined by crystal symmetry.  An approximate (isotropic) 
 treatment of cell esds is used for estimating esds involving l.s. planes. 
; 
 
loop_ 
 _geom_bond_atom_site_label_1 
 _geom_bond_atom_site_label_2 
 _geom_bond_distance 
 _geom_bond_site_symmetry_2 
 _geom_bond_publ_flag 
Si1 C20 1.833(7) . ? 
Si1 C14 1.837(3) . ? 
Si1 C13 1.841(2) . ? 
Si1 C17 1.853(3) . ? 
Si1 C20' 1.894(9) . ? 
C1 C2 1.410(4) . ? 
C1 C11 1.423(4) 2_666 ? 
C1 C12 1.430(3) . ? 
C2 C3 1.417(4) . ? 
C2 C11 1.438(3) . ? 
C3 C4 1.384(4) . ? 
C3 H3 0.9500 . ? 
C4 C5 1.446(4) . ? 
C4 C9 1.450(3) . ? 
C5 C6 1.359(4) . ? 
C5 C23 1.508(3) . ? 
C6 C7 1.422(4) . ? 
C6 H6 0.9500 . ? 
C7 C8 1.360(4) . ? 
C7 H7 0.9500 . ? 
C8 C9 1.440(4) . ? 
C8 C24 1.502(3) . ? 
C9 C10 1.393(4) . ? 
C10 C11 1.398(4) . ? 
C10 H10 0.9500 . ? 
C11 C1 1.423(4) 2_666 ? 
C12 C13 1.206(4) . ? 
C14 C15 1.517(4) . ? 
C14 C16 1.518(5) . ? 
C14 H14 1.0000 . ? 
C15 C16 1.498(4) . ? 
C15 H15A 0.9900 . ? 
C15 H15B 0.9900 . ? 
C16 H16A 0.9900 . ? 
C16 H16B 0.9900 . ? 
C17 C18 1.505(4) . ? 
C17 C19 1.511(4) . ? 
C17 H17 1.0000 . ? 
C18 C19 1.491(4) . ? 
C18 H18A 0.9900 . ? 
C18 H18B 0.9900 . ? 
C19 H19A 0.9900 . ? 
C19 H19B 0.9900 . ? 
C20 C22 1.482(10) . ? 
C20 C21 1.508(10) . ? 
C20 H20 1.0000 . ? 
C21 C22 1.474(9) . ? 
C21 H21A 0.9900 . ? 
C21 H21B 0.9900 . ? 
C22 H22A 0.9900 . ? 
C22 H22B 0.9900 . ? 
C20' C21' 1.525(9) . ? 
C20' C22' 1.526(11) . ? 
C20' H20' 1.0000 . ? 
C21' C22' 1.466(10) . ? 
C21' H21C 0.9900 . ? 
C21' H21D 0.9900 . ? 
C22' H22C 0.9900 . ? 
C22' H22D 0.9900 . ? 
C23 H23A 0.9800 . ? 
C23 H23B 0.9800 . ? 
C23 H23C 0.9800 . ? 
C24 H24A 0.9800 . ? 
C24 H24B 0.9800 . ? 
C24 H24C 0.9800 . ? 
 
loop_ 
 _geom_angle_atom_site_label_1 
 _geom_angle_atom_site_label_2 
 _geom_angle_atom_site_label_3 
 _geom_angle 
 _geom_angle_site_symmetry_1 
 _geom_angle_site_symmetry_3 
 _geom_angle_publ_flag 
C20 Si1 C14 103.0(3) . . ? 
C20 Si1 C13 111.5(3) . . ? 
C14 Si1 C13 107.75(13) . . ? 
C20 Si1 C17 114.5(3) . . ? 
C14 Si1 C17 111.34(13) . . ? 
C13 Si1 C17 108.53(11) . . ? 
C14 Si1 C20' 117.1(3) . . ? 
C13 Si1 C20' 106.8(4) . . ? 
C17 Si1 C20' 105.0(3) . . ? 
C2 C1 C11 120.7(2) . 2_666 ? 
C2 C1 C12 120.0(2) . . ? 
C11 C1 C12 119.3(2) 2_666 . ? 
C1 C2 C3 121.7(2) . . ? 
C1 C2 C11 120.0(2) . . ? 
C3 C2 C11 118.3(2) . . ? 
C4 C3 C2 122.3(2) . . ? 
C4 C3 H3 118.9 . . ? 
C2 C3 H3 118.9 . . ? 
C3 C4 C5 121.8(2) . . ? 
C3 C4 C9 119.3(2) . . ? 
C5 C4 C9 118.9(2) . . ? 
C6 C5 C4 118.8(2) . . ? 
C6 C5 C23 120.5(2) . . ? 
C4 C5 C23 120.7(2) . . ? 
C5 C6 C7 122.1(2) . . ? 
C5 C6 H6 119.0 . . ? 
C7 C6 H6 119.0 . . ? 
C8 C7 C6 122.0(2) . . ? 
C8 C7 H7 119.0 . . ? 
C6 C7 H7 119.0 . . ? 
C7 C8 C9 118.5(2) . . ? 
C7 C8 C24 121.2(2) . . ? 
C9 C8 C24 120.2(2) . . ? 
C10 C9 C8 121.9(2) . . ? 
C10 C9 C4 118.3(2) . . ? 
C8 C9 C4 119.8(2) . . ? 
C9 C10 C11 122.8(2) . . ? 
C9 C10 H10 118.6 . . ? 
C11 C10 H10 118.6 . . ? 
C10 C11 C1 121.7(2) . 2_666 ? 
C10 C11 C2 119.0(2) . . ? 
C1 C11 C2 119.3(2) 2_666 . ? 
C13 C12 C1 178.1(3) . . ? 
C12 C13 Si1 175.0(2) . . ? 
C15 C14 C16 59.14(19) . . ? 
C15 C14 Si1 121.3(2) . . ? 
C16 C14 Si1 121.2(2) . . ? 
C15 C14 H14 114.7 . . ? 
C16 C14 H14 114.7 . . ? 
Si1 C14 H14 114.7 . . ? 
C16 C15 C14 60.4(2) . . ? 
C16 C15 H15A 117.7 . . ? 
C14 C15 H15A 117.7 . . ? 
C16 C15 H15B 117.7 . . ? 
C14 C15 H15B 117.7 . . ? 
H15A C15 H15B 114.8 . . ? 
C15 C16 C14 60.42(19) . . ? 
C15 C16 H16A 117.7 . . ? 
C14 C16 H16A 117.7 . . ? 
C15 C16 H16B 117.7 . . ? 
C14 C16 H16B 117.7 . . ? 
H16A C16 H16B 114.9 . . ? 
C18 C17 C19 59.23(19) . . ? 
C18 C17 Si1 120.03(19) . . ? 
C19 C17 Si1 119.2(2) . . ? 
C18 C17 H17 115.6 . . ? 
C19 C17 H17 115.6 . . ? 
Si1 C17 H17 115.6 . . ? 
C19 C18 C17 60.58(18) . . ? 
C19 C18 H18A 117.7 . . ? 
C17 C18 H18A 117.7 . . ? 
C19 C18 H18B 117.7 . . ? 
C17 C18 H18B 117.7 . . ? 
H18A C18 H18B 114.8 . . ? 
C18 C19 C17 60.19(19) . . ? 
C18 C19 H19A 117.8 . . ? 
C17 C19 H19A 117.8 . . ? 
C18 C19 H19B 117.8 . . ? 
C17 C19 H19B 117.8 . . ? 
H19A C19 H19B 114.9 . . ? 
C22 C20 C21 59.1(5) . . ? 
C22 C20 Si1 121.4(6) . . ? 
C21 C20 Si1 118.7(7) . . ? 
C22 C20 H20 115.4 . . ? 
C21 C20 H20 115.4 . . ? 
Si1 C20 H20 115.4 . . ? 
C22 C21 C20 59.6(4) . . ? 
C22 C21 H21A 117.8 . . ? 
C20 C21 H21A 117.8 . . ? 
C22 C21 H21B 117.8 . . ? 
C20 C21 H21B 117.8 . . ? 
H21A C21 H21B 114.9 . . ? 
C21 C22 C20 61.3(4) . . ? 
C21 C22 H22A 117.6 . . ? 
C20 C22 H22A 117.6 . . ? 
C21 C22 H22B 117.6 . . ? 
C20 C22 H22B 117.6 . . ? 
H22A C22 H22B 114.7 . . ? 
C21' C20' C22' 57.4(5) . . ? 
C21' C20' Si1 120.2(7) . . ? 
C22' C20' Si1 118.8(6) . . ? 
C21' C20' H20' 115.9 . . ? 
C22' C20' H20' 115.9 . . ? 
Si1 C20' H20' 115.9 . . ? 
C22' C21' C20' 61.3(6) . . ? 
C22' C21' H21C 117.6 . . ? 
C20' C21' H21C 117.6 . . ? 
C22' C21' H21D 117.6 . . ? 
C20' C21' H21D 117.6 . . ? 
H21C C21' H21D 114.7 . . ? 
C21' C22' C20' 61.2(5) . . ? 
C21' C22' H22C 117.6 . . ? 
C20' C22' H22C 117.6 . . ? 
C21' C22' H22D 117.6 . . ? 
C20' C22' H22D 117.6 . . ? 
H22C C22' H22D 114.8 . . ? 
C5 C23 H23A 109.5 . . ? 
C5 C23 H23B 109.5 . . ? 
H23A C23 H23B 109.5 . . ? 
C5 C23 H23C 109.5 . . ? 
H23A C23 H23C 109.5 . . ? 
H23B C23 H23C 109.5 . . ? 
C8 C24 H24A 109.5 . . ? 
C8 C24 H24B 109.5 . . ? 
H24A C24 H24B 109.5 . . ? 
C8 C24 H24C 109.5 . . ? 
H24A C24 H24C 109.5 . . ? 
H24B C24 H24C 109.5 . . ? 
 
loop_ 
 _geom_torsion_atom_site_label_1 
 _geom_torsion_atom_site_label_2 
 _geom_torsion_atom_site_label_3 
 _geom_torsion_atom_site_label_4 
 _geom_torsion 
 _geom_torsion_site_symmetry_1 
 _geom_torsion_site_symmetry_2 
 _geom_torsion_site_symmetry_3 
 _geom_torsion_site_symmetry_4 
 _geom_torsion_publ_flag 
C11 C1 C2 C3 177.8(2) 2_666 . . . ? 
C12 C1 C2 C3 -2.9(4) . . . . ? 
C11 C1 C2 C11 -0.7(4) 2_666 . . . ? 
C12 C1 C2 C11 178.6(2) . . . . ? 
C1 C2 C3 C4 -177.6(2) . . . . ? 
C11 C2 C3 C4 0.9(4) . . . . ? 
C2 C3 C4 C5 178.2(2) . . . . ? 
C2 C3 C4 C9 -1.2(4) . . . . ? 
C3 C4 C5 C6 -179.4(2) . . . . ? 
C9 C4 C5 C6 0.1(4) . . . . ? 
C3 C4 C5 C23 -0.4(4) . . . . ? 
C9 C4 C5 C23 179.0(2) . . . . ? 
C4 C5 C6 C7 0.9(4) . . . . ? 
C23 C5 C6 C7 -178.1(2) . . . . ? 
C5 C6 C7 C8 -0.5(4) . . . . ? 
C6 C7 C8 C9 -0.8(4) . . . . ? 
C6 C7 C8 C24 176.4(3) . . . . ? 
C7 C8 C9 C10 179.6(2) . . . . ? 
C24 C8 C9 C10 2.5(4) . . . . ? 
C7 C8 C9 C4 1.7(4) . . . . ? 
C24 C8 C9 C4 -175.5(2) . . . . ? 
C3 C4 C9 C10 0.1(4) . . . . ? 
C5 C4 C9 C10 -179.4(2) . . . . ? 
C3 C4 C9 C8 178.1(2) . . . . ? 
C5 C4 C9 C8 -1.4(4) . . . . ? 
C8 C9 C10 C11 -176.6(2) . . . . ? 
C4 C9 C10 C11 1.4(4) . . . . ? 
C9 C10 C11 C1 176.7(2) . . . 2_666 ? 
C9 C10 C11 C2 -1.7(4) . . . . ? 
C1 C2 C11 C10 179.1(2) . . . . ? 
C3 C2 C11 C10 0.5(4) . . . . ? 
C1 C2 C11 C1 0.7(4) . . . 2_666 ? 
C3 C2 C11 C1 -177.9(2) . . . 2_666 ? 
C20 Si1 C14 C15 -102.1(4) . . . . ? 
C13 Si1 C14 C15 139.9(2) . . . . ? 
C17 Si1 C14 C15 21.0(3) . . . . ? 
C20' Si1 C14 C15 -99.8(5) . . . . ? 
C20 Si1 C14 C16 -172.7(4) . . . . ? 
C13 Si1 C14 C16 69.4(2) . . . . ? 
C17 Si1 C14 C16 -49.5(3) . . . . ? 
C20' Si1 C14 C16 -170.3(5) . . . . ? 
Si1 C14 C15 C16 -110.0(3) . . . . ? 
Si1 C14 C16 C15 110.3(3) . . . . ? 
C20 Si1 C17 C18 27.2(4) . . . . ? 
C14 Si1 C17 C18 -89.1(2) . . . . ? 
C13 Si1 C17 C18 152.5(2) . . . . ? 
C20' Si1 C17 C18 38.6(4) . . . . ? 
C20 Si1 C17 C19 -42.1(4) . . . . ? 
C14 Si1 C17 C19 -158.4(2) . . . . ? 
C13 Si1 C17 C19 83.2(2) . . . . ? 
C20' Si1 C17 C19 -30.7(4) . . . . ? 
Si1 C17 C18 C19 -108.2(3) . . . . ? 
Si1 C17 C19 C18 109.5(2) . . . . ? 
C14 Si1 C20 C22 -142.2(6) . . . . ? 
C13 Si1 C20 C22 -26.9(8) . . . . ? 
C17 Si1 C20 C22 96.7(7) . . . . ? 
C20' Si1 C20 C22 46(2) . . . . ? 
C14 Si1 C20 C21 -72.9(6) . . . . ? 
C13 Si1 C20 C21 42.4(6) . . . . ? 
C17 Si1 C20 C21 166.1(5) . . . . ? 
C20' Si1 C20 C21 116(3) . . . . ? 
Si1 C20 C21 C22 -111.4(7) . . . . ? 
Si1 C20 C22 C21 106.8(8) . . . . ? 
C20 Si1 C20' C21' -26(2) . . . . ? 
C14 Si1 C20' C21' -34.9(10) . . . . ? 
C13 Si1 C20' C21' 86.0(9) . . . . ? 
C17 Si1 C20' C21' -158.9(8) . . . . ? 
C20 Si1 C20' C22' 41(2) . . . . ? 
C14 Si1 C20' C22' 32.2(9) . . . . ? 
C13 Si1 C20' C22' 153.0(6) . . . . ? 
C17 Si1 C20' C22' -91.9(7) . . . . ? 
Si1 C20' C21' C22' 106.9(9) . . . . ? 
Si1 C20' C22' C21' -109.3(8) . . . . ? 
 
_refine_diff_density_max    0.339 
_refine_diff_density_min   -0.354 
_refine_diff_density_rms    0.068 
 
_shelxl_version_number 2013-4 
 
_iucr_refine_instructions_details 
; 
TITL x13441 in P-1 
CELL  1.54178   7.8372  10.8273  12.2376   69.940   84.785   73.608 
ZERR    1.00   0.0002   0.0003   0.0004   0.002   0.002   0.002 
LATT  1 
SFAC C H SI 
UNIT 48 50 2 
TEMP -183.000 
SIZE 0.35 0.03 0.02 
SHEL 999 0.83 
REM COLR blue 
OMIT -2 136 
REM The next reflection must have been contaminated with counts from some 
REM other component reflection.  Interestingly, in the detwinned file that 
REM was used for initial structure solution, the intensity for reflection 
REM (1 0 2) was not so unusual. 
OMIT 1 0 2 
MERG 0 
L.S. 10 
BOND $H 
ACTA 
CONF 
HTAB 
LIST 4 
FMAP 2 
PLAN 20 
WGHT    0.140000    0.221800 
BASF   0.45082 
FVAR       0.80219   0.53067 
SI1   3    0.588597    0.178089    0.186509    11.00000    0.02094    0.02915 = 
         0.03063   -0.02055    0.00064   -0.00419 
C1    1    0.523063    0.427452    0.420236    11.00000    0.02981    0.01780 = 
         0.01981   -0.00761   -0.00101   -0.00451 
C2    1    0.385249    0.417915    0.502696    11.00000    0.02779    0.01717 = 
         0.02062   -0.00886    0.00033   -0.00357 
C3    1    0.264840    0.340525    0.506167    11.00000    0.02669    0.02032 = 
         0.02460   -0.01377    0.00121   -0.00420 
AFIX  43 
H3    2    0.280617    0.291241    0.453357    11.00000   -1.20000 
AFIX   0 
C4    1    0.125056    0.334245    0.583821    11.00000    0.02757    0.01647 = 
         0.02171   -0.00641   -0.00182   -0.00353 
C5    1    0.000017    0.258101    0.584422    11.00000    0.02265    0.02059 = 
         0.02995   -0.01094   -0.00015   -0.00357 
C6    1   -0.135193    0.257390    0.662290    11.00000    0.02759    0.02400 = 
         0.03141   -0.00842   -0.00184   -0.00893 
AFIX  43 
H6    2   -0.216595    0.206417    0.663627    11.00000   -1.20000 
AFIX   0 
C7    1   -0.158693    0.330528    0.741834    11.00000    0.02783    0.02454 = 
         0.02687   -0.00668    0.00461   -0.00486 
AFIX  43 
H7    2   -0.255853    0.327566    0.794200    11.00000   -1.20000 
AFIX   0 
C8    1   -0.046200    0.404593    0.745167    11.00000    0.02868    0.02282 = 
         0.02296   -0.00941    0.00300   -0.00490 
C9    1    0.101900    0.406922    0.666352    11.00000    0.02794    0.01698 = 
         0.02190   -0.00600    0.00101   -0.00376 
C10   1    0.222267    0.481023    0.664103    11.00000    0.02975    0.02026 = 
         0.02195   -0.01070    0.00145   -0.00431 
AFIX  43 
H10   2    0.209235    0.527109    0.719149    11.00000   -1.20000 
AFIX   0 
C11   1    0.361412    0.490420    0.584262    11.00000    0.02773    0.01755 = 
         0.02010   -0.00831   -0.00183   -0.00296 
C12   1    0.549080    0.352876    0.340939    11.00000    0.02663    0.02207 = 
         0.02171   -0.00940    0.00037   -0.00723 
C13   1    0.570355    0.286660    0.276756    11.00000    0.02365    0.02381 = 
         0.02759   -0.01217    0.00051   -0.00576 
C14   1    0.580120    0.007713    0.283894    11.00000    0.03749    0.02510 = 
         0.04076   -0.01638   -0.01566   -0.00134 
AFIX  13 
H14   2    0.691761   -0.048020    0.329415    11.00000   -1.20000 
AFIX   0 
C15   1    0.477766   -0.074197    0.250708    11.00000    0.03451    0.02775 = 
         0.03899   -0.01871   -0.00140   -0.00706 
AFIX  23 
H15A  2    0.411807   -0.031332    0.175888    11.00000   -1.20000 
H15B  2    0.529962   -0.174079    0.272618    11.00000   -1.20000 
AFIX   0 
C16   1    0.410157   -0.016600    0.346430    11.00000    0.05153    0.03099 = 
         0.03212   -0.01481    0.00190   -0.00665 
AFIX  23 
H16A  2    0.420782   -0.081056    0.427210    11.00000   -1.20000 
H16B  2    0.302625    0.061693    0.330479    11.00000   -1.20000 
AFIX   0 
C17   1    0.401606    0.255810    0.080762    11.00000    0.02368    0.02895 = 
         0.02772   -0.01559    0.00140   -0.00550 
AFIX  13 
H17   2    0.279973    0.264445    0.115338    11.00000   -1.20000 
AFIX   0 
C18   1    0.421582    0.231380   -0.034208    11.00000    0.03916    0.04725 = 
         0.03270   -0.02275   -0.00191   -0.00873 
AFIX  23 
H18A  2    0.536836    0.173661   -0.050471    11.00000   -1.20000 
H18B  2    0.316168    0.222274   -0.066471    11.00000   -1.20000 
AFIX   0 
C19   1    0.417604    0.368520   -0.030907    11.00000    0.05221    0.03938 = 
         0.02884   -0.01207    0.00238   -0.01316 
AFIX  23 
H19A  2    0.309678    0.444125   -0.060981    11.00000   -1.20000 
H19B  2    0.530405    0.395499   -0.044977    11.00000   -1.20000 
AFIX   0 
SADI 0.020 Si1 C20 Si1 C20' 
SAME 0.020 C20' C21' C22' 
EADP C20 C20' 
EADP C21 C21' 
RIGU 0.010 C20 > C22' 
PART 1 
C20   1    0.809255    0.145478    0.120858    21.00000    0.02019    0.03132 = 
         0.03788   -0.01936    0.00127   -0.00196 
AFIX  13 
H20   2    0.824070    0.094323    0.064835    21.00000   -1.20000 
AFIX   0 
C21   1    0.970565    0.113383    0.194444    21.00000    0.02654    0.03537 = 
         0.04583   -0.01226    0.00245   -0.00710 
AFIX  23 
H21A  2    0.950769    0.116867    0.274517    21.00000   -1.20000 
H21B  2    1.077389    0.042911    0.184827    21.00000   -1.20000 
AFIX   0 
C22   1    0.919083    0.243029    0.097031    21.00000    0.03090    0.03472 = 
         0.04478   -0.01094    0.00347   -0.00925 
AFIX  23 
H22A  2    0.994474    0.253796    0.026752    21.00000   -1.20000 
H22B  2    0.868002    0.327665    0.116336    21.00000   -1.20000 
AFIX   0 
PART 2 
C20'  1    0.795319    0.190295    0.094974   -21.00000    0.02019    0.03132 = 
         0.03788   -0.01936    0.00127   -0.00196 
AFIX  13 
H20'  2    0.795118    0.283255    0.040053   -21.00000   -1.20000 
AFIX   0 
C21'  1    0.976541    0.096526    0.143244   -21.00000    0.02654    0.03537 = 
         0.04583   -0.01226    0.00245   -0.00710 
AFIX  23 
H21C  2    1.080875    0.134081    0.120477   -21.00000   -1.20000 
H21D  2    0.981388    0.031604    0.223600   -21.00000   -1.20000 
AFIX   0 
C22'  1    0.892920    0.070990    0.053624   -21.00000    0.02880    0.04099 = 
         0.05517   -0.02722    0.01645   -0.00419 
AFIX  23 
H22C  2    0.845313   -0.009885    0.077839   -21.00000   -1.20000 
H22D  2    0.944810    0.092601   -0.025293   -21.00000   -1.20000 
AFIX   0 
PART 0 
C23   1    0.017212    0.182800    0.498972    11.00000    0.02811    0.02701 = 
         0.03350   -0.01485   -0.00021   -0.00764 
AFIX 137 
H23A  2   -0.076466    0.135421    0.513280    11.00000   -1.50000 
H23B  2    0.133887    0.116068    0.508563    11.00000   -1.50000 
H23C  2    0.005390    0.247971    0.419536    11.00000   -1.50000 
AFIX   0 
C24   1   -0.079127    0.487822    0.824824    11.00000    0.03842    0.03546 = 
         0.03030   -0.01868    0.01389   -0.01500 
AFIX 137 
H24A  2   -0.193707    0.485259    0.863654    11.00000   -1.50000 
H24B  2   -0.081215    0.582465    0.779472    11.00000   -1.50000 
H24C  2    0.016049    0.450063    0.883336    11.00000   -1.50000 
 
AFIX   0 
HKLF 5 
 
REM  x13441 in P-1 
REM R1 =  0.0590 for    2780 Fo > 4sig(Fo)  and  0.0630 for all    3062 data 
REM    245 parameters refined using     22 restraints 
 
END 
 
WGHT      0.1402      0.2170 
 
REM No hydrogen bonds found for HTAB generation 
 
REM Highest difference peak  0.339,  deepest hole -0.354,  1-sigma level  0.068 
Q1    1   0.1272  0.3557  0.6223  11.00000  0.05    0.34 
Q2    1   0.6176  0.3460  0.2880  11.00000  0.05    0.32 
Q3    1   0.5281  0.1876  0.1154  11.00000  0.05    0.29 
Q4    1   0.3662  0.4494  0.5477  11.00000  0.05    0.27 
Q5    1   0.6941  0.1649  0.1410  11.00000  0.05    0.27 
Q6    1   0.5233  0.2798  0.1949  11.00000  0.05    0.26 
Q7    1   0.4641  0.2531  0.1288  11.00000  0.05    0.26 
Q8    1   1.0375 -0.0785  0.1614  11.00000  0.05    0.26 
Q9    1   0.0204  0.2567  0.6233  11.00000  0.05    0.26 
Q10   1  -0.0309  0.4021  0.4215  11.00000  0.05    0.25 
Q11   1   0.7008  0.0981  0.1792  11.00000  0.05    0.25 
Q12   1   0.6226  0.1847  0.2557  11.00000  0.05    0.25 
Q13   1   0.5168  0.4116  0.3796  11.00000  0.05    0.25 
Q14   1   0.7125  0.1289  0.1652  11.00000  0.05    0.24 
Q15   1  -0.1150  0.3071  0.5891  11.00000  0.05    0.24 
Q16   1   0.5880  0.0792  0.2089  11.00000  0.05    0.23 
Q17   1   0.7128 -0.2386  0.2371  11.00000  0.05    0.23 
Q18   1  -0.0831  0.4843  0.7607  11.00000  0.05    0.23 
Q19   1   0.5876  0.2620  0.3383  11.00000  0.05    0.23 
Q20   1   0.9474  0.0594  0.1193  11.00000  0.05    0.22 
; 
_shelx_res_checksum   92990 
 
_shelx_hkl_file
;
   1   0   0 242.200 4.07113   1
   2   0   0 2009.96 33.7406   1
   3   0   0 22.0024 0.53132   1
   4   0   0 103.566 4.82591   1
   5   3   3 384.035 9.24726  -2
   5   0   0 384.035 9.24726   1
   6   0   0 161.443 4.55022   1
   7   4   4 68.1186 5.46347  -2
   7   0   0 68.1186 5.46347   1
   8   0   0 1.51080 0.93864   1
   8   5   6 71.8911 5.43336  -2
  -8   1   0 71.8911 5.43336   1
  -7   1   0 1.51838 0.59842   1
  -6   1   0 -0.0346 1.75494   1
   5   3   4 100.606 7.36715  -2
  -5   1   0 100.606 7.36715   1
  -4   1   0 202.182 4.95226   1
   3   2   3 195.333 3.60836  -2
  -3   1   0 195.333 3.60836   1
  -2   1   0 3.43638 0.21615   1
  -1   1   0 261.121 4.74986   1
   0   1   0 386.523 7.38502   1
   1   1   0 10.5277 0.23755   1
   2   1   0 602.196 39.2532  -2
   2   1   0 602.196 39.2532   1
   3   1   0 217.477 6.88210   1
   5   1   0 122.592 3.43765   1
   7   4   3 107.280 5.50847  -2
   7   1   0 107.280 5.50847   1
   8   1   0 -0.0709 0.46029   1
   8   5   7 6.24867 0.52888  -2
  -8   2   0 6.24867 0.52888   1
  -7   2   0 3.87322 0.53314   1
   6   4   6 0.25739 0.41344  -2
  -6   2   0 0.25739 0.41344   1
  -5   2   0 64.2970 1.71596   1
  -4   2   0 31.0993 1.40208   1
  -3   2   0 80.4073 2.60143   1
  -2   2   0 13.5217 0.44241   1
   1   1   3 998.669 35.3559  -2
  -1   2   0 998.669 35.3559   1
   0   2   0 89.4231 1.79426   1
   1   2   0 286.734 5.47588   1
   2   2   0 131.768 2.35342   1
   3   2   0 121.984 3.93175   1
   5   2   0 67.2873 2.14942   1
   6   3   1 56.6260 1.46391  -2
   6   2   0 56.6260 1.46391   1
   7   2   0 567.231 22.2341   1
   8   4   2 9.07169 1.19398  -2
   8   2   0 9.07169 1.19398   1
  -8   3   0 -0.0604 0.46504   1
   7   5   8 48.2515 2.52108  -2
  -7   3   0 48.2515 2.52108   1
  -6   3   0 -0.1686 0.51015   1
  -5   3   0 261.513 7.60082   1
   4   3   6 115.905 2.83780  -2
  -4   3   0 115.905 2.83780   1
  -3   3   0 122.170 3.87823   1
  -1   3   0 1.75631 0.34911   1
   0   3   0 0.40425 0.35060   1
   1   3   0 285.694 6.57051   1
   2   3   0 49.3227 0.96721   1
  -3  -1   2 1168.99 26.1252  -2
   3   3   0 1168.99 26.1252   1
   4   3   0 9.48708 0.84819   1
   5   3   0 1.14549 0.88340   1
   6   3   0 7.93961 0.83587  -2
   6   3   0 7.93961 0.83587   1
   7   3   0 212.397 6.01647   1
   8   4   1 12.9740 0.99490  -2
   8   3   0 12.9740 0.99490   1
   9   3   0 8.43093 0.94428   1
   7   5   9 26.4494 1.46145  -2
  -7   4   0 26.4494 1.46145   1
  -6   4   0 0.84334 0.35664   1
   5   4   8 65.1906 2.79334  -2
  -5   4   0 65.1906 2.79334   1
  -4   4   0 22.8815 0.78871   1
  -3   4   0 5.91510 0.33560   1
   2   2   6 29.1471 1.84769  -2
  -2   4   0 29.1471 1.84769   1
  -1   4   0 13.4894 0.74462   1
   0   1   5 143.868 6.24264  -2
   0   4   0 143.868 6.24264   1
   1   4   0 23.1309 0.71280   1
   2   4   0 0.35033 0.32907   1
   3   4   0 132.684 8.48034   1
   4   4   0 23.5622 0.86543   1
  -5  -2   2 43.3516 1.32580  -2
   5   4   0 43.3516 1.32580   1
   6   4   0 10.7106 0.63662   1
  -7  -3   1 61.9422 4.26493  -2
   7   4   0 61.9422 4.26493   1
   8   4   0 9.55947 1.24349  -2
   8   4   0 9.55947 1.24349   1
   9   4   0 33.8660 2.45409   1
  -7   5   0 3.10487 0.33200   1
  -6   5   0 0.21175 0.32816   1
   5   4   9 31.0242 2.40550  -2
  -5   5   0 31.0242 2.40550   1
  -4   5   0 108.467 2.86812   1
   3   3   8 15.4235 0.70884  -2
  -3   5   0 15.4235 0.70884   1
  -2   5   0 -0.0325 0.44786   1
  -1   5   0 79.7469 3.71893   1
   0   5   0 52.1331 1.65342   1
   1   5   0 292.391 8.53108   1
  -2   0   5 1012.67 34.5229  -2
   2   5   0 1012.67 34.5229   1
   3   5   0 10.4881 0.70116   1
  -4  -1   4 56.8674 3.08223  -2
   4   5   0 56.8674 3.08223   1
  -5  -2   3 89.6949 4.51806  -2
   5   5   0 89.6949 4.51806   1
   6   5   0 206.904 7.07270   1
  -7  -3   2 38.1288 1.47396  -2
   7   5   0 38.1288 1.47396   1
   8   5   0 29.6812 1.66258   1
  -9  -4   1 15.9491 1.35815  -2
   9   5   0 15.9491 1.35815   1
   6   5  11 56.2345 2.57044  -2
  -6   6   0 56.2345 2.57044   1
  -5   6   0 43.5431 2.17612   1
   4   4  10 139.592 9.54225  -2
  -4   6   0 139.592 9.54225   1
   3   3   9 43.8310 1.73153  -2
  -3   6   0 43.8310 1.73153   1
  -2   6   0 22.3146 0.90499   1
   1   2   8 199.050 7.06581  -2
  -1   6   0 199.050 7.06581   1
  -1   1   7 36.0669 2.93050  -2
   1   6   0 36.0669 2.93050   1
   2   6   0 277.064 9.66812   1
   3   6   0 16.7442 0.67248   1
  -4  -1   5 49.2691 1.22168  -2
   4   6   0 49.2691 1.22168   1
   5   6   0 66.9103 1.94593   1
  -6  -2   4 24.9902 1.61514  -2
   6   6   0 24.9902 1.61514   1
   7   6   0 2.32179 1.02095   1
   8   6   0 20.1432 1.69581   1
  -5   7   0 6.66041 0.55388   1
   4   4  11 80.6282 2.93783  -2
  -4   7   0 80.6282 2.93783   1
  -3   7   0 66.8647 2.17367   1
   2   3  10 321.019 13.6343  -2
  -2   7   0 321.019 13.6343   1
  -1   7   0 26.0408 1.59215   1
  -1   1   8 6.01352 0.72646  -2
   1   7   0 6.01352 0.72646   1
   2   7   0 79.7582 2.09504   1
  -3   0   7 268.756 6.40999  -2
   3   7   0 268.756 6.40999   1
  -4  -1   6 346.039 25.2193  -2
   4   7   0 346.039 25.2193   1
  -5  -1   6 20.1235 2.07360  -2
   5   7   0 20.1235 2.07360   1
  -6  -2   5 1.12054 0.50414  -2
   6   7   0 1.12054 0.50414   1
   7   7   0 20.0493 1.06470   1
  -8  -3   4 73.6673 5.65103  -2
   8   7   0 73.6673 5.65103   1
  -5   8   0 2.28528 0.34718   1
  -4   8   0 6.85733 0.47684   1
  -3   8   0 6.14327 0.40721   1
   2   3  11 18.1498 1.17056  -2
  -2   8   0 18.1498 1.17056   1
  -1   8   0 0.09853 0.65731   1
   1   8   0 85.5997 4.09071   1
   2   8   0 39.2724 1.33833   1
  -3   0   8 98.5974 2.62032  -2
   3   8   0 98.5974 2.62032   1
   4   8   0 47.0751 1.38575   1
  -5  -1   7 45.0651 2.40839  -2
   5   8   0 45.0651 2.40839   1
   6   8   0 0.59419 0.43201   1
  -7  -2   6 14.2960 1.24407  -2
   7   8   0 14.2960 1.24407   1
  -8  -3   5 8.68375 0.81758  -2
   8   8   0 8.68375 0.81758   1
  -4   9   0 1.33341 0.20974   1
   3   4  13 57.8454 2.65139  -2
  -3   9   0 57.8454 2.65139   1
  -2   9   0 68.1676 2.56344   1
  -1   9   0 12.3697 1.22111   1
   0   2  11 54.6779 3.87169  -2
   0   9   0 54.6779 3.87169   1
   1   9   0 2.40596 1.00064   1
  -2   1  10 81.5001 4.95794  -2
   2   9   0 81.5001 4.95794   1
   3   9   0 12.2716 0.57997   1
  -4   0   9 36.4611 3.01906  -2
   4   9   0 36.4611 3.01906   1
  -5  -1   8 228.440 8.59972  -2
   5   9   0 228.440 8.59972   1
   6   9   0 1.11859 0.54892   1
  -7  -2   7 6.35339 0.65526  -2
   7   9   0 6.35339 0.65526   1
  -2  10   0 -0.0707 0.26820   1
   1   3  13 4.92879 0.90694  -2
  -1  10   0 4.92879 0.90694   1
   0  10   0 2.43305 0.85213   1
   1  10   0 7.52949 1.21257   1
  -2   1  11 58.2282 2.92829  -2
   2  10   0 58.2282 2.92829   1
   3  10   0 6.60250 0.56853   1
  -4   0  10 8.15151 0.58602  -2
   4  10   0 8.15151 0.58602   1
   5  10   0 2.44571 0.53203   1
  -7  -2   8 16.6445 1.61180  -2
   7  10   0 16.6445 1.61180   1
  -1  11   0 27.0428 1.12637   1
   0  11   0 6.79909 0.52339   1
  -1   2  13 49.5524 2.40322  -2
   1  11   0 49.5524 2.40322   1
   2  11   0 6.17782 0.46937   1
  -3   1  12 6.51188 0.99436  -2
   3  11   0 6.51188 0.99436   1
   4  11   0 20.3897 1.19123   1
   5  11   0 64.3963 2.98164   1
  -6  -1  10 31.2956 2.23354  -2
   6  11   0 31.2956 2.23354   1
   2  12   0 1.41650 0.56074   1
  -3   1  13 11.7568 0.69349  -2
   3  12   0 11.7568 0.69349   1
  -5  -1  11 26.8938 1.96133  -2
  -5 -11   1 26.8938 1.96133   1
  -4 -11   1 2.83512 0.44560   1
  -3   0  12 61.4681 2.25830  -2
  -3 -11   1 61.4681 2.25830   1
  -2 -11   1 5.00754 0.49878   1
  -1 -11   1 12.6672 0.90701   1
   0   2  14 30.2776 1.51124  -2
   0 -11   1 30.2776 1.51124   1
   1 -11   1 0.60001 0.28443   1
  -6  -2   9 27.7741 1.33181  -2
  -6 -10   1 27.7741 1.33181   1
  -5 -10   1 38.6114 1.92753   1
  -4 -10   1 168.877 5.98365   1
  -3   0  11 66.9146 3.07496  -2
  -3 -10   1 66.9146 3.07496   1
  -2 -10   1 3.35753 0.47269   1
  -1   1  12 13.5491 1.06215  -2
  -1 -10   1 13.5491 1.06215   1
   0 -10   1 13.5457 1.03560   1
   1   2  13 58.2066 2.80184  -2
   1 -10   1 58.2066 2.80184   1
   2 -10   1 10.3728 0.71289   1
  -7  -3   7 15.3952 1.35070  -2
  -7  -9   1 15.3952 1.35070   1
  -6  -2   8 31.0824 2.53623  -2
  -6  -9   1 31.0824 2.53623   1
  -5  -9   1 22.2651 1.08519   1
  -4  -1   9 1.95702 0.41937  -2
  -4  -9   1 1.95702 0.41937   1
  -3  -9   1 11.5705 0.60656   1
  -2   0  10 27.8726 1.34886  -2
  -2  -9   1 27.8726 1.34886   1
   0  -9   1 35.3525 1.91755   1
   1   2  12 40.5161 2.92993  -2
   1  -9   1 40.5161 2.92993   1
   2  -9   1 3.32906 0.40186   1
   3   3  13 42.9020 3.06493  -2
   3  -9   1 42.9020 3.06493   1
  -7  -3   6 15.0568 0.81690  -2
  -7  -8   1 15.0568 0.81690   1
  -6  -8   1 3.74730 0.56567   1
  -5  -2   7 3.23336 0.54199  -2
  -5  -8   1 3.23336 0.54199   1
  -4  -8   1 27.0044 1.78352   1
  -3  -8   1 19.3195 0.78886   1
  -2   0   9 51.5413 1.67859  -2
  -2  -8   1 51.5413 1.67859   1
  -1  -8   1 45.9304 2.46255   1
   0   1  10 131.411 6.05825  -2
   0  -8   1 131.411 6.05825   1
   1  -8   1 33.4279 2.54710   1
   2  -8   1 22.4986 1.06366   1
   3   3  12 121.149 4.37568  -2
   3  -8   1 121.149 4.37568   1
   4  -8   1 5.64588 0.40987   1
  -8  -4   4 12.7050 0.72528  -2
  -8  -7   1 12.7050 0.72528   1
  -7  -7   1 -0.2163 0.91578   1
  -6  -7   1 0.98413 0.85201   1
  -5  -2   6 69.1955 2.38775  -2
  -5  -7   1 69.1955 2.38775   1
  -4  -7   1 4.07580 0.33970   1
  -3  -1   7 13.0577 0.64405  -2
  -3  -7   1 13.0577 0.64405   1
  -2  -7   1 24.7109 1.09658   1
  -1  -7   1 34.8080 1.94366   1
   1  -7   1 63.6470 3.10919   1
   2   2  10 5.63772 0.97101  -2
   2  -7   1 5.63772 0.97101   1
   3  -7   1 1.87045 0.36859   1
   4  -7   1 0.69992 0.42697   1
   5   4  12 27.3545 2.25124  -2
   5  -7   1 27.3545 2.25124   1
  -8  -4   3 56.1198 2.30011  -2
  -8  -6   1 56.1198 2.30011   1
  -7  -6   1 -0.1666 0.49520   1
  -6  -3   4 12.2877 0.62862  -2
  -6  -6   1 12.2877 0.62862   1
  -5  -2   5 11.3248 1.67405  -2
  -5  -6   1 11.3248 1.67405   1
  -4  -2   5 60.8755 4.58659  -2
  -4  -6   1 60.8755 4.58659   1
  -3  -1   6 221.038 7.85719  -2
  -3  -6   1 221.038 7.85719   1
  -2  -6   1 190.188 6.78169   1
  -1   0   7 94.8300 4.32654  -2
  -1  -6   1 94.8300 4.32654   1
   1  -6   1 30.5818 1.41619   1
   2   2   9 309.750 17.8622  -2
   2  -6   1 309.750 17.8622   1
   3  -6   1 12.7480 0.62307   1
   4   3  10 99.0013 4.21687  -2
   4  -6   1 99.0013 4.21687   1
   5  -6   1 26.1942 1.42678   1
   6  -6   1 14.4427 1.02500   1
  -9  -5   1 12.2851 0.77562  -2
  -9  -5   1 12.2851 0.77562   1
  -8  -5   1 33.6387 2.56674   1
  -7  -4   2 37.6415 3.21584  -2
  -7  -5   1 37.6415 3.21584   1
  -6  -3   3 51.6817 2.11462  -2
  -6  -5   1 51.6817 2.11462   1
  -5  -5   1 8.18041 0.49332   1
  -4  -2   4 37.4184 1.01972  -2
  -4  -5   1 37.4184 1.01972   1
  -3  -5   1 111.076 4.04753   1
  -2  -5   1 84.2952 3.15069   1
  -1  -5   1 156.168 6.75137   1
   0  -5   1 72.5960 2.41335   1
   1   1   7 44.1637 1.83044  -2
   1  -5   1 44.1637 1.83044   1
   2  -5   1 169.114 4.59789   1
   3   2   8 101.112 3.20598  -2
   3  -5   1 101.112 3.20598   1
   4   3   9 104.764 6.17761  -2
   4  -5   1 104.764 6.17761   1
   5  -5   1 1.05595 0.29173   1
   6   4  10 203.652 7.58592  -2
   6  -5   1 203.652 7.58592   1
   7  -5   1 15.9563 1.28542   1
  -8  -4   1 6.78030 0.70045   1
  -7  -4   1 49.2743 2.61580  -2
  -7  -4   1 49.2743 2.61580   1
  -6  -4   1 193.484 5.97094   1
  -5  -4   1 129.402 8.60857   1
  -3  -4   1 17.1710 1.00247   1
  -2  -1   4 228.304 6.77391  -2
  -2  -4   1 228.304 6.77391   1
  -1  -4   1 103.943 2.43428   1
   0  -4   1 42.9735 1.28698   1
   1  -4   1 73.3683 2.46241   1
   2  -4   1 108.228 3.94151   1
   3   2   7 124.476 4.26711  -2
   3  -4   1 124.476 4.26711   1
   4  -4   1 4.47013 0.33889   1
   5   3   8 105.154 3.91283  -2
   5  -4   1 105.154 3.91283   1
   6   4   9 18.6355 1.51167  -2
   6  -4   1 18.6355 1.51167   1
   7  -4   1 5.05363 0.51178   1
  -9  -3   1 -0.4661 0.61367   1
   7   4   0 39.4280 2.18557  -2
  -7  -3   1 39.4280 2.18557   1
  -6  -3   1 426.394 11.8009   1
  -5  -3   1 35.1339 1.00756  -2
  -5  -3   1 35.1339 1.00756   1
  -4  -3   1 8.14508 1.03407   1
  -3  -3   1 123.099 3.76342   1
  -2  -3   1 81.5693 1.60212   1
  -1  -3   1 1232.14 23.3973   1
   0   0   4 515.818 21.8793  -2
   0  -3   1 515.818 21.8793   1
   1  -3   1 113.997 2.45871   1
   3  -3   1 0.89175 0.52806   1
   4  -3   1 117.269 2.81243   1
   5   3   7 33.6098 1.16820  -2
   5  -3   1 33.6098 1.16820   1
   6  -3   1 10.5481 0.61083   1
   7   4   8 14.1016 1.34185  -2
   7  -3   1 14.1016 1.34185   1
   8  -3   1 4.40896 0.58833   1
  -9  -2   1 30.1013 2.25872   1
   8   5   2 24.2924 1.12435  -2
  -8  -2   1 24.2924 1.12435   1
  -7  -2   1 121.331 3.78880   1
   6   4   1 87.5438 4.40112  -2
  -6  -2   1 87.5438 4.40112   1
  -5  -2   1 156.263 4.27519   1
  -4  -2   1 64.7993 3.29471   1
  -3  -2   1 1429.13 37.8686  -2
  -3  -2   1 1429.13 37.8686   1
  -2  -2   1 163.600 2.92940   1
  -1  -2   1 3058.87 57.7383   1
   0  -2   1 120.893 2.51780   1
   1  -2   1 3671.63 69.4620   1
   2   1   4 88.1702 6.03458  -2
   2  -2   1 88.1702 6.03458   1
   3  -2   1 125.835 3.94356   1
   4   2   5 66.7962 1.47805  -2
   4  -2   1 66.7962 1.47805   1
   5  -2   1 93.1609 2.83983   1
   6   3   6 18.3235 2.20675  -2
   6  -2   1 18.3235 2.20675   1
   7   4   7 28.4041 1.32479  -2
   7  -2   1 28.4041 1.32479   1
   8  -2   1 -0.2177 0.37319   1
   8   5   3 57.5060 4.43840  -2
  -8  -1   1 57.5060 4.43840   1
  -7  -1   1 2.65603 0.55816   1
   6   4   2 128.266 6.50455  -2
  -6  -1   1 128.266 6.50455   1
  -5  -1   1 65.1015 1.60953   1
   4   3   1 34.0474 2.98797  -2
  -4  -1   1 34.0474 2.98797   1
  -3  -1   1 110.048 1.94852   1
  -2  -1   1 159.068 2.70774   1
  -1  -1   1 406.999 7.32940   1
   0  -1   1 872.318 17.4104   1
   1  -1   1 1661.54 52.8658   1
   2  -1   1 8.82161 0.31858   1
   3  -1   1 148.595 2.93528   1
   4  -1   1 32.3350 1.30462   1
   5  -1   1 115.616 2.93535   1
   6   3   5 180.299 5.97451  -2
   6  -1   1 180.299 5.97451   1
   7  -1   1 6.00327 0.99400   1
   8   4   6 75.1215 3.07143  -2
   8  -1   1 75.1215 3.07143   1
  -8   0   1 75.7950 3.10929   1
   7   5   4 13.7436 0.95091  -2
  -7   0   1 13.7436 0.95091   1
  -6   0   1 66.5369 2.49011   1
  -5   0   1 9.17758 0.50139   1
   4   3   2 74.6362 5.55457  -2
  -4   0   1 74.6362 5.55457   1
  -3   0   1 263.661 5.44426   1
   2   2   1 522.082 11.4547  -2
  -2   0   1 522.082 11.4547   1
  -1   0   1 519.897 9.04209   1
   0   0   1 353.908 7.06602   1
   1   0   1 44.3483 0.81784   1
   2   0   1 417.470 7.02387   1
   3   1   2 195.816 4.08961  -2
   3   0   1 195.816 4.08961   1
   4   0   1 385.970 17.0378   1
   5   2   3 161.477 10.9375  -2
   5   0   1 161.477 10.9375   1
   6   3   4 35.6494 2.10003  -2
   6   0   1 35.6494 2.10003   1
   7   0   1 23.0786 1.59248   1
   8   4   5 46.4904 2.40884  -2
   8   0   1 46.4904 2.40884   1
   8   6   6 -0.9745 0.69576  -2
  -8   1   1 -0.9745 0.69576   1
   7   5   5 31.3741 1.47310  -2
  -7   1   1 31.3741 1.47310   1
  -6   1   1 5.16032 0.33771   1
   5   4   4 116.972 3.19012  -2
  -5   1   1 116.972 3.19012   1
  -4   1   1 146.821 3.62487   1
  -3   1   1 74.6315 1.44459   1
  -2   1   1 1237.87 22.4735   1
  -1   1   1 212.314 4.08910   1
   0   1   1 726.712 13.9192  -2
   0   1   1 726.712 13.9192   1
   1   1   1 988.640 16.6201   1
   2   1   1 174.156 5.49380   1
   3   1   1 89.0306 2.92766   1
   4   1   1 114.892 3.76797   1
   5   2   2 200.113 6.02006  -2
   5   1   1 200.113 6.02006   1
   6   1   1 273.523 7.06806   1
   7   3   3 35.3516 1.62346  -2
   7   1   1 35.3516 1.62346   1
   8   1   1 272.509 19.3849   1
   8   6   7 54.4360 3.83604  -2
  -8   2   1 54.4360 3.83604   1
  -7   2   1 22.1095 1.11864   1
   6   5   6 84.0538 6.29954  -2
  -6   2   1 84.0538 6.29954   1
   5   4   5 169.928 7.81885  -2
  -5   2   1 169.928 7.81885   1
  -4   2   1 454.036 13.6946   1
   3   3   4 218.613 6.65356  -2
  -3   2   1 218.613 6.65356   1
  -2   2   1 2.41009 0.30422   1
  -1   2   1 68.5906 1.41744   1
   0   2   1 1656.40 30.4183   1
   1   2   1 148.658 2.88379   1
  -2   0   1 511.040 13.2783  -2
   2   2   1 511.040 13.2783   1
   3   2   1 122.351 3.94277   1
   4   2   1 197.631 13.2312   1
   5   2   1 284.470 10.7083   1
   6   2   1 157.264 4.50543   1
   7   3   2 33.7438 1.12932  -2
   7   2   1 33.7438 1.12932   1
   8   2   1 4.53995 0.50783   1
   8   6   8 8.63974 1.13469  -2
  -8   3   1 8.63974 1.13469   1
  -7   3   1 11.2496 0.74891   1
   6   5   7 45.7398 2.13338  -2
  -6   3   1 45.7398 2.13338   1
  -5   3   1 6.44870 0.33786   1
   4   4   6 65.4496 3.13705  -2
  -4   3   1 65.4496 3.13705   1
  -3   3   1 -0.3750 0.54052   1
  -2   3   1 3.05875 0.46162   1
   1   2   4 38.1525 1.02482  -2
  -1   3   1 38.1525 1.02482   1
   0   3   1 4.78886 0.31412   1
   1   3   1 70.9401 1.91319   1
   2   3   1 151.151 2.82201   1
   3   3   1 240.345 4.24641   1
   4   3   1 34.3080 2.70385   1
   5   3   1 0.45903 0.35603   1
   6   2   0 60.5984 1.65188  -2
   6   3   1 60.5984 1.65188   1
   7   3   1 87.2619 3.17774   1
   8   3   1 24.4272 2.00007  -2
   8   3   1 24.4272 2.00007   1
   7   6   9 29.0198 1.59941  -2
  -7   4   1 29.0198 1.59941   1
   6   5   8 20.2314 1.41938  -2
  -6   4   1 20.2314 1.41938   1
  -5   4   1 1.88378 0.29738   1
   4   4   7 141.456 3.71790  -2
  -4   4   1 141.456 3.71790   1
  -3   4   1 14.6110 0.69808   1
  -1   4   1 76.6663 1.89621   1
   0   4   1 63.1091 1.39179   1
  -1   1   4 251.642 9.05938  -2
   1   4   1 251.642 9.05938   1
   2   4   1 5.19146 0.32748   1
  -3   0   3 1175.79 28.0968  -2
   3   4   1 1175.79 28.0968   1
   4   4   1 4.83600 0.89757   1
  -5  -1   2 61.1938 4.63352  -2
   5   4   1 61.1938 4.63352   1
  -6  -2   1 90.0215 4.53219  -2
   6   4   1 90.0215 4.53219   1
   7   4   1 40.1495 1.30811   1
   8   3   0 12.5949 0.74656  -2
   8   4   1 12.5949 0.74656   1
   7   6  10 17.7444 1.00181  -2
  -7   5   1 17.7444 1.00181   1
  -6   5   1 1.75508 0.36330   1
   5   5   9 562.061 17.4874  -2
  -5   5   1 562.061 17.4874   1
  -4   5   1 -0.4002 0.31196   1
  -3   5   1 50.2484 1.23244   1
   2   3   7 171.023 10.7560  -2
  -2   5   1 171.023 10.7560   1
  -1   5   1 53.6799 2.25325   1
   0   2   6 149.986 4.06303  -2
   0   5   1 149.986 4.06303   1
   1   5   1 217.142 5.31599   1
   2   5   1 10.7516 0.71035   1
   3   5   1 37.4757 1.92156   1
   4   5   1 12.5891 0.55955   1
  -5  -1   3 103.487 2.52199  -2
   5   5   1 103.487 2.52199   1
   6   5   1 57.8825 1.78001   1
  -7  -2   2 1.03468 0.69818  -2
   7   5   1 1.03468 0.69818   1
  -8  -3   1 110.401 7.47789  -2
   8   5   1 110.401 7.47789   1
   9   5   1 4.95321 0.72427   1
  -6   6   1 3.59009 0.34473   1
   5   5  10 100.286 6.17446  -2
  -5   6   1 100.286 6.17446   1
  -4   6   1 45.8231 1.58269   1
   3   4   9 57.6373 1.92725  -2
  -3   6   1 57.6373 1.92725   1
  -2   6   1 160.465 4.38034   1
  -1   6   1 43.6763 2.35773   1
   1   6   1 19.2575 1.43289   1
  -2   1   6 80.7257 3.09660  -2
   2   6   1 80.7257 3.09660   1
   3   6   1 9.52019 0.77990   1
  -4   0   5 30.8688 1.55453  -2
   4   6   1 30.8688 1.55453   1
  -5  -1   4 32.1675 1.96623  -2
   5   6   1 32.1675 1.96623   1
   6   6   1 11.6146 0.92240   1
  -7  -2   3 10.0233 0.63092  -2
   7   6   1 10.0233 0.63092   1
   8   6   1 6.80084 0.75671   1
   6   6  12 41.9780 2.94423  -2
  -6   7   1 41.9780 2.94423   1
  -5   7   1 26.5308 1.40389   1
  -4   7   1 95.3380 3.46550   1
   3   4  10 51.1892 3.52363  -2
  -3   7   1 51.1892 3.52363   1
  -2   7   1 75.7742 2.27084   1
   1   3   9 2.52192 0.96972  -2
  -1   7   1 2.52192 0.96972   1
   1   7   1 206.617 7.32314   1
   2   7   1 271.031 7.30489   1
   3   7   1 34.0011 0.85158   1
  -4   0   6 -0.0401 0.36791  -2
   4   7   1 -0.0401 0.36791   1
   5   7   1 0.22299 0.41009   1
  -6  -1   5 24.0334 1.23855  -2
   6   7   1 24.0334 1.23855   1
  -7  -2   4 47.7677 4.02515  -2
   7   7   1 47.7677 4.02515   1
  -8  -2   4 7.19246 0.89498  -2
   8   7   1 7.19246 0.89498   1
  -5   8   1 11.0009 0.74307   1
   4   5  12 8.05473 0.56708  -2
  -4   8   1 8.05473 0.56708   1
  -3   8   1 30.5000 1.12548   1
   2   4  11 43.3571 3.07916  -2
  -2   8   1 43.3571 3.07916   1
  -1   8   1 88.0212 5.76635   1
  -1   2   9 46.4867 3.35489  -2
   1   8   1 46.4867 3.35489   1
   2   8   1 15.5964 0.78283   1
  -3   1   8 1.22111 0.62657  -2
   3   8   1 1.22111 0.62657   1
  -4   0   7 33.8370 2.52070  -2
   4   8   1 33.8370 2.52070   1
  -5   0   7 76.0277 5.49172  -2
   5   8   1 76.0277 5.49172   1
  -6  -1   6 9.44512 0.62750  -2
   6   8   1 9.44512 0.62750   1
   7   8   1 15.7965 1.18235   1
  -8  -2   5 6.23078 1.10474  -2
   8   8   1 6.23078 1.10474   1
  -4   9   1 44.4276 2.08412   1
  -3   9   1 128.474 5.67077   1
   2   4  12 55.5081 2.53123  -2
  -2   9   1 55.5081 2.53123   1
  -1   9   1 51.1515 3.55465   1
   0   9   1 1.36800 1.15638   1
   1   9   1 20.1389 1.51372   1
   2   9   1 75.2640 2.88580   1
  -3   1   9 54.7069 1.70760  -2
   3   9   1 54.7069 1.70760   1
   4   9   1 72.6475 2.71516   1
  -5   0   8 64.5271 2.54864  -2
   5   9   1 64.5271 2.54864   1
  -6  -1   7 6.39724 1.33509  -2
   6   9   1 6.39724 1.33509   1
  -7  -1   7 63.2781 4.14601  -2
   7   9   1 63.2781 4.14601   1
  -8  -2   6 61.5198 3.03843  -2
   8   9   1 61.5198 3.03843   1
   3   5  14 13.0961 1.21800  -2
  -3  10   1 13.0961 1.21800   1
  -2  10   1 -0.4561 0.30852   1
  -1  10   1 5.19562 0.81573   1
   0   3  12 11.0260 1.11975  -2
   0  10   1 11.0260 1.11975   1
   1  10   1 5.53529 1.03578   1
  -2   2  11 14.1563 1.51552  -2
   2  10   1 14.1563 1.51552   1
   3  10   1 1.04030 0.36124   1
   4  10   1 12.5869 0.78356   1
  -5   0   9 27.1523 1.50961  -2
   5  10   1 27.1523 1.50961   1
   6  10   1 21.6533 0.97400   1
  -7  -1   8 9.38628 0.65499  -2
   7  10   1 9.38628 0.65499   1
   1   4  14 31.7782 2.26078  -2
  -1  11   1 31.7782 2.26078   1
   0  11   1 10.9955 1.25026   1
   1  11   1 21.5454 1.30691   1
  -2   2  12 53.4594 3.79269  -2
   2  11   1 53.4594 3.79269   1
   3  11   1 46.6276 1.81844   1
   5  11   1 38.9485 1.91313   1
  -6   0  10 16.9176 1.44127  -2
   6  11   1 16.9176 1.44127   1
   0  12   1 170.976 7.56751   1
  -1   3  14 29.4718 1.42609  -2
   1  12   1 29.4718 1.42609   1
   2  12   1 41.3309 1.93538   1
   3  12   1 0.00631 0.31502   1
   4  12   1 0.14114 0.37835   1
   5  12   1 0.76374 0.32268   1
  -4 -11   2 18.9867 1.38942   1
  -3 -11   2 19.6752 1.01315   1
  -2   0  13 7.07503 1.04550  -2
  -2 -11   2 7.07503 1.04550   1
  -1 -11   2 11.7607 0.63678   1
  -6  -3   9 23.2232 1.83505  -2
  -6 -10   2 23.2232 1.83505   1
  -5  -2  10 19.4401 1.66485  -2
  -5 -10   2 19.4401 1.66485   1
  -4 -10   2 1.32186 0.30727   1
  -3  -1  11 19.7483 0.81719  -2
  -3 -10   2 19.7483 0.81719   1
  -2 -10   2 10.5202 0.79635   1
  -1   0  12 12.1347 1.80756  -2
  -1 -10   2 12.1347 1.80756   1
   0   1  13 139.537 6.28344  -2
   0 -10   2 139.537 6.28344   1
   1 -10   2 8.48041 0.70309   1
   2   2  14 6.27407 0.69000  -2
   2 -10   2 6.27407 0.69000   1
  -7  -9   2 0.29803 0.48834   1
  -6  -3   8 47.7790 2.22395  -2
  -6  -9   2 47.7790 2.22395   1
  -5  -9   2 0.01144 0.42685   1
  -4  -2   9 33.2451 1.39143  -2
  -4  -9   2 33.2451 1.39143   1
  -3  -1  10 29.4936 1.64496  -2
  -3  -9   2 29.4936 1.64496   1
  -2  -9   2 7.24214 0.60014   1
  -1   0  11 69.8450 4.71300  -2
  -1  -9   2 69.8450 4.71300   1
   0  -9   2 27.4531 1.64000   1
   1   1  12 14.9643 1.77754  -2
   1  -9   2 14.9643 1.77754   1
   2  -9   2 1.43287 0.37055   1
   3  -9   2 7.48378 0.59259   1
  -7  -8   2 3.74208 0.81642   1
  -6  -3   7 33.6621 1.45911  -2
  -6  -8   2 33.6621 1.45911   1
  -5  -8   2 20.6953 1.09235   1
  -4  -2   8 62.8154 2.21945  -2
  -4  -8   2 62.8154 2.21945   1
  -3  -8   2 1.84494 0.41390   1
  -2  -1   9 56.2159 2.19604  -2
  -2  -8   2 56.2159 2.19604   1
  -1  -8   2 10.6704 1.70493   1
   1   1  11 126.970 8.12886  -2
   1  -8   2 126.970 8.12886   1
   2  -8   2 23.0581 1.07359   1
   3   2  12 52.2643 3.76638  -2
   3  -8   2 52.2643 3.76638   1
   4  -8   2 7.38250 0.62118   1
  -8  -7   2 0.39001 0.64024   1
  -7  -4   5 2.31222 0.45302  -2
  -7  -7   2 2.31222 0.45302   1
  -6  -7   2 4.46415 0.78908   1
  -5  -3   6 16.2446 0.69823  -2
  -5  -7   2 16.2446 0.69823   1
  -4  -2   7 22.2789 1.23043  -2
  -4  -7   2 22.2789 1.23043   1
  -3  -7   2 42.4842 1.30281   1
  -2  -1   8 20.2335 0.79091  -2
  -2  -7   2 20.2335 0.79091   1
  -1  -7   2 242.565 15.3277   1
   0   0   9 28.9006 1.77996  -2
   0  -7   2 28.9006 1.77996   1
   1  -7   2 5.21122 0.76389   1
   2  -7   2 10.8193 0.69688   1
   3   2  11 18.1333 0.96186  -2
   3  -7   2 18.1333 0.96186   1
   4  -7   2 3.50280 0.42598   1
   5   3  12 1.05192 0.45403  -2
   5  -7   2 1.05192 0.45403   1
  -6  -6   2 -0.5817 0.89673   1
  -5  -3   5 217.501 7.05198  -2
  -5  -6   2 217.501 7.05198   1
  -4  -6   2 189.690 4.22901   1
  -3  -2   6 135.438 4.77088  -2
  -3  -6   2 135.438 4.77088   1
  -2  -6   2 122.297 3.45692   1
  -1  -6   2 98.1739 3.19595   1
   0   0   8 46.7425 2.40199  -2
   0  -6   2 46.7425 2.40199   1
   1  -6   2 67.1885 2.64291   1
   2   1   9 189.318 5.88381  -2
   2  -6   2 189.318 5.88381   1
   3  -6   2 21.2688 0.83817   1
   4   2  10 16.0688 1.97159  -2
   4  -6   2 16.0688 1.97159   1
   5   3  11 18.7434 1.22892  -2
   5  -6   2 18.7434 1.22892   1
   6  -6   2 8.68153 0.55200   1
  -9  -5   2 33.1188 2.36618   1
  -8  -5   2 12.0097 0.86176  -2
  -8  -5   2 12.0097 0.86176   1
  -7  -5   2 6.64689 0.63799   1
  -6  -4   3 40.3242 1.67987  -2
  -6  -5   2 40.3242 1.67987   1
  -5  -3   4 2.89827 0.93978  -2
  -5  -5   2 2.89827 0.93978   1
  -4  -5   2 103.123 3.92429   1
  -3  -2   5 47.4682 2.11680  -2
  -3  -5   2 47.4682 2.11680   1
  -2  -5   2 234.595 8.22791   1
  -1  -1   6 3.54901 0.60250  -2
  -1  -5   2 3.54901 0.60250   1
   0  -5   2 23.3426 1.49682   1
   1  -5   2 21.5345 1.48382   1
   2   1   8 99.7233 5.85556  -2
   2  -5   2 99.7233 5.85556   1
   3  -5   2 11.4942 0.54451   1
   4   2   9 7.58982 0.54126  -2
   4  -5   2 7.58982 0.54126   1
   5  -5   2 1.12249 0.33494   1
   6   3  10 88.0936 4.03473  -2
   6  -5   2 88.0936 4.03473   1
  -8  -5   1 82.1782 5.62439  -2
  -8  -4   2 82.1782 5.62439   1
  -7  -5   1 35.4110 2.70737  -2
  -7  -4   2 35.4110 2.70737   1
  -6  -4   2 1400.33 61.8463  -2
  -6  -4   2 1400.33 61.8463   1
  -5  -4   2 19.4799 0.77393   1
  -4  -3   3 76.3262 2.07253  -2
  -4  -4   2 76.3262 2.07253   1
  -3  -4   2 74.7726 2.47458   1
  -2  -4   2 35.2491 1.51682   1
  -1  -4   2 182.143 5.45176   1
   0  -4   2 21.7376 0.66180   1
   1   0   6 108.442 3.41865  -2
   1  -4   2 108.442 3.41865   1
   2  -4   2 414.715 14.1904   1
   3   1   7 -0.0504 0.82369  -2
   3  -4   2 -0.0504 0.82369   1
   4   2   8 6.21218 1.51865  -2
   4  -4   2 6.21218 1.51865   1
   5  -4   2 30.6096 1.23424   1
   6   3   9 64.6310 4.64159  -2
   6  -4   2 64.6310 4.64159   1
   7  -4   2 1.64183 0.33780   1
   9   6   1 24.2079 1.83461  -2
  -9  -3   2 24.2079 1.83461   1
  -8  -3   2 16.6349 1.00576   1
   7   5   0 42.2054 1.58778  -2
  -7  -3   2 42.2054 1.58778   1
  -6  -3   2 274.262 7.66545   1
  -5  -3   2 0.40302 0.72062   1
  -4  -3   2 179.575 12.1444   1
  -3  -3   2 129.234 4.06790   1
  -2  -2   3 497.424 11.4969  -2
  -2  -3   2 497.424 11.4969   1
  -1  -3   2 96.1956 1.99037   1
   0  -3   2 105.616 2.27984   1
   1  -3   2 0.43660 0.37627   1
   2  -3   2 62.7135 2.42339   1
   3   1   6 125.983 5.94880  -2
   3  -3   2 125.983 5.94880   1
   4  -3   2 76.5011 1.70226   1
   5   2   7 25.7500 0.74524  -2
   5  -3   2 25.7500 0.74524   1
   6  -3   2 0.97321 0.98033   1
   7   3   8 6.15107 0.73415  -2
   7  -3   2 6.15107 0.73415   1
  -9  -2   2 2.59307 0.45591   1
   7   5   1 0.41745 1.50225  -2
  -7  -2   2 0.41745 1.50225   1
  -6  -2   2 0.02063 0.40368   1
   5   4   0 44.6664 1.16036  -2
  -5  -2   2 44.6664 1.16036   1
  -4  -2   2 17.2780 0.56411   1
  -3  -2   2 24.2773 0.84135   1
  -2  -2   2 165.140 3.42902   1
  -1  -2   2 5.09490 0.35036   1
   1  -2   2 2446.68 46.2207   1
   3  -2   2 45.4839 1.84496   1
   4   1   5 16.3843 1.60614  -2
   4  -2   2 16.3843 1.60614   1
   5   2   6 52.1361 4.00751  -2
   5  -2   2 52.1361 4.00751   1
   6  -2   2 7.21315 0.47560   1
   7   3   7 93.8750 3.80869  -2
   7  -2   2 93.8750 3.80869   1
   8   4   8 32.0157 2.37425  -2
   8  -2   2 32.0157 2.37425   1
   8   6   3 34.3357 2.58267  -2
  -8  -1   2 34.3357 2.58267   1
  -7  -1   2 22.8174 1.06056   1
  -6  -1   2 7.94243 2.10366   1
  -5  -1   2 64.6942 1.86606   1
  -4  -1   2 63.3872 2.02241   1
   3   3   0 1312.94 38.5514  -2
  -3  -1   2 1312.94 38.5514   1
  -2  -1   2 63.5941 1.25556   1
  -1  -1   2 19.2430 0.70113   1
   0  -1   2 358.608 6.50711   1
   1  -1   2 9999.99 252.208   1
   2   0   3 643.392 42.1242  -2
   2  -1   2 643.392 42.1242   1
   3  -1   2 708.346 16.0775   1
   4   1   4 397.148 23.9989  -2
   4  -1   2 397.148 23.9989   1
   5  -1   2 110.598 3.04135   1
   6   2   5 14.4929 1.34560  -2
   6  -1   2 14.4929 1.34560   1
   7   3   6 9.10171 1.63705  -2
   7  -1   2 9.10171 1.63705   1
   8  -1   2 40.7365 2.90745   1
   8   6   4 9.35293 1.00022  -2
  -8   0   2 9.35293 1.00022   1
  -7   0   2 1.91565 0.91233   1
   6   5   3 70.5002 2.23692  -2
  -6   0   2 70.5002 2.23692   1
  -5   0   2 0.01379 0.27231   1
   4   4   2 71.5794 5.38235  -2
  -4   0   2 71.5794 5.38235   1
  -3   0   2 167.926 2.98116   1
  -2   0   2 62.5246 1.16593   1
  -1   0   2 5.91972 0.27224   1
   0   0   2 73.8330 1.39140   1
   1   0   2 1515.55 83.5487   1
   2   0   2 85.1072 1.84188   1
   3   0   2 158.612 2.98091   1
   4   0   2 1.23061 1.39611   1
   5   0   2 5.86742 0.32133   1
   6   2   4 123.693 3.85338  -2
   6   0   2 123.693 3.85338   1
   7   0   2 3.91963 1.13892   1
   8   3   5 104.580 7.08710  -2
   8   0   2 104.580 7.08710   1
  -8   1   2 36.5603 1.96929   1
   7   6   5 42.6215 2.37157  -2
  -7   1   2 42.6215 2.37157   1
  -6   1   2 11.5110 0.65329   1
  -5   1   2 64.3837 2.01864   1
  -4   1   2 14.6889 0.80188   1
  -3   1   2 12.1446 0.41216   1
   2   3   2 593.904 11.3760  -2
  -2   1   2 593.904 11.3760   1
  -1   1   2 411.756 7.48198   1
   0   1   2 2551.38 51.0054   1
   1   1   2 244.867 4.47591   1
   2   1   2 160.398 2.72701   1
   3   0   1 194.965 6.17338  -2
   3   1   2 194.965 6.17338   1
   4   1   2 337.724 12.4094   1
   5   1   2 349.340 17.0348  -2
   5   1   2 349.340 17.0348   1
   6   2   3 53.5145 2.77208  -2
   6   1   2 53.5145 2.77208   1
   7   1   2 25.7366 1.31274   1
   8   3   4 285.471 11.2693  -2
   8   1   2 285.471 11.2693   1
   8   7   7 10.6557 1.27108  -2
  -8   2   2 10.6557 1.27108   1
   7   6   6 1.61486 0.78897  -2
  -7   2   2 1.61486 0.78897   1
  -6   2   2 28.7407 0.98073   1
   5   5   5 37.6347 1.78145  -2
  -5   2   2 37.6347 1.78145   1
  -4   2   2 250.511 5.90644   1
  -3   2   2 1.84969 0.46879   1
  -2   2   2 170.609 3.35866   1
  -1   2   2 72.3133 1.42374   1
   0   2   2 2980.78 54.7000  -2
   0   2   2 2980.78 54.7000   1
   1   2   2 17.2084 0.44655   1
   2   2   2 674.179 11.7245   1
   3   2   2 125.715 4.05049   1
   4   2   2 141.806 4.59135   1
   5   1   1 187.022 6.48967  -2
   5   2   2 187.022 6.48967   1
   6   2   2 0.35149 0.25811   1
   7   2   2 -0.0993 0.16401  -2
   7   2   2 -0.0993 0.16401   1
   8   2   2 43.8400 3.46920   1
   8   7   8 56.1958 3.91461  -2
  -8   3   2 56.1958 3.91461   1
  -7   3   2 17.3573 1.19243   1
   6   6   7 16.7562 1.10442  -2
  -6   3   2 16.7562 1.10442   1
   5   5   6 64.3690 2.50389  -2
  -5   3   2 64.3690 2.50389   1
  -4   3   2 6.39633 0.30469   1
   3   4   5 70.6278 2.34065  -2
  -3   3   2 70.6278 2.34065   1
  -2   3   2 36.8505 1.27890   1
  -1   3   2 36.2685 0.83650   1
   0   3   2 27.0220 0.66987   1
   1   3   2 41.9408 0.88348   1
  -2   1   2 562.050 10.7684  -2
   2   3   2 562.050 10.7684   1
   3   3   2 60.2690 1.16511   1
  -4   0   1 52.4314 3.96610  -2
   4   3   2 52.4314 3.96610   1
   5   3   2 14.2385 0.98806   1
   6   3   2 73.5554 2.66622   1
   7   2   1 33.9172 1.20405  -2
   7   3   2 33.9172 1.20405   1
   8   3   2 3.06951 0.35596   1
  -7   4   2 8.12621 0.75674   1
   6   6   8 28.1075 1.05577  -2
  -6   4   2 28.1075 1.05577   1
  -5   4   2 79.0654 2.19669   1
   4   5   7 80.7375 2.68943  -2
  -4   4   2 80.7375 2.68943   1
  -3   4   2 15.3943 0.73308   1
  -2   4   2 10.0219 0.82776   1
   1   3   5 700.517 23.9811  -2
  -1   4   2 700.517 23.9811   1
   0   4   2 1.51106 0.31200   1
  -1   2   4 204.431 6.28698  -2
   1   4   2 204.431 6.28698   1
   2   4   2 7.22884 0.34332   1
   3   4   2 282.845 6.36399   1
  -4   0   2 67.2989 5.12705  -2
   4   4   2 67.2989 5.12705   1
   5   4   2 49.3540 1.41579   1
  -6  -1   1 109.496 2.94867  -2
   6   4   2 109.496 2.94867   1
   7   2   0 512.813 36.7941  -2
   7   4   2 512.813 36.7941   1
   8   2   0 8.22458 1.20079  -2
   8   4   2 8.22458 1.20079   1
   7   7  10 4.71206 0.85732  -2
  -7   5   2 4.71206 0.85732   1
  -6   5   2 3.29610 0.42850   1
  -5   5   2 4.98899 0.39680   1
   4   5   8 97.3726 2.58138  -2
  -4   5   2 97.3726 2.58138   1
  -3   5   2 63.1104 1.49488   1
   2   4   7 17.0434 1.52253  -2
  -2   5   2 17.0434 1.52253   1
  -1   5   2 330.150 9.95730   1
   0   5   2 1.08922 0.34686   1
   1   5   2 147.553 5.07109   1
   2   5   2 13.4124 0.76923   1
  -3   1   4 60.0071 2.05366  -2
   3   5   2 60.0071 2.05366   1
   4   5   2 -0.2589 0.25056   1
  -5   0   3 13.8286 1.59974  -2
   5   5   2 13.8286 1.59974   1
  -6  -1   2 72.2407 3.89327  -2
   6   5   2 72.2407 3.89327   1
   7   5   2 43.8057 1.96059   1
  -8  -2   1 24.1703 1.18853  -2
   8   5   2 24.1703 1.18853   1
  -6   6   2 38.4053 1.53936   1
   5   6  10 92.8964 3.55429  -2
  -5   6   2 92.8964 3.55429   1
  -4   6   2 137.608 3.93456   1
  -3   6   2 4.38742 0.37137   1
   2   4   8 220.588 7.75880  -2
  -2   6   2 220.588 7.75880   1
  -1   6   2 299.203 12.6857   1
   0   3   7 54.9049 2.77628  -2
   0   6   2 54.9049 2.77628   1
   1   6   2 101.470 3.83798   1
   2   6   2 79.0513 2.65731   1
  -3   1   5 3.34065 2.08394  -2
   3   6   2 3.34065 2.08394   1
   4   6   2 76.4067 1.61893   1
  -5   0   4 120.524 3.59546  -2
   5   6   2 120.524 3.59546   1
   6   6   2 114.590 4.18087   1
  -7  -1   3 22.5909 1.33436  -2
   7   6   2 22.5909 1.33436   1
  -8  -2   2 52.1390 2.80207  -2
   8   6   2 52.1390 2.80207   1
  -6   7   2 11.6330 0.67081   1
   5   6  11 66.3391 4.97840  -2
  -5   7   2 66.3391 4.97840   1
  -4   7   2 9.22309 0.58249   1
   3   5  10 89.4323 2.84996  -2
  -3   7   2 89.4323 2.84996   1
  -2   7   2 2.75949 0.48384   1
  -1   7   2 90.5883 5.89307   1
   1   7   2 87.7244 3.30575   1
  -2   2   7 372.316 9.23520  -2
   2   7   2 372.316 9.23520   1
   3   7   2 23.1630 0.70025   1
  -4   1   6 81.0285 2.62068  -2
   4   7   2 81.0285 2.62068   1
  -5   0   5 116.573 5.44093  -2
   5   7   2 116.573 5.44093   1
   6   7   2 180.999 6.92816   1
  -7  -1   4 39.0535 1.76029  -2
   7   7   2 39.0535 1.76029   1
   8   7   2 0.04721 0.54989   1
  -9  -2   3 11.8834 1.13417  -2
   9   7   2 11.8834 1.13417   1
  -5   8   2 11.1395 0.73566   1
  -4   8   2 14.6889 0.80016   1
  -3   8   2 30.9906 1.13394   1
  -2   8   2 150.666 5.38136   1
   1   4  10 8.30509 1.18494  -2
  -1   8   2 8.30509 1.18494   1
  -1   3   9 58.7514 4.07434  -2
   1   8   2 58.7514 4.07434   1
   2   8   2 100.751 2.62068   1
   3   8   2 59.5948 1.56264   1
  -4   1   7 15.6494 0.75076  -2
   4   8   2 15.6494 0.75076   1
   5   8   2 -0.1039 0.43341   1
  -6   0   6 157.781 5.31998  -2
   6   8   2 157.781 5.31998   1
  -7  -1   5 21.2257 1.35185  -2
   7   8   2 21.2257 1.35185   1
  -8  -1   5 56.0702 4.08394  -2
   8   8   2 56.0702 4.08394   1
   4   6  13 27.8475 1.90108  -2
  -4   9   2 27.8475 1.90108   1
  -3   9   2 0.36559 0.47767   1
   2   5  12 45.9976 3.25989  -2
  -2   9   2 45.9976 3.25989   1
  -1   9   2 13.4520 1.57590   1
   0   9   2 14.7206 1.50347   1
  -1   3  10 130.627 8.40476  -2
   1   9   2 130.627 8.40476   1
   2   9   2 5.68964 0.60883   1
  -3   2   9 21.7566 1.36823  -2
   3   9   2 21.7566 1.36823   1
  -4   1   8 7.10389 1.51041  -2
   4   9   2 7.10389 1.51041   1
  -5   1   8 1.94921 1.43658  -2
   5   9   2 1.94921 1.43658   1
  -6   0   7 35.2105 2.09973  -2
   6   9   2 35.2105 2.09973   1
   7   9   2 15.5507 1.11079   1
  -8  -1   6 25.0267 1.37501  -2
   8   9   2 25.0267 1.37501   1
  -3  10   2 21.5420 1.10473   1
   2   5  13 46.5927 2.91389  -2
  -2  10   2 46.5927 2.91389   1
  -1  10   2 6.08632 0.88106   1
   0   4  12 37.0384 2.87072  -2
   0  10   2 37.0384 2.87072   1
   1  10   2 69.7960 4.68285   1
   2  10   2 113.060 4.94447   1
  -3   2  10 54.7377 2.16191  -2
   3  10   2 54.7377 2.16191   1
   4  10   2 22.2468 1.08852   1
  -5   1   9 167.399 6.31913  -2
   5  10   2 167.399 6.31913   1
   6  10   2 12.2168 0.70505   1
   7  10   2 0.00927 0.41368   1
  -2  11   2 0.12081 0.29975   1
  -1  11   2 37.1718 1.84230   1
   0   4  13 26.9678 2.08933  -2
   0  11   2 26.9678 2.08933   1
  -2   3  12 -0.8127 1.03645  -2
   2  11   2 -0.8127 1.03645   1
   3  11   2 15.2636 0.87248   1
   4  11   2 4.03653 0.43997   1
  -5   1  10 85.1342 5.94922  -2
   5  11   2 85.1342 5.94922   1
   6  11   2 5.23627 0.77774   1
   0  12   2 0.69570 0.23991   1
   1  12   2 18.6595 0.77447   1
   2  12   2 1.56095 0.47687   1
   3  12   2 3.87972 0.41996   1
  -4   2  12 17.0770 0.93633  -2
   4  12   2 17.0770 0.93633   1
   5  12   2 17.1647 0.94305   1
  -2  -1  13 29.1013 1.83218  -2
  -2 -11   3 29.1013 1.83218   1
  -5  -3  10 8.10637 0.80874  -2
  -5 -10   3 8.10637 0.80874   1
  -4 -10   3 21.2985 1.07099   1
  -3 -10   3 9.78258 0.63756   1
  -2  -1  12 40.9800 1.91640  -2
  -2 -10   3 40.9800 1.91640   1
  -1 -10   3 8.82461 0.70802   1
   0   0  13 336.276 14.8429  -2
   0 -10   3 336.276 14.8429   1
   1 -10   3 20.2372 1.07272   1
  -6  -9   3 36.0701 1.71630   1
  -4  -9   3 18.6813 0.80971   1
  -3  -2  10 3.32682 0.73453  -2
  -3  -9   3 3.32682 0.73453   1
  -2  -9   3 0.58093 0.56331   1
   0   0  12 268.314 11.9194  -2
   0  -9   3 268.314 11.9194   1
   1  -9   3 14.1241 1.27429   1
   2   1  13 17.8167 0.85319  -2
   2  -9   3 17.8167 0.85319   1
   3  -9   3 1.04515 0.36399   1
  -7  -8   3 19.8498 1.18929   1
  -6  -4   7 16.6792 0.80007  -2
  -6  -8   3 16.6792 0.80007   1
  -5  -8   3 28.2084 2.35256   1
  -4  -3   8 22.9840 1.30885  -2
  -4  -8   3 22.9840 1.30885   1
  -3  -2   9 6.07710 0.93956  -2
  -3  -8   3 6.07710 0.93956   1
  -2  -8   3 17.8023 1.27280   1
  -1  -1  10 144.102 9.18399  -2
  -1  -8   3 144.102 9.18399   1
   0  -8   3 99.1793 4.61152   1
   1   0  11 25.7751 2.08458  -2
   1  -8   3 25.7751 2.08458   1
   2   1  12 3.16189 1.16440  -2
   2  -8   3 3.16189 1.16440   1
   3  -8   3 -0.2902 0.35822   1
   4   2  13 14.9178 1.12418  -2
   4  -8   3 14.9178 1.12418   1
  -6  -4   6 42.7568 2.00517  -2
  -6  -7   3 42.7568 2.00517   1
  -5  -7   3 2.05158 0.66111   1
  -4  -3   7 38.9463 1.35820  -2
  -4  -7   3 38.9463 1.35820   1
  -3  -2   8 19.2812 1.52918  -2
  -3  -7   3 19.2812 1.52918   1
  -2  -2   8 53.1401 3.67828  -2
  -2  -7   3 53.1401 3.67828   1
  -1  -1   9 151.811 9.70901  -2
  -1  -7   3 151.811 9.70901   1
   1   0  10 18.6019 1.68728  -2
   1  -7   3 18.6019 1.68728   1
   2  -7   3 1.25173 0.41544   1
   3   1  11 105.715 3.91336  -2
   3  -7   3 105.715 3.91336   1
   4   2  12 24.5827 2.05673  -2
   4  -7   3 24.5827 2.05673   1
   5  -7   3 6.19813 0.48809   1
  -8  -6   3 8.21420 0.96561   1
  -7  -5   4 0.37959 0.49588  -2
  -7  -6   3 0.37959 0.49588   1
  -6  -6   3 45.5221 2.47158   1
  -4  -3   6 60.1092 4.28783  -2
  -4  -6   3 60.1092 4.28783   1
  -3  -6   3 0.84094 0.61351   1
  -2  -2   7 2.80941 0.41319  -2
  -2  -6   3 2.80941 0.41319   1
  -1  -6   3 24.3125 1.65389   1
   1  -6   3 3.43533 1.41455   1
   2  -6   3 -0.7636 0.94182   1
   3   1  10 23.5734 1.10370  -2
   3  -6   3 23.5734 1.10370   1
   4  -6   3 3.57916 0.43634   1
   5   2  11 49.2524 2.30824  -2
   5  -6   3 49.2524 2.30824   1
  -8  -6   2 12.9895 1.31867  -2
  -8  -5   3 12.9895 1.31867   1
  -7  -5   3 121.086 8.22401  -2
  -7  -5   3 121.086 8.22401   1
  -6  -5   3 14.7215 1.16434   1
  -4  -5   3 55.3357 1.34952   1
  -3  -3   5 25.5045 1.39575  -2
  -3  -5   3 25.5045 1.39575   1
  -2  -5   3 3.45065 0.85744   1
  -1  -5   3 18.3785 1.33014   1
   1  -5   3 7.62407 0.60796   1
   2   0   8 249.757 6.94132  -2
   2  -5   3 249.757 6.94132   1
   3  -5   3 106.497 3.08282   1
   4   1   9 15.0370 1.07725  -2
   4  -5   3 15.0370 1.07725   1
   5   2  10 6.21484 0.77499  -2
   5  -5   3 6.21484 0.77499   1
   6  -5   3 10.4539 0.69195   1
  -8  -6   1 31.9858 1.68725  -2
  -8  -4   3 31.9858 1.68725   1
  -7  -4   3 -0.1071 0.45532   1
  -6  -5   2 30.7024 2.04778  -2
  -6  -4   3 30.7024 2.04778   1
  -5  -4   3 250.440 9.72106   1
  -4  -4   3 316.832 11.5115   1
  -3  -4   3 175.986 11.8763   1
  -2  -4   3 110.426 4.02464   1
  -1  -2   5 78.2603 3.52635  -2
  -1  -4   3 78.2603 3.52635   1
   0  -4   3 93.1928 2.65876   1
   1  -4   3 402.746 13.8210   1
   3  -4   3 78.3743 1.92550   1
   4   1   8 81.8667 2.82019  -2
   4  -4   3 81.8667 2.82019   1
   5  -4   3 3.60911 0.30542   1
   6   2   9 22.5835 1.23930  -2
   6  -4   3 22.5835 1.23930   1
  -8  -3   3 34.0098 2.74720   1
  -7  -3   3 42.3012 3.44247   1
  -6  -5   1 51.2760 4.17625  -2
  -6  -3   3 51.2760 4.17625   1
  -5  -3   3 68.0380 1.84260   1
  -4  -4   2 70.9248 2.05942  -2
  -4  -3   3 70.9248 2.05942   1
  -3  -3   3 5.79268 0.63547   1
  -2  -3   3 116.153 4.18741   1
  -1  -3   3 143.393 5.02162   1
   0  -3   3 1010.63 18.3228   1
   1  -1   5 41.3954 1.72865  -2
   1  -3   3 41.3954 1.72865   1
   2  -3   3 2271.04 76.3075   1
   4   1   7 7.49163 1.30063  -2
   4  -3   3 7.49163 1.30063   1
   5  -3   3 28.7728 1.69132   1
   6   2   8 52.6743 3.43850  -2
   6  -3   3 52.6743 3.43850   1
   7  -3   3 46.1921 2.34004   1
  -8  -2   3 12.9732 0.84906   1
   7   6   1 10.7951 0.91955  -2
  -7  -2   3 10.7951 0.91955   1
  -6  -2   3 30.2518 1.05238   1
  -5  -2   3 6.96686 0.95466   1
  -4  -4   1 72.5057 4.57785  -2
  -4  -2   3 72.5057 4.57785   1
  -3  -2   3 119.035 3.78136   1
  -2  -3   2 484.425 10.4778  -2
  -2  -2   3 484.425 10.4778   1
  -1  -2   3 246.314 4.53990   1
   0  -2   3 41.1415 1.03551   1
   1  -2   3 23.5428 0.72510   1
   2  -2   3 952.440 32.1003   1
   3   0   5 122.074 4.35281  -2
   3  -2   3 122.074 4.35281   1
   4  -2   3 14.4151 0.49380   1
   5   1   6 64.1792 3.07648  -2
   5  -2   3 64.1792 3.07648   1
   6  -2   3 0.19837 0.76021   1
   8   3   8 37.0713 3.06973  -2
   8  -2   3 37.0713 3.06973   1
   8   7   3 2.73617 1.42086  -2
  -8  -1   3 2.73617 1.42086   1
   7   6   2 50.5384 4.11691  -2
  -7  -1   3 50.5384 4.11691   1
  -6  -1   3 0.05134 0.29368   1
   5   5   1 100.654 2.60180  -2
  -5  -1   3 100.654 2.60180   1
  -4  -1   3 13.0217 0.71779   1
  -3  -1   3 1.42112 0.84046   1
  -2  -1   3 67.9216 1.42113   1
  -1  -1   3 88.2977 1.80873   1
   1  -1   3 144.365 2.70108   1
   2  -1   3 211.387 8.53701   1
   3  -1   3 24.2680 1.12839   1
   4  -1   3 23.8856 0.68829   1
   5   1   5 217.717 10.5007  -2
   5  -1   3 217.717 10.5007   1
   6  -1   3 28.7689 0.96679   1
   7   2   6 109.682 5.32528  -2
   7  -1   3 109.682 5.32528   1
   8   7   4 15.3834 0.95595  -2
  -8   0   3 15.3834 0.95595   1
  -7   0   3 26.7318 1.37038   1
   6   6   3 59.5832 3.65905  -2
  -6   0   3 59.5832 3.65905   1
   5   5   2 15.3463 2.04366  -2
  -5   0   3 15.3463 2.04366   1
  -4   0   3 83.0610 2.71473   1
   3   4   1 1262.59 43.8540  -2
  -3   0   3 1262.59 43.8540   1
  -2   0   3 533.349 9.76824   1
  -1   0   3 968.165 24.3052   1
   0   0   3 5.51329 0.29594   1
   1   0   3 0.80942 0.27670   1
   3   0   3 246.828 5.53800   1
   4   0   3 2.48751 0.35040  -2
   4   0   3 2.48751 0.35040   1
   5   0   3 89.9408 2.31554   1
   6   1   4 32.6908 3.03186  -2
   6   0   3 32.6908 3.03186   1
   7   2   5 80.8017 4.26642  -2
   7   0   3 80.8017 4.26642   1
   8   7   5 73.9065 5.21281  -2
  -8   1   3 73.9065 5.21281   1
  -7   1   3 0.69490 0.47845   1
   6   6   4 18.7026 0.86128  -2
  -6   1   3 18.7026 0.86128   1
  -5   1   3 5.89013 0.41316   1
   4   5   3 102.224 4.89014  -2
  -4   1   3 102.224 4.89014   1
  -3   1   3 1044.51 31.2018   1
  -2   1   3 166.457 3.13251   1
  -1   1   3 1.01144 0.78691   1
   0   1   3 49.9314 1.13931   1
   2   1   3 407.602 7.44033   1
   3   1   3 124.641 2.60538   1
   4   1   3 3.57948 1.11512   1
   5   1   3 9.53082 0.37881   1
   6   1   3 138.931 6.61112  -2
   6   1   3 138.931 6.61112   1
   7   1   3 89.4440 3.20337   1
  -8   2   3 11.3456 1.17497   1
   7   7   6 80.3947 3.28132  -2
  -7   2   3 80.3947 3.28132   1
   6   6   5 29.7944 2.30367  -2
  -6   2   3 29.7944 2.30367   1
  -5   2   3 95.5928 3.28817   1
   4   5   4 58.1093 2.21309  -2
  -4   2   3 58.1093 2.21309   1
  -3   2   3 22.7323 0.99115   1
   2   4   3 56.0826 1.55401  -2
  -2   2   3 56.0826 1.55401   1
  -1   2   3 6.02798 0.37091   1
   0   2   3 34.6677 0.87471   1
   1   2   3 220.711 4.07913   1
   2   2   3 1.40825 0.21641   1
  -3   1   0 203.841 3.74363  -2
   3   2   3 203.841 3.74363   1
   4   2   3 208.487 9.36447   1
   5   0   1 115.963 8.43891  -2
   5   2   3 115.963 8.43891   1
   6   1   2 52.7978 2.77656  -2
   6   2   3 52.7978 2.77656   1
   7   1   2 24.3639 2.54055  -2
   7   2   3 24.3639 2.54055   1
   8   2   3 99.9729 5.00392  -2
   8   2   3 99.9729 5.00392   1
  -8   3   3 54.8487 3.85215   1
   7   7   7 64.9715 3.36872  -2
  -7   3   3 64.9715 3.36872   1
  -6   3   3 49.4363 1.76735   1
   5   6   6 147.605 3.41955  -2
  -5   3   3 147.605 3.41955   1
  -4   3   3 118.381 2.42090   1
  -3   3   3 0.15491 0.46498   1
  -2   3   3 160.361 4.93403   1
  -1   3   3 20.8768 0.63264   1
   0   3   3 768.315 16.0043  -2
   0   3   3 768.315 16.0043   1
   1   3   3 107.277 2.15987   1
   2   3   3 81.0062 1.57633   1
   3   3   3 137.844 2.58758   1
   4   3   3 699.594 30.6802   1
   5   0   0 339.059 10.3486  -2
   5   3   3 339.059 10.3486   1
   6   3   3 136.056 3.33202   1
   7   1   1 33.5675 1.97254  -2
   7   3   3 33.5675 1.97254   1
   8   2   2 24.3291 2.12560  -2
   8   3   3 24.3291 2.12560   1
  -7   4   3 50.2408 3.60891   1
   6   7   8 9.54548 1.33536  -2
  -6   4   3 9.54548 1.33536   1
   5   6   7 42.7439 1.56530  -2
  -5   4   3 42.7439 1.56530   1
  -4   4   3 32.2866 0.79860   1
   3   5   6 10.9711 0.49273  -2
  -3   4   3 10.9711 0.49273   1
  -2   4   3 7.45980 0.79513   1
  -1   4   3 31.0298 0.97542   1
   0   4   3 247.477 4.65535   1
   1   4   3 51.2522 1.16619   1
  -2   2   3 54.3812 1.62589  -2
   2   4   3 54.3812 1.62589   1
   3   4   3 20.5764 0.63276   1
  -4   1   2 15.1454 1.96871  -2
   4   4   3 15.1454 1.96871   1
   5   4   3 101.858 4.08054   1
   6   4   3 9.96061 0.92789   1
   7   1   0 108.783 3.87557  -2
   7   4   3 108.783 3.87557   1
   8   4   3 0.00868 0.31261   1
  -7   5   3 0.25112 0.55163   1
   6   7   9 3.41618 0.45025  -2
  -6   5   3 3.41618 0.45025   1
  -5   5   3 12.6794 0.63467   1
   4   6   8 306.635 10.8742  -2
  -4   5   3 306.635 10.8742   1
  -3   5   3 15.4494 0.56706   1
  -2   5   3 4.13155 0.73661   1
   1   4   6 176.654 5.48880  -2
  -1   5   3 176.654 5.48880   1
   0   5   3 15.3997 0.64520   1
  -1   3   5 204.214 9.25810  -2
   1   5   3 204.214 9.25810   1
   2   5   3 27.7428 1.37064   1
   3   5   3 105.696 3.38352   1
  -4   1   3 87.5729 4.30262  -2
   4   5   3 87.5729 4.30262   1
   5   5   3 7.22843 0.37355   1
  -6   0   2 61.6488 2.05232  -2
   6   5   3 61.6488 2.05232   1
   7   5   3 1.80447 0.79432   1
  -8  -1   1 50.5180 2.80009  -2
   8   5   3 50.5180 2.80009   1
  -6   6   3 0.41223 0.29346   1
  -5   6   3 51.7341 2.08177   1
   4   6   9 25.4210 1.32403  -2
  -4   6   3 25.4210 1.32403   1
  -3   6   3 52.0894 1.36979   1
   2   5   8 294.500 10.2748  -2
  -2   6   3 294.500 10.2748   1
  -1   6   3 205.708 8.88673   1
   0   6   3 138.287 6.10423   1
  -1   3   6 64.7119 3.34991  -2
   1   6   3 64.7119 3.34991   1
   2   6   3 61.5929 2.49607   1
  -3   2   5 503.910 15.3831  -2
   3   6   3 503.910 15.3831   1
   4   6   3 29.8915 0.73489   1
  -5   1   4 73.2695 5.78924  -2
   5   6   3 73.2695 5.78924   1
  -6   0   3 50.6281 2.22171  -2
   6   6   3 50.6281 2.22171   1
   7   6   3 2.79420 0.46753   1
  -8  -1   2 52.9632 2.33662  -2
   8   6   3 52.9632 2.33662   1
  -6   7   3 28.8262 1.80248   1
  -4   7   3 146.583 4.63826   1
  -3   7   3 136.338 3.82998   1
   2   5   9 19.6966 1.90723  -2
  -2   7   3 19.6966 1.90723   1
  -1   7   3 104.048 6.67766   1
   1   7   3 93.9085 4.42840   1
   2   7   3 149.821 3.81943   1
  -3   2   6 56.9152 3.66072  -2
   3   7   3 56.9152 3.66072   1
   4   7   3 21.6754 0.62012   1
  -5   1   5 13.9081 0.61740  -2
   5   7   3 13.9081 0.61740   1
   6   7   3 42.5421 1.58575   1
  -7   0   4 47.6780 2.13394  -2
   7   7   3 47.6780 2.13394   1
  -8  -1   3 3.17516 0.64881  -2
   8   7   3 3.17516 0.64881   1
  -5   8   3 93.4376 4.20448   1
  -4   8   3 24.7555 1.08284   1
   3   6  11 2.81049 1.01343  -2
  -3   8   3 2.81049 1.01343   1
  -2   8   3 78.3366 2.91821   1
  -1   8   3 88.6851 5.81226   1
   1   8   3 163.681 7.24399   1
  -2   3   8 45.9697 1.25173  -2
   2   8   3 45.9697 1.25173   1
   3   8   3 -0.4059 0.34648   1
  -4   2   7 10.2006 0.82789  -2
   4   8   3 10.2006 0.82789   1
  -5   1   6 127.908 9.68567  -2
   5   8   3 127.908 9.68567   1
   6   8   3 0.62928 0.56795   1
  -7   0   5 92.7093 3.84021  -2
   7   8   3 92.7093 3.84021   1
   8   8   3 0.23705 0.45474   1
  -4   9   3 32.8433 1.25897   1
  -3   9   3 25.3758 1.42579   1
  -2   9   3 70.0151 3.16704   1
   1   5  11 65.9539 4.36905  -2
  -1   9   3 65.9539 4.36905   1
   0   9   3 69.6750 4.75675   1
  -1   4  10 90.4700 6.06236  -2
   1   9   3 90.4700 6.06236   1
   2   9   3 74.8559 2.32960   1
   3   9   3 41.7333 1.28781   1
  -4   2   8 49.8475 1.61430  -2
   4   9   3 49.8475 1.61430   1
   5   9   3 19.9382 0.94030   1
  -6   1   7 61.1389 3.05237  -2
   6   9   3 61.1389 3.05237   1
  -7   0   6 34.6148 2.70336  -2
   7   9   3 34.6148 2.70336   1
   8   9   3 9.05531 0.76814   1
  -3  10   3 11.9079 0.77975   1
  -2  10   3 5.94799 0.51980   1
  -1  10   3 9.08482 1.04683   1
   0  10   3 20.3051 1.39548   1
  -1   4  11 64.6609 4.42941  -2
   1  10   3 64.6609 4.42941   1
   2  10   3 193.060 8.27247   1
  -3   3  10 0.50909 0.94405  -2
   3  10   3 0.50909 0.94405   1
   4  10   3 -0.4518 0.40403   1
   5  10   3 13.0840 0.83052   1
   7  10   3 54.4369 2.76940   1
   2   6  14 1.24977 0.33045  -2
  -2  11   3 1.24977 0.33045   1
  -1  11   3 -0.3992 0.43425   1
   0   5  13 8.27070 0.95039  -2
   0  11   3 8.27070 0.95039   1
   1  11   3 241.006 15.1334   1
   2  11   3 0.25358 0.58555   1
  -3   3  11 90.6877 5.13007  -2
   3  11   3 90.6877 5.13007   1
   4  11   3 1.55580 0.57805   1
  -5   2  10 30.1413 2.03994  -2
   5  11   3 30.1413 2.03994   1
   6  11   3 -0.1806 0.29785   1
   0   5  14 45.7880 3.04312  -2
   0  12   3 45.7880 3.04312   1
   1  12   3 128.081 4.64788   1
  -2   4  13 66.9404 3.06179  -2
   2  12   3 66.9404 3.06179   1
   3  12   3 0.64769 0.36933   1
   4  12   3 1.83418 0.44067   1
   5  12   3 2.63039 0.74535   1
  -4  -3  11 12.9389 0.76603  -2
  -4 -10   4 12.9389 0.76603   1
  -3 -10   4 -0.2705 0.35545   1
  -2  -2  12 9.06541 0.95879  -2
  -2 -10   4 9.06541 0.95879   1
  -1 -10   4 8.39048 0.65008   1
   0 -10   4 4.87476 0.45833   1
  -6  -9   4 0.08747 0.55649   1
  -5  -4   9 19.5086 1.55357  -2
  -5  -9   4 19.5086 1.55357   1
  -4  -9   4 0.17152 0.68493   1
  -3  -3  10 34.4534 2.31867  -2
  -3  -9   4 34.4534 2.31867   1
  -2  -2  11 20.1758 1.18297  -2
  -2  -9   4 20.1758 1.18297   1
  -1  -9   4 5.83106 0.95785   1
   0  -1  12 53.9573 2.59771  -2
   0  -9   4 53.9573 2.59771   1
   1  -9   4 -0.5855 0.42355   1
   2  -9   4 9.35223 0.68997   1
  -7  -8   4 1.02873 0.54673   1
  -6  -5   7 11.0041 1.06235  -2
  -6  -8   4 11.0041 1.06235   1
  -5  -4   8 8.63213 0.71974  -2
  -5  -8   4 8.63213 0.71974   1
  -4  -8   4 116.415 4.18632   1
  -3  -3   9 3.62085 0.56542  -2
  -3  -8   4 3.62085 0.56542   1
  -2  -2  10 44.2240 3.14238  -2
  -2  -8   4 44.2240 3.14238   1
  -1  -2  10 21.7998 2.23504  -2
  -1  -8   4 21.7998 2.23504   1
   0  -1  11 185.798 8.32194  -2
   0  -8   4 185.798 8.32194   1
   1  -8   4 0.62423 0.72321   1
   2   0  12 32.8451 1.54838  -2
   2  -8   4 32.8451 1.54838   1
   3  -8   4 10.6970 0.77129   1
  -7  -7   4 9.24279 0.74732   1
  -6  -5   6 8.12005 0.75269  -2
  -6  -7   4 8.12005 0.75269   1
  -5  -7   4 39.7376 3.07288   1
  -4  -4   7 46.0134 2.79437  -2
  -4  -7   4 46.0134 2.79437   1
  -3  -3   8 4.40570 0.77248  -2
  -3  -7   4 4.40570 0.77248   1
  -2  -7   4 -0.1717 0.86359   1
  -1  -2   9 66.5055 4.54658  -2
  -1  -7   4 66.5055 4.54658   1
   0  -7   4 1.62933 0.58323   1
   1  -1  10 20.8542 1.99253  -2
   1  -7   4 20.8542 1.99253   1
   2   0  11 4.50106 1.18875  -2
   2  -7   4 4.50106 1.18875   1
   3  -7   4 1.49370 0.42152   1
   4   1  12 1.34045 0.31833  -2
   4  -7   4 1.34045 0.31833   1
  -8  -6   4 17.0192 1.38816   1
  -7  -6   4 1.91794 1.33583  -2
  -7  -6   4 1.91794 1.33583   1
  -6  -5   5 78.3748 3.60905  -2
  -6  -6   4 78.3748 3.60905   1
  -5  -6   4 98.5897 4.81880   1
  -4  -4   6 106.632 3.08873  -2
  -4  -6   4 106.632 3.08873   1
  -3  -6   4 3.38631 0.60832   1
  -2  -3   7 6.43272 0.82996  -2
  -2  -6   4 6.43272 0.82996   1
   1  -1   9 111.157 7.18349  -2
   1  -6   4 111.157 7.18349   1
   2  -6   4 15.6299 0.94842   1
   3   0  10 70.5635 2.69434  -2
   3  -6   4 70.5635 2.69434   1
   4  -6   4 11.4584 0.75018   1
   5   1  11 20.4155 1.72700  -2
   5  -6   4 20.4155 1.72700   1
  -8  -5   4 0.77008 0.39442   1
  -7  -6   3 0.55422 0.60690  -2
  -7  -5   4 0.55422 0.60690   1
  -6  -5   4 5.94939 0.75825   1
  -5  -5   4 935.820 61.9695  -2
  -5  -5   4 935.820 61.9695   1
  -3  -5   4 175.203 5.41694   1
  -2  -3   6 91.2639 3.41217  -2
  -2  -5   4 91.2639 3.41217   1
  -1  -5   4 17.9264 1.14294   1
   1  -5   4 0.07431 1.22791   1
   2  -5   4 172.145 7.54031   1
   3   0   9 284.090 10.0979  -2
   3  -5   4 284.090 10.0979   1
   4  -5   4 4.52120 0.47204   1
   5   1  10 44.3958 1.79683  -2
   5  -5   4 44.3958 1.79683   1
   6  -5   4 10.6441 0.61569   1
  -8  -7   1 10.5317 1.24041  -2
  -8  -4   4 10.5317 1.24041   1
  -7  -4   4 37.8456 3.01727   1
  -6  -4   4 67.7783 2.85077   1
  -5  -5   3 465.919 13.4575  -2
  -5  -4   4 465.919 13.4575   1
  -4  -4   4 77.1032 1.85629   1
  -3  -4   4 10.0247 1.08202  -2
  -3  -4   4 10.0247 1.08202   1
  -2  -4   4 10.5698 0.89014   1
  -1  -4   4 104.793 4.70296   1
   1  -4   4 181.998 5.60633   1
   2  -1   7 102.316 3.25623  -2
   2  -4   4 102.316 3.25623   1
   3  -4   4 100.443 3.83898   1
   4   0   8 3.36288 1.36148  -2
   4  -4   4 3.36288 1.36148   1
   5   1   9 52.5807 3.27650  -2
   5  -4   4 52.5807 3.27650   1
   6  -4   4 20.9955 1.41460   1
   8   7   0 60.2138 3.03372  -2
  -8  -3   4 60.2138 3.03372   1
  -7  -3   4 5.26798 0.61214   1
  -6  -6   1 11.6114 0.80584  -2
  -6  -3   4 11.6114 0.80584   1
  -5  -3   4 2.27974 0.30130   1
  -4  -3   4 55.7386 1.65526   1
  -3  -4   3 430.859 28.4506  -2
  -3  -3   4 430.859 28.4506   1
  -2  -3   4 186.463 6.58725   1
  -1  -3   4 56.2279 2.66870  -2
  -1  -3   4 56.2279 2.66870   1
   0  -3   4 1.47571 0.41864   1
   1  -3   4 7.53284 0.88810   1
   3  -3   4 26.6566 0.95995   1
   4   0   7 210.152 5.06521  -2
   4  -3   4 210.152 5.06521   1
   5   1   8 4.06164 0.48430  -2
   5  -3   4 4.06164 0.48430   1
   6   1   8 5.01615 0.61342  -2
   6  -3   4 5.01615 0.61342   1
   7   2   9 20.5136 1.61739  -2
   7  -3   4 20.5136 1.61739   1
  -8  -2   4 7.55418 0.69738   1
  -7  -2   4 10.0271 0.98725   1
   6   6   0 20.2978 2.19571  -2
  -6  -2   4 20.2978 2.19571   1
  -5  -2   4 40.0176 1.18817   1
  -4  -5   1 40.2397 1.00413  -2
  -4  -2   4 40.2397 1.00413   1
  -3  -2   4 150.369 4.75921   1
  -2  -2   4 622.104 21.2923   1
  -1  -2   4 3.78036 0.75554   1
   0  -2   4 77.8401 1.58895   1
   1  -2   4 636.454 18.4231  -2
   1  -2   4 636.454 18.4231   1
   2  -2   4 277.286 9.55080   1
   4   0   6 8.70743 1.07479  -2
   4  -2   4 8.70743 1.07479   1
   5   0   6 101.531 7.63622  -2
   5  -2   4 101.531 7.63622   1
   7  -2   4 69.0915 4.86185   1
  -8  -1   4 14.8650 1.07661   1
   7   7   2 41.3544 1.80509  -2
  -7  -1   4 41.3544 1.80509   1
  -6  -1   4 41.0317 1.42607   1
  -5  -1   4 23.5096 1.92252   1
   4   5   0 42.0353 2.68693  -2
  -4  -1   4 42.0353 2.68693   1
  -3  -1   4 2.53467 0.57102   1
  -2  -4   1 215.295 5.69571  -2
  -2  -1   4 215.295 5.69571   1
  -1  -1   4 57.9366 1.28173   1
   0  -1   4 38.5728 1.10941   1
   1  -1   4 44.0605 1.39875   1
   2  -1   4 6.70935 0.79771   1
   3  -1   4 128.736 6.02086  -2
   3  -1   4 128.736 6.02086   1
   4  -1   4 43.0234 1.00747   1
   5   0   5 86.9198 5.45705  -2
   5  -1   4 86.9198 5.45705   1
   6   1   6 26.7334 2.44281  -2
   6  -1   4 26.7334 2.44281   1
   7   1   6 7.91211 1.60967  -2
   7  -1   4 7.91211 1.60967   1
   8   2   7 32.1120 1.66126  -2
   8  -1   4 32.1120 1.66126   1
  -8   0   4 58.1146 4.09311   1
   7   7   3 33.3324 2.59206  -2
  -7   0   4 33.3324 2.59206   1
  -6   0   4 0.17547 0.33195   1
   5   6   2 119.397 3.31542  -2
  -5   0   4 119.397 3.31542   1
  -4   0   4 1.61168 0.27837   1
  -3   0   4 114.606 3.67017   1
  -2   0   4 19.9976 0.72347   1
  -1   0   4 105.526 2.15639   1
   0  -3   1 323.071 18.4684  -2
   0   0   4 323.071 18.4684   1
   1   0   4 71.4820 1.50529   1
   2   0   4 306.094 8.62149   1
   3   0   4 5.91801 0.55066   1
   4   0   4 45.5375 1.27773   1
   5   0   4 130.459 6.70841  -2
   5   0   4 130.459 6.70841   1
   6   0   4 14.9492 0.77239   1
   7   1   5 35.7600 1.56868  -2
   7   0   4 35.7600 1.56868   1
   8   8   5 25.2632 1.91426  -2
  -8   1   4 25.2632 1.91426   1
  -7   1   4 1.30679 0.53873   1
   6   7   4 89.6341 3.52395  -2
  -6   1   4 89.6341 3.52395   1
   5   6   3 75.9742 5.72678  -2
  -5   1   4 75.9742 5.72678   1
  -4   1   4 19.4797 0.57427   1
   3   5   2 64.8469 3.20146  -2
  -3   1   4 64.8469 3.20146   1
  -2   1   4 51.0206 1.34458   1
   1   4   1 208.688 8.52440  -2
  -1   1   4 208.688 8.52440   1
   0   1   4 88.2100 1.92200   1
   1   1   4 487.827 9.29115   1
   2  -2   1 314.602 20.8362  -2
   2   1   4 314.602 20.8362   1
   3   1   4 90.7396 2.31007   1
   4  -1   2 366.173 10.7604  -2
   4   1   4 366.173 10.7604   1
   5   1   4 121.063 3.56246   1
   6   0   3 28.0229 2.53885  -2
   6   1   4 28.0229 2.53885   1
   7   1   4 22.8958 2.15482  -2
   7   1   4 22.8958 2.15482   1
   8   1   4 2.21833 0.71269   1
  -8   2   4 1.38361 0.36941   1
  -7   2   4 167.883 6.69819   1
   6   7   5 0.67942 0.34977  -2
  -6   2   4 0.67942 0.34977   1
  -5   2   4 6.17811 0.30857   1
   4   6   4 6.36882 0.48000  -2
  -4   2   4 6.36882 0.48000   1
  -3   2   4 7.28099 0.76924   1
  -2   2   4 207.415 6.30793   1
   1   4   2 217.373 6.25476  -2
  -1   2   4 217.373 6.25476   1
   0   2   4 21.1686 0.68842   1
  -1   3   1 38.1828 1.07259  -2
   1   2   4 38.1828 1.07259   1
   2   2   4 0.52029 0.26381   1
   3   2   4 81.9674 1.91713   1
   4   2   4 97.3799 6.91273   1
   5   2   4 70.4818 1.75897   1
   6   0   2 124.940 4.35742  -2
   6   2   4 124.940 4.35742   1
   7   2   4 16.6855 1.05588   1
   8   1   3 4.13309 1.09216  -2
   8   2   4 4.13309 1.09216   1
   7   8   7 25.5204 2.24650  -2
  -7   3   4 25.5204 2.24650   1
  -6   3   4 -0.1152 0.37955   1
   5   7   6 23.4089 2.06661  -2
  -5   3   4 23.4089 2.06661   1
   4   6   5 164.523 4.67534  -2
  -4   3   4 164.523 4.67534   1
  -3   3   4 192.477 5.95104   1
   2   5   4 72.0665 5.38586  -2
  -2   3   4 72.0665 5.38586   1
  -1   3   4 4.83626 0.35993   1
   0   3   4 553.669 10.2353   1
   1   3   4 3.66904 0.34109   1
   2   3   4 164.790 3.46771   1
  -3   2   1 219.650 6.58368  -2
   3   3   4 219.650 6.58368   1
   4   3   4 17.7862 1.37658   1
  -5   1   0 104.077 4.88720  -2
   5   3   4 104.077 4.88720   1
   6   3   4 2.92753 1.03063   1
   7   3   4 9.08903 0.59040   1
   8   1   2 180.018 9.22363  -2
   8   3   4 180.018 9.22363   1
   7   8   8 32.2168 2.50775  -2
  -7   4   4 32.2168 2.50775   1
  -6   4   4 34.7185 1.48672   1
   5   7   7 81.7764 2.48517  -2
  -5   4   4 81.7764 2.48517   1
  -4   4   4 95.3897 2.11321   1
  -3   4   4 20.7882 0.70482   1
  -2   4   4 125.500 4.64929   1
  -1   4   4 0.94305 0.54196   1
   0   4   4 3528.31 64.6365  -2
   0   4   4 3528.31 64.6365   1
   1   4   4 225.634 4.77053   1
   2   4   4 51.7569 1.58270   1
   3   4   4 27.5027 1.05877   1
   4   4   4 2.38202 1.25404   1
  -5   1   1 106.863 4.19795  -2
   5   4   4 106.863 4.19795   1
   6   4   4 91.2175 2.69696   1
   7   0   0 72.7241 3.93568  -2
   7   4   4 72.7241 3.93568   1
  -7   5   4 24.3384 1.88119   1
  -6   5   4 15.9880 0.98231   1
   5   7   8 36.6070 2.03107  -2
  -5   5   4 36.6070 2.03107   1
  -4   5   4 0.39524 0.34532   1
   3   6   7 58.9401 1.51696  -2
  -3   5   4 58.9401 1.51696   1
  -2   5   4 3.66915 0.53088   1
  -1   5   4 49.8499 2.10530   1
   0   5   4 8.96178 0.55860   1
   1   5   4 117.686 3.30989   1
  -2   3   4 67.6721 3.52229  -2
   2   5   4 67.6721 3.52229   1
   3   5   4 27.0454 1.12909   1
  -4   2   3 58.6108 2.17420  -2
   4   5   4 58.6108 2.17420   1
  -5   1   2 53.2753 4.24578  -2
   5   5   4 53.2753 4.24578   1
  -6   1   2 33.7593 3.31534  -2
   6   5   4 33.7593 3.31534   1
  -7   0   1 11.5404 0.81425  -2
   7   5   4 11.5404 0.81425   1
   8   5   4 -0.0150 0.36632   1
   6   8  10 7.88688 0.79210  -2
  -6   6   4 7.88688 0.79210   1
  -5   6   4 3.86686 0.46481   1
   4   7   9 89.2626 4.38452  -2
  -4   6   4 89.2626 4.38452   1
  -3   6   4 154.652 3.65213   1
  -2   6   4 53.5051 1.84378   1
   1   5   7 88.6207 5.17078  -2
  -1   6   4 88.6207 5.17078   1
   0   6   4 19.0381 2.00122   1
  -1   4   6 37.5990 2.27633  -2
   1   6   4 37.5990 2.27633   1
   2   6   4 215.372 7.75535   1
   3   6   4 38.3250 1.51163   1
  -4   2   4 6.61873 0.43615  -2
   4   6   4 6.61873 0.43615   1
   5   6   4 8.10049 0.40663   1
  -6   1   3 18.6059 0.87274  -2
   6   6   4 18.6059 0.87274   1
   7   6   4 260.856 13.3989   1
  -8   0   2 9.61892 0.88649  -2
   8   6   4 9.61892 0.88649   1
  -6   7   4 19.3789 1.26085   1
  -5   7   4 320.112 11.8829   1
   4   7  10 5.19165 0.49490  -2
  -4   7   4 5.19165 0.49490   1
  -3   7   4 56.7024 1.72961   1
   2   6   9 54.7073 2.14980  -2
  -2   7   4 54.7073 2.14980   1
  -1   7   4 70.3987 4.68832   1
  -1   4   7 75.0080 5.48932  -2
   1   7   4 75.0080 5.48932   1
   2   7   4 15.9458 0.68034   1
  -3   3   6 247.496 6.28296  -2
   3   7   4 247.496 6.28296   1
   4   7   4 23.7829 0.66744   1
  -5   2   5 35.4731 1.71296  -2
   5   7   4 35.4731 1.71296   1
  -6   1   4 81.6539 4.35557  -2
   6   7   4 81.6539 4.35557   1
   7   7   4 0.21445 0.41044   1
  -8   0   3 19.2865 1.19711  -2
   8   7   4 19.2865 1.19711   1
  -5   8   4 220.051 13.1406   1
  -4   8   4 4.64772 0.43031   1
  -3   8   4 107.992 4.69938   1
   2   6  10 153.255 6.61130  -2
  -2   8   4 153.255 6.61130   1
  -1   8   4 23.1454 2.05186   1
   0   5   9 3.52792 1.44109  -2
   0   8   4 3.52792 1.44109   1
   1   8   4 0.38832 0.74556   1
   2   8   4 30.3653 0.89007   1
  -3   3   7 41.4844 1.75543  -2
   3   8   4 41.4844 1.75543   1
   4   8   4 91.0951 2.05321   1
  -5   2   6 57.5646 2.23134  -2
   5   8   4 57.5646 2.23134   1
   6   8   4 68.0572 2.93071   1
  -7   1   5 91.6202 4.61705  -2
   7   8   4 91.6202 4.61705   1
  -8   0   4 57.7595 4.40209  -2
   8   8   4 57.7595 4.40209   1
  -4   9   4 8.16345 0.63566   1
   3   7  12 21.3361 1.69441  -2
  -3   9   4 21.3361 1.69441   1
  -2   9   4 -0.6702 0.54164   1
  -1   9   4 13.5770 1.64968   1
   0   9   4 35.2657 2.81744   1
   1   9   4 11.3329 1.28347   1
  -2   4   9 782.178 24.1894  -2
   2   9   4 782.178 24.1894   1
   3   9   4 4.70723 0.54598   1
  -4   3   8 32.0414 1.98879  -2
   4   9   4 32.0414 1.98879   1
   5   9   4 7.95618 0.62514   1
   6   9   4 70.7505 3.00592   1
  -7   1   6 72.4393 3.39795  -2
   7   9   4 72.4393 3.39795   1
   8   9   4 29.2759 1.65712   1
  -3  10   4 -0.0250 0.52466   1
  -2  10   4 8.14965 0.63883   1
   1   6  12 47.7774 3.30088  -2
  -1  10   4 47.7774 3.30088   1
   0  10   4 3.53410 0.71682   1
   1  10   4 21.5119 2.11338   1
   2  10   4 366.345 15.5313   1
   3  10   4 2.56471 0.53644   1
  -4   3   9 141.128 4.49937  -2
   4  10   4 141.128 4.49937   1
   5  10   4 30.3182 1.38869   1
  -6   2   8 12.8791 0.82307  -2
   6  10   4 12.8791 0.82307   1
   7  10   4 4.67311 0.53530   1
  -2  11   4 1.18215 0.35992   1
  -1  11   4 8.63814 0.70809   1
   0  11   4 1.80604 0.57831   1
   2  11   4 1.21002 0.51829   1
  -3   4  11 13.8623 1.35457  -2
   3  11   4 13.8623 1.35457   1
   4  11   4 13.9343 1.13233   1
   5  11   4 1.14072 0.40586   1
  -6   2   9 27.0686 1.52182  -2
   6  11   4 27.0686 1.52182   1
  -1  12   4 8.05893 0.89199   1
   0   6  14 4.12507 0.80626  -2
   0  12   4 4.12507 0.80626   1
   1  12   4 87.0131 3.92310   1
   2  12   4 25.5297 1.43493   1
   3  12   4 17.5628 1.61949   1
   4  12   4 9.29747 0.48418   1
  -5   3  11 9.13402 1.08623  -2
   5  12   4 9.13402 1.08623   1
   3  13   4 1.17247 0.45502   1
  -5  -5   9 2.13992 0.81180  -2
  -5  -9   5 2.13992 0.81180   1
  -4  -4  10 8.18576 0.52566  -2
  -4  -9   5 8.18576 0.52566   1
  -3  -9   5 65.9464 3.00136   1
  -2  -3  11 16.5317 0.97439  -2
  -2  -9   5 16.5317 0.97439   1
  -1  -2  12 2.89021 0.75626  -2
  -1  -9   5 2.89021 0.75626   1
   0  -2  12 8.44154 0.82455  -2
   0  -9   5 8.44154 0.82455   1
   1  -1  13 54.0782 2.47920  -2
   1  -9   5 54.0782 2.47920   1
  -6  -8   5 18.8759 0.96320   1
  -5  -5   8 2.82621 0.62122  -2
  -5  -8   5 2.82621 0.62122   1
  -4  -4   9 -1.1641 0.96576  -2
  -4  -8   5 -1.1641 0.96576   1
  -3  -8   5 4.85305 0.91418   1
  -2  -3  10 8.14461 0.90101  -2
  -2  -8   5 8.14461 0.90101   1
   0  -2  11 13.7285 1.11198  -2
   0  -8   5 13.7285 1.11198   1
   1  -8   5 4.40738 0.70642   1
   2  -1  12 3.72443 1.06143  -2
   2  -8   5 3.72443 1.06143   1
   3   0  13 -0.5632 0.55427  -2
   3  -8   5 -0.5632 0.55427   1
  -7  -6   6 32.3940 2.42918  -2
  -7  -7   5 32.3940 2.42918   1
  -6  -6   6 40.7668 3.09605  -2
  -6  -7   5 40.7668 3.09605   1
  -5  -5   7 19.5574 1.27400  -2
  -5  -7   5 19.5574 1.27400   1
  -4  -7   5 340.099 22.6661   1
  -3  -4   8 24.9548 1.09921  -2
  -3  -7   5 24.9548 1.09921   1
  -1  -3   9 9.68479 1.02527  -2
  -1  -7   5 9.68479 1.02527   1
   0  -2  10 47.0698 2.35683  -2
   0  -7   5 47.0698 2.35683   1
   2  -1  11 -0.1611 0.57742  -2
   2  -7   5 -0.1611 0.57742   1
   3  -7   5 1.10250 0.47037   1
   4   0  12 90.8557 5.53411  -2
   4  -7   5 90.8557 5.53411   1
  -7  -6   5 1.83726 0.40552   1
  -6  -6   5 74.2840 3.40116  -2
  -6  -6   5 74.2840 3.40116   1
  -5  -6   5 8.92592 0.79096   1
  -3  -4   7 17.7812 1.57130  -2
  -3  -6   5 17.7812 1.57130   1
  -1  -3   8 62.3879 4.21587  -2
  -1  -6   5 62.3879 4.21587   1
   1  -2   9 1.12616 0.78926  -2
   1  -6   5 1.12616 0.78926   1
   2  -1  10 1.80204 1.04614  -2
   2  -6   5 1.80204 1.04614   1
   3  -6   5 15.6399 1.17201   1
   4   0  11 70.7668 2.61903  -2
   4  -6   5 70.7668 2.61903   1
   5  -6   5 1.38967 0.40032   1
  -8  -5   5 36.9807 2.61827   1
  -6  -6   4 74.6977 4.59969  -2
  -6  -5   5 74.6977 4.59969   1
  -5  -5   5 0.22546 0.54993   1
  -4  -5   5 0.87436 0.50068  -2
  -4  -5   5 0.87436 0.50068   1
  -3  -5   5 35.3312 1.24928   1
   1  -2   8 90.4966 5.90789  -2
   1  -5   5 90.4966 5.90789   1
   2  -5   5 26.9700 2.56889   1
   3  -1   9 162.379 9.56074  -2
   3  -5   5 162.379 9.56074   1
   4   0  10 32.6233 2.45741  -2
   4  -5   5 32.6233 2.45741   1
   5   0  10 28.2809 1.97673  -2
   5  -5   5 28.2809 1.97673   1
  -8  -4   5 15.0375 0.94830   1
  -7  -7   2 2.54511 0.47035  -2
  -7  -4   5 2.54511 0.47035   1
  -6  -4   5 1.29117 0.48694   1
  -5  -6   3 116.094 5.27155  -2
  -5  -4   5 116.094 5.27155   1
  -4  -4   5 26.3133 2.36053   1
  -3  -4   5 165.763 3.96769   1
  -2  -4   5 18.7106 1.08384  -2
  -2  -4   5 18.7106 1.08384   1
  -1  -4   5 61.9313 2.50752   1
   1  -4   5 104.441 6.76636   1
   2  -4   5 22.7963 1.73675   1
   3  -1   8 711.998 24.4933  -2
   3  -4   5 711.998 24.4933   1
   4  -4   5 48.7870 1.68899   1
   6  -4   5 3.19930 0.35981   1
   8   8   0 11.8559 1.39945  -2
  -8  -3   5 11.8559 1.39945   1
  -7  -3   5 0.37689 0.84484   1
  -6  -3   5 9.20825 0.69511   1
  -5  -6   2 229.009 6.42522  -2
  -5  -3   5 229.009 6.42522   1
  -4  -3   5 86.6508 1.85485   1
  -3  -5   3 34.1684 1.89214  -2
  -3  -3   5 34.1684 1.89214   1
  -2  -3   5 2.95174 0.67034   1
  -1  -3   5 249.160 8.74172   1
   1  -3   5 189.730 8.12965   1
   2  -2   6 224.032 7.86777  -2
   2  -3   5 224.032 7.86777   1
   3  -3   5 8.36757 0.76534   1
   4  -1   7 1.44288 1.23596  -2
   4  -3   5 1.44288 1.23596   1
   5   0   8 14.9779 0.93900  -2
   5  -3   5 14.9779 0.93900   1
   6  -3   5 62.5028 4.76245   1
   7   1   9 54.3938 3.70514  -2
   7  -3   5 54.3938 3.70514   1
   8   8   1 4.25219 0.57872  -2
  -8  -2   5 4.25219 0.57872   1
  -7  -2   5 1.93591 0.49381   1
   6   7   0 0.76938 0.47366  -2
  -6  -2   5 0.76938 0.47366   1
  -5  -2   5 8.69585 0.48850   1
  -4  -2   5 14.3176 0.71785   1
  -2  -2   5 1.85214 0.66238   1
  -1  -4   3 79.0889 3.61472  -2
  -1  -2   5 79.0889 3.61472   1
   0  -2   5 1.90794 0.66802   1
   1  -2   5 35.8283 2.02765   1
   3  -2   5 21.5377 0.69935   1
   4  -1   6 10.8605 0.50590  -2
   4  -2   5 10.8605 0.50590   1
   5   0   7 23.7928 2.15073  -2
   5  -2   5 23.7928 2.15073   1
   6   0   7 54.1749 2.66963  -2
   6  -2   5 54.1749 2.66963   1
   7   1   8 7.28287 0.75958  -2
   7  -2   5 7.28287 0.75958   1
  -8  -1   5 50.8650 2.62808   1
  -7  -1   5 8.60526 0.86795   1
   6   7   1 27.1019 1.84331  -2
  -6  -1   5 27.1019 1.84331   1
  -5  -1   5 7.06000 0.32865   1
   4   6   0 49.9609 1.37135  -2
  -4  -1   5 49.9609 1.37135   1
  -3  -1   5 11.1579 0.77026   1
  -2  -1   5 813.336 27.7897   1
  -1  -1   5 10.5334 0.96684   1
   0  -1   5 185.326 3.68103   1
   1  -3   3 37.6374 1.42086  -2
   1  -1   5 37.6374 1.42086   1
   2  -1   5 52.6524 2.11670   1
   3  -1   5 1.05554 1.03674   1
   4  -1   5 9.39384 1.17053   1
   5  -1   5 11.6561 0.84744   1
   6   0   6 111.300 4.40892  -2
   6  -1   5 111.300 4.40892   1
   7  -1   5 1.60899 0.87678   1
   8   1   7 4.51729 0.76730  -2
   8  -1   5 4.51729 0.76730   1
  -8   0   5 1.30100 0.51007   1
   7   8   3 105.699 5.22395  -2
  -7   0   5 105.699 5.22395   1
  -6   0   5 4.54834 0.42501   1
   5   7   2 129.807 5.88558  -2
  -5   0   5 129.807 5.88558   1
   4   6   1 32.6177 2.03332  -2
  -4   0   5 32.6177 2.03332   1
  -3   0   5 0.43898 0.57209   1
   2   5   0 1007.80 34.3565  -2
  -2   0   5 1007.80 34.3565   1
  -1   0   5 43.8771 1.20920   1
   0   0   5 27.7663 0.97103   1
   1   0   5 7.97164 0.50804   1
   2   0   5 25.6571 1.23035   1
   3  -2   3 123.182 4.52015  -2
   3   0   5 123.182 4.52015   1
   4   0   5 14.6045 0.48214   1
   5  -1   4 76.0584 4.15689  -2
   5   0   5 76.0584 4.15689   1
   6   0   5 11.7867 1.74957  -2
   6   0   5 11.7867 1.74957   1
   7   0   5 -1.9373 1.58006  -2
   7   0   5 -1.9373 1.58006   1
   8   1   6 2.77034 0.37192  -2
   8   0   5 2.77034 0.37192   1
  -8   1   5 39.3507 3.02813   1
   7   8   4 102.588 7.28226  -2
  -7   1   5 102.588 7.28226   1
  -6   1   5 46.9548 1.70847   1
   5   7   3 14.1574 0.49066  -2
  -5   1   5 14.1574 0.49066   1
  -4   1   5 8.96675 0.38358   1
  -3   1   5 0.52001 0.65507   1
  -2   1   5 138.769 6.45757   1
  -1   1   5 195.993 4.75147   1
   0   4   0 102.231 4.56697  -2
   0   1   5 102.231 4.56697   1
   1   1   5 0.29509 0.35605   1
   3   1   5 41.6592 1.52220   1
   4   1   5 4.18303 0.30773   1
   5  -1   3 207.793 11.9625  -2
   5   1   5 207.793 11.9625   1
   6   1   5 -0.2355 0.44456   1
   7   0   4 32.0645 1.61297  -2
   7   1   5 32.0645 1.61297   1
   8   1   5 13.3345 1.40484   1
   8   9   6 45.4930 3.33963  -2
  -8   2   5 45.4930 3.33963   1
  -7   2   5 10.6033 0.71495   1
   6   8   5 56.3576 2.74509  -2
  -6   2   5 56.3576 2.74509   1
   5   7   4 36.3929 3.00104  -2
  -5   2   5 36.3929 3.00104   1
  -4   2   5 56.4030 1.37195   1
   3   6   3 493.786 17.3472  -2
  -3   2   5 493.786 17.3472   1
  -2   2   5 158.742 5.76758   1
  -1   2   5 3.19047 0.86573   1
   0   2   5 5.95131 0.44208   1
   1   2   5 4.14134 0.41599   1
  -2   3   0 158.458 10.7563  -2
   2   2   5 158.458 10.7563   1
   3   2   5 253.208 7.70941   1
   4  -2   1 63.8429 2.03654  -2
   4   2   5 63.8429 2.03654   1
   5   2   5 65.6152 1.66188   1
   6   2   5 16.8651 1.33617   1
   7   0   3 84.3401 6.28625  -2
   7   2   5 84.3401 6.28625   1
   8   2   5 62.5350 4.66658   1
  -7   3   5 0.59303 0.46013   1
   6   8   6 118.555 5.28886  -2
  -6   3   5 118.555 5.28886   1
  -5   3   5 24.1984 0.84927   1
   4   7   5 186.998 4.91650  -2
  -4   3   5 186.998 4.91650   1
  -3   3   5 56.5479 1.70382   1
  -2   3   5 6.78883 0.84948   1
   1   5   3 226.677 13.2158  -2
  -1   3   5 226.677 13.2158   1
   0   3   5 52.1984 1.21729   1
  -1   4   2 750.349 20.9872  -2
   1   3   5 750.349 20.9872   1
   2   3   5 31.0353 1.22818   1
   3   3   5 4.78313 0.52614   1
  -4   2   0 38.4899 3.66002  -2
   4   3   5 38.4899 3.66002   1
   5   3   5 0.65066 0.26337   1
   6  -1   1 201.283 7.06744  -2
   6   3   5 201.283 7.06744   1
   7   3   5 70.4256 2.57849   1
   8   0   2 126.903 9.24839  -2
   8   3   5 126.903 9.24839   1
  -6   4   5 92.9484 3.61758   1
  -5   4   5 49.7177 1.54344   1
   4   7   6 4.73940 0.58091  -2
  -4   4   5 4.73940 0.58091   1
  -3   4   5 5.43246 0.40699   1
   2   6   5 100.875 7.74545  -2
  -2   4   5 100.875 7.74545   1
  -1   4   5 94.3015 2.79046   1
   0   4   5 3.39677 0.38874   1
   1   4   5 352.513 9.33792   1
   2   4   5 43.3710 1.81687   1
  -3   3   2 71.4025 3.00438  -2
   3   4   5 71.4025 3.00438   1
   4   4   5 216.646 4.60724   1
  -5   2   1 164.355 7.65576  -2
   5   4   5 164.355 7.65576   1
   6   4   5 67.9380 5.45212   1
   7   4   5 0.33842 0.40657   1
   8   0   1 38.0078 3.12665  -2
   8   4   5 38.0078 3.12665   1
   7   9   9 4.01867 0.51019  -2
  -7   5   5 4.01867 0.51019   1
  -6   5   5 0.79541 0.45182   1
   5   8   8 16.0188 0.96529  -2
  -5   5   5 16.0188 0.96529   1
  -4   5   5 138.217 4.49281   1
  -3   5   5 68.6626 1.87819   1
  -2   5   5 0.18589 0.38597   1
  -1   5   5 73.8082 2.92937   1
   0   5   5 937.224 32.7448  -2
   0   5   5 937.224 32.7448   1
   1   5   5 122.103 4.50666   1
   2   5   5 24.1148 1.29998   1
   3   5   5 27.0344 1.31665   1
   4   5   5 0.64550 0.23340   1
  -5   2   2 35.7284 1.45336  -2
   5   5   5 35.7284 1.45336   1
   6   5   5 1.06746 0.46099   1
  -7   1   1 28.6560 1.38851  -2
   7   5   5 28.6560 1.38851   1
   8   0   0 31.7105 2.78730  -2
   8   5   5 31.7105 2.78730   1
  -6   6   5 126.431 5.70897   1
  -5   6   5 2.94781 0.35423   1
  -4   6   5 381.232 11.8986   1
   3   7   8 97.0878 3.03265  -2
  -3   6   5 97.0878 3.03265   1
  -2   6   5 50.3147 1.76138   1
  -1   6   5 105.692 6.77544   1
   1   6   5 228.270 8.22612   1
   3   6   5 11.2770 0.46873   1
  -4   3   4 166.385 4.63466  -2
   4   6   5 166.385 4.63466   1
   5   6   5 16.2616 0.77895   1
   6   6   5 100.261 3.71709   1
  -7   1   2 36.8730 2.17912  -2
   7   6   5 36.8730 2.17912   1
   8   6   5 0.58185 0.41916   1
   6   9  11 20.1829 1.28863  -2
  -6   7   5 20.1829 1.28863   1
  -5   7   5 128.654 5.84777   1
  -4   7   5 89.0959 3.24479   1
  -3   7   5 65.5963 2.14215   1
  -2   7   5 19.7404 1.30177   1
   1   6   8 1.51594 1.32346  -2
  -1   7   5 1.51594 1.32346   1
  -1   5   7 92.3265 6.02132  -2
   1   7   5 92.3265 6.02132   1
   2   7   5 207.574 5.18784   1
   3   7   5 11.3453 0.43426   1
  -4   3   5 189.064 4.85127  -2
   4   7   5 189.064 4.85127   1
   5   7   5 12.5589 0.64753   1
  -6   2   4 1.31328 0.39489  -2
   6   7   5 1.31328 0.39489   1
  -7   1   3 3.62789 0.98245  -2
   7   7   5 3.62789 0.98245   1
  -8   1   3 69.6517 5.06103  -2
   8   7   5 69.6517 5.06103   1
  -5   8   5 15.3975 1.28742   1
   4   8  11 111.393 4.21753  -2
  -4   8   5 111.393 4.21753   1
  -3   8   5 9.11303 0.57130   1
   2   7  10 15.0875 0.86559  -2
  -2   8   5 15.0875 0.86559   1
  -1   8   5 69.2066 4.59365   1
   0   8   5 83.8950 5.52435   1
  -1   5   8 489.144 30.5588  -2
   1   8   5 489.144 30.5588   1
   2   8   5 130.502 3.12617   1
  -3   4   7 1219.25 27.8519  -2
   3   8   5 1219.25 27.8519   1
   4   8   5 12.7081 0.56546   1
  -5   3   6 7.01853 1.23218  -2
   5   8   5 7.01853 1.23218   1
  -6   2   5 47.6152 2.78695  -2
   6   8   5 47.6152 2.78695   1
   7   8   5 131.050 6.69831   1
  -8   1   4 30.3822 2.05055  -2
   8   8   5 30.3822 2.05055   1
  -4   9   5 2.08453 0.37312   1
  -3   9   5 2.74245 0.50982   1
   2   7  11 27.8331 2.16512  -2
  -2   9   5 27.8331 2.16512   1
  -1   9   5 37.6851 2.81828   1
   0   6  10 130.745 8.47702  -2
   0   9   5 130.745 8.47702   1
   1   9   5 17.6674 1.84266   1
   2   9   5 3.43213 0.49223   1
  -3   4   8 500.095 34.3492  -2
   3   9   5 500.095 34.3492   1
   4   9   5 29.1372 1.10843   1
  -5   3   7 70.2621 2.74403  -2
   5   9   5 70.2621 2.74403   1
   6   9   5 43.4903 1.94349   1
   7   9   5 2.08401 0.79394   1
   8   9   5 1.07006 0.63791   1
  -2  10   5 10.0392 0.74806   1
  -1  10   5 57.6704 3.90807   1
   0  10   5 -0.2287 1.16533   1
   1  10   5 15.8397 1.71840   1
  -2   5  10 253.896 10.8010  -2
   2  10   5 253.896 10.8010   1
   3  10   5 35.9642 1.34996   1
  -4   4   9 20.1283 1.45851  -2
   4  10   5 20.1283 1.45851   1
  -5   3   8 12.9801 1.73269  -2
   5  10   5 12.9801 1.73269   1
   6  10   5 1.77582 0.44637   1
  -7   2   7 51.4474 4.35296  -2
   7  10   5 51.4474 4.35296   1
  -2  11   5 127.717 5.60410   1
   1   7  13 2.81882 0.98059  -2
  -1  11   5 2.81882 0.98059   1
   0  11   5 15.1861 1.17026   1
   1  11   5 1.41254 0.60444   1
   2  11   5 179.881 7.69113   1
   3  11   5 -0.0584 0.42995   1
  -4   4  10 25.2231 2.31374  -2
   4  11   5 25.2231 2.31374   1
   5  11   5 5.72065 0.48803   1
  -6   3   9 3.20298 0.63105  -2
   6  11   5 3.20298 0.63105   1
   7  11   5 3.32353 0.64841   1
  -1  12   5 -0.0245 0.47493   1
   0  12   5 1.00151 0.45289   1
  -1   6  13 5.12727 1.04513  -2
   1  12   5 5.12727 1.04513   1
   2  12   5 1.50310 0.47794   1
   3  12   5 0.00856 0.70563   1
   4  12   5 1.47169 0.43421   1
   5  12   5 1.33410 0.54541   1
   3  13   5 69.8609 4.79751   1
  -4  -5  10 13.8863 1.16925  -2
  -4  -9   6 13.8863 1.16925   1
  -3  -4  11 200.987 8.74578  -2
  -3  -9   6 200.987 8.74578   1
  -2  -9   6 5.06149 0.51973   1
  -1  -3  12 4.48294 0.73173  -2
  -1  -9   6 4.48294 0.73173   1
   0  -9   6 13.9505 0.79169   1
  -5  -8   6 30.3128 2.23787   1
  -4  -5   9 11.3880 0.63432  -2
  -4  -8   6 11.3880 0.63432   1
  -3  -8   6 106.556 4.73127   1
  -2  -4  10 17.6046 1.01058  -2
  -2  -8   6 17.6046 1.01058   1
  -1  -3  11 5.69502 1.34030  -2
  -1  -8   6 5.69502 1.34030   1
   0  -3  11 -0.0077 0.72376  -2
   0  -8   6 -0.0077 0.72376   1
   1  -2  12 44.2441 2.88781  -2
   1  -8   6 44.2441 2.88781   1
   2  -8   6 0.59037 0.34299   1
  -6  -7   6 2.62225 0.74068   1
  -5  -6   7 22.3078 1.19298  -2
  -5  -7   6 22.3078 1.19298   1
  -4  -5   8 61.5178 4.24397  -2
  -4  -7   6 61.5178 4.24397   1
  -3  -5   8 97.4514 6.71108  -2
  -3  -7   6 97.4514 6.71108   1
  -2  -4   9 35.3578 2.46319  -2
  -2  -7   6 35.3578 2.46319   1
   0  -3  10 3.41160 0.80977  -2
   0  -7   6 3.41160 0.80977   1
   1  -2  11 7.52209 0.88981  -2
   1  -7   6 7.52209 0.88981   1
   2  -2  11 41.1949 1.93856  -2
   2  -7   6 41.1949 1.93856   1
  -5  -6   6 30.7276 1.62980  -2
  -5  -6   6 30.7276 1.62980   1
  -4  -6   6 36.3192 2.85270   1
  -3  -5   7 11.3543 0.87266  -2
  -3  -6   6 11.3543 0.87266   1
   0  -3   9 17.2297 1.03773  -2
   0  -6   6 17.2297 1.03773   1
   2  -2  10 64.4120 2.87966  -2
   2  -6   6 64.4120 2.87966   1
   3  -6   6 9.36597 0.62692   1
   4  -1  11 126.007 5.48257  -2
   4  -6   6 126.007 5.48257   1
  -7  -5   6 9.04834 1.11535   1
  -6  -7   4 5.17916 0.67206  -2
  -6  -5   6 5.17916 0.67206   1
  -5  -5   6 8.86135 1.17406   1
  -2  -5   6 38.0739 2.00707   1
  -1  -4   7 51.9127 3.68992  -2
  -1  -5   6 51.9127 3.68992   1
   4  -1  10 156.736 5.68225  -2
   4  -5   6 156.736 5.68225   1
   5  -5   6 30.0791 1.50830   1
  -6  -7   3 27.7577 1.89001  -2
  -6  -4   6 27.7577 1.89001   1
  -5  -4   6 27.6077 1.35223   1
  -4  -6   4 113.411 3.30704  -2
  -4  -4   6 113.411 3.30704   1
  -3  -4   6 2.29636 0.42713   1
   1  -3   7 51.3911 3.46888  -2
   1  -4   6 51.3911 3.46888   1
   2  -4   6 72.0494 2.82631   1
   3  -2   8 279.633 15.6556  -2
   3  -4   6 279.633 15.6556   1
   4  -1   9 24.3505 2.58903  -2
   4  -4   6 24.3505 2.58903   1
   5  -1   9 113.365 8.41275  -2
   5  -4   6 113.365 8.41275   1
   6   0  10 14.9014 1.38888  -2
   6  -4   6 14.9014 1.38888   1
  -8  -3   6 8.85307 1.02446   1
  -7  -8   1 14.7973 1.00622  -2
  -7  -3   6 14.7973 1.00622   1
  -6  -3   6 3.20358 0.45325   1
  -5  -7   2 19.3545 1.19220  -2
  -5  -3   6 19.3545 1.19220   1
  -4  -3   6 0.38723 0.62492   1
  -3  -3   6 0.44450 0.37064   1
  -2  -5   4 83.8971 2.67152  -2
  -2  -3   6 83.8971 2.67152   1
  -1  -3   6 111.733 7.21733   1
   2  -3   6 13.6320 1.70883   1
   3  -2   7 10.5589 0.81290  -2
   3  -3   6 10.5589 0.81290   1
   4  -3   6 14.5262 0.79283   1
   5  -1   8 47.6397 1.95901  -2
   5  -3   6 47.6397 1.95901   1
   6  -3   6 -0.8319 0.66514   1
   8   9   1 57.2282 4.20659  -2
  -8  -2   6 57.2282 4.20659   1
   7   8   0 22.3191 2.21627  -2
  -7  -2   6 22.3191 2.21627   1
  -6  -2   6 7.44584 0.51007   1
  -5  -7   1 53.1692 2.32596  -2
  -5  -2   6 53.1692 2.32596   1
  -4  -2   6 66.3302 1.63130   1
  -2  -2   6 63.8576 2.17783   1
  -1  -2   6 132.227 5.87457   1
   1  -2   6 53.0459 2.20967   1
   2  -3   5 202.768 6.11806  -2
   2  -2   6 202.768 6.11806   1
   3  -2   6 69.2509 3.27838   1
   5  -1   7 0.34759 1.08410  -2
   5  -2   6 0.34759 1.08410   1
   6  -1   7 83.9713 6.27625  -2
   6  -2   6 83.9713 6.27625   1
   7   0   8 34.5544 1.79689  -2
   7  -2   6 34.5544 1.79689   1
   8   9   2 30.4962 2.36320  -2
  -8  -1   6 30.4962 2.36320   1
  -7  -1   6 1.96173 0.57958   1
   6   8   1 10.9155 0.90084  -2
  -6  -1   6 10.9155 0.90084   1
   5   7   0 15.3767 1.31218  -2
  -5  -1   6 15.3767 1.31218   1
  -4  -1   6 102.513 2.44254   1
  -2  -1   6 2.65660 0.70352   1
  -1  -5   2 3.40764 0.97798  -2
  -1  -1   6 3.40764 0.97798   1
   0  -1   6 1.30115 0.81973   1
   3  -1   6 0.24110 0.24629   1
   4  -2   5 11.8450 0.48095  -2
   4  -1   6 11.8450 0.48095   1
   5  -1   6 45.0783 1.83863   1
   6  -1   6 23.0413 1.26649  -2
   6  -1   6 23.0413 1.26649   1
   7   0   7 29.3639 2.56394  -2
   7  -1   6 29.3639 2.56394   1
  -8   0   6 11.0027 0.81007   1
  -7   0   6 31.8940 1.81622   1
   6   8   2 156.421 8.92431  -2
  -6   0   6 156.421 8.92431   1
  -5   0   6 14.9318 0.60674   1
   4   7   1 0.16131 0.31097  -2
  -4   0   6 0.16131 0.31097   1
  -3   0   6 2.22602 0.34333   1
  -2   0   6 3.45794 0.63844   1
   0   0   6 37.2216 1.31633   1
   1  -4   2 104.058 3.73882  -2
   1   0   6 104.058 3.73882   1
   2   0   6 86.7543 3.22967   1
   3   0   6 61.8413 4.72044   1
   4   0   6 26.9683 1.59753   1
   5   0   6 29.6486 1.31108   1
   6  -1   5 130.127 6.14487  -2
   6   0   6 130.127 6.14487   1
   7   0   6 3.55682 0.57562   1
   8   0   6 3.64344 0.48753  -2
   8   0   6 3.64344 0.48753   1
  -8   1   6 13.3835 1.28328   1
   7   9   4 76.4484 4.97415  -2
  -7   1   6 76.4484 4.97415   1
  -6   1   6 37.0282 1.40706   1
   5   8   3 118.849 5.94857  -2
  -5   1   6 118.849 5.94857   1
   4   7   2 74.5888 2.87850  -2
  -4   1   6 74.5888 2.87850   1
  -3   1   6 8.80937 0.45534   1
   2   6   1 74.9473 2.90524  -2
  -2   1   6 74.9473 2.90524   1
  -1   1   6 -0.0528 0.63547   1
   0   1   6 28.9320 0.95269   1
   1   1   6 20.6323 0.95427   1
   2   1   6 2.21383 0.54986   1
   3  -3   2 146.635 11.2911  -2
   3   1   6 146.635 11.2911   1
   4   1   6 7.70478 0.33067   1
   5  -2   3 40.1928 1.98050  -2
   5   1   6 40.1928 1.98050   1
   8   0   5 0.86142 0.81500  -2
   8   1   6 0.86142 0.81500   1
   7   9   5 7.05693 1.15226  -2
  -7   2   6 7.05693 1.15226   1
  -6   2   6 -0.4264 0.37151   1
   5   8   4 60.9180 1.81715  -2
  -5   2   6 60.9180 1.81715   1
  -4   2   6 -0.2125 0.32571   1
   3   7   3 55.2185 2.75201  -2
  -3   2   6 55.2185 2.75201   1
  -2   2   6 102.736 3.91523   1
  -1   2   6 125.848 3.94121   1
   0   5   1 136.482 4.21501  -2
   0   2   6 136.482 4.21501   1
   1   2   6 499.339 16.6714   1
  -2   4   0 23.3435 1.97346  -2
   2   2   6 23.3435 1.97346   1
   3   2   6 4.01584 0.55409   1
   4   2   6 35.1364 0.82464   1
   5  -2   2 57.0740 2.78119  -2
   5   2   6 57.0740 2.78119   1
   6   2   6 33.2894 1.24503   1
   7  -1   3 82.1178 3.35477  -2
   7   2   6 82.1178 3.35477   1
   8   0   4 37.3991 2.91804  -2
   8   2   6 37.3991 2.91804   1
  -7   3   6 92.6058 4.63230   1
   6   9   6 22.7298 1.45112  -2
  -6   3   6 22.7298 1.45112   1
  -5   3   6 -0.4199 0.38197   1
  -4   3   6 5.29885 0.44179   1
   3   7   4 239.435 5.62842  -2
  -3   3   6 239.435 5.62842   1
  -2   3   6 348.325 12.3743   1
   1   6   3 60.5191 4.12355  -2
  -1   3   6 60.5191 4.12355   1
   0   3   6 231.879 5.62131   1
   1   3   6 817.326 24.1887   1
  -2   4   1 31.2827 1.84684  -2
   2   3   6 31.2827 1.84684   1
   3   3   6 191.622 5.91853   1
  -4   3   0 123.836 3.18793  -2
   4   3   6 123.836 3.18793   1
   5   3   6 67.0374 1.82968   1
   6  -2   1 17.5586 2.36898  -2
   6   3   6 17.5586 2.36898   1
   7  -1   2 6.04118 1.48545  -2
   7   3   6 6.04118 1.48545   1
   8   3   6 16.1067 1.05446   1
  -7   4   6 7.43096 0.94652   1
   6   9   7 35.5913 2.98283  -2
  -6   4   6 35.5913 2.98283   1
  -5   4   6 5.08612 0.42453   1
   4   8   6 63.6720 4.78544  -2
  -4   4   6 63.6720 4.78544   1
  -3   4   6 2.77626 0.37278   1
  -2   4   6 106.028 3.47517   1
  -1   4   6 15.7527 1.26902   1
   0   4   6 5.72597 0.63282   1
  -1   5   3 156.244 5.70327  -2
   1   4   6 156.244 5.70327   1
   2   4   6 136.571 4.99994   1
   3   4   6 273.551 9.72625   1
  -4   3   1 60.2997 3.77679  -2
   4   4   6 60.2997 3.77679   1
   5   4   6 9.49042 0.47766   1
  -6   2   0 0.49399 0.50915  -2
   6   4   6 0.49399 0.50915   1
   7   4   6 23.0280 1.25363   1
   8  -1   1 24.3399 2.01579  -2
   8   4   6 24.3399 2.01579   1
  -6   5   6 50.8938 2.40192   1
  -5   5   6 85.7326 3.12702   1
   4   8   7 129.844 5.49676  -2
  -4   5   6 129.844 5.49676   1
  -3   5   6 14.7146 0.66645   1
   2   7   6 98.5450 3.69856  -2
  -2   5   6 98.5450 3.69856   1
  -1   5   6 342.836 14.4898   1
   0   5   6 361.811 12.8376   1
   1   5   6 271.661 9.70480   1
   2   5   6 86.0286 3.31542   1
  -3   4   3 9.54701 0.41382  -2
   3   5   6 9.54701 0.41382   1
   4   5   6 125.580 2.73450   1
  -5   3   2 59.2281 3.26108  -2
   5   5   6 59.2281 3.26108   1
   6   5   6 21.6703 1.58845   1
   7   5   6 47.1941 2.08975   1
  -8   1   0 67.2467 5.10143  -2
   8   5   6 67.2467 5.10143   1
  -6   6   6 11.1168 1.18407   1
   5   9   9 34.5837 1.35652  -2
  -5   6   6 34.5837 1.35652   1
  -4   6   6 344.075 12.1871   1
  -3   6   6 1.95883 0.39775   1
  -2   6   6 333.686 10.0102   1
  -1   6   6 38.0029 2.84089   1
   1   6   6 89.8184 3.50767   1
   2   6   6 45.5952 1.70693   1
   3   6   6 65.3881 1.49354   1
   4   6   6 11.8910 0.50077   1
  -5   3   3 130.154 4.70310  -2
   5   6   6 130.154 4.70310   1
   6   6   6 50.5538 1.94005   1
  -7   2   2 3.30127 0.84610  -2
   7   6   6 3.30127 0.84610   1
  -8   1   1 -1.7875 1.46413  -2
   8   6   6 -1.7875 1.46413   1
  -5   7   6 13.5485 0.89800   1
  -4   7   6 106.990 3.88449   1
   3   8   9 56.7980 2.16120  -2
  -3   7   6 56.7980 2.16120   1
  -2   7   6 11.5573 0.81357   1
  -1   7   6 58.1724 4.02508   1
   1   7   6 4.57840 0.71098   1
  -2   5   6 102.339 2.69393  -2
   2   7   6 102.339 2.69393   1
   3   7   6 35.5623 0.97115   1
  -4   4   5 5.31059 0.66651  -2
   4   7   6 5.31059 0.66651   1
  -5   3   4 20.9927 2.26945  -2
   5   7   6 20.9927 2.26945   1
  -6   3   4 53.9356 4.19043  -2
   6   7   6 53.9356 4.19043   1
  -7   2   3 97.2679 6.96535  -2
   7   7   6 97.2679 6.96535   1
   8   7   6 5.67548 0.51926   1
  -4   8   6 29.8160 1.22440   1
  -3   8   6 6.52436 0.49888   1
  -2   8   6 5.36099 0.51218   1
   1   7   9 12.2454 1.44366  -2
  -1   8   6 12.2454 1.44366   1
   0   8   6 1.29917 1.08148   1
  -1   6   8 74.7906 4.99946  -2
   1   8   6 74.7906 4.99946   1
   2   8   6 20.2926 0.78433   1
   3   8   6 711.670 16.5010   1
  -4   4   6 62.3560 2.48442  -2
   4   8   6 62.3560 2.48442   1
   5   8   6 120.614 4.18110   1
  -6   3   5 101.844 5.18858  -2
   6   8   6 101.844 5.18858   1
   7   8   6 6.20663 0.59665   1
  -8   2   4 1.11109 0.96903  -2
   8   8   6 1.11109 0.96903   1
   4   9  12 5.29112 0.78807  -2
  -4   9   6 5.29112 0.78807   1
  -3   9   6 0.12134 0.43344   1
   2   8  11 39.8595 2.82866  -2
  -2   9   6 39.8595 2.82866   1
  -1   9   6 36.3910 2.74689   1
   0   9   6 6.24330 1.24589   1
  -1   6   9 17.6655 2.04848  -2
   1   9   6 17.6655 2.04848   1
   2   9   6 28.6429 1.21200   1
  -3   5   8 230.688 7.16738  -2
   3   9   6 230.688 7.16738   1
   4   9   6 10.7445 0.61537   1
   5   9   6 7.95382 0.55783   1
  -6   3   6 23.9183 1.53486  -2
   6   9   6 23.9183 1.53486   1
   7   9   6 22.9760 1.44474   1
  -8   2   5 46.9236 2.43327  -2
   8   9   6 46.9236 2.43327   1
  -3  10   6 60.1188 4.10963   1
  -2  10   6 2.35666 0.47173   1
  -1  10   6 7.93834 0.78013   1
   0   7  11 32.1323 2.63135  -2
   0  10   6 32.1323 2.63135   1
   1  10   6 22.1376 2.00976   1
   2  10   6 157.380 5.76005   1
  -3   5   9 84.5799 6.06056  -2
   3  10   6 84.5799 6.06056   1
   4  10   6 1.23648 0.39564   1
  -5   4   8 33.0746 1.41499  -2
   5  10   6 33.0746 1.41499   1
   6  10   6 10.1547 0.62589   1
  -7   3   7 27.7683 2.21517  -2
   7  10   6 27.7683 2.21517   1
  -2  11   6 35.6582 2.53973   1
  -1  11   6 24.4863 1.98928   1
   0  11   6 72.8594 3.41391   1
   1  11   6 14.7865 1.03592   1
  -2   6  11 43.1287 2.00432  -2
   2  11   6 43.1287 2.00432   1
   3  11   6 0.69060 0.39349   1
   4  11   6 0.50465 0.33803   1
   5  11   6 34.9200 1.47565   1
   6  11   6 2.55092 0.76796   1
   0  12   6 4.03953 0.72384   1
   1  12   6 9.43305 0.71814   1
   2  12   6 20.5734 1.16934   1
   3  12   6 45.3788 2.19609   1
   5  12   6 1.62741 0.30793   1
  -4  -6   9 5.52923 0.99183  -2
  -4  -8   7 5.52923 0.99183   1
  -3  -5  10 191.605 12.7769  -2
  -3  -8   7 191.605 12.7769   1
  -2  -8   7 0.17818 0.72247   1
  -1  -4  11 21.0195 1.10357  -2
  -1  -8   7 21.0195 1.10357   1
   1  -3  12 2.94656 0.69029  -2
   1  -8   7 2.94656 0.69029   1
  -5  -7   7 9.39390 1.06644   1
  -4  -6   8 24.9158 1.28585  -2
  -4  -7   7 24.9158 1.28585   1
  -3  -7   7 97.3374 6.64584   1
  -2  -5   9 7.66543 0.83744  -2
  -2  -7   7 7.66543 0.83744   1
   1  -3  11 31.9895 2.23116  -2
   1  -7   7 31.9895 2.23116   1
   2  -7   7 3.10655 0.47963   1
  -6  -6   7 -0.1709 0.53469   1
  -5  -7   6 25.7673 1.37716  -2
  -5  -6   7 25.7673 1.37716   1
  -2  -5   8 10.0470 0.87149  -2
  -2  -6   7 10.0470 0.87149   1
   0  -4   9 32.4427 2.40640  -2
   0  -6   7 32.4427 2.40640   1
   3  -2  11 1.70497 0.60485  -2
   3  -6   7 1.70497 0.60485   1
  -6  -5   7 11.5623 1.26814   1
  -5  -7   5 19.2157 1.53028  -2
  -5  -5   7 19.2157 1.53028   1
  -4  -5   7 15.0201 1.67707   1
  -3  -6   6 11.0477 0.75826  -2
  -3  -5   7 11.0477 0.75826   1
   2  -3   9 2.88377 0.57735  -2
   2  -5   7 2.88377 0.57735   1
   3  -5   7 6.84884 1.09947   1
  -7  -4   7 7.65210 0.95623   1
  -6  -8   3 16.7267 1.39052  -2
  -6  -4   7 16.7267 1.39052   1
  -5  -4   7 3.93151 0.63602   1
  -4  -4   7 16.5054 1.82196   1
  -3  -6   5 12.4124 1.20635  -2
  -3  -4   7 12.4124 1.20635   1
  -2  -4   7 1.04675 0.56374   1
  -1  -5   6 46.5404 3.37978  -2
  -1  -4   7 46.5404 3.37978   1
   4  -2   9 20.1167 0.92300  -2
   4  -4   7 20.1167 0.92300   1
   5  -4   7 28.1616 2.40546   1
  -7  -9   1 15.9235 1.57599  -2
  -7  -3   7 15.9235 1.57599   1
  -6  -8   2 12.8941 1.01215  -2
  -6  -3   7 12.8941 1.01215   1
  -5  -3   7 8.63058 0.53292   1
  -4  -7   3 33.8794 1.10017  -2
  -4  -3   7 33.8794 1.10017   1
  -3  -3   7 0.26778 0.38770   1
   1  -4   6 49.8143 3.43780  -2
   1  -3   7 49.8143 3.43780   1
   2  -3   7 55.9717 2.28235   1
   3  -3   7 38.8333 1.58105  -2
   3  -3   7 38.8333 1.58105   1
   5  -2   8 19.7220 1.88355  -2
   5  -3   7 19.7220 1.88355   1
   6  -1   9 31.2643 2.45331  -2
   6  -3   7 31.2643 2.45331   1
   7   9   0 4.90239 0.69467  -2
  -7  -2   7 4.90239 0.69467   1
  -6  -2   7 26.7843 1.07344   1
  -5  -8   1 2.00731 0.79450  -2
  -5  -2   7 2.00731 0.79450   1
  -4  -2   7 19.5254 1.33826   1
  -3  -2   7 40.2849 1.18724   1
  -2  -6   3 2.74933 0.56527  -2
  -2  -2   7 2.74933 0.56527   1
  -1  -2   7 201.196 12.7172   1
   2  -2   7 117.821 7.84269   1
   3  -3   6 10.9161 0.66715  -2
   3  -2   7 10.9161 0.66715   1
   4  -2   7 0.33533 0.44337   1
   5  -2   7 7.70597 0.66379  -2
   5  -2   7 7.70597 0.66379   1
   6  -1   8 39.3947 3.13711  -2
   6  -2   7 39.3947 3.13711   1
  -7  -1   7 17.6071 1.14699   1
  -6  -1   7 6.18143 0.55463   1
   5   8   0 47.9470 1.86938  -2
  -5  -1   7 47.9470 1.86938   1
  -4  -1   7 2.34391 0.39367   1
  -3  -7   1 11.4797 0.95550  -2
  -3  -1   7 11.4797 0.95550   1
  -2  -1   7 0.35635 0.41809   1
  -1  -1   7 10.5087 1.17386   1
   1  -1   7 21.4892 1.22660   1
   2  -4   4 86.2825 2.68495  -2
   2  -1   7 86.2825 2.68495   1
   3  -1   7 40.9455 1.40400   1
   6  -1   7 31.6334 2.39824   1
  -7   0   7 0.52570 0.50823   1
   6   9   2 31.7852 2.24590  -2
  -6   0   7 31.7852 2.24590   1
  -5   0   7 64.5732 2.16533   1
  -4   0   7 97.6977 2.44570   1
   3   7   0 228.314 8.30267  -2
  -3   0   7 228.314 8.30267   1
  -2   0   7 152.677 5.47434   1
  -1  -6   1 91.6251 4.19982  -2
  -1   0   7 91.6251 4.19982   1
   1   0   7 59.6012 2.37073   1
   3   0   7 40.6298 1.07221   1
   4  -3   4 176.316 4.53208  -2
   4   0   7 176.316 4.53208   1
   5   0   7 17.6475 0.83320   1
   7  -1   6 20.0090 1.99102  -2
   7   0   7 20.0090 1.99102   1
  -7   1   7 4.16816 0.49638   1
  -5   1   7 19.8135 0.79991   1
   4   8   2 17.1521 0.71252  -2
  -4   1   7 17.1521 0.71252   1
  -3   1   7 21.4413 0.83074   1
  -2   1   7 5.13885 0.87060   1
  -1   1   7 0.86712 1.23705   1
   0   1   7 19.5807 1.45208   1
   1  -5   1 40.0821 1.69437  -2
   1   1   7 40.0821 1.69437   1
   2   1   7 290.061 7.96832   1
   3  -4   2 -0.2110 0.58635  -2
   3   1   7 -0.2110 0.58635   1
   4  -3   3 11.8469 2.03201  -2
   4   1   7 11.8469 2.03201   1
   5   1   7 2.81543 0.47695   1
   6  -2   4 41.4419 1.72933  -2
   6   1   7 41.4419 1.72933   1
   7   1   7 8.37284 0.72921   1
   8  -1   5 3.66854 0.62617  -2
   8   1   7 3.66854 0.62617   1
   7  10   5 46.3800 2.39151  -2
  -7   2   7 46.3800 2.39151   1
  -6   2   7 50.8353 2.06512   1
  -5   2   7 1.84656 0.42985   1
   4   8   3 7.75454 0.97383  -2
  -4   2   7 7.75454 0.97383   1
  -3   2   7 100.580 2.46994   1
   2   7   2 343.193 10.5728  -2
  -2   2   7 343.193 10.5728   1
  -1   2   7 153.105 6.69791   1
   0   2   7 4.42159 0.90026   1
   1   2   7 4.89876 0.94778   1
   2   2   7 168.690 5.27680   1
   4   2   7 37.7959 0.94376   1
   5  -3   2 24.4563 1.38355  -2
   5   2   7 24.4563 1.38355   1
   6  -2   3 6.07047 0.68017  -2
   6   2   7 6.07047 0.68017   1
   8  -1   4 24.3410 2.07470  -2
   8   2   7 24.3410 2.07470   1
  -7   3   7 2.22250 0.36040   1
  -6   3   7 0.18155 0.38574   1
   5   9   5 68.0539 2.37985  -2
  -5   3   7 68.0539 2.37985   1
  -4   3   7 57.5304 1.70028   1
  -3   3   7 15.4109 1.07580   1
  -2   3   7 116.327 3.29402   1
  -1   3   7 -0.5733 0.71136   1
   0   6   2 51.0251 4.00543  -2
   0   3   7 51.0251 4.00543   1
   1   3   7 83.6512 3.24657   1
  -2   5   1 196.332 11.6095  -2
   2   3   7 196.332 11.6095   1
   3   3   7 13.3477 0.44072   1
   4   3   7 12.0681 0.46480   1
   5  -3   1 31.4518 1.52696  -2
   5   3   7 31.4518 1.52696   1
   6   3   7 11.2474 0.59591   1
   7  -2   2 71.5497 3.03145  -2
   7   3   7 71.5497 3.03145   1
   6  10   7 118.536 8.18008  -2
  -6   4   7 118.536 8.18008   1
  -5   4   7 65.3458 2.61831   1
  -4   4   7 9.19362 0.55672   1
   3   8   5 1021.56 28.3304  -2
  -3   4   7 1021.56 28.3304   1
  -2   4   7 129.057 3.66997   1
  -1   4   7 7.13112 1.57638   1
   0   4   7 3.74572 0.68022   1
   1   4   7 271.185 9.69669   1
  -2   5   2 12.9268 1.33000  -2
   2   4   7 12.9268 1.33000   1
   3   4   7 0.53739 0.24438   1
  -4   4   1 120.570 3.06178  -2
   4   4   7 120.570 3.06178   1
   5   4   7 86.4056 2.75662   1
   6   4   7 36.6912 2.76818   1
   8   4   7 -0.2884 0.36761   1
   6  10   8 21.0565 1.09343  -2
  -6   5   7 21.0565 1.09343   1
  -5   5   7 34.5014 1.81760   1
   4   9   7 23.2344 1.08019  -2
  -4   5   7 23.2344 1.08019   1
  -3   5   7 563.698 13.9312   1
  -2   5   7 84.1133 2.51347   1
   1   7   5 66.5179 4.35304  -2
  -1   5   7 66.5179 4.35304   1
   0   5   7 1.57929 1.16513   1
  -1   6   4 74.3295 3.01477  -2
   1   5   7 74.3295 3.01477   1
   2   5   7 157.307 4.37199   1
   3   5   7 180.279 4.28292   1
  -4   4   2 72.9932 3.40988  -2
   4   5   7 72.9932 3.40988   1
   5   5   7 10.0576 0.57534   1
  -6   3   1 35.4906 2.05882  -2
   6   5   7 35.4906 2.05882   1
   7   5   7 8.34906 0.67051   1
  -6   6   7 1.40810 0.27202   1
  -5   6   7 -0.3001 0.49759   1
  -4   6   7 166.646 6.99693   1
  -3   6   7 13.4913 0.80472   1
   2   8   7 6.62960 0.87782  -2
  -2   6   7 6.62960 0.87782   1
  -1   6   7 14.2207 1.41044   1
   1   6   7 0.00260 0.53448   1
   2   6   7 54.3345 1.52353   1
  -3   5   4 57.3048 1.49062  -2
   3   6   7 57.3048 1.49062   1
   4   6   7 247.857 5.62548   1
  -5   4   3 35.0316 3.14213  -2
   5   6   7 35.0316 3.14213   1
  -6   3   2 14.6350 1.48140  -2
   6   6   7 14.6350 1.48140   1
   7   6   7 13.6247 0.92041   1
  -8   2   1 52.9288 2.85757  -2
   8   6   7 52.9288 2.85757   1
   5  10  10 29.1497 2.19705  -2
  -5   7   7 29.1497 2.19705   1
  -4   7   7 47.4081 1.82754   1
  -3   7   7 37.2219 1.54166   1
  -2   7   7 95.2077 4.23024   1
  -1   7   7 81.4665 5.41896   1
   0   7   7 57.0596 3.90330  -2
   0   7   7 57.0596 3.90330   1
   1   7   7 3.71337 0.76386   1
   2   7   7 76.3191 2.09476   1
   3   7   7 76.5066 1.95240   1
   4   7   7 1029.81 25.9130   1
  -5   4   4 79.3766 3.20741  -2
   5   7   7 79.3766 3.20741   1
   6   7   7 55.9086 2.02217   1
  -7   3   3 53.2720 4.04603  -2
   7   7   7 53.2720 4.04603   1
   8   7   7 13.0296 1.01424   1
  -5   8   7 0.06414 0.32678   1
  -4   8   7 2.45898 0.51408   1
   3   9  10 4.88704 0.59783  -2
  -3   8   7 4.88704 0.59783   1
  -2   8   7 0.32295 0.46444   1
  -1   8   7 17.4784 1.68942   1
   0   8   7 4.03302 1.12971   1
   1   8   7 2.15596 0.99989   1
  -2   6   7 6.09408 0.67492  -2
   2   8   7 6.09408 0.67492   1
   3   8   7 6.09263 0.54893   1
  -4   5   6 125.817 4.58454  -2
   4   8   7 125.817 4.58454   1
   5   8   7 6.19625 0.53187   1
   6   8   7 18.8183 1.10379   1
  -7   3   4 21.4989 1.42949  -2
   7   8   7 21.4989 1.42949   1
   8   8   7 1.57072 0.46755   1
  -4   9   7 24.8667 1.13665   1
  -3   9   7 16.3784 0.99453   1
  -2   9   7 0.14260 0.40290   1
   0   9   7 108.846 7.10995   1
  -1   7   9 30.9573 2.43379  -2
   1   9   7 30.9573 2.43379   1
   2   9   7 77.1481 2.94719   1
   3   9   7 217.704 6.89355   1
  -4   5   7 23.5745 1.16050  -2
   4   9   7 23.5745 1.16050   1
   5   9   7 3.36075 0.53176   1
  -6   4   6 35.7516 1.53985  -2
   6   9   7 35.7516 1.53985   1
   7   9   7 18.2937 1.21786   1
   2   9  12 17.6502 1.36176  -2
  -2  10   7 17.6502 1.36176   1
  -1  10   7 215.168 9.59944   1
   0  10   7 50.2075 2.50888   1
  -1   7  10 112.349 8.95326  -2
   1  10   7 112.349 8.95326   1
   2  10   7 42.4213 1.76340   1
  -3   6   9 78.3747 2.90829  -2
   3  10   7 78.3747 2.90829   1
   4  10   7 5.39554 0.50546   1
   5  10   7 0.43606 0.55827   1
   6  10   7 53.8406 2.56431   1
   7  10   7 2.04237 0.62559   1
  -2  11   7 6.51729 0.65332   1
  -1  11   7 2.84483 0.54858   1
   0   8  12 18.7987 1.18013  -2
   0  11   7 18.7987 1.18013   1
   1  11   7 0.08347 0.89806   1
   2  11   7 1.48855 0.41971   1
   3  11   7 16.2760 0.77317   1
   4  11   7 17.5621 0.95981   1
  -5   5   9 4.34164 0.60716  -2
   5  11   7 4.34164 0.60716   1
   6  11   7 31.2182 2.41408   1
   0  12   7 30.2715 1.48689   1
   1  12   7 17.8606 1.48527   1
  -2   7  12 11.1845 1.00691  -2
   2  12   7 11.1845 1.00691   1
   3  12   7 0.97694 0.47387   1
   4  12   7 4.31087 0.41137   1
   5  12   7 7.05607 0.57283   1
  -4  -7   8 5.52217 0.73517  -2
  -4  -7   8 5.52217 0.73517   1
  -2  -7   8 20.5576 1.77881   1
  -1  -5  10 10.2012 0.75557  -2
  -1  -7   8 10.2012 0.75557   1
   1  -4  11 -0.0283 0.43117  -2
   1  -7   8 -0.0283 0.43117   1
  -5  -6   8 1.02593 0.52417   1
  -3  -6   8 1.83223 0.68928   1
  -2  -6   8 0.61120 0.55134  -2
  -2  -6   8 0.61120 0.55134   1
   1  -4  10 65.7745 4.26210  -2
   1  -6   8 65.7745 4.26210   1
   2  -6   8 27.1936 2.25138   1
   3  -3  11 8.49861 0.62148  -2
   3  -6   8 8.49861 0.62148   1
  -6  -5   8 3.91004 0.39523   1
  -5  -8   5 4.13565 0.48085  -2
  -5  -5   8 4.13565 0.48085   1
  -4  -5   8 0.81691 0.74439   1
  -3  -5   8 0.51827 0.75201   1
  -2  -6   7 9.56235 0.81668  -2
  -2  -5   8 9.56235 0.81668   1
   0  -5   8 21.0095 1.28732  -2
   0  -5   8 21.0095 1.28732   1
   3  -3  10 25.0614 1.32940  -2
   3  -5   8 25.0614 1.32940   1
   4  -5   8 4.86069 0.71114   1
  -6  -4   8 -0.0214 0.68060   1
  -5  -8   4 10.7392 0.57971  -2
  -5  -4   8 10.7392 0.57971   1
  -4  -4   8 6.67493 0.61345   1
  -3  -7   5 23.8918 1.09767  -2
  -3  -4   8 23.8918 1.09767   1
  -2  -4   8 0.00206 0.91130   1
   1  -4   8 3.34469 0.90574   1
   2  -4   8 0.25925 0.50638  -2
   2  -4   8 0.25925 0.50638   1
   4  -3   9 26.6785 1.87584  -2
   4  -4   8 26.6785 1.87584   1
   5  -2  10 2.95643 1.02676  -2
   5  -4   8 2.95643 1.02676   1
  -6  -9   2 34.9906 1.44182  -2
  -6  -3   8 34.9906 1.44182   1
  -5  -3   8 7.37555 0.72440   1
  -4  -8   3 26.0354 2.51735  -2
  -4  -3   8 26.0354 2.51735   1
  -3  -7   4 4.67776 0.88464  -2
  -3  -3   8 4.67776 0.88464   1
  -2  -3   8 10.4555 0.72203   1
  -1  -6   5 54.2762 3.72525  -2
  -1  -3   8 54.2762 3.72525   1
   0  -3   8 134.342 8.60073   1
   4  -3   8 34.7519 1.42069  -2
   4  -3   8 34.7519 1.42069   1
   5  -3   8 12.9987 1.44993   1
   7  10   0 16.1174 1.62767  -2
  -7  -2   8 16.1174 1.62767   1
  -6  -9   1 46.3491 3.63518  -2
  -6  -2   8 46.3491 3.63518   1
  -5  -2   8 39.7203 1.41519   1
  -4  -8   2 62.8757 2.09644  -2
  -4  -2   8 62.8757 2.09644   1
  -3  -2   8 16.1959 0.77910   1
   1  -5   5 81.1121 5.26588  -2
   1  -2   8 81.1121 5.26588   1
   2  -2   8 11.8317 0.92599   1
   3  -4   6 163.519 7.41932  -2
   3  -2   8 163.519 7.41932   1
   6  -2   8 0.13684 0.91850  -2
   6  -2   8 0.13684 0.91850   1
  -6  -1   8 3.83625 0.43566   1
   5   9   0 238.695 13.7187  -2
  -5  -1   8 238.695 13.7187   1
  -4  -8   1 51.0758 4.07958  -2
  -4  -1   8 51.0758 4.07958   1
  -3  -1   8 69.4842 1.94804   1
  -2  -7   2 18.5683 0.91608  -2
  -2  -1   8 18.5683 0.91608   1
  -1  -1   8 3.57363 0.99291   1
   1  -1   8 44.3175 3.07674   1
   2  -1   8 58.9348 2.14998   1
   3  -4   5 648.915 41.1570  -2
   3  -1   8 648.915 41.1570   1
   4  -1   8 0.16578 0.43655   1
  -7   0   8 -0.2369 0.63250   1
  -6   0   8 68.5252 2.68392   1
   5   9   1 67.7100 2.85606  -2
  -5   0   8 67.7100 2.85606   1
  -4   0   8 166.787 5.40632   1
   3   8   0 84.5563 4.68182  -2
  -3   0   8 84.5563 4.68182   1
  -2   0   8 49.4895 1.65004   1
  -1   0   8 7.73680 0.94371   1
   1   0   8 102.828 3.86108   1
   2  -5   3 266.318 7.98559  -2
   2   0   8 266.318 7.98559   1
   3   0   8 96.2228 2.42275   1
   4  -4   4 1.77429 1.81047  -2
   4   0   8 1.77429 1.81047   1
   6   0   8 18.1673 1.21600   1
   7  -2   6 35.3361 1.80708  -2
   7   0   8 35.3361 1.80708   1
  -7   1   8 22.1539 1.91183   1
   6  10   3 34.3157 1.77359  -2
  -6   1   8 34.3157 1.77359   1
  -5   1   8 0.70584 0.41419   1
  -4   1   8 1.67891 0.49699   1
   3   8   1 0.91006 0.85407  -2
  -3   1   8 0.91006 0.85407   1
  -2   1   8 24.0045 1.00758   1
   1   7   0 6.01609 1.11220  -2
  -1   1   8 6.01609 1.11220   1
   1   1   8 1.97754 0.55684   1
   2   1   8 253.961 17.3019   1
   3   1   8 14.6978 0.55145   1
   4  -4   3 71.0774 2.07367  -2
   4   1   8 71.0774 2.07367   1
   5   1   8 0.83808 0.41364   1
   6  -3   4 5.51084 0.74399  -2
   6   1   8 5.51084 0.74399   1
  -7   2   8 4.03577 0.65601   1
   6  10   4 10.7556 0.66361  -2
  -6   2   8 10.7556 0.66361   1
  -5   2   8 28.4219 1.09713   1
   4   9   3 48.2279 2.12477  -2
  -4   2   8 48.2279 2.12477   1
  -3   2   8 117.045 2.89264   1
  -2   2   8 44.2590 1.80329   1
  -1   6   0 208.624 7.38726  -2
   1   2   8 208.624 7.38726   1
   2   2   8 17.7182 0.69512   1
   3   2   8 94.8711 3.16748   1
   4  -4   2 5.47530 1.92926  -2
   4   2   8 5.47530 1.92926   1
   5   2   8 7.73592 0.53886   1
   6  -3   3 38.3474 1.41988  -2
   6   2   8 38.3474 1.41988   1
   7   2   8 18.9271 1.18718   1
  -6   3   8 41.9795 1.71678   1
   5  10   5 13.1116 1.62670  -2
  -5   3   8 13.1116 1.62670   1
  -4   3   8 10.8972 1.30730   1
  -3   3   8 6.69176 0.46135   1
   2   8   3 42.2881 1.50267  -2
  -2   3   8 42.2881 1.50267   1
  -1   3   8 144.921 6.68558   1
   0   3   8 27.8658 2.60903   1
   1   3   8 28.9185 1.22559   1
   2   3   8 11.3473 0.55675   1
  -3   5   0 12.2540 0.58173  -2
   3   3   8 12.2540 0.58173   1
   4   3   8 54.0747 1.28291   1
   5  -4   1 78.5176 3.32770  -2
   5   3   8 78.5176 3.32770   1
   6  -3   2 25.3214 1.69316  -2
   6   3   8 25.3214 1.69316   1
   7   3   8 6.46370 0.70473   1
   8  -2   3 23.6018 1.87287  -2
   8   3   8 23.6018 1.87287   1
  -6   4   8 2.25643 0.33096   1
   5  10   6 30.8272 1.25892  -2
  -5   4   8 30.8272 1.25892   1
  -4   4   8 129.854 4.19838   1
   3   9   5 463.063 28.8791  -2
  -3   4   8 463.063 28.8791   1
  -2   4   8 256.211 7.13802   1
  -1   4   8 97.3934 4.67494   1
   0   7   3 58.8377 3.13689  -2
   0   4   8 58.8377 3.13689   1
   1   4   8 65.8474 2.28937   1
   2   4   8 244.810 8.82900   1
   3   4   8 220.210 4.91920   1
   4   4   8 213.313 5.21428   1
  -5   4   0 62.0515 4.08389  -2
   5   4   8 62.0515 4.08389   1
   6   4   8 0.01982 0.32301   1
   7  -3   1 8.39395 0.59025  -2
   7   4   8 8.39395 0.59025   1
   8   4   8 62.2254 4.59881   1
  -6   5   8 0.74257 0.28185   1
  -5   5   8 60.8125 2.88089   1
  -4   5   8 58.6518 2.27636   1
   3   9   6 215.529 7.49342  -2
  -3   5   8 215.529 7.49342   1
  -2   5   8 111.041 4.86334   1
   0   5   8 46.9312 3.81491   1
   1   5   8 224.577 6.48224   1
  -2   6   3 264.924 10.0138  -2
   2   5   8 264.924 10.0138   1
   3   5   8 342.084 8.03833   1
  -4   5   2 73.2313 2.13987  -2
   4   5   8 73.2313 2.13987   1
   5   5   8 127.182 3.62992   1
  -6   4   1 18.8233 2.39539  -2
   6   5   8 18.8233 2.39539   1
  -7   3   0 55.1034 4.30107  -2
   7   5   8 55.1034 4.30107   1
   8   5   8 41.8986 2.27573   1
  -5   6   8 0.34900 0.43084   1
   4  10   8 18.2610 1.19409  -2
  -4   6   8 18.2610 1.19409   1
  -3   6   8 50.9224 2.38785   1
  -2   6   8 29.2989 1.67439   1
   1   8   6 68.3347 4.49574  -2
  -1   6   8 68.3347 4.49574   1
   0   6   8 0.47353 0.75452   1
  -1   7   5 0.49783 0.69498  -2
   1   6   8 0.49783 0.69498   1
   2   6   8 1.17229 0.35438   1
   3   6   8 12.1428 0.57661   1
  -4   5   3 233.558 11.7465  -2
   4   6   8 233.558 11.7465   1
   5   6   8 27.3316 1.15320   1
  -6   4   2 28.9274 1.43189  -2
   6   6   8 28.9274 1.43189   1
   7   6   8 3.54718 0.63577   1
  -8   3   1 7.56916 1.20502  -2
   8   6   8 7.56916 1.20502   1
  -5   7   8 1.79416 0.36210   1
  -4   7   8 26.2825 1.34423   1
  -3   7   8 22.5625 1.39011   1
   2   9   8 54.9779 3.81366  -2
  -2   7   8 54.9779 3.81366   1
  -1   7   8 58.6258 3.99582   1
   0   7   8 3.81113 1.06483   1
   1   7   8 48.9582 3.44493   1
   2   7   8 2.59169 0.42529   1
  -3   6   5 97.2303 2.62818  -2
   3   7   8 97.2303 2.62818   1
   4   7   8 156.785 4.64549   1
  -5   5   4 36.4749 3.11866  -2
   5   7   8 36.4749 3.11866   1
  -6   4   3 7.93509 1.62698  -2
   6   7   8 7.93509 1.62698   1
   7   7   8 3.30664 0.52187   1
  -8   3   2 28.4799 2.51131  -2
   8   7   8 28.4799 2.51131   1
  -4   8   8 0.08711 0.28198   1
  -3   8   8 2.14251 0.33306   1
  -2   8   8 20.9509 1.33829   1
  -1   8   8 9.23346 1.20475   1
   0   8   8 117.851 7.66703  -2
   0   8   8 117.851 7.66703   1
   1   8   8 2.16158 0.96627   1
   2   8   8 48.5761 2.34421   1
   3   8   8 1.96408 0.54932   1
   4   8   8 27.6129 1.11913   1
  -5   5   5 13.0175 0.81477  -2
   5   8   8 13.0175 0.81477   1
   6   8   8 0.16104 0.32702   1
  -7   4   4 29.9049 1.72761  -2
   7   8   8 29.9049 1.72761   1
   8   8   8 1.31729 0.60467   1
   3  10  11 15.1500 0.89140  -2
  -3   9   8 15.1500 0.89140   1
  -2   9   8 58.1857 2.24731   1
  -1   9   8 87.8150 5.74290   1
   0   9   8 101.871 6.67363   1
   1   9   8 7.04239 1.12665   1
  -2   7   8 63.7599 4.10346  -2
   2   9   8 63.7599 4.10346   1
   3   9   8 59.9184 2.32878   1
  -4   6   7 238.723 13.5602  -2
   4   9   8 238.723 13.5602   1
   5   9   8 14.6859 0.94683   1
   6   9   8 12.9828 1.14694   1
  -7   4   5 41.4930 3.23604  -2
   7   9   8 41.4930 3.23604   1
  -3  10   8 33.6460 2.06810   1
  -2  10   8 25.6031 1.27384   1
   1   9  11 4.08365 0.78081  -2
  -1  10   8 4.08365 0.78081   1
   0  10   8 4.03538 0.53013   1
  -1   8  10 17.9084 1.46529  -2
   1  10   8 17.9084 1.46529   1
   2  10   8 20.3221 1.06486   1
   3  10   8 43.9767 1.81273   1
  -4   6   8 15.0082 1.14335  -2
   4  10   8 15.0082 1.14335   1
   5  10   8 11.9442 1.00297   1
  -6   5   7 17.5733 1.09833  -2
   6  10   8 17.5733 1.09833   1
   7  10   8 7.45436 0.87406   1
  -1  11   8 2.56986 0.47840   1
   0  11   8 73.5120 3.39315   1
   1  11   8 90.4182 5.45116   1
   2  11   8 20.0482 0.99220   1
  -3   7  10 7.63268 0.63108  -2
   3  11   8 7.63268 0.63108   1
   4  11   8 17.0614 0.79653   1
   5  11   8 59.9015 2.80847   1
   6  11   8 64.0835 4.56632   1
   0   9  13 17.9962 1.33999  -2
   0  12   8 17.9962 1.33999   1
   1  12   8 1.24225 0.26500   1
   2  12   8 4.09840 0.48709   1
   3  12   8 4.05088 0.47691   1
   4  12   8 68.1880 4.81355   1
  -5   6  10 70.7879 4.26866  -2
   5  12   8 70.7879 4.26866   1
  -2  -6   9 35.3382 2.59865   1
  -1  -6   9 13.6491 0.89452  -2
  -1  -6   9 13.6491 0.89452   1
   0  -6   9 35.2850 1.88511   1
  -5  -5   9 0.26819 0.41384   1
  -4  -8   6 10.8841 0.80461  -2
  -4  -5   9 10.8841 0.80461   1
  -3  -5   9 32.6011 2.51621   1
  -2  -7   7 7.60566 0.70183  -2
  -2  -5   9 7.60566 0.70183   1
  -1  -5   9 9.23185 1.13923   1
   1  -5   9 11.9380 1.36605  -2
   1  -5   9 11.9380 1.36605   1
   2  -5   9 -0.1223 0.82044   1
   3  -4  10 3.15528 0.86186  -2
   3  -5   9 3.15528 0.86186   1
  -5  -9   4 11.7143 0.76759  -2
  -5  -4   9 11.7143 0.76759   1
  -4  -4   9 -0.0955 0.45098   1
  -3  -8   5 3.55003 0.56715  -2
  -3  -4   9 3.55003 0.56715   1
  -2  -7   6 40.9820 1.92054  -2
  -2  -4   9 40.9820 1.92054   1
  -1  -4   9 0.17308 0.57993   1
   0  -6   7 41.0479 2.13218  -2
   0  -4   9 41.0479 2.13218   1
   3  -4   9 5.25367 0.85246  -2
   3  -4   9 5.25367 0.85246   1
   4  -4   9 0.65191 0.57783   1
  -6  -3   9 19.9687 0.86191   1
  -5  -9   3 17.6600 1.02101  -2
  -5  -3   9 17.6600 1.02101   1
  -4  -3   9 55.6745 2.26158   1
  -3  -8   4 4.20680 0.59442  -2
  -3  -3   9 4.20680 0.59442   1
  -2  -3   9 11.0223 0.86240   1
   1  -3   9 0.91681 1.05556   1
   2  -5   7 3.44800 0.55833  -2
   2  -3   9 3.44800 0.55833   1
   3  -3   9 22.9094 2.16247   1
   5  -3   9 7.25703 0.97108  -2
   5  -3   9 7.25703 0.97108   1
  -6 -10   1 27.0911 1.37857  -2
  -6  -2   9 27.0911 1.37857   1
  -5  -2   9 5.35975 0.51928   1
  -4  -2   9 34.5298 1.78052   1
  -3  -8   3 2.38460 0.79671  -2
  -3  -2   9 2.38460 0.79671   1
  -2  -2   9 -0.3474 0.63630   1
  -1  -7   4 67.3202 4.48975  -2
  -1  -2   9 67.3202 4.48975   1
   0  -2   9 -0.0733 0.70578   1
   3  -2   9 0.48224 0.95660   1
   4  -4   7 16.6370 0.86038  -2
   4  -2   9 16.6370 0.86038   1
   5  -2   9 1.32289 0.93757   1
   6  10   0 26.6434 2.26099  -2
  -6  -1   9 26.6434 2.26099   1
  -5  -1   9 2.29572 0.64208   1
  -4  -9   1 0.75058 0.49609  -2
  -4  -1   9 0.75058 0.49609   1
  -3  -1   9 12.6997 0.75305   1
  -2  -1   9 48.1746 4.18044   1
   0  -1   9 121.801 7.82278   1
   2  -1   9 3.43732 0.48952   1
   3  -5   5 51.0454 2.23887  -2
   3  -1   9 51.0454 2.23887   1
   6  -3   7 39.3468 3.00529  -2
   6  -1   9 39.3468 3.00529   1
  -6   0   9 11.4605 0.83891   1
   5  10   1 17.1322 1.88263  -2
  -5   0   9 17.1322 1.88263   1
  -4   0   9 1.65731 0.93062   1
  -3   0   9 -0.5223 0.45506   1
  -2  -8   1 43.5683 2.50518  -2
  -2   0   9 43.5683 2.50518   1
  -1   0   9 78.9080 5.28688   1
   1   0   9 1.55644 0.78514   1
   2   0   9 25.9176 0.94445   1
   3  -5   4 302.282 13.2820  -2
   3   0   9 302.282 13.2820   1
   4   0   9 10.5720 0.62256   1
   5  -4   5 38.0221 2.48788  -2
   5   0   9 38.0221 2.48788   1
  -6   1   9 35.9649 1.80661   1
   5  10   2 163.365 10.5805  -2
  -5   1   9 163.365 10.5805   1
  -4   1   9 102.165 3.79717   1
   3   9   1 22.2102 1.27125  -2
  -3   1   9 22.2102 1.27125   1
  -2   1   9 13.5636 0.92301   1
  -1   1   9 113.201 7.33852   1
   1   1   9 64.9607 3.19819   1
   2  -6   2 116.203 6.15000  -2
   2   1   9 116.203 6.15000   1
   3   1   9 12.9373 0.76523   1
   4  -5   3 14.2504 1.83126  -2
   4   1   9 14.2504 1.83126   1
   5  -4   4 39.0098 3.39858  -2
   5   1   9 39.0098 3.39858   1
   6   1   9 24.2354 1.03936   1
   7  -3   5 50.4691 3.76579  -2
   7   1   9 50.4691 3.76579   1
   6  11   4 20.8329 1.78226  -2
  -6   2   9 20.8329 1.78226   1
  -5   2   9 72.2969 2.69864   1
  -4   2   9 6.83029 0.51336   1
   3   9   2 9.97211 0.94314  -2
  -3   2   9 9.97211 0.94314   1
  -2   2   9 108.197 4.05108   1
   0   2   9 25.3909 1.94626   1
   1   2   9 89.8372 3.11486   1
   2  -6   1 243.123 14.4419  -2
   2   2   9 243.123 14.4419   1
   3   2   9 3.27067 0.33072   1
   4  -5   2 7.48319 0.52374  -2
   4   2   9 7.48319 0.52374   1
   5   2   9 7.24297 0.51356   1
   6  -4   3 22.7342 1.31342  -2
   6   2   9 22.7342 1.31342   1
   6  11   5 3.06314 0.71765  -2
  -6   3   9 3.06314 0.71765   1
  -5   3   9 36.7377 1.29064   1
   4  10   4 138.533 4.45996  -2
  -4   3   9 138.533 4.45996   1
  -3   3   9 0.13300 0.41799   1
  -2   3   9 952.634 40.1535   1
  -1   3   9 0.67335 0.91923   1
   0   3   9 19.1879 1.28333   1
  -1   7   1 5.13651 0.66186  -2
   1   3   9 5.13651 0.66186   1
   2   3   9 52.9972 1.50134   1
  -3   6   0 50.6789 3.33517  -2
   3   3   9 50.6789 3.33517   1
   4  -5   1 64.9138 5.15590  -2
   4   3   9 64.9138 5.15590   1
   5   3   9 0.46241 0.42028   1
   6  -4   2 95.4851 5.91262  -2
   6   3   9 95.4851 5.91262   1
   7   3   9 3.14469 0.46335   1
  -6   4   9 39.5237 1.84963   1
  -5   4   9 38.3385 1.31310   1
   4  10   5 16.4395 1.49060  -2
  -4   4   9 16.4395 1.49060   1
  -3   4   9 8.96393 0.62049   1
   2   9   4 747.671 23.7363  -2
  -2   4   9 747.671 23.7363   1
  -1   4   9 16.2921 1.39498   1
   0   4   9 47.4225 2.77336   1
   1   4   9 47.0400 1.82283   1
   2   4   9 48.3451 1.41640   1
  -3   6   1 46.8759 1.41946  -2
   3   4   9 46.8759 1.41946   1
   4   4   9 12.8015 0.59488   1
  -5   5   0 22.4469 1.34735  -2
   5   4   9 22.4469 1.34735   1
   6  -4   1 29.8332 2.96604  -2
   6   4   9 29.8332 2.96604   1
   7   4   9 40.7151 1.78818   1
   5  11   7 5.42121 0.62470  -2
  -5   5   9 5.42121 0.62470   1
  -4   5   9 3.01757 0.46720   1
  -3   5   9 50.1679 2.35284   1
  -2   5   9 -0.6301 0.64791   1
  -1   5   9 29.8178 2.54718   1
   0   8   4 3.63772 0.93595  -2
   0   5   9 3.63772 0.93595   1
   1   5   9 2.22998 0.53421   1
  -2   7   3 14.2732 1.44059  -2
   2   5   9 14.2732 1.44059   1
   3   5   9 73.9147 1.91554   1
   4   5   9 1.06018 0.34354   1
  -5   5   1 556.709 25.6443  -2
   5   5   9 556.709 25.6443   1
   6   5   9 0.70551 0.37001   1
  -7   4   0 17.7934 1.81382  -2
   7   5   9 17.7934 1.81382   1
  -5   6   9 0.63839 0.36631   1
  -4   6   9 26.1005 1.16513   1
   3  10   7 79.6398 5.11263  -2
  -3   6   9 79.6398 5.11263   1
  -2   6   9 37.8895 2.00422   1
   1   9   6 17.6427 1.65315  -2
  -1   6   9 17.6427 1.65315   1
   0   6   9 3.51430 1.02710   1
   1   6   9 114.841 5.55428   1
  -2   7   4 53.6840 2.47889  -2
   2   6   9 53.6840 2.47889   1
   3   6   9 57.0887 1.65283   1
  -4   6   3 27.7901 1.34514  -2
   4   6   9 27.7901 1.34514   1
   5   6   9 256.893 8.71965   1
   6   6   9 15.5821 0.82715   1
  -7   4   1 30.4586 2.70405  -2
   7   6   9 30.4586 2.70405   1
  -5   7   9 17.0847 1.38331   1
   4  11   9 47.8279 3.43329  -2
  -4   7   9 47.8279 3.43329   1
  -3   7   9 30.9000 1.61714   1
  -2   7   9 32.5528 1.68104   1
   1   9   7 19.5883 1.52720  -2
  -1   7   9 19.5883 1.52720   1
   0   7   9 3.69667 0.91808   1
  -1   8   6 10.8868 1.68549  -2
   1   7   9 10.8868 1.68549   1
   2   7   9 8.29394 0.55331   1
   3   7   9 52.4047 1.74327   1
  -4   6   4 82.5826 6.04194  -2
   4   7   9 82.5826 6.04194   1
   5   7   9 8.08255 0.55269   1
  -6   5   3 3.21888 0.56525  -2
   6   7   9 3.21888 0.56525   1
   7   7   9 23.3232 1.40721   1
  -4   8   9 4.26352 0.59738   1
  -3   8   9 5.85235 0.57333   1
  -1   8   9 35.7838 2.75746   1
   0   8   9 95.9836 6.31612   1
   1   8   9 0.89958 0.67296   1
   2   8   9 7.40222 0.76314   1
  -3   7   6 53.5692 2.08486  -2
   3   8   9 53.5692 2.08486   1
   4   8   9 176.332 5.68611   1
  -5   6   5 11.8845 1.71970  -2
   5   8   9 11.8845 1.71970   1
  -6   5   4 11.9267 1.59528  -2
   6   8   9 11.9267 1.59528   1
   7   8   9 2.50461 0.52917   1
  -3   9   9 13.1731 0.80831   1
  -2   9   9 66.6301 2.50051   1
  -1   9   9 12.4688 1.03437   1
   0   9   9 22.3278 2.10193  -2
   0   9   9 22.3278 2.10193   1
   1   9   9 4.88635 0.77978   1
   2   9   9 22.7692 1.42658   1
   3   9   9 95.6738 3.54614   1
   4   9   9 51.3000 2.56909   1
  -5   6   6 30.6987 1.90821  -2
   5   9   9 30.6987 1.90821   1
   6   9   9 34.0039 1.93315   1
   7   9   9 0.06168 0.52081   1
  -2  10   9 18.6336 0.93554   1
  -1  10   9 17.5525 0.87168   1
   0  10   9 27.4550 1.26727   1
   1  10   9 48.4849 1.95025   1
   3  10   9 1.55542 0.50501   1
  -4   7   8 30.8628 2.51497  -2
   4  10   9 30.8628 2.51497   1
   5  10   9 19.7428 1.17947   1
   6  10   9 6.46371 0.94974   1
   1  11   9 -0.0598 0.48166   1
   2  11   9 1.75500 0.53479   1
   3  11   9 4.73976 0.49148   1
  -4   7   9 42.8374 3.20038  -2
   4  11   9 42.8374 3.20038   1
   5  11   9 43.9285 3.26394   1
   1  12   9 13.7343 1.18379   1
  -3   8  11 121.523 7.00277  -2
   3  12   9 121.523 7.00277   1
   4  12   9 0.70730 0.34798   1
  -1  -7   8 12.4519 0.83891  -2
  -1  -5  10 12.4519 0.83891   1
   1  -6   9 40.8012 1.83932  -2
   1  -5  10 40.8012 1.83932   1
  -4  -9   5 7.41862 0.58224  -2
  -4  -4  10 7.41862 0.58224   1
  -3  -4  10 1.21259 0.62395   1
  -2  -8   6 12.9413 0.82937  -2
  -2  -4  10 12.9413 0.82937   1
   2  -4  10 -0.1850 0.62618   1
   3  -5   9 2.88723 0.80877  -2
   3  -4  10 2.88723 0.80877   1
  -5 -10   3 13.5094 0.84041  -2
  -5  -3  10 13.5094 0.84041   1
  -4  -3  10 30.8737 1.29314   1
  -3  -3  10 35.6572 1.84194   1
  -2  -8   5 5.71315 0.58316  -2
  -2  -3  10 5.71315 0.58316   1
  -1  -3  10 0.73480 1.02937   1
   0  -7   6 2.07643 0.71648  -2
   0  -3  10 2.07643 0.71648   1
   1  -3  10 -0.1540 0.87680   1
   2  -6   7 11.6912 0.84864  -2
   2  -3  10 11.6912 0.84864   1
   3  -5   8 19.2086 1.34500  -2
   3  -3  10 19.2086 1.34500   1
   4  -3  10 0.61724 0.55342   1
  -4  -2  10 38.8861 1.58342   1
  -3  -9   3 1.72439 0.64764  -2
  -3  -2  10 1.72439 0.64764   1
  -2  -2  10 34.3555 1.77756   1
   1  -2  10 0.89496 0.77565   1
   2  -6   6 47.0211 1.87699  -2
   2  -2  10 47.0211 1.87699   1
   3  -2  10 11.7404 0.89662   1
   4  -5   7 86.2719 4.96867  -2
   4  -2  10 86.2719 4.96867   1
   6  11   0 23.6834 1.59220  -2
  -6  -1  10 23.6834 1.59220   1
  -5  -1  10 -0.2172 0.48036   1
  -4 -10   1 114.544 8.28283  -2
  -4  -1  10 114.544 8.28283   1
  -3  -9   2 19.9116 1.45374  -2
  -3  -1  10 19.9116 1.45374   1
  -2  -1  10 53.7641 2.54558   1
  -1  -8   3 113.762 7.30792  -2
  -1  -1  10 113.762 7.30792   1
   0  -1  10 60.3689 4.13137   1
   3  -1  10 89.9846 3.00346   1
   4  -5   6 171.654 7.57210  -2
   4  -1  10 171.654 7.57210   1
   5  -1  10 27.0703 2.25892   1
  -5   0  10 22.4919 1.34879   1
   4  10   0 6.31788 0.69150  -2
  -4   0  10 6.31788 0.69150   1
  -3   0  10 23.3253 1.35886   1
   0   0  10 5.01335 1.01231   1
   1  -7   3 16.8524 1.70624  -2
   1   0  10 16.8524 1.70624   1
   2   0  10 22.5256 1.31579   1
   3  -6   4 9.95270 0.72298  -2
   3   0  10 9.95270 0.72298   1
   4   0  10 0.57437 0.99331   1
   5   0  10 31.4755 2.08558   1
   6  -4   6 5.47541 0.73140  -2
   6   0  10 5.47541 0.73140   1
  -6   1  10 50.6932 2.38815   1
  -5   1  10 68.0902 4.24691   1
  -4   1  10 15.4245 0.93519   1
  -3   1  10 38.3628 1.62325   1
   2   9   0 56.8680 3.07351  -2
  -2   1  10 56.8680 3.07351   1
  -1   1  10 56.7130 4.00120   1
   1   1  10 56.9653 3.02703   1
   2   1  10 10.0731 0.66733   1
   3  -6   3 33.4589 2.23235  -2
   3   1  10 33.4589 2.23235   1
   4   1  10 26.0591 1.05866   1
   5  -5   4 29.3451 2.49883  -2
   5   1  10 29.3451 2.49883   1
   6   1  10 24.6956 2.10077   1
  -6   2  10 -0.4972 0.31424   1
   5  11   3 23.9790 1.32073  -2
  -5   2  10 23.9790 1.32073   1
  -4   2  10 -0.3937 0.46989   1
   3  10   2 44.3157 2.28042  -2
  -3   2  10 44.3157 2.28042   1
  -2   2  10 3.84450 0.65142   1
  -1   2  10 219.070 13.8572   1
   1   2  10 5.55746 0.79223   1
   2  -7   1 5.30549 0.67214  -2
   2   2  10 5.30549 0.67214   1
   3   2  10 16.4036 0.76612   1
   4  -6   2 17.5402 1.87022  -2
   4   2  10 17.5402 1.87022   1
   5  -5   3 5.61185 1.71000  -2
   5   2  10 5.61185 1.71000   1
   6   2  10 7.96080 0.54590   1
  -6   3  10 11.8273 0.84344   1
  -5   3  10 22.4303 1.02506   1
  -4   3  10 33.1891 1.25514   1
   3  10   3 -0.0595 0.19977  -2
  -3   3  10 -0.0595 0.19977   1
  -2   3  10 144.595 5.38720   1
   1   9   2 97.7482 4.80288  -2
  -1   3  10 97.7482 4.80288   1
   0   3  10 225.378 8.65734   1
   1   3  10 28.4538 1.82030   1
   2   3  10 109.385 8.17379   1
   3   3  10 0.32498 0.34764   1
   4  -6   1 76.2649 2.56414  -2
   4   3  10 76.2649 2.56414   1
   5   3  10 145.845 7.57710   1
   6  -5   2 74.5788 5.78059  -2
   6   3  10 74.5788 5.78059   1
   7   3  10 40.5050 3.12210   1
  -5   4  10 13.0902 0.72012   1
   4  11   5 26.6335 1.14708  -2
  -4   4  10 26.6335 1.14708   1
  -3   4  10 12.9205 0.79018   1
  -2   4  10 67.3250 2.62967   1
  -1   4  10 71.5538 5.63206   1
   0   4  10 4.73085 0.66176   1
  -1   8   2 9.57042 0.96559  -2
   1   4  10 9.57042 0.96559   1
   2   4  10 14.3036 0.69606   1
   3   4  10 32.3055 1.47765   1
   4   4  10 151.777 5.53515   1
   5   4  10 51.2065 2.16287   1
   6  -5   1 184.508 14.7178  -2
   6   4  10 184.508 14.7178   1
   7   4  10 4.66193 0.50814   1
  -5   5  10 6.34749 0.54510   1
  -4   5  10 2.60287 0.43190   1
  -3   5  10 14.4139 1.03780   1
   2  10   5 241.849 10.3121  -2
  -2   5  10 241.849 10.3121   1
  -1   5  10 9.21549 1.26717   1
   0   5  10 52.9353 3.68932   1
   1   5  10 23.1300 1.27345   1
   2   5  10 28.2667 0.96722   1
  -3   7   2 92.2639 3.73768  -2
   3   5  10 92.2639 3.73768   1
   4   5  10 26.7154 1.21477   1
  -5   6   1 94.1388 4.50735  -2
   5   5  10 94.1388 4.50735   1
   6   5  10 29.6938 2.60936   1
   7   5  10 42.7086 2.32115   1
   5  12   8 37.1259 2.64445  -2
  -5   6  10 37.1259 2.64445   1
  -4   6  10 22.9154 0.98577   1
  -3   6  10 7.98011 0.76255   1
  -2   6  10 8.81330 0.81247   1
  -1   6  10 1.14244 0.99383   1
   1   6  10 2.59539 0.79155   1
  -2   8   4 90.1874 5.81357  -2
   2   6  10 90.1874 5.81357   1
   3   6  10 19.8373 0.95500   1
   4   6  10 0.37787 0.41628   1
  -5   6   2 79.2731 3.84741  -2
   5   6  10 79.2731 3.84741   1
   6   6  10 23.6446 1.53324   1
  -7   5   1 7.17780 0.69913  -2
   7   6  10 7.17780 0.69913   1
  -4   7  10 -0.1688 0.27369   1
   3  11   8 5.54906 0.61152  -2
  -3   7  10 5.54906 0.61152   1
  -2   7  10 9.29802 0.73638   1
   1  10   7 118.017 7.53730  -2
  -1   7  10 118.017 7.53730   1
   0   7  10 25.1887 2.23053   1
   1   7  10 112.756 4.93626   1
  -2   8   5 13.5215 1.12744  -2
   2   7  10 13.5215 1.12744   1
   3   7  10 41.7931 1.54925   1
  -4   7   4 4.33920 0.56453  -2
   4   7  10 4.33920 0.56453   1
   5   7  10 23.9869 1.21549   1
   6   7  10 0.60246 0.53381   1
  -3   8  10 17.7956 1.02852   1
  -2   8  10 62.4653 3.87331   1
   0   8  10 3.84150 1.07086   1
  -1   9   7 55.0202 2.61644  -2
   1   8  10 55.0202 2.61644   1
   2   8  10 19.9790 1.98419   1
   3   8  10 45.8561 1.87940   1
  -4   7   5 94.9749 6.80429  -2
   4   8  10 94.9749 6.80429   1
   5   8  10 1.46591 0.45547   1
  -6   6   4 7.28853 0.93271  -2
   6   8  10 7.28853 0.93271   1
   7   8  10 8.68600 1.01290   1
  -3   9  10 4.82772 0.50786   1
   2  11  10 19.5042 0.84781  -2
  -2   9  10 19.5042 0.84781   1
  -1   9  10 12.7592 1.04614   1
   0   9  10 0.89336 0.61771   1
   1   9  10 5.36758 0.74123   1
   2   9  10 1.87910 0.47569   1
  -3   8   7 5.45475 0.63357  -2
   3   9  10 5.45475 0.63357   1
   4   9  10 3.76920 0.46610   1
  -5   7   6 9.29084 1.07497  -2
   5   9  10 9.29084 1.07497   1
   6   9  10 5.12707 0.82030   1
  -1  10  10 33.7083 1.77462   1
   0  10  10 81.9354 3.14963  -2
   0  10  10 81.9354 3.14963   1
   1  10  10 4.76262 0.61287   1
   2  10  10 52.9571 2.57077   1
   3  10  10 33.2672 1.39990   1
   4  10  10 65.8560 3.13522   1
   6  10  10 0.68812 0.51964   1
   0  11  10 25.3658 1.29107   1
   1  11  10 17.0233 1.03795   1
  -2   9  10 11.4952 1.16672  -2
   2  11  10 11.4952 1.16672   1
   3  11  10 67.8992 4.85631   1
   4  11  10 25.9827 1.85173   1
   5  11  10 15.0457 0.82624   1
   2  12  10 11.2653 0.89587   1
  -2  -4  11 10.4621 0.77463   1
  -1  -8   7 19.7430 1.55444  -2
  -1  -4  11 19.7430 1.55444   1
  -4 -10   4 8.39737 0.61259  -2
  -4  -3  11 8.39737 0.61259   1
  -3  -3  11 9.87899 0.77303   1
  -2  -9   5 7.09830 0.74379  -2
  -2  -3  11 7.09830 0.74379   1
   1  -7   7 19.6314 1.03011  -2
   1  -3  11 19.6314 1.03011   1
  -4  -2  11 2.41517 0.68329   1
  -3  -2  11 0.24735 0.64143   1
  -2  -9   4 18.8226 1.56134  -2
  -2  -2  11 18.8226 1.56134   1
  -1  -2  11 0.37452 0.58780   1
   0  -8   5 10.3192 0.91889  -2
   0  -2  11 10.3192 0.91889   1
   1  -2  11 15.9272 1.73120   1
   3  -6   7 1.32916 0.50432  -2
   3  -2  11 1.32916 0.50432   1
  -5 -11   1 19.6517 1.65383  -2
  -5  -1  11 19.6517 1.65383   1
  -4  -1  11 9.75366 0.66548   1
  -3 -10   2 16.6505 1.42453  -2
  -3  -1  11 16.6505 1.42453   1
  -2  -1  11 -0.7552 0.57304   1
   1  -1  11 13.1153 0.96361   1
   2  -7   5 -0.2047 0.58078  -2
   2  -1  11 -0.2047 0.58078   1
   3  -1  11 23.3566 0.95101   1
  -5   0  11 2.72951 0.40867   1
  -4   0  11 0.76110 0.44777   1
  -2   0  11 16.7678 1.19642   1
  -1  -9   2 54.1352 3.75736  -2
  -1   0  11 54.1352 3.75736   1
   0   0  11 2.11096 0.88058   1
   3   0  11 12.2663 0.70977   1
   4  -6   5 66.1052 2.61817  -2
   4   0  11 66.1052 2.61817   1
   5   0  11 20.1064 1.12430   1
  -5   1  11 0.66073 0.40076   1
   4  11   1 116.720 4.23743  -2
  -4   1  11 116.720 4.23743   1
  -3   1  11 44.3080 2.26103   1
  -2   1  11 46.0189 3.09336   1
  -1   1  11 473.079 29.5729   1
   0   1  11 9.10281 1.12553   1
   2   1  11 31.9871 1.63133   1
   4  -6   4 57.3143 4.57227  -2
   4   1  11 57.3143 4.57227   1
   5   1  11 49.7669 2.03586   1
  -5   2  11 62.4217 2.95898   1
  -4   2  11 1.75500 0.42917   1
  -3   2  11 0.52637 0.58619   1
   2  10   1 9.10264 0.81936  -2
  -2   2  11 9.10264 0.81936   1
  -1   2  11 480.050 30.0078   1
   1   2  11 99.1828 6.39806   1
   2   2  11 49.3834 2.31355   1
   3  -7   2 16.8208 1.14219  -2
   3   2  11 16.8208 1.14219   1
   4   2  11 1.73469 0.39579   1
   5  -6   3 33.9115 1.45730  -2
   5   2  11 33.9115 1.45730   1
   6   2  11 13.4908 1.28755   1
   5  12   4 8.41321 0.92586  -2
  -5   3  11 8.41321 0.92586   1
  -4   3  11 0.46875 0.38542   1
   3  11   3 27.1657 2.15494  -2
  -3   3  11 27.1657 2.15494   1
  -2   3  11 0.16767 0.49238   1
  -1   3  11 8.85364 1.26501   1
   1   3  11 14.6272 1.52576   1
  -2   8   0 13.8257 0.99642  -2
   2   3  11 13.8257 0.99642   1
   3   3  11 2.86209 0.57435   1
   4   3  11 15.6193 0.84333   1
   5  -6   2 10.5145 1.74430  -2
   5   3  11 10.5145 1.74430   1
   6   3  11 104.496 5.43285   1
  -5   4  11 -0.2881 0.47871   1
  -4   4  11 3.33611 0.32649   1
  -2   4  11 22.0454 1.16639   1
   1  10   3 48.0568 3.44626  -2
  -1   4  11 48.0568 3.44626   1
   0   4  11 20.3000 1.88587   1
   1   4  11 1.71295 0.60234   1
   2   4  11 13.8094 1.51663   1
   3   4  11 0.45759 0.49278   1
  -4   7   0 60.4904 2.31778  -2
   4   4  11 60.4904 2.31778   1
   5   4  11 0.48563 0.41066   1
   6   4  11 252.712 18.1614   1
   4  12   6 60.4205 2.80201  -2
  -4   5  11 60.4205 2.80201   1
  -3   5  11 1.48763 0.45492   1
  -2   5  11 0.20747 0.72721   1
  -1   5  11 2.79927 0.99862   1
   0   5  11 -0.0526 0.92137   1
  -1   9   3 52.8153 2.49015  -2
   1   5  11 52.8153 2.49015   1
   2   5  11 41.4110 1.72722   1
  -3   8   2 19.2141 1.86141  -2
   3   5  11 19.2141 1.86141   1
   4   5  11 37.8910 1.57375   1
   5   5  11 36.3059 1.88303   1
  -6   6   0 17.9031 1.53161  -2
   6   5  11 17.9031 1.53161   1
  -4   6  11 0.31648 0.35900   1
  -3   6  11 18.5536 1.10982   1
   2  11   6 36.3792 1.80339  -2
  -2   6  11 36.3792 1.80339   1
  -1   6  11 56.1932 3.90890   1
   0   6  11 64.3926 4.36682   1
   1   6  11 7.37305 0.75824   1
   2   6  11 1.75282 0.49945   1
  -3   8   3 3.02166 0.60905  -2
   3   6  11 3.02166 0.60905   1
   4   6  11 46.7234 1.63462   1
   5   6  11 62.3069 3.88010   1
   6   6  11 16.8236 1.70105   1
  -3   7  11 6.30674 0.56516   1
  -2   7  11 24.1827 1.86415   1
  -1   7  11 25.3375 1.54015   1
   0  10   6 21.5038 1.89056  -2
   0   7  11 21.5038 1.89056   1
   1   7  11 102.119 4.49415   1
   2   7  11 27.4519 2.10508   1
   3   7  11 74.5948 2.51750   1
   4   7  11 19.7809 0.86889   1
  -5   7   3 16.8250 1.07276  -2
   5   7  11 16.8250 1.07276   1
   6   7  11 9.12322 1.20668   1
   3  12   9 110.552 6.40551  -2
  -3   8  11 110.552 6.40551   1
  -2   8  11 0.90242 0.34373   1
   0   8  11 37.0780 1.97035   1
   1   8  11 26.9297 1.54929   1
  -2   9   6 33.0605 2.32164  -2
   2   8  11 33.0605 2.32164   1
   3   8  11 45.7763 1.84857   1
  -4   8   5 84.7465 5.25838  -2
   4   8  11 84.7465 5.25838   1
   5   8  11 37.0004 1.59428   1
   6   8  11 32.0008 2.54885   1
  -2   9  11 1.71436 0.43191   1
  -1   9  11 6.91646 1.10165   1
   0   9  11 14.1361 1.07681   1
  -1  10   8 3.42133 0.69315  -2
   1   9  11 3.42133 0.69315   1
  -2   9   8 71.5014 4.64200  -2
   2   9  11 71.5014 4.64200   1
   3   9  11 16.5140 1.17644   1
   4   9  11 29.8445 1.63928   1
   5   9  11 2.63647 0.46612   1
   0  10  11 35.1008 1.44645   1
   1  10  11 30.1296 1.26774   1
   2  10  11 18.4454 1.14166   1
  -3   9   8 15.6798 0.88872  -2
   3  10  11 15.6798 0.88872   1
   4  10  11 69.5761 3.26792   1
   5  10  11 0.75309 0.68241   1
   2  11  11 9.25816 0.73822   1
   3  11  11 2.55102 0.30184   1
   4  11  11 123.590 8.57936   1
  -1  -9   6 3.14280 0.54823  -2
  -1  -3  12 3.14280 0.54823   1
   0  -3  12 1.01346 0.36038   1
  -3  -2  12 14.0036 0.87813   1
   0  -2  12 8.31189 0.71555   1
   1  -8   6 41.2847 2.68767  -2
   1  -2  12 41.2847 2.68767   1
   2  -2  12 11.5743 1.07113   1
  -4  -1  12 1.89969 0.59098   1
  -3  -1  12 0.87017 0.42960   1
  -2 -10   3 27.7188 1.90260  -2
  -2  -1  12 27.7188 1.90260   1
  -1  -1  12 45.0049 2.20298   1
   0  -9   4 37.0306 1.85469  -2
   0  -1  12 37.0306 1.85469   1
   1  -1  12 5.49756 0.54684   1
   2  -8   5 2.55259 1.30402  -2
   2  -1  12 2.55259 1.30402   1
  -4   0  12 23.6066 1.30612   1
  -3 -11   1 47.6292 2.24904  -2
  -3   0  12 47.6292 2.24904   1
  -2   0  12 81.1586 3.58178   1
  -1   0  12 0.99907 0.60265   1
   1   0  12 20.1147 1.21000   1
   2  -8   4 29.1971 1.19904  -2
   2   0  12 29.1971 1.19904   1
   3   0  12 23.9973 1.04447   1
  -4   1  12 14.2752 0.97864   1
  -3   1  12 3.80515 0.85971   1
  -2   1  12 2.78310 0.59050   1
  -1 -10   1 10.7060 0.93565  -2
  -1   1  12 10.7060 0.93565   1
   0   1  12 190.723 8.53767   1
   2   1  12 1.72041 0.43185   1
   3   1  12 6.03635 0.51237   1
   4  -7   4 1.01855 0.63360  -2
   4   1  12 1.01855 0.63360   1
   4  12   2 15.7500 0.93994  -2
  -4   2  12 15.7500 0.93994   1
  -3   2  12 36.5345 1.84119   1
  -2   2  12 23.2177 1.14798   1
  -1   2  12 7.99887 0.79753   1
   0   2  12 2.38739 0.86506   1
   1  -9   1 28.9298 1.51076  -2
   1   2  12 28.9298 1.51076   1
   2   2  12 4.65217 0.49678   1
   3  -8   2 61.5727 4.82008  -2
   3   2  12 61.5727 4.82008   1
   4   2  12 39.1696 1.51586   1
   5   2  12 80.7458 3.78988   1
  -4   3  12 11.1758 1.11698   1
  -3   3  12 1.83512 0.52284   1
   2  11   2 -0.9080 0.53148  -2
  -2   3  12 -0.9080 0.53148   1
  -1   3  12 52.9251 2.63291   1
   1   3  12 25.4322 1.43820   1
   2   3  12 0.30471 0.59307   1
   3  -8   1 61.1071 2.93082  -2
   3   3  12 61.1071 2.93082   1
   4   3  12 1.10182 0.60989   1
   5  -7   2 1.12911 0.57044  -2
   5   3  12 1.12911 0.57044   1
  -4   4  12 12.7752 0.74544   1
   3  12   4 22.1397 1.77811  -2
  -3   4  12 22.1397 1.77811   1
  -2   4  12 0.95545 0.45156   1
  -1   4  12 2.82701 0.52614   1
   1   4  12 2.84095 0.53379   1
  -2   9   1 38.3156 1.97036  -2
   2   4  12 38.3156 1.97036   1
   3   4  12 0.78928 0.48624   1
   4   4  12 25.1610 1.49091   1
   5   4  12 32.7558 2.13667   1
  -4   5  12 -0.1350 0.27725   1
  -2   5  12 3.45160 0.57402   1
   1  11   4 19.3164 1.22817  -2
  -1   5  12 19.3164 1.22817   1
   0   5  12 16.8291 1.72745   1
   1   5  12 6.29310 0.61601   1
   2   5  12 35.9639 1.53106   1
   3   5  12 23.9250 1.12800   1
  -4   8   1 6.95523 0.76970  -2
   4   5  12 6.95523 0.76970   1
   5   5  12 16.7612 1.03269   1
   6   5  12 35.8543 2.86451   1
  -3   6  12 20.1517 1.10156   1
  -2   6  12 7.73179 0.64357   1
  -1   6  12 6.23264 0.72222   1
   0   6  12 -0.4485 0.63081   1
  -1  10   4 34.2995 2.11277  -2
   1   6  12 34.2995 2.11277   1
   2   6  12 128.415 4.78209   1
  -3   9   3 44.4140 3.31600  -2
   3   6  12 44.4140 3.31600   1
   4   6  12 58.6594 2.86667   1
   5   6  12 10.7339 0.88335   1
  -6   7   1 35.8893 2.77691  -2
   6   6  12 35.8893 2.77691   1
  -3   7  12 0.35434 0.30057   1
   2  12   7 11.2327 0.76881  -2
  -2   7  12 11.2327 0.76881   1
  -1   7  12 36.9016 1.89383   1
   0   7  12 71.7202 3.36802   1
   1   7  12 22.5904 1.90341   1
   2   7  12 0.46103 0.47540   1
  -3   9   4 16.7708 0.82369  -2
   3   7  12 16.7708 0.82369   1
   4   7  12 -0.0200 0.45915   1
  -2   8  12 57.1374 3.98948   1
  -1   8  12 44.5102 2.15891   1
   0  11   7 16.0587 1.07380  -2
   0   8  12 16.0587 1.07380   1
   1   8  12 14.6665 1.05703   1
   2   8  12 2.72747 0.82227   1
   3   8  12 23.4862 1.08323   1
   4   8  12 34.8037 1.49794   1
  -1   9  12 2.66259 0.35730   1
   1   9  12 81.1340 3.02327   1
   2   9  12 14.0377 1.45613   1
   3   9  12 6.10154 0.47961   1
  -4   9   6 7.69356 0.67995  -2
   4   9  12 7.69356 0.67995   1
   5   9  12 1.33288 0.39727   1
   0  10  12 13.3661 0.82999   1
  -1  11   9 57.5621 2.63099  -2
   1  10  12 57.5621 2.63099   1
   2  10  12 0.00996 0.56178   1
   3  10  12 0.05588 0.67520   1
   4  10  12 52.6395 2.47834   1
  -2 -11   3 18.5275 1.50269  -2
  -2  -1  13 18.5275 1.50269   1
  -1  -1  13 10.3034 0.79977   1
   0  -1  13 1.11646 0.43495   1
   1  -9   5 23.5928 1.52208  -2
   1  -1  13 23.5928 1.52208   1
  -3   0  13 1.28109 0.35202   1
  -2 -11   2 2.44433 0.63354  -2
  -2   0  13 2.44433 0.63354   1
  -1   0  13 2.84621 0.50686   1
   1   0  13 35.2563 1.84080   1
   2   0  13 53.5089 3.24162   1
   3  12   0 11.5125 0.70076  -2
  -3   1  13 11.5125 0.70076   1
  -2   1  13 15.5595 0.77949   1
  -1   1  13 36.2158 1.83935   1
   1   1  13 0.41691 0.45950   1
   2  -9   3 18.3603 1.13888  -2
   2   1  13 18.3603 1.13888   1
   3   1  13 35.8279 1.39522   1
  -3   2  13 8.97392 0.70478   1
  -2   2  13 -0.3004 0.33933   1
   1  11   0 39.4493 1.94698  -2
  -1   2  13 39.4493 1.94698   1
   0   2  13 6.80552 0.73076   1
   1   2  13 24.9355 1.88675   1
   2   2  13 30.1071 1.60396   1
   3   2  13 32.4899 1.32073   1
   4  -8   3 14.2011 0.88229  -2
   4   2  13 14.2011 0.88229   1
  -3   3  13 3.31662 0.64608   1
  -2   3  13 0.91380 0.49239   1
  -1   3  13 0.97585 0.55910   1
   0   3  13 29.8050 1.70208   1
  -1  10   0 2.25144 0.72886  -2
   1   3  13 2.25144 0.72886   1
   2   3  13 18.6315 1.23164   1
   4   3  13 3.14317 0.46989   1
  -3   4  13 -0.0961 0.52094   1
  -1   4  13 15.3691 1.10540   1
   1   4  13 22.2582 1.09877   1
   2   4  13 2.54947 0.57414   1
  -3   9   0 41.4735 2.56521  -2
   3   4  13 41.4735 2.56521   1
   4   4  13 0.16813 0.50170   1
   5   4  13 2.05006 0.75017   1
  -3   5  13 43.1119 2.58156   1
  -2   5  13 -0.2171 0.37664   1
  -1   5  13 2.60350 0.58237   1
   1   5  13 25.6490 1.18746   1
  -2  10   2 36.6227 1.86813  -2
   2   5  13 36.6227 1.86813   1
   3   5  13 17.5695 0.88482   1
   4   5  13 5.73837 0.60860   1
   5   5  13 1.23251 0.36111   1
  -2   6  13 10.1981 0.48048   1
   0   6  13 67.4110 3.14672   1
   1   6  13 39.4564 1.91058   1
   2   6  13 0.82618 0.53813   1
   3   6  13 0.05452 0.42684   1
  -4   9   2 19.4553 1.10994  -2
   4   6  13 19.4553 1.10994   1
   5   6  13 19.5325 1.05223   1
  -2   7  13 160.673 10.9352   1
   0   7  13 3.53963 0.57408   1
  -1  11   5 4.88397 1.19370  -2
   1   7  13 4.88397 1.19370   1
   2   7  13 9.07263 0.79205   1
   3   7  13 39.3080 1.36664   1
   4   7  13 63.7570 3.06237   1
  -1   8  13 10.1225 0.71522   1
  -1  11   7 40.6636 2.75352  -2
   1   8  13 40.6636 2.75352   1
   2   8  13 54.4187 2.56936   1
  -3  10   5 17.8718 1.01605  -2
   3   8  13 17.8718 1.01605   1
   4   8  13 6.15858 0.74108   1
   0  12   8 11.7952 0.95551  -2
   0   9  13 11.7952 0.95551   1
   1   9  13 1.56365 0.46893   1
   2   9  13 1.53655 0.64998   1
   3   9  13 3.22348 0.31506   1
  -1   1  14 0.02310 0.36119   1
   0 -11   2 5.95799 0.47991  -2
   0   1  14 5.95799 0.47991   1
   1   1  14 0.60877 0.72131   1
  -1   2  14 0.57345 0.34754   1
   0   2  14 26.5875 1.17211   1
   1   2  14 5.43402 0.58361   1
   1  12   1 24.3040 1.30293  -2
  -1   3  14 24.3040 1.30293   1
   0   3  14 31.9706 1.36981   1
   2   3  14 -0.3429 0.40571   1
   3   3  14 0.03782 0.72074   1
  -1   4  14 3.80362 0.81489   1
   0   4  14 -0.2503 0.45014   1
  -1  11   1 20.6041 1.16036  -2
   1   4  14 20.6041 1.16036   1
   2   4  14 0.01202 0.42360   1
   3   4  14 59.0503 3.44033   1
  -1   5  14 1.24327 0.42565   1
   1   5  14 51.9228 3.25900   1
   2   5  14 5.21132 0.56602   1
   3   5  14 10.5818 0.65626   1
  -1   6  14 19.4568 1.04683   1
   1   6  14 3.02510 0.36051   1
   3   6  14 -0.3980 0.36734   1
   0   7  14 54.2701 2.47965   1
   1   7  14 53.0326 2.45138   1
   2   7  14 87.7697 5.15181   1
   0   0   0    0.00    0.00   0
;
_shelx_hkl_checksum   44535

