 
data_k13047
 
_audit_creation_method            SHELXL-2013 
# CIF file largely edited automatically on-the-fly by script CIFFIX. 
 
_publ_section_exptl_refinement 
; 
H atoms were found in difference Fourier maps and subsequently placed 
in idealized positions with constrained distances of 0.98 \%A (RCH~3~), 
0.99 \%A (R~2~CH~2~), 0.95 \%A (C~sp2~H), and with U~iso~(H) values set 
to either 1.2U~eq~ or 1.5U~eq~ (RCH~3~) of the attached atom. 

To ensure satisfactory refinement of the disordered parts of the structure, 
a combination of constraints and restraints were required.  The constraints 
(SHELXL commands EXYZ and EADP) were included to force coordinates and/or 
displacement parameters of superimposed or partially overlapping fragments 
to be equal.  The restraints (SHELXL commands SAME, DFIX, ISOR and RIGU) 
were used to ensure similar geometries and/or displacement parameters for 
overlapping or nearby, chemically similar groups. 
; 

_publ_section_references 
; 
Hope, H. (1994). 
<i>Prog. Inorg. Chem.</i> <b>41</b>, 1---19. 

Nonius (1998). 
<i>Collect</i> Nonius BV, Delft, The Netherlands. 

Otwinowski, Z. & Minor, W. (1997). 
<i>Methods in Enzymology</i>, <b>276</b>, <i>Macromolecular 
Crystallography</i>, Part A, eds. C. W. Carter Jr & R. M. Sweet. 
307---326. New York: Academic Press. 

Parkin, S. & Hope, H. (1998). 
<i>J. Appl. Cryst.</i> <b>31</b>, 945---953. 

Parkin, S. (2000). 
<i>Acta Cryst.</i> A<b>56</b>, 157---162. 

Sheldrick, G.M. (2008). 
<i>Acta Cryst.</i> <b>A</b>64, 112---122. 

Sheldrick, G.M. (2013). 
<i>SADABS</i> University of G\"ottingen, Germany. 

Spek, A.L. (2009). 
<i>Acta Cryst.</i> <b>D</b>65, 148---155. 
; 

_chemical_name_systematic
;
 ?
;
_chemical_name_common             ?
_chemical_melting_point           ?
_chemical_formula_moiety          'C34 H32 F2 S2 Si2'   
_chemical_formula_sum             'C34 H32 F2 S2 Si2'   
_chemical_formula_weight          598.89

loop_
 _atom_type_symbol
 _atom_type_description
 _atom_type_scat_dispersion_real
 _atom_type_scat_dispersion_imag
 _atom_type_scat_source
 'C'  'C'   0.0033   0.0016
 'International Tables Vol C Tables 4.2.6.8 and 6.1.1.4'
 'H'  'H'   0.0000   0.0000
 'International Tables Vol C Tables 4.2.6.8 and 6.1.1.4'
 'F'  'F'   0.0171   0.0103
 'International Tables Vol C Tables 4.2.6.8 and 6.1.1.4'
 'Si'  'Si'   0.0817   0.0704
 'International Tables Vol C Tables 4.2.6.8 and 6.1.1.4'
 'S'  'S'   0.1246   0.1234
 'International Tables Vol C Tables 4.2.6.8 and 6.1.1.4'
 
_space_group_crystal_system       triclinic
_space_group_IT_number            2
_space_group_name_H-M_alt         'P -1'
_space_group_name_Hall            '-P 1'
 
_shelx_space_group_comment
;
The symmetry employed for this shelxl refinement is uniquely defined
by the following loop, which should always be used as a source of
symmetry information in preference to the above space-group names.
They are only intended as comments.
;
 
loop_
 _space_group_symop_operation_xyz
 'x, y, z'
 '-x, -y, -z'
 
_cell_length_a                    7.2274(3)
_cell_length_b                    7.2848(3)
_cell_length_c                    15.3896(7)
_cell_angle_alpha                 89.633(2)
_cell_angle_beta                  89.354(2)
_cell_angle_gamma                 71.732(2)
_cell_volume                      769.38(6)
_cell_formula_units_Z             1
_cell_measurement_temperature     90.0(2) 
_cell_measurement_reflns_used     79370 
_cell_measurement_theta_min       1.00  
_cell_measurement_theta_max       27.48  
 
_exptl_crystal_description        plate  
_exptl_crystal_colour             red  
_exptl_crystal_density_meas       ? 
_exptl_crystal_density_method     ?              
_exptl_crystal_density_diffrn     1.293          
_exptl_crystal_F_000              314
_exptl_transmission_factor_min    ?                                             
_exptl_transmission_factor_max    ?                                             
_exptl_crystal_size_max           0.300
_exptl_crystal_size_mid           0.200
_exptl_crystal_size_min           0.060
_exptl_absorpt_coefficient_mu     0.286
_shelx_estimated_absorpt_T_min    0.919
_shelx_estimated_absorpt_T_max    0.983
_exptl_absorpt_correction_type    multi-scan  
_exptl_absorpt_correction_T_min   0.9066 
_exptl_absorpt_correction_T_max   0.9456 
_exptl_absorpt_process_details    'SADABS (Sheldrick, 2013)'  
 
_exptl_special_details 
; 
The crystal was mounted on a fine glass fibre in polyisobutene oil 
directly into the cold stream of a nitrogen-based cryostat, according 
to established methods (Hope, 1994; Parkin & Hope, 1998).
; 

_diffrn_ambient_temperature       90.0(2) 
_diffrn_radiation_wavelength      0.71073
_diffrn_radiation_type            MoK\a
_diffrn_source                    'fine-focus sealed-tube'                        
_diffrn_measurement_device_type   'Nonius KappaCCD diffractometer'  
_diffrn_measurement_method        '\f and \w scans at fixed \c = 55\%'  
_diffrn_detector_area_resol_mean  9.1  
_diffrn_reflns_number             22862
_diffrn_reflns_av_unetI/netI      0.0469
_diffrn_reflns_av_R_equivalents   0.0808
_diffrn_reflns_limit_h_min        -9
_diffrn_reflns_limit_h_max        9
_diffrn_reflns_limit_k_min        -9
_diffrn_reflns_limit_k_max        9
_diffrn_reflns_limit_l_min        -19
_diffrn_reflns_limit_l_max        19
_diffrn_reflns_theta_min          2.647
_diffrn_reflns_theta_max          27.749
_diffrn_reflns_theta_full         25.242
_diffrn_measured_fraction_theta_max                0.980
_diffrn_measured_fraction_theta_full               0.999
_diffrn_reflns_Laue_measured_fraction_max          0.980
_diffrn_reflns_Laue_measured_fraction_full         0.999
_diffrn_reflns_point_group_measured_fraction_max   0.980
_diffrn_reflns_point_group_measured_fraction_full  0.999
_reflns_number_total              3561
_reflns_number_gt                 2619
_reflns_threshold_expression      'I > 2\s(I)'
_reflns_Friedel_coverage          0.000
_reflns_Friedel_fraction_max      .
_reflns_Friedel_fraction_full     .
 
_reflns_special_details
;
 Reflections were merged by SHELXL according to the crystal
 class for the calculation of statistics and refinement.
 
 _reflns_Friedel_fraction is defined as the number of unique
 Friedel pairs measured divided by the number that would be
 possible theoretically, ignoring centric projections and
 systematic absences.
;
 
_computing_data_collection        'COLLECT (Nonius, 1998)' 
_computing_cell_refinement        'SCALEPACK (Otwinowski & Minor, 1997)' 
_computing_data_reduction         'DENZO-SMN (Otwinowski & Minor, 1997)' 
_computing_structure_solution     'SHELXS-97 (Sheldrick, 2008)' 
_computing_structure_refinement   'SHELXL-2013 (Sheldrick, 2013)'
_computing_molecular_graphics     'XP in SHELXTL (Sheldrick, 2008)' 
_computing_publication_material   'SHELX (Sheldrick, 2008) and local procedures' 
 
_refine_special_details 
; 
Refinement progress was checked using routines in Platon (Spek, 2009), by an 
R-tensor (Parkin, 2000), and finally by the IUCr utility checkCIF. 
; 

_refine_ls_structure_factor_coef  Fsqd
_refine_ls_matrix_type            full
_refine_ls_weighting_scheme       calc
_refine_ls_weighting_details
;
 w=1/[\s^2^(Fo^2^)+(0.0956P)^2^+0.3173P]
 where P=(Fo^2^+2Fc^2^)/3
;
_atom_sites_solution_primary      ?
_atom_sites_solution_secondary    ?
_atom_sites_solution_hydrogens    geom
_refine_ls_hydrogen_treatment     constr
_refine_ls_extinction_method      none
_refine_ls_extinction_coef        .
_refine_ls_number_reflns          3561
_refine_ls_number_parameters      214
_refine_ls_number_restraints      40
_refine_ls_R_factor_all           0.0779
_refine_ls_R_factor_gt            0.0583
_refine_ls_wR_factor_ref          0.1764
_refine_ls_wR_factor_gt           0.1625
_refine_ls_goodness_of_fit_ref    1.094
_refine_ls_restrained_S_all       1.106
_refine_ls_shift/su_max           0.002
_refine_ls_shift/su_mean          0.000
 
loop_
 _atom_site_label
 _atom_site_type_symbol
 _atom_site_fract_x
 _atom_site_fract_y
 _atom_site_fract_z
 _atom_site_U_iso_or_equiv
 _atom_site_adp_type
 _atom_site_occupancy
 _atom_site_site_symmetry_order  
 _atom_site_calc_flag
 _atom_site_refinement_flags_posn
 _atom_site_refinement_flags_adp
 _atom_site_refinement_flags_occupancy
 _atom_site_disorder_assembly
 _atom_site_disorder_group
C1 C 0.5832(3) 0.5181(3) 0.58096(15) 0.0295(5) Uani 1 1 d . . . . .
C2 C 0.3819(3) 0.6131(3) 0.56789(15) 0.0287(5) Uani 1 1 d . . . . .
C3 C 0.2631(3) 0.7292(3) 0.63356(15) 0.0314(5) Uani 1 1 d . . . . .
H3 H 0.3181 0.7469 0.6874 0.038 Uiso 1 1 calc R U . A 1
C4 C 0.0688(3) 0.8156(3) 0.61901(15) 0.0310(5) Uani 0.728(3) 1 d D . P B 1
S5 S -0.10226(18) 0.9635(2) 0.69122(9) 0.0347(3) Uani 0.728(3) 1 d D . P B 1
C6 C -0.2838(5) 0.9805(6) 0.6137(3) 0.0323(9) Uani 0.728(3) 1 d D . P B 1
F1 F -0.4652(3) 1.0865(3) 0.63764(16) 0.0408(5) Uani 0.728(3) 1 d D . P B 1
C7 C -0.2247(14) 0.891(2) 0.5391(10) 0.0330(10) Uani 0.728(3) 1 d D . P B 1
H7 H -0.3081 0.8944 0.4915 0.040 Uiso 0.728(3) 1 calc R U P B 1
C8 C -0.0180(3) 0.7893(3) 0.53868(15) 0.0299(5) Uani 0.728(3) 1 d D . P B 1
C4' C 0.0688(3) 0.8156(3) 0.61901(15) 0.0310(5) Uani 0.272(3) 1 d D . P B 2
C5' C -0.074(2) 0.936(3) 0.6768(12) 0.0347(3) Uani 0.272(3) 1 d D . P B 2
H5' H -0.0468 0.9724 0.7332 0.042 Uiso 0.272(3) 1 calc R U P B 2
F1' F -0.4167(8) 1.0979(10) 0.6775(4) 0.0408(5) Uani 0.272(3) 1 d D . P B 2
C6' C -0.2477(14) 0.990(2) 0.6421(7) 0.0323(9) Uani 0.272(3) 1 d D . P B 2
S7' S -0.2646(8) 0.9040(14) 0.5368(6) 0.0330(10) Uani 0.272(3) 1 d D . P B 2
C8' C -0.0180(3) 0.7893(3) 0.53868(15) 0.0299(5) Uani 0.272(3) 1 d D . P B 2
C9 C 0.0938(3) 0.6811(3) 0.47383(15) 0.0301(5) Uani 1 1 d . . . . .
H9 H 0.0355 0.6654 0.4206 0.036 Uiso 1 1 calc R U . B 1
C10 C 0.2970(3) 0.5920(3) 0.48560(15) 0.0283(5) Uani 1 1 d . . . . .
C11 C 0.6664(3) 0.5311(3) 0.66414(15) 0.0309(5) Uani 1 1 d . . . . .
C12 C 0.7360(3) 0.5362(3) 0.73457(16) 0.0350(5) Uani 1 1 d . . . . .
C13 C 1.1032(4) 0.5045(5) 0.83453(19) 0.0544(8) Uani 1 1 d . . . . .
H13A H 1.1154 0.6310 0.8166 0.065 Uiso 1 1 calc R U . . .
H13B H 1.1623 0.4736 0.8927 0.065 Uiso 1 1 calc R U . . .
C14 C 1.2180(5) 0.3524(6) 0.7712(2) 0.0689(9) Uani 1 1 d . . . . .
H14A H 1.2113 0.2255 0.7894 0.103 Uiso 1 1 calc R U . . .
H14B H 1.3543 0.3503 0.7701 0.103 Uiso 1 1 calc R U . . .
H14C H 1.1630 0.3829 0.7130 0.103 Uiso 1 1 calc R U . . .
C15 C 0.7008(4) 0.7528(5) 0.90201(19) 0.0522(7) Uani 0.626(15) 1 d D U P C 1
H15A H 0.7225 0.7310 0.9652 0.063 Uiso 0.626(15) 1 calc R U P C 1
H15B H 0.7546 0.8570 0.8845 0.063 Uiso 0.626(15) 1 calc R U P C 1
C16 C 0.4817(12) 0.8216(15) 0.8858(6) 0.079(2) Uani 0.626(15) 1 d D U P C 1
H16A H 0.4582 0.8370 0.8232 0.119 Uiso 0.626(15) 1 calc R U P C 1
H16B H 0.4223 0.9459 0.9148 0.119 Uiso 0.626(15) 1 calc R U P C 1
H16C H 0.4241 0.7261 0.9090 0.119 Uiso 0.626(15) 1 calc R U P C 1
C15' C 0.7008(4) 0.7528(5) 0.90201(19) 0.0522(7) Uani 0.374(15) 1 d D U P C 2
H15C H 0.6672 0.7113 0.9598 0.063 Uiso 0.374(15) 1 calc R U P C 2
H15D H 0.7950 0.8238 0.9123 0.063 Uiso 0.374(15) 1 calc R U P C 2
C16' C 0.534(2) 0.887(2) 0.8723(10) 0.079(2) Uani 0.374(15) 1 d D U P C 2
H16D H 0.5296 0.8788 0.8088 0.119 Uiso 0.374(15) 1 calc R U P C 2
H16E H 0.5346 1.0170 0.8886 0.119 Uiso 0.374(15) 1 calc R U P C 2
H16F H 0.4202 0.8621 0.8981 0.119 Uiso 0.374(15) 1 calc R U P C 2
Si1 Si 0.83818(10) 0.52842(11) 0.84379(4) 0.0403(2) Uani 1 1 d D . . . .
C17 C 0.799(3) 0.304(2) 0.8905(11) 0.061(3) Uani 0.500(10) 1 d D U P C 1
H17 H 0.6766 0.2849 0.8798 0.074 Uiso 0.500(10) 1 calc R U P C 1
C18 C 0.9240(14) 0.1711(11) 0.9363(6) 0.097(4) Uani 0.500(10) 1 d D U P C 1
H18A H 1.0479 0.1837 0.9487 0.116 Uiso 0.500(10) 1 calc R U P C 1
H18B H 0.8912 0.0622 0.9573 0.116 Uiso 0.500(10) 1 calc R U P C 1
C17' C 0.815(3) 0.324(2) 0.9105(11) 0.061(3) Uani 0.500(10) 1 d D . P C 2
H17' H 0.9218 0.2526 0.9448 0.074 Uiso 0.500(10) 1 calc R U P C 2
C18' C 0.6588(15) 0.2777(14) 0.9119(7) 0.108(4) Uani 0.500(10) 1 d D . P C 2
H18C H 0.5505 0.3482 0.8780 0.130 Uiso 0.500(10) 1 calc R U P C 2
H18D H 0.6510 0.1722 0.9468 0.130 Uiso 0.500(10) 1 calc R U P C 2
 
loop_
 _atom_site_aniso_label
 _atom_site_aniso_U_11
 _atom_site_aniso_U_22
 _atom_site_aniso_U_33
 _atom_site_aniso_U_23
 _atom_site_aniso_U_13
 _atom_site_aniso_U_12
C1 0.0254(11) 0.0270(11) 0.0373(12) -0.0008(9) -0.0034(9) -0.0097(9)
C2 0.0240(10) 0.0248(10) 0.0379(12) -0.0005(9) -0.0012(9) -0.0086(8)
C3 0.0269(11) 0.0294(11) 0.0367(12) -0.0032(9) -0.0012(9) -0.0070(9)
C4 0.0252(11) 0.0286(11) 0.0391(13) -0.0022(9) 0.0021(9) -0.0086(9)
S5 0.0264(6) 0.0348(7) 0.0409(7) -0.0067(4) 0.0029(4) -0.0064(4)
C6 0.0186(17) 0.0317(14) 0.045(3) -0.0014(19) -0.0024(15) -0.0062(13)
F1 0.0211(10) 0.0460(10) 0.0502(15) -0.0071(11) 0.0032(9) -0.0032(8)
C7 0.015(3) 0.0324(13) 0.0523(10) -0.0002(9) 0.0009(19) -0.0082(19)
C8 0.0235(10) 0.0261(11) 0.0412(13) 0.0006(9) -0.0012(9) -0.0091(8)
C4' 0.0252(11) 0.0286(11) 0.0391(13) -0.0022(9) 0.0021(9) -0.0086(9)
C5' 0.0264(6) 0.0348(7) 0.0409(7) -0.0067(4) 0.0029(4) -0.0064(4)
F1' 0.0211(10) 0.0460(10) 0.0502(15) -0.0071(11) 0.0032(9) -0.0032(8)
C6' 0.0186(17) 0.0317(14) 0.045(3) -0.0014(19) -0.0024(15) -0.0062(13)
S7' 0.015(3) 0.0324(13) 0.0523(10) -0.0002(9) 0.0009(19) -0.0082(19)
C8' 0.0235(10) 0.0261(11) 0.0412(13) 0.0006(9) -0.0012(9) -0.0091(8)
C9 0.0251(11) 0.0277(11) 0.0386(12) 0.0001(9) -0.0044(9) -0.0096(9)
C10 0.0244(10) 0.0228(10) 0.0386(12) -0.0017(9) -0.0015(9) -0.0086(8)
C11 0.0253(11) 0.0273(11) 0.0392(13) -0.0042(9) 0.0014(9) -0.0071(9)
C12 0.0282(11) 0.0351(12) 0.0403(13) -0.0021(10) 0.0010(10) -0.0080(9)
C13 0.0357(14) 0.078(2) 0.0431(15) 0.0033(14) -0.0120(12) -0.0090(14)
C14 0.0460(18) 0.072(2) 0.080(2) 0.0027(18) 0.0054(16) -0.0069(16)
C15 0.0460(16) 0.0664(19) 0.0434(15) -0.0130(13) -0.0015(12) -0.0161(14)
C16 0.070(4) 0.069(4) 0.086(4) -0.031(3) 0.003(3) -0.003(3)
C15' 0.0460(16) 0.0664(19) 0.0434(15) -0.0130(13) -0.0015(12) -0.0161(14)
C16' 0.070(4) 0.069(4) 0.086(4) -0.031(3) 0.003(3) -0.003(3)
Si1 0.0363(4) 0.0485(5) 0.0336(4) 0.0004(3) -0.0035(3) -0.0096(3)
C17 0.091(4) 0.072(4) 0.032(7) 0.006(5) -0.013(4) -0.041(3)
C18 0.122(7) 0.076(5) 0.120(7) 0.052(5) -0.071(6) -0.069(5)
C17' 0.091(4) 0.072(4) 0.032(7) 0.006(5) -0.013(4) -0.041(3)
C18' 0.098(7) 0.094(7) 0.153(9) 0.062(6) -0.033(6) -0.061(6)
 
_geom_special_details
;
 All esds (except the esd in the dihedral angle between two l.s. planes)
 are estimated using the full covariance matrix.  The cell esds are taken
 into account individually in the estimation of esds in distances, angles
 and torsion angles; correlations between esds in cell parameters are only
 used when they are defined by crystal symmetry.  An approximate (isotropic)
 treatment of cell esds is used for estimating esds involving l.s. planes.
;
 
loop_
 _geom_bond_atom_site_label_1
 _geom_bond_atom_site_label_2
 _geom_bond_distance
 _geom_bond_site_symmetry_2
 _geom_bond_publ_flag
C1 C10 1.414(3) 2_666 ?
C1 C2 1.418(3) . ?
C1 C11 1.436(3) . ?
C2 C3 1.418(3) . ?
C2 C10 1.443(3) . ?
C3 C4 1.367(3) . ?
C3 H3 0.9500 . ?
C4 C8 1.433(3) . ?
C4 S5 1.753(2) . ?
S5 C6 1.758(4) . ?
C6 C7 1.322(15) . ?
C6 F1 1.345(4) . ?
C7 C8 1.445(10) . ?
C7 H7 0.9500 . ?
C8 C9 1.365(3) . ?
C5' C6' 1.309(18) . ?
C5' H5' 0.9500 . ?
F1' C6' 1.339(11) . ?
C6' S7' 1.762(12) . ?
C9 C10 1.420(3) . ?
C9 H9 0.9500 . ?
C10 C1 1.414(3) 2_666 ?
C11 C12 1.206(3) . ?
C12 Si1 1.837(3) . ?
C13 C14 1.512(5) . ?
C13 Si1 1.872(3) . ?
C13 H13A 0.9900 . ?
C13 H13B 0.9900 . ?
C14 H14A 0.9800 . ?
C14 H14B 0.9800 . ?
C14 H14C 0.9800 . ?
C15 C16 1.526(8) . ?
C15 Si1 1.855(3) . ?
C15 H15A 0.9900 . ?
C15 H15B 0.9900 . ?
C16 H16A 0.9800 . ?
C16 H16B 0.9800 . ?
C16 H16C 0.9800 . ?
C16' H16D 0.9800 . ?
C16' H16E 0.9800 . ?
C16' H16F 0.9800 . ?
Si1 C17' 1.851(10) . ?
Si1 C17 1.886(10) . ?
C17 C18 1.306(14) . ?
C17 H17 0.9500 . ?
C18 H18A 0.9500 . ?
C18 H18B 0.9500 . ?
C17' C18' 1.275(14) . ?
C17' H17' 0.9500 . ?
C18' H18C 0.9500 . ?
C18' H18D 0.9500 . ?
 
loop_
 _geom_angle_atom_site_label_1
 _geom_angle_atom_site_label_2
 _geom_angle_atom_site_label_3
 _geom_angle
 _geom_angle_site_symmetry_1
 _geom_angle_site_symmetry_3
 _geom_angle_publ_flag
C10 C1 C2 121.4(2) 2_666 . ?
C10 C1 C11 119.30(19) 2_666 . ?
C2 C1 C11 119.3(2) . . ?
C1 C2 C3 121.4(2) . . ?
C1 C2 C10 119.1(2) . . ?
C3 C2 C10 119.47(19) . . ?
C4 C3 C2 119.7(2) . . ?
C4 C3 H3 120.2 . . ?
C2 C3 H3 120.2 . . ?
C3 C4 C8 121.2(2) . . ?
C3 C4 S5 126.78(19) . . ?
C8 C4 S5 112.05(16) . . ?
C4 S5 C6 88.73(15) . . ?
C7 C6 F1 128.3(5) . . ?
C7 C6 S5 116.2(5) . . ?
F1 C6 S5 115.4(3) . . ?
C6 C7 C8 111.9(10) . . ?
C6 C7 H7 124.1 . . ?
C8 C7 H7 124.1 . . ?
C9 C8 C4 120.31(19) . . ?
C9 C8 C7 128.6(6) . . ?
C4 C8 C7 111.1(6) . . ?
C6' C5' H5' 124.2 . . ?
C5' C6' F1' 128.4(10) . . ?
C5' C6' S7' 116.3(9) . . ?
F1' C6' S7' 115.2(7) . . ?
C8 C9 C10 120.3(2) . . ?
C8 C9 H9 119.8 . . ?
C10 C9 H9 119.8 . . ?
C1 C10 C9 121.5(2) 2_666 . ?
C1 C10 C2 119.48(19) 2_666 . ?
C9 C10 C2 119.0(2) . . ?
C12 C11 C1 178.0(2) . . ?
C11 C12 Si1 176.0(2) . . ?
C14 C13 Si1 114.9(2) . . ?
C14 C13 H13A 108.5 . . ?
Si1 C13 H13A 108.5 . . ?
C14 C13 H13B 108.5 . . ?
Si1 C13 H13B 108.5 . . ?
H13A C13 H13B 107.5 . . ?
C13 C14 H14A 109.5 . . ?
C13 C14 H14B 109.5 . . ?
H14A C14 H14B 109.5 . . ?
C13 C14 H14C 109.5 . . ?
H14A C14 H14C 109.5 . . ?
H14B C14 H14C 109.5 . . ?
C16 C15 Si1 114.8(4) . . ?
C16 C15 H15A 108.6 . . ?
Si1 C15 H15A 108.6 . . ?
C16 C15 H15B 108.6 . . ?
Si1 C15 H15B 108.6 . . ?
H15A C15 H15B 107.5 . . ?
C15 C16 H16A 109.5 . . ?
C15 C16 H16B 109.5 . . ?
H16A C16 H16B 109.5 . . ?
C15 C16 H16C 109.5 . . ?
H16A C16 H16C 109.5 . . ?
H16B C16 H16C 109.5 . . ?
H16D C16' H16E 109.5 . . ?
H16D C16' H16F 109.5 . . ?
H16E C16' H16F 109.5 . . ?
C12 Si1 C17' 113.1(5) . . ?
C12 Si1 C15 108.51(12) . . ?
C12 Si1 C13 109.44(12) . . ?
C17' Si1 C13 108.0(6) . . ?
C15 Si1 C13 111.27(15) . . ?
C12 Si1 C17 101.7(5) . . ?
C15 Si1 C17 113.6(7) . . ?
C13 Si1 C17 111.9(6) . . ?
C18 C17 Si1 125.9(11) . . ?
C18 C17 H17 117.1 . . ?
Si1 C17 H17 117.1 . . ?
C17 C18 H18A 120.0 . . ?
C17 C18 H18B 120.0 . . ?
H18A C18 H18B 120.0 . . ?
C18' C17' Si1 121.9(11) . . ?
C18' C17' H17' 119.1 . . ?
Si1 C17' H17' 119.1 . . ?
C17' C18' H18C 120.0 . . ?
C17' C18' H18D 120.0 . . ?
H18C C18' H18D 120.0 . . ?
 
loop_
 _geom_torsion_atom_site_label_1
 _geom_torsion_atom_site_label_2
 _geom_torsion_atom_site_label_3
 _geom_torsion_atom_site_label_4
 _geom_torsion
 _geom_torsion_site_symmetry_1
 _geom_torsion_site_symmetry_2
 _geom_torsion_site_symmetry_3
 _geom_torsion_site_symmetry_4
 _geom_torsion_publ_flag
C10 C1 C2 C3 -177.7(2) 2_666 . . . ?
C11 C1 C2 C3 3.5(3) . . . . ?
C10 C1 C2 C10 1.8(3) 2_666 . . . ?
C11 C1 C2 C10 -177.0(2) . . . . ?
C1 C2 C3 C4 -178.8(2) . . . . ?
C10 C2 C3 C4 1.7(3) . . . . ?
C2 C3 C4 C8 0.7(3) . . . . ?
C2 C3 C4 S5 179.93(18) . . . . ?
C3 C4 S5 C6 -177.9(3) . . . . ?
C8 C4 S5 C6 1.4(2) . . . . ?
C4 S5 C6 C7 -2.3(8) . . . . ?
C4 S5 C6 F1 179.1(3) . . . . ?
F1 C6 C7 C8 -179.1(6) . . . . ?
S5 C6 C7 C8 2.5(14) . . . . ?
C3 C4 C8 C9 -1.9(3) . . . . ?
S5 C4 C8 C9 178.76(18) . . . . ?
C3 C4 C8 C7 179.0(7) . . . . ?
S5 C4 C8 C7 -0.3(7) . . . . ?
C6 C7 C8 C9 179.6(6) . . . . ?
C6 C7 C8 C4 -1.3(13) . . . . ?
C4 C8 C9 C10 0.6(3) . . . . ?
C7 C8 C9 C10 179.6(8) . . . . ?
C8 C9 C10 C1 -178.9(2) . . . 2_666 ?
C8 C9 C10 C2 1.7(3) . . . . ?
C1 C2 C10 C1 -1.8(3) . . . 2_666 ?
C3 C2 C10 C1 177.77(19) . . . 2_666 ?
C1 C2 C10 C9 177.57(19) . . . . ?
C3 C2 C10 C9 -2.9(3) . . . . ?
C16 C15 Si1 C12 39.1(6) . . . . ?
C16 C15 Si1 C17' -82.9(8) . . . . ?
C16 C15 Si1 C13 159.5(5) . . . . ?
C16 C15 Si1 C17 -73.1(8) . . . . ?
C14 C13 Si1 C12 -46.8(3) . . . . ?
C14 C13 Si1 C17' 76.7(7) . . . . ?
C14 C13 Si1 C15 -166.7(2) . . . . ?
C14 C13 Si1 C17 65.1(7) . . . . ?
C12 Si1 C17 C18 137.2(16) . . . . ?
C17' Si1 C17 C18 -52(6) . . . . ?
C15 Si1 C17 C18 -106.4(18) . . . . ?
C13 Si1 C17 C18 21(2) . . . . ?
C12 Si1 C17' C18' -42.6(19) . . . . ?
C15 Si1 C17' C18' 76.5(17) . . . . ?
C13 Si1 C17' C18' -163.9(15) . . . . ?
C17 Si1 C17' C18' -53(6) . . . . ?
 
_refine_diff_density_max    0.536
_refine_diff_density_min   -0.490
_refine_diff_density_rms    0.079

_shelxl_version_number 2013-2

_iucr_refine_instructions_details 
;
TITL k13047s in P-1
CELL 0.71073   7.2274   7.2848  15.3896  89.633  89.354  71.732
ZERR    1.00   0.0003   0.0003   0.0007   0.002   0.002   0.002
LATT  1
SFAC C H F SI S
UNIT 34 32 2 2 2
TEMP -183
SIZE 0.30 0.20 0.06
REM Cell: 79370, 1.00, 27.48
REM FORM plate
REM COLR red
L.S. 12
ACTA
LIST 4
CONF
BOND $H
FMAP 2
PLAN 10
REM EXTI    0.000000 not needed.
WGHT    0.095600    0.317300
FVAR       0.75369   0.72752   0.62621   0.49952
C1    1    0.583190    0.518119    0.580964    11.00000    0.02536    0.02699 =
         0.03726   -0.00083   -0.00335   -0.00971
C2    1    0.381889    0.613135    0.567891    11.00000    0.02399    0.02483 =
         0.03786   -0.00048   -0.00119   -0.00859
C3    1    0.263054    0.729226    0.633559    11.00000    0.02693    0.02937 =
         0.03668   -0.00321   -0.00116   -0.00704
AFIX  43
H3    2    0.318148    0.746896    0.687396    11.00000   -1.20000
AFIX   0
EXYZ C4 C4'
EXYZ C8 C8'
EADP C4 C4'
EADP S5 C5'
EADP C6 C6'
EADP F1 F1'
EADP C7 S7'
EADP C8 C8'
SAME 0.02 C8' S7' C6' F1' C5' C4'
RIGU 0.010 C4 C8'
PART 1
C4    1    0.068758    0.815616    0.619007    21.00000    0.02523    0.02859 =
         0.03912   -0.00216    0.00214   -0.00861
S5    5   -0.102263    0.963513    0.691218    21.00000    0.02640    0.03475 =
         0.04088   -0.00672    0.00288   -0.00639
C6    1   -0.283826    0.980486    0.613718    21.00000    0.01859    0.03170 =
         0.04535   -0.00137   -0.00236   -0.00619
F1    3   -0.465212    1.086546    0.637641    21.00000    0.02112    0.04600 =
         0.05016   -0.00707    0.00322   -0.00317
C7    1   -0.224733    0.891498    0.539091    21.00000    0.01471    0.03236 =
         0.05233   -0.00016    0.00092   -0.00815
AFIX  43
H7    2   -0.308077    0.894378    0.491457    21.00000   -1.20000
AFIX   0
C8    1   -0.018029    0.789271    0.538682    21.00000    0.02345    0.02607 =
         0.04118    0.00057   -0.00124   -0.00912
PART 2
C4'   1    0.068758    0.815616    0.619007   -21.00000    0.02523    0.02859 =
         0.03912   -0.00216    0.00214   -0.00861
C5'   1   -0.074342    0.936201    0.676778   -21.00000    0.02640    0.03475 =
         0.04088   -0.00672    0.00288   -0.00639
AFIX  43
H5'   2   -0.046824    0.972446    0.733182   -21.00000   -1.20000
AFIX   0
F1'   3   -0.416702    1.097925    0.677471   -21.00000    0.02112    0.04600 =
         0.05016   -0.00707    0.00322   -0.00317
C6'   1   -0.247738    0.990205    0.642147   -21.00000    0.01859    0.03170 =
         0.04535   -0.00137   -0.00236   -0.00619
S7'   5   -0.264554    0.904017    0.536786   -21.00000    0.01471    0.03236 =
         0.05233   -0.00016    0.00092   -0.00815
C8'   1   -0.018029    0.789271    0.538682   -21.00000    0.02345    0.02607 =
         0.04118    0.00057   -0.00124   -0.00912
PART 0
C9    1    0.093823    0.681124    0.473830    11.00000    0.02506    0.02770 =
         0.03858    0.00011   -0.00441   -0.00961
AFIX  43
H9    2    0.035493    0.665378    0.420551    11.00000   -1.20000
AFIX   0
C10   1    0.296976    0.592014    0.485603    11.00000    0.02437    0.02277 =
         0.03857   -0.00167   -0.00146   -0.00855
C11   1    0.666356    0.531058    0.664138    11.00000    0.02531    0.02735 =
         0.03918   -0.00416    0.00140   -0.00714
C12   1    0.735962    0.536206    0.734571    11.00000    0.02817    0.03514 =
         0.04029   -0.00208    0.00100   -0.00800
C13   1    1.103179    0.504529    0.834532    11.00000    0.03566    0.07846 =
         0.04309    0.00328   -0.01202   -0.00900
AFIX  23
H13A  2    1.115367    0.630992    0.816552    11.00000   -1.20000
H13B  2    1.162316    0.473573    0.892686    11.00000   -1.20000
AFIX   0
C14   1    1.218048    0.352419    0.771187    11.00000    0.04604    0.07239 =
         0.08010    0.00267    0.00536   -0.00689
AFIX 137
H14A  2    1.211287    0.225508    0.789401    11.00000   -1.50000
H14B  2    1.354316    0.350262    0.770132    11.00000   -1.50000
H14C  2    1.162992    0.382901    0.712971    11.00000   -1.50000
AFIX   0
EXYZ C15 C15'
EADP C15 C15'
EADP C16 C16'
SAME 0.020 C15' C16'
RIGU 0.010 C15 C16
RIGU 0.010 C15' C16'
ISOR 0.005 C16 C16'
PART 1
C15   1    0.700804    0.752805    0.902006    31.00000    0.04601    0.06645 =
         0.04340   -0.01303   -0.00145   -0.01612
AFIX  23
H15A  2    0.722453    0.730960    0.965154    31.00000   -1.20000
H15B  2    0.754569    0.857022    0.884479    31.00000   -1.20000
AFIX   0
C16   1    0.481748    0.821630    0.885768    31.00000    0.06979    0.06908 =
         0.08636   -0.03080    0.00320   -0.00278
AFIX 137
H16A  2    0.458184    0.837043    0.823156    31.00000   -1.50000
H16B  2    0.422338    0.945915    0.914766    31.00000   -1.50000
H16C  2    0.424086    0.726117    0.908956    31.00000   -1.50000
AFIX   0
PART 2
C15'  1    0.700804    0.752805    0.902006   -31.00000    0.04601    0.06645 =
         0.04340   -0.01303   -0.00145   -0.01612
AFIX  23
H15C  2    0.667210    0.711303    0.959835   -31.00000   -1.20000
H15D  2    0.794985    0.823799    0.912302   -31.00000   -1.20000
AFIX   0
C16'  1    0.534390    0.887301    0.872252   -31.00000    0.06979    0.06908 =
         0.08636   -0.03080    0.00320   -0.00278
AFIX 137
H16D  2    0.529575    0.878842    0.808835   -31.00000   -1.50000
H16E  2    0.534625    1.017030    0.888589   -31.00000   -1.50000
H16F  2    0.420158    0.862054    0.898090   -31.00000   -1.50000
AFIX   0
PART 0

EADP C17 C17'
SAME 0.020 Si1 C17' C18'
DFIX 1.299 0.020 C17 C18 C17' C18'
RIGU 0.010 C17 C18 C17' 18'
SI1   4    0.838182    0.528416    0.843792    11.00000    0.03632    0.04849 =
         0.03362    0.00041   -0.00353   -0.00959
PART 1
C17   1    0.798668    0.303559    0.890537    41.00000    0.09060    0.07166 =
         0.03230    0.00614   -0.01344   -0.04051
AFIX  43
H17   2    0.676616    0.284922    0.879805    41.00000   -1.20000
AFIX   0
C18   1    0.924007    0.171117    0.936345    41.00000    0.12225    0.07551 =
         0.11993    0.05193   -0.07100   -0.06936
AFIX  93
H18A  2    1.047949    0.183701    0.948698    41.00000   -1.20000
H18B  2    0.891224    0.062209    0.957308    41.00000   -1.20000
AFIX   0
PART 2
C17'  1    0.814689    0.324451    0.910542   -41.00000    0.09060    0.07166 =
         0.03230    0.00614   -0.01344   -0.04051
AFIX  43
H17'  2    0.921806    0.252601    0.944775   -41.00000   -1.20000
AFIX   0
C18'  1    0.658839    0.277651    0.911880   -41.00000    0.09820    0.09406 =
         0.15338    0.06172   -0.03291   -0.06079
AFIX  93
H18C  2    0.550537    0.348187    0.877981   -41.00000   -1.20000
H18D  2    0.651014    0.172244    0.946777   -41.00000   -1.20000

PART 0

AFIX   0
HKLF 4

REM  k13047s in P-1
REM R1 =  0.0583 for    2619 Fo > 4sig(Fo)  and  0.0779 for all    3561 data
REM    214 parameters refined using     40 restraints

END

WGHT      0.0953      0.3211

REM Highest difference peak  0.536,  deepest hole -0.490,  1-sigma level  0.079
Q1    1   0.8119  0.4123  0.8695  11.00000  0.05    0.54
Q2    1   0.5895  0.8804  0.8812  11.00000  0.05    0.46
Q3    1   0.4783  0.7562  0.9112  11.00000  0.05    0.45
Q4    1   0.8457  0.3192  0.9704  11.00000  0.05    0.34
Q5    1   0.8301  0.2278  0.9911  11.00000  0.05    0.32
Q6    1   0.3600  0.5048  0.4621  11.00000  0.05    0.30
Q7    1   0.0603  0.7706  0.4925  11.00000  0.05    0.29
Q8    1   0.3496  0.6016  0.5205  11.00000  0.05    0.29
Q9    1  -0.2733  0.9534  0.4982  11.00000  0.05    0.28
Q10   1   0.6158  0.4687  0.5681  11.00000  0.05    0.28
;
_shelx_res_checksum   35098

_shelx_hkl_file
;
  -1   0   0  230.24   13.98
  -1   0   0  238.46   16.19
  -1   0   0  231.74   15.05
  -1   0   0  232.94   16.56
   1   0   0  227.13   13.88
   1   0   0  235.12   19.31
   1   0   0  247.57   10.54
   1   0   0  219.31   16.61
  -1   0   0  243.26   13.33
   1   0   0  248.63   11.44
   1   0   0  253.78   12.72
  -2   0   0  557.85   39.41
  -2   0   0  552.44   31.77
  -2   0   0  541.04   37.23
  -2   0   0  554.27   31.38
   2   0   0  586.81   40.66
   2   0   0  534.25   35.76
   2   0   0  611.27   25.29
   2   0   0  574.28   45.88
  -2   0   0  578.28   28.68
   2   0   0  603.54   32.21
   2   0   0  604.24   31.04
  -3   0   0   35.19    1.99
  -3   0   0   35.35    2.04
  -3   0   0   35.36    2.63
  -3   0   0   33.30    2.46
   3   0   0   36.97    2.67
   3   0   0   32.59    2.83
   3   0   0   39.31    2.32
  -3   0   0   35.07    3.52
   3   0   0   28.19    3.61
   3   0   0   39.09    4.02
  -4   0   0    0.24    0.71
  -4   0   0    0.82    0.68
  -4   0   0    1.73    0.92
  -4   0   0    1.15    0.75
   4   0   0    0.95    0.85
   4   0   0    1.52    1.12
   4   0   0   -1.01    1.01
   4   0   0    0.66    0.83
  -4   0   0    3.93    3.44
  -4   0   0   -2.67    2.67
   4   0   0    1.11    3.82
   4   0   0    1.17    4.37
  -5   0   0  173.97   10.91
  -5   0   0  167.46   12.80
   5   0   0  175.91   15.51
   5   0   0  141.72   12.25
  -5   0   0  192.66   10.46
  -5   0   0  204.39   13.31
   5   0   0  160.23   14.05
  -6   0   0   72.28    5.88
  -6   0   0   76.17    6.16
   6   0   0   66.92    5.39
   6   0   0   71.48    5.71
  -6   0   0   98.02   11.20
  -6   0   0   81.57    9.15
  -7   0   0   12.50    2.35
  -7   0   0   14.49    2.21
   7   0   0   11.85    2.38
   7   0   0   12.65    2.57
  -7   0   0   12.91    8.56
  -8   0   0    2.58    2.51
  -8   0   0    6.26    2.46
   8   0   0    7.00    3.29
   8   0   0    8.77    3.07
  -8   0   0    5.14   11.22
   8  -1   0   11.62    3.01
  -8   1   0   10.92    3.01
  -8   1   0   13.69    3.07
  -8   1   0    3.12   13.29
   7  -1   0    8.31    2.63
   7  -1   0    7.93    2.19
  -7   1   0   10.11    2.39
  -7   1   0   12.52    2.52
  -7   1   0    6.21    7.97
   6  -1   0   82.94    6.27
   6  -1   0   81.28    6.22
  -6   1   0   85.62    6.17
  -6   1   0   96.45    8.53
  -6   1   0   92.27   10.64
  -6   1   0  123.09   13.61
   5  -1   0  160.52   11.46
  -5   1   0  153.94   12.78
  -5   1   0  158.53   11.87
   5  -1   0  155.85   14.94
  -5   1   0  183.11   13.77
  -5   1   0  192.67   12.30
   4  -1   0  111.75    5.67
   4  -1   0  109.51    5.34
   4  -1   0  107.18    7.75
   4  -1   0  108.11   10.16
  -4   1   0  120.98    9.77
  -4   1   0  121.78    9.74
  -4   1   0  103.99    6.22
   4  -1   0  106.86    9.42
  -4   1   0  118.66    8.24
  -4   1   0  124.76    7.47
   3  -1   0  258.24   18.79
   3  -1   0  260.56   25.36
   3  -1   0  242.58   12.49
   3  -1   0  242.52   13.37
   3  -1   0  262.00   23.91
   3  -1   0  277.70   25.74
   3  -1   0  269.56   17.17
  -3   1   0  242.31   18.35
  -3   1   0  253.49   20.06
  -3   1   0  258.47   21.39
   3  -1   0  273.42   10.27
   3  -1   0  281.25   16.04
  -3   1   0  243.63   11.80
  -3   1   0  252.44   13.19
   2  -1   0  723.52   44.60
   2  -1   0  742.24   55.45
   2  -1   0  722.23   49.81
   2  -1   0  653.33   39.19
   2  -1   0  710.04   57.46
  -2   1   0  715.37   53.40
  -2   1   0  701.82   46.71
  -2   1   0  680.83   52.28
   2  -1   0  808.47   28.79
   2  -1   0  781.19   31.05
  -2   1   0  696.66   26.13
  -2   1   0  732.58   31.03
   1  -1   0   12.40    1.01
   1  -1   0   12.42    0.93
   1  -1   0   13.20    0.80
   1  -1   0   12.20    1.04
   1  -1   0   14.05    1.08
  -1   1   0   13.49    1.05
  -1   1   0   12.70    0.94
  -1   1   0   12.66    1.02
  -1   1   0   11.48    0.96
  -1   1   0   13.29    1.15
   1  -1   0   11.61    0.93
   1  -1   0   12.45    0.94
  -1   1   0   11.19    0.90
  -1   1   0   10.51    0.92
   0  -1   0  379.03   32.45
   0  -1   0  345.92   18.94
   0  -1   0  305.88   23.47
   0  -1   0  335.20   20.73
   0  -1   0  431.62   31.62
   0  -1   0  404.89   28.87
   0   1   0  364.96   25.92
   0   1   0  295.00   21.18
   0   1   0  340.57   24.04
   0   1   0  323.49   23.94
   0  -1   0  366.15   14.26
   0  -1   0  310.91   12.11
   0   1   0  337.37   15.94
   0   1   0  336.62   16.14
  -1  -1   0   35.41    2.25
  -1  -1   0   35.94    1.98
  -1  -1   0   39.58    3.51
  -1  -1   0   34.86    2.12
  -1  -1   0   35.14    2.49
   1   1   0   33.58    2.14
   1   1   0   36.46    2.13
   1   1   0   37.48    2.25
   1   1   0   32.26    2.11
   1   1   0   36.32    2.14
   1   1   0   34.88    2.07
  -1  -1   0   32.31    2.22
  -1  -1   0   34.15    2.31
   1   1   0   31.37    2.70
   1   1   0   35.70    2.47
  -2  -1   0  590.46   33.67
  -2  -1   0  583.56   32.50
  -2  -1   0  579.94   29.89
  -2  -1   0  594.93   40.26
  -2  -1   0  645.94   39.04
   2   1   0  606.22   38.27
   2   1   0  619.82   37.08
   2   1   0  602.81   33.21
   2   1   0  536.96   29.54
   2   1   0  561.48   34.33
  -2  -1   0  617.29   35.20
  -2  -1   0  614.92   29.47
   2   1   0  622.22   35.97
   2   1   0  626.77   29.86
  -3  -1   0  321.44   22.02
  -3  -1   0  324.91   18.49
  -3  -1   0  340.20   17.54
  -3  -1   0  332.95   20.95
   3   1   0  315.34   20.13
   3   1   0  308.81   15.47
   3   1   0  308.64   24.37
   3   1   0  311.49   18.17
   3   1   0  309.35   15.91
  -3  -1   0  329.17   13.58
  -3  -1   0  340.37   14.20
   3   1   0  363.93   18.14
   3   1   0  342.64   19.37
  -4  -1   0  271.58   13.20
  -4  -1   0  283.93   15.69
  -4  -1   0  263.32   15.89
  -4  -1   0  272.26   14.96
  -4  -1   0  253.25   18.22
   4   1   0  267.54   15.31
   4   1   0  257.79   19.08
   4   1   0  247.87   21.22
   4   1   0  255.97   13.94
   4   1   0  233.27   12.99
  -4  -1   0  295.03   12.24
   4   1   0  296.93   18.60
   4   1   0  321.40   19.24
  -5  -1   0   89.41    6.15
  -5  -1   0   88.91    5.71
  -5  -1   0   86.92    5.37
   5   1   0   92.88    5.58
   5   1   0   77.01    6.45
  -5  -1   0   86.65    7.10
  -5  -1   0  106.45    8.81
   5   1   0   84.50    9.77
  -6  -1   0  163.22   12.92
  -6  -1   0  160.53    8.70
  -6  -1   0  160.16   11.93
   6   1   0  176.68   11.84
   6   1   0  150.93   10.78
  -6  -1   0  188.67   15.65
  -6  -1   0  179.23   13.33
   6   1   0  185.63   16.89
  -7  -1   0   21.90    2.63
  -7  -1   0   19.69    2.45
  -7  -1   0   23.27    2.50
   7   1   0   20.29    2.78
   7   1   0   25.96    3.05
  -7  -1   0   12.32    9.03
  -8  -1   0   -0.48    2.33
  -8  -1   0    2.97    2.55
   8   1   0    1.91    2.69
   8   1   0    3.00    2.36
  -8  -1   0    4.76   12.08
  -9  -1   0    4.01    3.10
  -9  -1   0    3.84    2.78
   9   1   0    0.74    3.88
   9   1   0    6.76    2.78
  -9  -1   0  -15.88   15.88
   8  -2   0    1.30    1.81
   8  -2   0    0.20    1.12
  -8   2   0   -1.58    1.58
  -8   2   0    1.68    1.23
  -8   2   0   -6.96    6.96
   7  -2   0    1.65    2.62
   7  -2   0   10.29    2.81
  -7   2   0    7.72    2.32
  -7   2   0    4.64    2.37
  -7   2   0   19.87    9.41
   6  -2   0    8.97    2.34
   6  -2   0    3.60    2.08
  -6   2   0    6.54    2.06
  -6   2   0    7.43    1.97
  -6   2   0   13.34    6.29
  -6   2   0   15.35    9.60
   5  -2   0   12.18    1.74
   5  -2   0   13.98    2.25
  -5   2   0   14.16    1.91
  -5   2   0   12.30    2.19
  -5   2   0   14.60    4.61
  -5   2   0   15.85    6.07
   4  -2   0    5.36    1.21
   4  -2   0    4.75    1.06
   4  -2   0    3.37    0.86
   4  -2   0    4.12    1.35
  -4   2   0    4.84    1.16
  -4   2   0    5.79    1.20
   4  -2   0    5.79    5.06
  -4   2   0    6.88    3.27
  -4   2   0    0.81    2.74
   3  -2   0  296.02   28.69
   3  -2   0  291.01   16.72
   3  -2   0  285.83   22.60
   3  -2   0  296.47   23.24
   3  -2   0  290.63   14.97
   3  -2   0  316.15   25.46
  -3   2   0  309.13   27.92
  -3   2   0  278.53   18.42
  -3   2   0  318.50   34.64
   3  -2   0  328.69   19.20
   3  -2   0  335.06   17.31
  -3   2   0  291.80   23.76
  -3   2   0  297.03   16.55
   2  -2   0   19.55    2.12
   2  -2   0   20.06    1.61
   2  -2   0   19.45    1.33
   2  -2   0   24.66    2.28
   2  -2   0   18.89    1.30
   2  -2   0   16.95    2.20
   2  -2   0   20.74    2.06
  -2   2   0   19.55    2.09
  -2   2   0   19.98    1.78
  -2   2   0   18.04    1.47
  -2   2   0   19.67    1.95
  -2   2   0   13.46    2.06
   2  -2   0   18.49    2.32
   2  -2   0   19.08    2.04
  -2   2   0   16.11    2.01
  -2   2   0   13.54    1.63
   1  -2   0   88.54    6.35
   1  -2   0  108.09   10.04
   1  -2   0  107.97    5.08
   1  -2   0  101.39   10.00
   1  -2   0   83.58    6.25
   1  -2   0  101.03    9.52
   1  -2   0  100.39    5.28
   1  -2   0  103.63   10.06
  -1   2   0  110.65   11.33
  -1   2   0  100.89    8.12
  -1   2   0  108.69    8.13
   0  -2   0  613.38   33.63
   0  -2   0  570.50   35.92
   0  -2   0  756.77   66.16
   0  -2   0  718.01   67.94
   0  -2   0  615.40   32.99
   0  -2   0  544.73   44.18
   0  -2   0  789.61   70.92
   0   2   0  600.00   37.06
   0   2   0  645.31   53.95
   0   2   0  673.89   53.87
   0   2   0  666.39   49.79
   0  -2   0  628.04   20.98
   0  -2   0  660.66   28.29
   0   2   0  638.55   25.98
   0   2   0  577.75   33.56
  -1  -2   0 1069.92   77.46
  -1  -2   0 1232.16  139.87
  -1  -2   0  992.04   71.15
   1   2   0  991.66  121.20
   1   2   0  932.09  116.97
  -1  -2   0 1021.14   49.65
  -1  -2   0  860.66   47.97
   1   2   0  692.96   84.19
   1   2   0  881.64   95.14
  -2  -2   0   89.99    4.93
  -2  -2   0   93.84    4.30
  -2  -2   0   78.83    5.11
  -2  -2   0   88.24    6.40
  -2  -2   0   76.62    4.98
   2   2   0   69.10    5.19
   2   2   0   70.98    6.77
   2   2   0   78.22    8.82
   2   2   0   72.80    5.08
   2   2   0   80.41    5.89
   2   2   0   82.70    5.43
  -2  -2   0   94.86    4.92
  -2  -2   0   82.15    4.96
   2   2   0   80.48    6.47
   2   2   0   87.66    5.95
  -3  -2   0  112.07    5.87
  -3  -2   0  110.39    6.66
  -3  -2   0  113.94    6.05
  -3  -2   0  122.47    7.11
  -3  -2   0  113.32    6.79
   3   2   0  114.75    6.06
   3   2   0  112.29    6.30
   3   2   0  120.10    7.53
   3   2   0  116.64    6.60
   3   2   0  117.38    8.25
  -3  -2   0  118.39    6.44
  -3  -2   0  119.71    6.43
   3   2   0  111.48    7.73
   3   2   0  121.90    6.80
  -4  -2   0  873.86   55.11
  -4  -2   0  798.43   40.11
  -4  -2   0  788.24   46.25
  -4  -2   0  791.64   55.16
  -4  -2   0  800.54   44.99
   4   2   0  855.06   50.88
   4   2   0  741.58   43.03
   4   2   0  853.63   51.00
   4   2   0  825.99   54.40
   4   2   0  768.31   45.01
  -4  -2   0  904.56   34.01
  -4  -2   0  943.63   35.89
   4   2   0  952.99   45.24
   4   2   0  979.79   50.00
  -5  -2   0   32.44    1.87
  -5  -2   0   31.37    2.11
  -5  -2   0   31.76    2.03
   5   2   0   29.23    1.93
   5   2   0   32.65    2.26
   5   2   0   29.33    2.66
  -5  -2   0   29.45    6.07
  -5  -2   0   30.21    5.60
   5   2   0   31.02    7.89
   5   2   0   26.52    7.23
  -6  -2   0    3.42    1.32
  -6  -2   0    1.89    0.73
  -6  -2   0    3.55    1.26
  -6  -2   0    2.01    1.08
   6   2   0    1.06    1.51
   6   2   0    1.48    0.84
   6   2   0    1.12    1.31
  -6  -2   0    1.10    9.07
  -6  -2   0    1.56    5.94
   6   2   0   -9.51    9.51
  -7  -2   0  189.37   11.97
  -7  -2   0  189.89   11.68
  -7  -2   0  184.32   12.15
   7   2   0  200.87   13.78
   7   2   0  198.08   11.76
  -7  -2   0  253.95   17.53
  -8  -2   0    1.77    1.89
  -8  -2   0    0.97    1.98
  -8  -2   0    2.12    1.72
   8   2   0   -1.62    2.10
   8   2   0    0.29    1.98
  -8  -2   0   -7.67    9.40
  -9  -2   0    0.30    1.60
  -9  -2   0    0.68    1.73
   9   2   0    4.11    2.13
   9   2   0    3.98    1.88
  -9  -2   0    7.70    9.08
   7  -3   0   64.21    6.06
   7  -3   0   54.91    4.91
  -7   3   0   57.49    5.78
  -7   3   0   56.07    4.96
  -7   3   0   48.46   11.15
   6  -3   0   52.95    4.38
   6  -3   0   52.72    4.52
  -6   3   0   43.59    4.40
  -6   3   0   47.64    4.23
  -6   3   0   59.71    9.51
  -6   3   0   65.43   11.66
   5  -3   0   24.72    2.48
   5  -3   0   19.75    2.28
  -5   3   0   18.64    2.60
  -5   3   0   21.19    2.30
  -5   3   0   24.09    6.37
  -5   3   0   25.56    6.22
   4  -3   0    9.03    1.20
  -4   3   0    6.87    1.64
  -4   3   0    9.14    1.58
  -4   3   0    5.93    2.81
  -4   3   0    2.96    3.22
   3  -3   0    2.17    0.89
   3  -3   0    1.33    1.15
   3  -3   0    4.18    1.14
   3  -3   0    2.22    1.08
   3  -3   0    2.83    1.38
  -3   3   0    2.16    1.21
  -3   3   0    3.16    1.33
  -3   3   0    2.80    1.12
   3  -3   0    2.06    2.58
  -3   3   0    0.92    2.34
  -3   3   0    2.93    2.03
   2  -3   0  114.43   11.89
   2  -3   0  128.94    7.21
   2  -3   0  128.09   13.21
   2  -3   0  122.52   11.53
   2  -3   0  120.69    6.74
   2  -3   0  103.01    7.48
   2  -3   0  124.70   13.36
   2  -3   0  119.90    7.62
   2  -3   0  124.33    6.29
  -2   3   0  125.93   13.20
  -2   3   0  129.51   11.62
   1  -3   0  388.37   28.50
   1  -3   0  352.63   27.58
   1  -3   0  407.19   34.46
   1  -3   0  431.31   45.71
   1  -3   0  425.09   39.09
   1  -3   0  409.49   22.62
   1  -3   0  407.65   19.67
   1  -3   0  422.15   45.41
   1  -3   0  365.71   21.83
  -1   3   0  437.07   37.33
  -1   3   0  390.37   33.72
  -1   3   0  451.49   48.56
   0  -3   0  130.16    6.53
   0  -3   0  114.32    9.22
   0  -3   0  122.68    6.99
   0  -3   0  155.36   13.43
   0  -3   0  128.44    6.97
   0  -3   0  143.34   13.54
   0  -3   0  141.96   13.13
   0   3   0  125.94   10.48
   0   3   0  132.99   12.02
   0   3   0  133.23   10.88
   0   3   0  120.94    7.00
   0  -3   0  136.06    8.44
   0   3   0  119.61    4.42
   0   3   0  121.13    8.63
  -1  -3   0  367.54   18.11
  -1  -3   0  335.84   25.57
  -1  -3   0  445.90   53.34
  -1  -3   0  363.27   19.79
  -1  -3   0  353.49   21.99
   1   3   0  390.52   34.19
   1   3   0  361.36   28.33
   1   3   0  315.73   20.95
   1   3   0  386.77   31.30
  -1  -3   0  351.00   16.10
  -1  -3   0  404.42   16.39
   1   3   0  355.43   18.67
   1   3   0  330.43   22.83
  -2  -3   0  837.70   61.74
  -2  -3   0  844.41   65.01
  -2  -3   0  786.72   57.14
  -2  -3   0  816.86   42.52
  -2  -3   0  779.62   39.42
  -2  -3   0  837.35   68.29
   2   3   0  806.37   45.25
   2   3   0  814.73   65.64
   2   3   0  759.35   60.52
   2   3   0  736.84   56.89
  -2  -3   0  890.09   39.36
  -2  -3   0  904.28   28.43
   2   3   0  776.78   48.45
   2   3   0  863.04   56.58
  -3  -3   0   83.46    5.63
  -3  -3   0   83.40    5.50
  -3  -3   0   85.17    5.06
  -3  -3   0   85.24    4.79
  -3  -3   0   84.41    5.41
   3   3   0   78.44    4.23
   3   3   0   81.43    5.23
   3   3   0   88.40    5.44
   3   3   0   82.62    5.05
   3   3   0   79.07    5.93
   3   3   0   77.76    5.11
  -3  -3   0  100.20    6.38
  -3  -3   0   86.80    5.88
   3   3   0   78.57    7.56
   3   3   0   80.98    7.13
  -4  -3   0   12.30    1.64
  -4  -3   0   14.64    1.33
  -4  -3   0   14.61    1.31
  -4  -3   0   13.42    1.50
   4   3   0   14.97    1.36
   4   3   0   10.69    1.39
   4   3   0   14.71    1.45
   4   3   0   15.02    1.57
   4   3   0   10.18    1.43
   4   3   0   11.97    1.60
  -4  -3   0   22.32    5.91
  -4  -3   0    4.99    4.01
   4   3   0   13.80    6.36
   4   3   0    9.80    5.78
  -5  -3   0   54.08    3.21
  -5  -3   0   52.18    3.69
  -5  -3   0   53.11    2.83
  -5  -3   0   54.66    3.49
   5   3   0   50.97    3.17
   5   3   0   59.49    4.25
  -5  -3   0   42.06    6.40
   5   3   0   56.72   10.01
   5   3   0   40.84    7.95
  -6  -3   0   38.10    3.09
  -6  -3   0   42.03    2.65
  -6  -3   0   41.37    2.48
   6   3   0   39.81    2.86
   6   3   0   48.03    3.37
   6   3   0   50.07    3.01
  -6  -3   0   53.42   11.89
  -6  -3   0   35.87    8.57
   6   3   0   44.22   12.00
  -7  -3   0    8.67    1.70
  -7  -3   0   11.99    2.08
  -7  -3   0   12.04    1.81
   7   3   0   11.19    2.28
   7   3   0    7.61    1.84
  -7  -3   0    1.13    8.93
  -8  -3   0   20.35    3.13
  -8  -3   0   25.24    2.86
  -8  -3   0   21.24    2.53
   8   3   0   27.32    3.02
   8   3   0   21.36    3.31
  -8  -3   0   29.06   14.64
  -9  -3   0    1.12    2.70
  -9  -3   0    3.53    2.67
   9   3   0    7.05    3.16
   9   3   0    3.46    2.81
  -9  -3   0    9.35   16.12
   6  -4   0   -0.60    0.82
   6  -4   0    0.95    1.19
  -6   4   0   -0.78    1.24
  -6   4   0    1.98    1.20
  -6   4   0    2.07    2.39
  -6   4   0    0.66    2.07
   5  -4   0   -0.13    1.99
   5  -4   0    1.75    2.34
  -5   4   0    2.05    2.25
  -5   4   0    2.73    1.98
   4  -4   0    4.78    1.37
   4  -4   0    3.72    1.88
   4  -4   0    6.03    1.57
  -4   4   0    4.52    2.08
   3  -4   0    0.31    0.45
   3  -4   0    0.17    0.52
   3  -4   0    0.20    0.43
  -3   4   0    0.51    0.65
  -3   4   0   -0.26    0.63
   2  -4   0    2.29    0.85
   2  -4   0    1.59    1.01
   2  -4   0    2.55    1.08
   2  -4   0    4.03    1.34
   2  -4   0    3.18    1.46
   2  -4   0    6.01    1.38
  -2   4   0    3.18    1.25
  -2   4   0    5.10    1.42
  -2   4   0    2.73    1.66
   1  -4   0   66.32    4.02
   1  -4   0   57.47    3.52
   1  -4   0   53.33    5.04
   1  -4   0   58.22    3.58
   1  -4   0   57.47    4.08
   1  -4   0   53.85    4.87
   1  -4   0   52.48    4.32
   1  -4   0   53.94    3.73
   1  -4   0   58.53    5.63
  -1   4   0   65.11    5.37
  -1   4   0   63.51    4.93
  -1   4   0   73.68    5.94
   0  -4   0  211.29   17.06
   0  -4   0  184.25   10.77
   0  -4   0  171.79   12.04
   0  -4   0  192.70   11.53
   0  -4   0  202.23   19.41
   0  -4   0  197.62   11.09
   0   4   0  187.16   15.52
   0   4   0  191.70   17.04
   0   4   0  175.57   10.00
   0   4   0  215.80   18.80
   0  -4   0  189.73    8.76
   0  -4   0  197.87   13.15
   0   4   0  179.46   13.16
   0   4   0  181.04    6.34
  -1  -4   0  210.66   15.41
  -1  -4   0  240.48   15.17
  -1  -4   0  247.70   13.70
  -1  -4   0  259.40   13.73
   1   4   0  274.64   21.01
   1   4   0  245.75   13.02
   1   4   0  262.07   20.17
   1   4   0  250.53   22.09
  -1  -4   0  237.46   16.37
   1   4   0  227.58   11.23
   1   4   0  218.84   16.16
  -2  -4   0  114.18   14.91
  -2  -4   0  118.02   14.23
  -2  -4   0  110.71    9.01
  -2  -4   0  103.36   15.00
  -2  -4   0  113.05   14.50
   2   4   0   79.46    6.11
   2   4   0   93.89    5.36
   2   4   0  119.48   18.40
   2   4   0   96.14    9.29
  -2  -4   0  104.56   12.35
   2   4   0   95.88   15.10
   2   4   0   97.79    9.38
  -3  -4   0    2.78    0.98
  -3  -4   0    3.76    2.17
  -3  -4   0   -1.00    1.43
  -3  -4   0    1.03    0.77
   3   4   0    0.97    1.31
   3   4   0    2.33    1.88
   3   4   0    2.77    1.39
  -3  -4   0    0.67    3.93
   3   4   0   -2.38    4.08
   3   4   0    5.95    4.43
  -4  -4   0  359.34   18.57
  -4  -4   0  359.66   22.44
  -4  -4   0  345.04   26.50
  -4  -4   0  345.87   25.44
   4   4   0  361.38   17.63
   4   4   0  349.13   22.75
   4   4   0  372.31   19.20
   4   4   0  388.85   24.87
   4   4   0  353.80   27.23
  -4  -4   0  358.35   24.41
   4   4   0  395.44   31.98
   4   4   0  408.48   30.13
  -5  -4   0  115.80    6.62
  -5  -4   0  111.56    5.75
  -5  -4   0  112.34    7.86
  -5  -4   0  114.29    6.54
   5   4   0  111.33    6.99
   5   4   0  114.37    6.32
   5   4   0  103.69    6.80
   5   4   0  115.29    6.39
   5   4   0  119.45    5.99
  -5  -4   0  116.94   13.43
  -5  -4   0  105.63   10.59
   5   4   0   93.38   14.27
   5   4   0  121.39   13.19
  -6  -4   0   13.41    1.66
  -6  -4   0   14.81    1.43
   6   4   0   14.61    2.09
   6   4   0   14.20    1.93
   6   4   0   12.60    1.91
   6   4   0   13.42    1.61
  -6  -4   0    9.98    8.79
   6   4   0    4.56   12.19
  -7  -4   0  161.67    8.84
  -7  -4   0  169.98    9.92
   7   4   0  167.28   11.04
   7   4   0  186.90   10.32
   7   4   0  171.18   11.51
  -7  -4   0  175.59   17.70
   7   4   0  148.35   21.25
  -8  -4   0    8.41    2.71
  -8  -4   0   14.31    2.33
  -8  -4   0   14.21    2.57
   8   4   0   12.55    2.84
   8   4   0   11.48    2.60
   8   4   0    9.14    2.80
  -8  -4   0   14.19   15.94
  -9  -4   0    7.39    3.15
  -9  -4   0    9.85    3.17
   9   4   0    8.53    3.56
   9   4   0   10.87    3.80
  -6   5   0   -0.31    3.03
   5  -5   0   13.92    2.73
   5  -5   0   13.99    2.66
  -5   5   0    7.70    2.99
   4  -5   0   10.18    2.06
   4  -5   0   10.26    1.86
   4  -5   0   12.81    2.33
  -4   5   0    7.55    2.12
   3  -5   0  238.06   14.40
   3  -5   0  233.72   14.53
   3  -5   0  220.56   16.88
  -3   5   0  203.83   19.12
   2  -5   0  140.94    8.26
   2  -5   0  145.09    9.21
   2  -5   0  133.63    8.77
  -2   5   0  161.70   13.51
   1  -5   0  271.13   16.92
   1  -5   0  265.34   17.88
   1  -5   0  270.65   18.76
  -1   5   0  253.66   19.17
  -1   5   0  301.35   22.72
   0  -5   0   79.46    5.09
   0  -5   0   76.28    5.50
   0   5   0  103.05    7.87
   0   5   0  102.21    8.72
   0   5   0   88.15    7.62
   0  -5   0   56.99    6.61
   0   5   0   80.74    4.38
   0   5   0   78.59    5.62
  -1  -5   0   69.50    4.73
  -1  -5   0   69.17    3.91
   1   5   0   82.53    7.14
   1   5   0   74.56    6.15
   1   5   0   67.05    5.62
  -1  -5   0   55.33    7.21
   1   5   0   68.72    5.94
   1   5   0   80.40    4.59
  -2  -5   0   13.31    2.02
  -2  -5   0   19.67    1.94
   2   5   0   16.32    2.50
   2   5   0   16.71    1.73
   2   5   0   17.89    1.71
  -2  -5   0   10.13    4.21
   2   5   0   19.36    4.20
   2   5   0    8.53    3.72
  -3  -5   0    0.73    0.92
  -3  -5   0    1.15    1.14
  -3  -5   0    0.39    1.02
   3   5   0    1.42    1.30
   3   5   0   -0.05    1.35
   3   5   0    3.02    1.69
  -3  -5   0    7.92    4.39
   3   5   0   -0.88    4.89
   3   5   0   -1.84    4.99
  -4  -5   0   26.93    2.36
  -4  -5   0   26.71    2.07
   4   5   0   25.19    2.39
   4   5   0   28.78    2.76
   4   5   0   30.22    7.64
   4   5   0   39.33    7.85
  -5  -5   0    1.45    1.22
  -5  -5   0    0.06    1.16
   5   5   0    2.34    0.70
   5   5   0    1.86    0.81
   5   5   0    3.10    1.84
   5   5   0    1.33    1.69
  -5  -5   0   -7.25    7.25
   5   5   0   -1.12    9.73
   5   5   0   -2.30    8.88
  -6  -5   0   25.88    2.50
  -6  -5   0   23.13    1.97
   6   5   0   20.23    2.30
   6   5   0   22.07    1.82
   6   5   0   25.68    2.64
   6   5   0   19.08    2.49
  -6  -5   0   25.92   12.01
   6   5   0   20.08   12.99
  -7  -5   0    1.05    0.92
  -7  -5   0    0.07    1.02
   7   5   0   -0.59    1.06
   7   5   0   -1.59    1.59
   7   5   0   -0.26    1.51
   7   5   0    1.03    8.88
  -8  -5   0    0.64    1.14
  -8  -5   0    0.12    0.95
  -8  -5   0    0.96    1.17
   8   5   0    1.89    1.43
   8   5   0    0.06    1.63
  -9  -5   0   -1.50    3.03
  -9  -5   0    0.29    2.38
  -9  -5   0   -1.31    2.51
   9   5   0    1.92    3.85
   9   5   0    1.69    4.08
   5  -6   0    2.77    2.52
   5  -6   0    2.82    3.14
  -5   6   0    5.48    3.85
   4  -6   0    0.48    1.33
   4  -6   0   -0.09    1.85
  -4   6   0    4.51    2.56
   3  -6   0    0.02    1.10
   3  -6   0    0.09    0.76
   3  -6   0    1.20    1.17
  -3   6   0   -1.31    1.31
  -3   6   0    0.48    1.27
   2  -6   0   56.46    4.57
   2  -6   0   53.26    3.97
   2  -6   0   56.11    4.46
  -2   6   0   71.60    7.26
   1  -6   0   11.08    1.54
   1  -6   0   10.54    1.82
   1  -6   0   14.78    1.70
  -1   6   0   11.52    2.38
   0  -6   0    7.80    1.14
   0  -6   0    9.59    1.76
   0   6   0    8.47    1.73
   0   6   0    7.55    1.67
   0   6   0    8.47    2.18
   0   6   0    3.18    2.50
   0   6   0    4.41    2.34
  -1  -6   0  158.21   10.69
  -1  -6   0  156.55    8.57
   1   6   0  155.29   11.51
   1   6   0  158.35   12.62
   1   6   0  177.61   13.46
  -1  -6   0  139.17   11.28
   1   6   0  172.68    8.74
   1   6   0  165.12   10.58
  -2  -6   0    3.88    2.39
  -2  -6   0    5.10    1.42
   2   6   0    7.04    1.39
   2   6   0    5.55    1.45
  -2  -6   0    3.25    6.99
   2   6   0   16.31    5.28
   2   6   0   12.25    4.91
  -3  -6   0   74.62    5.48
  -3  -6   0   58.42    4.20
  -3  -6   0   68.85    5.09
   3   6   0   72.29    5.19
   3   6   0   70.00    5.33
   3   6   0   78.05    6.03
   3   6   0   65.59    9.28
   3   6   0   74.71    9.41
  -4  -6   0  208.49   15.28
  -4  -6   0  184.61   12.90
   4   6   0  200.03   13.80
   4   6   0  206.50   16.04
   4   6   0  214.65   15.06
   4   6   0  206.63   19.67
   4   6   0  197.30   17.41
  -5  -6   0   10.78    1.83
  -5  -6   0   12.47    1.64
   5   6   0   13.14    2.35
   5   6   0   14.61    2.46
   5   6   0    1.69    9.63
  -6  -6   0    3.95    1.48
  -6  -6   0    3.87    1.81
   6   6   0    5.24    2.36
   6   6   0    2.60    2.16
   6   6   0    1.30   13.39
  -7  -6   0    1.98    1.20
  -7  -6   0    2.92    1.14
   7   6   0   -0.35    1.65
   7   6   0    0.48    1.18
   7   6   0   -0.77    9.13
  -8  -6   0    8.22    2.59
  -8  -6   0    7.55    2.91
   8   6   0    2.61    3.56
   8   6   0    1.30    2.11
   3  -7   0   12.05    3.28
   3  -7   0   10.11    2.63
   2  -7   0   21.95    4.01
   2  -7   0   20.50    3.02
   2  -7   0   27.32    2.97
  -2   7   0   35.67    4.68
   1  -7   0   27.65    2.48
   1  -7   0   30.54    3.39
   1  -7   0   30.43    2.65
  -1   7   0   35.72    3.75
   0  -7   0   17.35    2.99
   0   7   0   18.44    2.72
  -1  -7   0   97.89    6.64
   1   7   0   76.51    5.98
   1   7   0   87.64    7.12
   1   7   0   94.43    7.03
   1   7   0  105.64    7.88
   1   7   0   97.95    8.39
  -2  -7   0   12.62    2.18
   2   7   0   12.21    2.18
   2   7   0   13.61    2.17
   2   7   0   11.47    2.39
   2   7   0   23.40    6.92
   2   7   0    8.37    6.59
  -3  -7   0    5.04    1.57
  -3  -7   0    6.60    1.73
   3   7   0    2.86    1.70
   3   7   0    2.63    2.00
   3   7   0    5.36    1.79
   3   7   0    2.93    8.22
  -4  -7   0    7.13    1.82
   4   7   0    7.43    1.78
   4   7   0    8.33    2.18
   4   7   0   12.84    2.00
   4   7   0   15.86   10.68
  -5  -7   0    4.42    1.65
   5   7   0    5.04    2.28
   5   7   0    5.27    2.74
   5   7   0   -0.40   12.53
  -6  -7   0   13.89    2.34
   6   7   0   11.78    3.00
   6   7   0   10.21    2.23
   6   7   0   16.73   14.17
  -7  -7   0   -0.63    0.84
  -7  -7   0   -0.33    1.00
   7   7   0    0.77    1.30
   7   7   0   -0.61    0.90
   7   7   0    4.33    7.14
  -8  -7   0    9.24    3.38
  -8  -7   0    4.69    2.62
   2  -8   0   -0.49    0.95
   2  -8   0    0.25    0.90
  -2   8   0    0.48    1.15
   1  -8   0  111.05    9.49
   1  -8   0   94.97    6.82
  -1   8   0  106.91    9.55
   0  -8   0   -0.26    0.90
   0  -8   0   -0.30    0.74
   0   8   0    1.59    0.85
   0   8   0    1.97    1.19
  -1  -8   0    7.39    2.19
   1   8   0    3.84    2.15
   1   8   0    2.64    2.11
   1   8   0    1.50    1.55
   1   8   0    4.63    4.95
   1   8   0   -2.15    5.18
  -2  -8   0   52.78    4.54
   2   8   0   50.11    5.51
   2   8   0   60.26    5.07
   2   8   0   51.80    4.71
   2   8   0   53.23    9.01
  -3  -8   0   17.44    2.32
   3   8   0   15.72    2.44
   3   8   0   16.92    2.52
   3   8   0   21.95    2.84
   3   8   0   19.48   11.79
  -4  -8   0    0.03    0.57
  -4  -8   0   -0.53    0.53
   4   8   0    0.44    1.04
   4   8   0   -0.58    0.58
   4   8   0    5.42    3.40
  -5  -8   0   11.82    2.88
  -5  -8   0    6.24    2.10
   5   8   0    5.13    1.88
   5   8   0    8.21   15.03
  -6  -8   0    3.03    2.38
  -6  -8   0    7.39    2.98
   6   8   0    2.86    1.72
   6   8   0    7.15   16.65
  -7  -8   0   24.13    3.63
  -7  -8   0   17.39    3.23
   7   8   0  -10.98   23.84
  -1  -9   0   34.16    5.28
  -2  -9   0   12.26    3.40
   2   9   0    9.79    2.82
   2   9   0   14.52   10.35
  -3  -9   0   12.83    3.35
   3   9   0    8.07    2.84
   3   9   0   27.38   13.35
  -4  -9   0    4.11    2.86
   4   9   0    3.43    2.06
   4   9   0   -0.02   15.14
  -5  -9   0    9.76    3.95
   5   9   0    3.60    2.43
   5   9   0   31.47   18.65
   5   9  -1   -0.39    0.90
  -5  -9   1    0.43    0.98
   5   9  -1   13.98    6.26
   4   9  -1    3.05    2.87
  -4  -9   1    7.17    3.36
   4   9  -1    0.72   14.64
   3   9  -1    0.23    1.00
  -3  -9   1    0.61    0.82
   3   9  -1    0.01    4.68
  -2  -9   1   15.18    3.30
   2   9  -1   17.62   10.45
  -1  -9   1    2.84    1.85
  -1  -9   1    5.42    2.34
   7   8  -1    0.64    1.06
  -7  -8   1    1.11    0.99
  -7  -8   1   -0.23    0.72
   7   8  -1   -1.57    6.29
   6   8  -1   14.64    3.31
  -6  -8   1   27.24    3.95
  -6  -8   1   19.97    2.62
   6   8  -1   45.10   19.42
   5   8  -1   74.58    5.96
   5   8  -1   67.50    6.26
   5   8  -1   67.78    6.34
  -5  -8   1   88.34    7.52
  -5  -8   1   72.78    5.80
   5   8  -1   96.99   17.02
   4   8  -1    7.70    2.63
   4   8  -1    5.79    2.11
   4   8  -1    7.91    2.60
  -4  -8   1    6.47    2.03
  -4  -8   1    5.07    1.76
   4   8  -1    4.78   12.33
   3   8  -1    5.14    2.29
   3   8  -1    3.20    2.28
   3   8  -1    4.35    2.21
  -3  -8   1    4.54    1.84
  -3  -8   1    4.76    1.91
   3   8  -1    2.87    9.88
   2   8  -1   77.87    6.24
   2   8  -1   78.56    6.64
  -2  -8   1   85.00    6.22
   2   8  -1   90.80   10.43
   1   8  -1    3.09    2.58
   1   8  -1    1.00    2.05
   1   8  -1    0.03    2.83
  -1  -8   1    4.61    2.67
   1   8  -1   -4.30    5.53
   1   8  -1   -1.90    5.41
   0   8  -1    1.78    1.76
   0  -8   1    0.63    1.26
   0  -8   1    0.13    1.52
  -1   8  -1   45.34    5.51
   1  -8   1   34.86    4.00
   1  -8   1   39.96    4.43
  -2   8  -1   -0.98    3.75
   2  -8   1    2.75    2.67
   8   7  -1   -0.34    1.33
  -8  -7   1   -0.81    0.89
  -8  -7   1   -0.45    1.02
   7   7  -1   -0.62    1.11
   7   7  -1   -0.69    0.73
  -7  -7   1   -0.51    0.57
  -7  -7   1    0.91    0.76
   7   7  -1    4.02    6.91
   6   7  -1    2.55    2.81
   6   7  -1    2.03    2.32
  -6  -7   1   -1.05    1.93
  -6  -7   1   -1.81    1.81
   6   7  -1    6.17   15.71
   5   7  -1    2.31    2.56
   5   7  -1    3.74    2.20
   5   7  -1    4.21    2.66
  -5  -7   1    2.13    1.68
  -5  -7   1    2.30    2.01
   5   7  -1    5.67   12.61
   4   7  -1    4.07    2.03
   4   7  -1    5.92    2.00
   4   7  -1    2.17    2.03
  -4  -7   1    1.88    1.21
  -4  -7   1    2.77    1.51
   4   7  -1    9.82    9.62
   3   7  -1    1.69    1.36
   3   7  -1    0.67    1.41
   3   7  -1    0.29    1.70
  -3  -7   1    2.23    1.43
  -3  -7   1    2.97    1.06
   3   7  -1   -4.52    5.97
   2   7  -1    0.85    1.39
   2   7  -1    2.91    1.80
   2   7  -1    1.03    1.57
  -2  -7   1    1.91    1.29
   2   7  -1    8.47    5.51
   2   7  -1    1.03    5.32
   1   7  -1   29.33    2.99
   1   7  -1   26.97    3.01
   1   7  -1   22.47    3.20
  -1  -7   1   19.20    2.50
   1   7  -1   29.72    5.42
   1   7  -1   18.76    5.43
   0   7  -1  115.74    9.68
   0   7  -1  123.86   10.56
   0  -7   1  134.53    9.51
   0  -7   1  117.69    6.95
  -1   7  -1    8.39    2.72
   1  -7   1    4.92    1.64
   1  -7   1    5.27    2.31
   1  -7   1    5.48    1.57
  -2   7  -1   88.09    7.84
   2  -7   1   91.68    7.79
   2  -7   1   97.12    6.46
   2  -7   1   80.18    5.61
  -3   7  -1    0.32    3.46
   3  -7   1    5.70    3.04
   3  -7   1    2.59    2.15
   8   6  -1   33.53    4.58
  -8  -6   1   36.76    3.95
  -8  -6   1   31.50    3.15
   7   6  -1    1.50    2.07
   7   6  -1   -2.47    2.47
  -7  -6   1    3.62    1.86
  -7  -6   1    2.26    2.19
   7   6  -1    3.94   18.04
   6   6  -1   27.18    4.35
   6   6  -1   37.13    3.59
  -6  -6   1   34.67    2.48
  -6  -6   1   41.46    3.59
   6   6  -1   27.73   13.78
   5   6  -1   45.73    4.06
   5   6  -1   42.23    3.92
  -5  -6   1   56.46    4.13
  -5  -6   1   48.22    3.05
   5   6  -1   47.81   11.24
   4   6  -1    2.57    0.81
   4   6  -1    2.22    0.72
   4   6  -1    2.11    0.95
  -4  -6   1    2.52    0.48
  -4  -6   1    2.25    0.61
   4   6  -1    2.16    2.16
   4   6  -1    2.71    2.26
   3   6  -1   -0.70    0.87
   3   6  -1    0.90    0.99
   3   6  -1    1.98    0.98
  -3  -6   1    0.16    0.54
  -3  -6   1   -0.02    0.68
   3   6  -1   -2.35    3.61
   3   6  -1   -0.30    3.38
   2   6  -1  169.72   12.76
   2   6  -1  157.51   10.93
   2   6  -1  185.02   12.47
  -2  -6   1  170.84   11.65
   2   6  -1  165.62   12.70
   2   6  -1  155.75   13.10
  -2  -6   1  116.26   16.32
   1   6  -1   24.13    3.37
   1   6  -1   20.43    2.56
   1   6  -1   25.05    3.35
  -1  -6   1   14.68    1.23
  -1  -6   1   18.57    2.05
   1   6  -1   23.15    4.58
   1   6  -1   19.47    4.57
   0   6  -1   10.41    2.27
   0   6  -1    9.38    1.91
   0  -6   1    8.06    1.24
   0  -6   1    7.09    2.23
   0   6  -1   11.03    2.63
   0   6  -1    4.12    3.06
  -1   6  -1    1.05    1.42
   1  -6   1    0.05    0.71
   1  -6   1   -0.06    0.96
   1  -6   1    0.14    1.21
  -2   6  -1   19.89    3.38
   2  -6   1   13.07    1.61
   2  -6   1   11.65    2.08
   2  -6   1   13.28    1.86
  -3   6  -1    3.54    1.92
  -3   6  -1   -0.27    1.57
   3  -6   1    1.02    1.11
   3  -6   1    2.62    1.41
   3  -6   1    0.87    1.00
  -4   6  -1   -0.21    1.03
   4  -6   1   -0.08    0.94
  -5   6  -1   -0.51    1.06
   9   5  -1   -0.45    3.73
   9   5  -1    0.59    3.91
  -9  -5   1   -0.24    2.76
  -9  -5   1    3.64    2.94
   8   5  -1   -2.03    2.56
   8   5  -1    4.45    3.01
  -8  -5   1    2.69    2.24
  -8  -5   1    3.60    2.21
  -8  -5   1   -0.08    2.32
   7   5  -1   40.33    3.59
   7   5  -1   42.88    3.84
  -7  -5   1   39.68    3.03
  -7  -5   1   39.03    3.71
   7   5  -1   16.10   14.37
   6   5  -1   78.23    5.89
   6   5  -1   71.61    4.04
   6   5  -1   79.06    4.95
  -6  -5   1   75.11    4.06
  -6  -5   1   88.81    5.60
   6   5  -1   65.70   14.10
  -6  -5   1   78.82   13.13
   5   5  -1   13.11    0.93
   5   5  -1   11.48    0.97
   5   5  -1   13.16    2.10
   5   5  -1   12.33    2.07
  -5  -5   1   12.56    1.37
  -5  -5   1   11.26    1.72
   5   5  -1   13.63   14.51
   5   5  -1    6.17    7.15
  -5  -5   1   -2.50    6.39
   4   5  -1  132.87    8.65
   4   5  -1  135.64    9.04
  -4  -5   1  141.84    9.25
  -4  -5   1  132.81    7.15
   4   5  -1  130.80   13.73
   4   5  -1  154.05   15.34
  -4  -5   1  106.02   11.83
   3   5  -1    1.79    1.37
   3   5  -1    3.01    1.40
   3   5  -1    3.66    1.60
  -3  -5   1    2.89    0.98
  -3  -5   1    1.93    1.10
  -3  -5   1   -0.45    1.50
   3   5  -1   -2.06    5.55
   3   5  -1   -0.74    4.83
  -3  -5   1    6.46    4.96
   2   5  -1   43.02    3.82
   2   5  -1   45.25    3.74
   2   5  -1   45.65    3.89
  -2  -5   1   46.31    3.25
  -2  -5   1   45.05    3.25
   2   5  -1   47.88    5.91
   2   5  -1   47.22    5.62
  -2  -5   1   31.60    5.78
   1   5  -1   23.90    2.47
   1   5  -1   24.49    2.33
  -1  -5   1   19.53    2.05
  -1  -5   1   18.43    1.74
  -1  -5   1   23.17    2.48
  -1  -5   1   21.03    1.41
   1   5  -1   21.54    3.63
   1   5  -1   19.93    3.95
  -1  -5   1   16.26    4.61
   0   5  -1  201.28   16.97
   0   5  -1  217.95   17.71
   0   5  -1  245.34   18.72
   0  -5   1  208.40   12.24
   0  -5   1  212.62   14.12
   0   5  -1  192.70   13.58
   0   5  -1  200.35    6.85
   0  -5   1  184.53   12.31
  -1   5  -1   38.78    3.99
  -1   5  -1   48.65    4.61
   1  -5   1   38.32    3.26
   1  -5   1   40.20    2.81
   1  -5   1   39.92    2.68
  -2   5  -1   79.70    8.43
  -2   5  -1   70.10    4.60
   2  -5   1   69.16    4.07
   2  -5   1   73.14    4.91
   2  -5   1   69.13    4.37
  -3   5  -1   48.97    3.55
  -3   5  -1   57.70    5.76
   3  -5   1   48.13    3.78
   3  -5   1   55.50    3.54
   3  -5   1   46.56    3.76
  -4   5  -1   45.40    4.31
   4  -5   1   49.12    3.96
   4  -5   1   49.92    4.40
  -5   5  -1   21.65    3.24
   5  -5   1   24.43    3.09
   5  -5   1   21.49    3.77
  -6   5  -1    9.37    4.11
   9   4  -1    6.32    3.43
   9   4  -1   -4.04    4.04
  -9  -4   1    3.48    2.41
  -9  -4   1    3.80    2.79
   8   4  -1   33.96    3.56
   8   4  -1   29.53    3.29
   8   4  -1   27.47    3.59
  -8  -4   1   32.67    2.91
  -8  -4   1   32.35    3.03
  -8  -4   1   13.37   14.68
   7   4  -1    4.06    2.01
   7   4  -1    5.06    1.71
   7   4  -1    3.42    2.33
  -7  -4   1    4.46    2.17
  -7  -4   1    7.02    2.04
   7   4  -1   -8.35   16.13
  -7  -4   1    5.52   11.84
   6   4  -1   19.28    2.18
   6   4  -1   24.73    2.26
   6   4  -1   19.27    2.20
   6   4  -1   26.49    1.97
  -6  -4   1   22.27    2.02
  -6  -4   1   25.39    2.19
   6   4  -1   12.30   12.11
  -6  -4   1    2.02    9.30
   5   4  -1  279.05   15.47
   5   4  -1  260.53   13.47
   5   4  -1  248.63   21.06
   5   4  -1  259.45   15.21
   5   4  -1  259.31   15.13
  -5  -4   1  268.58   13.91
  -5  -4   1  249.80   14.03
  -5  -4   1  248.07   14.37
  -5  -4   1  255.74   11.79
   5   4  -1  282.10   19.47
   5   4  -1  294.02   26.86
  -5  -4   1  289.46   19.98
  -5  -4   1  321.98   22.18
   4   4  -1    7.96    0.70
   4   4  -1    8.25    1.69
   4   4  -1    7.12    0.72
  -4  -4   1    7.97    2.60
  -4  -4   1    7.36    1.37
  -4  -4   1    7.78    1.26
  -4  -4   1   10.77    2.11
   4   4  -1   21.21    8.92
   4   4  -1   11.50    6.67
  -4  -4   1   12.63    6.93
  -4  -4   1    0.01    4.87
   3   4  -1   33.13    2.77
   3   4  -1   38.82    2.79
  -3  -4   1   29.82    2.71
  -3  -4   1   31.07    2.31
  -3  -4   1   32.35    2.16
  -3  -4   1   33.06    2.63
   3   4  -1   25.87    5.48
   3   4  -1   27.30    4.89
  -3  -4   1   36.83    5.83
  -3  -4   1   27.92    4.86
   2   4  -1    5.53    1.01
   2   4  -1    6.15    1.03
   2   4  -1    5.86    1.01
   2   4  -1    9.67    2.04
  -2  -4   1   14.74    3.34
  -2  -4   1   10.63    1.91
  -2  -4   1   14.18    6.26
   2   4  -1    4.03    3.88
   2   4  -1    4.68    3.48
  -2  -4   1   -1.71    3.02
  -2  -4   1   13.99    4.22
   1   4  -1  703.54   35.53
   1   4  -1  657.39   58.64
   1   4  -1  739.02   62.04
   1   4  -1  711.39   58.18
  -1  -4   1  680.06   47.82
  -1  -4   1  680.35   36.87
  -1  -4   1  663.81   38.61
  -1  -4   1  721.87   45.40
   1   4  -1  714.11   47.64
   1   4  -1  690.83   54.58
  -1  -4   1  815.93   31.93
  -1  -4   1  781.62   53.98
   0   4  -1   17.05    1.93
   0   4  -1   12.16    1.34
   0   4  -1   12.84    1.46
   0   4  -1   11.53    1.51
   0  -4   1   14.10    1.08
   0  -4   1   13.33    1.28
   0  -4   1    9.47    1.72
   0  -4   1   10.00    1.70
   0  -4   1   11.03    1.56
   0  -4   1   11.26    1.22
   0  -4   1   12.84    1.32
   0   4  -1   14.06    2.28
   0   4  -1    6.69    2.37
   0  -4   1   10.24    3.11
   0  -4   1   11.38    2.44
  -1   4  -1  237.93   18.74
  -1   4  -1  223.18   20.93
  -1   4  -1  264.20   25.15
   1  -4   1  215.47   13.58
   1  -4   1  216.91   14.36
   1  -4   1  214.51   13.04
   1  -4   1  187.75   14.44
   1  -4   1  201.35   18.97
   1  -4   1  198.30   16.69
   1  -4   1  206.60   18.55
   1  -4   1  198.96   14.52
  -2   4  -1  173.35   12.32
  -2   4  -1  155.88   14.96
   2  -4   1  146.45   14.88
   2  -4   1  161.30   10.21
   2  -4   1  155.00   10.04
   2  -4   1  150.97   12.24
   2  -4   1  158.96    8.90
  -3   4  -1   11.39    1.85
  -3   4  -1    8.81    2.21
   3  -4   1    8.04    1.38
   3  -4   1   10.21    1.36
   3  -4   1    9.30    1.65
  -4   4  -1   15.17    2.48
  -4   4  -1   20.20    2.89
   4  -4   1   20.25    2.11
   4  -4   1   17.74    2.08
   4  -4   1   14.39    1.77
  -4   4  -1    0.08    0.24
  -5   4  -1    1.70    1.65
  -5   4  -1    1.23    2.15
   5  -4   1    1.74    1.81
   5  -4   1    1.65    2.04
  -5   4  -1   -0.46    3.82
  -5   4  -1    7.45    3.54
  -6   4  -1    3.69    2.16
  -6   4  -1    2.52    2.62
   6  -4   1    3.05    1.94
   6  -4   1   -0.76    2.83
  -6   4  -1   13.12    6.42
  -6   4  -1   -1.73    5.65
   9   3  -1    6.11    3.54
   9   3  -1    3.53    2.89
  -9  -3   1    1.47    2.74
  -9  -3   1    1.95    2.86
  -9  -3   1    2.49   20.10
   8   3  -1   53.70    4.64
   8   3  -1   60.56    4.74
  -8  -3   1   57.01    3.81
  -8  -3   1   54.59    4.07
  -8  -3   1   57.58    4.26
  -8  -3   1   63.85   15.86
   7   3  -1  195.86   12.95
   7   3  -1  194.12   10.24
  -7  -3   1  179.27   10.35
  -7  -3   1  180.10    9.67
  -7  -3   1  178.47   10.65
  -7  -3   1  233.74   15.63
   6   3  -1   26.43    2.11
   6   3  -1   32.71    2.45
   6   3  -1   25.79    2.54
  -6  -3   1   31.58    2.45
  -6  -3   1   27.81    2.00
  -6  -3   1   26.04    2.15
  -6  -3   1   32.15    2.17
   6   3  -1   22.39   11.99
  -6  -3   1   14.32    6.96
   5   3  -1  303.38   17.00
   5   3  -1  304.71   18.00
   5   3  -1  313.60   16.87
   5   3  -1  278.59   16.26
  -5  -3   1  296.24   16.00
  -5  -3   1  283.18   13.68
  -5  -3   1  286.19   19.23
  -5  -3   1  290.63   17.99
   5   3  -1  317.39   21.16
   5   3  -1  347.05   26.57
  -5  -3   1  338.77   21.72
  -5  -3   1  330.20   19.05
   4   3  -1  258.14   15.34
   4   3  -1  253.25   17.77
   4   3  -1  240.25   14.31
   4   3  -1  253.89   13.84
   4   3  -1  263.28   16.53
   4   3  -1  243.55   13.06
  -4  -3   1  237.07   13.73
  -4  -3   1  237.16   15.00
  -4  -3   1  239.71   16.84
  -4  -3   1  235.59   17.11
  -4  -3   1  233.11   11.21
   4   3  -1  259.47   21.22
   4   3  -1  257.00   15.12
  -4  -3   1  252.84   12.59
  -4  -3   1  288.83   15.94
   3   3  -1   46.62    3.35
   3   3  -1   46.64    3.09
   3   3  -1   48.17    3.30
   3   3  -1   47.70    2.56
   3   3  -1   48.72    3.46
  -3  -3   1   48.29    2.79
  -3  -3   1   48.15    3.36
  -3  -3   1   43.18    2.50
  -3  -3   1   46.21    2.98
  -3  -3   1   47.16    2.81
   3   3  -1   37.66    5.34
   3   3  -1   47.43    6.51
  -3  -3   1   45.21    5.07
  -3  -3   1   49.67    5.00
   2   3  -1  134.76   10.81
   2   3  -1  135.04   10.35
   2   3  -1  134.03    7.67
  -2  -3   1  131.51   11.03
  -2  -3   1  137.17    7.00
  -2  -3   1  151.94   12.18
  -2  -3   1  133.68    8.17
  -2  -3   1  137.14    9.25
  -2  -3   1  146.14    7.78
   2   3  -1  131.24    9.60
   2   3  -1  135.34   11.82
  -2  -3   1  143.06    7.58
  -2  -3   1  143.03    7.64
   1   3  -1    0.30    0.45
   1   3  -1   -0.52    0.52
   1   3  -1   -0.41    0.41
   1   3  -1    0.83    0.65
  -1  -3   1    0.24    0.37
  -1  -3   1    0.13    0.15
  -1  -3   1    0.31    0.49
  -1  -3   1   -0.16    0.49
  -1  -3   1    0.11    0.18
   1   3  -1   -0.26    1.47
   1   3  -1    1.42    1.48
  -1  -3   1    2.18    1.45
  -1  -3   1    2.34    1.31
   0   3  -1    1.20    0.33
   0   3  -1    1.67    0.30
   0   3  -1    1.02    0.47
   0  -3   1    0.97    0.30
   0  -3   1    1.02    0.41
   0  -3   1    1.31    0.38
   0  -3   1    1.70    0.30
   0  -3   1    2.10    0.41
   0  -3   1    1.24    0.45
   0   3  -1   -0.02    0.70
   0   3  -1    0.35    0.62
   0  -3   1    1.05    0.81
   0  -3   1    0.29    0.81
  -1   3  -1   37.01    3.48
  -1   3  -1   39.39    3.39
  -1   3  -1   34.35    3.96
   1  -3   1   33.53    3.54
   1  -3   1   34.36    3.08
   1  -3   1   35.58    2.15
   1  -3   1   33.40    2.25
   1  -3   1   34.25    2.69
   1  -3   1   33.22    2.39
   1  -3   1   31.65    2.33
   1  -3   1   32.33    3.59
  -2   3  -1  210.15   22.32
  -2   3  -1  184.16   19.70
  -2   3  -1  213.56   20.31
   2  -3   1  187.72   17.47
   2  -3   1  188.77   22.40
   2  -3   1  189.22   12.47
   2  -3   1  196.30   21.28
   2  -3   1  197.50   11.99
   2  -3   1  194.29   14.35
   2  -3   1  195.59   11.66
   2  -3   1  200.84   20.93
  -3   3  -1    5.54    1.65
  -3   3  -1    5.00    1.37
   3  -3   1    4.19    1.30
   3  -3   1    4.80    0.90
   3  -3   1    4.76    1.43
   3  -3   1    1.56    1.38
   3  -3   1    4.10    1.32
   3  -3   1    3.59    1.11
  -3   3  -1    8.92    2.88
  -3   3  -1    4.55    2.15
   3  -3   1   -3.56    3.56
  -4   3  -1  262.67   17.66
  -4   3  -1  257.97   23.56
   4  -3   1  255.63   15.02
   4  -3   1  237.54   14.94
   4  -3   1  267.51   16.54
   4  -3   1  239.04   16.68
  -4   3  -1  297.33   27.24
  -4   3  -1  304.52   23.07
  -5   3  -1   10.63    2.01
  -5   3  -1   10.10    2.08
   5  -3   1    7.13    1.69
   5  -3   1    7.48    1.35
   5  -3   1   11.40    1.87
  -5   3  -1    9.00    6.90
  -5   3  -1   10.49    5.42
  -6   3  -1   13.69    2.56
  -6   3  -1   10.23    2.51
   6  -3   1   11.52    2.25
  -6   3  -1   12.14   10.82
  -6   3  -1   14.43    7.01
  -7   3  -1   49.03    4.88
  -7   3  -1   47.93    4.65
   7  -3   1   67.74    5.41
   7  -3   1   57.83    5.86
  -7   3  -1   66.23   12.48
   9   2  -1    8.96    3.36
   9   2  -1    6.10    3.63
  -9  -2   1    9.58    3.40
  -9  -2   1    3.21    2.96
  -9  -2   1   11.14   21.39
   8   2  -1   13.26    2.89
   8   2  -1    9.11    2.63
  -8  -2   1   11.40    2.41
  -8  -2   1   15.22    2.99
  -8  -2   1   10.12    2.41
  -8  -2   1    3.72   13.08
   7   2  -1  112.95    7.30
   7   2  -1  108.70    7.48
  -7  -2   1  105.66    7.58
  -7  -2   1  104.44    6.75
  -7  -2   1   97.22    6.73
  -7  -2   1  117.67   13.38
   6   2  -1   35.53    2.69
   6   2  -1   35.11    2.65
  -6  -2   1   34.80    2.84
  -6  -2   1   30.45    2.18
  -6  -2   1   30.04    2.35
   6   2  -1    0.17    9.88
  -6  -2   1   -0.18    4.79
   5   2  -1   11.73    1.63
   5   2  -1   15.69    1.54
   5   2  -1   13.41    1.46
   5   2  -1   12.22    1.11
  -5  -2   1   13.77    1.10
  -5  -2   1   16.62    1.36
  -5  -2   1   15.24    1.39
  -5  -2   1   15.90    1.35
   5   2  -1   18.33    7.52
   5   2  -1   11.05    8.36
  -5  -2   1   15.60    5.11
  -5  -2   1   21.96    6.26
   4   2  -1   39.83    2.99
   4   2  -1   43.37    2.38
   4   2  -1   44.75    2.83
   4   2  -1   44.40    2.67
   4   2  -1   36.34    3.49
  -4  -2   1   44.70    2.54
  -4  -2   1   43.48    3.07
  -4  -2   1   39.80    2.14
  -4  -2   1   41.97    2.44
  -4  -2   1   40.05    2.32
   4   2  -1   35.37    6.25
   4   2  -1   43.24    5.27
  -4  -2   1   43.98    5.25
  -4  -2   1   34.33    4.35
   3   2  -1  121.38    7.74
   3   2  -1  132.55    9.19
   3   2  -1  130.70    9.05
   3   2  -1  125.74    8.09
   3   2  -1  141.86    7.66
  -3  -2   1  135.72    6.51
  -3  -2   1  129.58    7.91
  -3  -2   1  132.06    8.16
  -3  -2   1  135.58    8.26
  -3  -2   1  127.96    7.22
   3   2  -1  142.63   12.83
   3   2  -1  139.78    7.11
  -3  -2   1  138.37    6.96
  -3  -2   1  146.32    8.16
   2   2  -1  362.44   26.91
   2   2  -1  374.10   21.03
   2   2  -1  385.79   20.95
   2   2  -1  396.88   33.40
   2   2  -1  382.07   25.68
   2   2  -1  391.68   27.78
  -2  -2   1  394.96   24.53
  -2  -2   1  381.31   24.40
  -2  -2   1  389.46   22.46
  -2  -2   1  377.85   23.25
  -2  -2   1  374.04   21.79
   2   2  -1  402.02   26.83
   2   2  -1  400.29   24.81
  -2  -2   1  391.28   18.65
  -2  -2   1  407.87   17.34
  -1  -2   1 9326.72  383.11
  -1  -2   1 9688.96  422.53
   0   2  -1   63.07    5.24
   0   2  -1   63.67    5.70
   0   2  -1   56.78    3.96
   0   2  -1   66.23   10.29
   0  -2   1   78.20   12.57
   0  -2   1   57.40    5.51
   0  -2   1   79.62   11.30
   0  -2   1   55.43    4.69
   0  -2   1   72.02    7.29
   0   2  -1   52.51    4.17
   0   2  -1   51.89    4.65
   0  -2   1   59.81    3.71
   0  -2   1   64.14    5.10
  -1   2  -1  123.49   12.53
  -1   2  -1  113.76    9.85
  -1   2  -1  117.69   10.02
  -1   2  -1  117.21   13.19
   1  -2   1  105.78    6.96
   1  -2   1  110.41   11.17
   1  -2   1  116.07   11.36
   1  -2   1  104.42    9.04
   1  -2   1  106.69   10.31
   1  -2   1  108.70    6.20
   1  -2   1   87.71    6.46
  -1   2  -1  107.29    7.72
  -1   2  -1  113.63    5.17
   1  -2   1  108.14    6.40
   1  -2   1  126.45    9.59
  -2   2  -1   12.14    1.09
  -2   2  -1   12.87    1.24
  -2   2  -1   11.24    1.29
  -2   2  -1   10.89    1.73
   2  -2   1   11.45    1.14
   2  -2   1    8.96    1.79
   2  -2   1   12.09    2.57
   2  -2   1   10.12    1.38
   2  -2   1   10.65    0.97
   2  -2   1    9.65    2.07
   2  -2   1   10.54    1.72
  -2   2  -1    8.93    2.11
  -2   2  -1   10.04    1.61
   2  -2   1    9.66    2.11
   2  -2   1   13.13    2.47
  -3   2  -1   12.72    1.59
  -3   2  -1   13.55    1.34
  -3   2  -1   15.01    1.94
  -3   2  -1   15.15    1.41
   3  -2   1   11.29    1.18
   3  -2   1   13.34    1.74
   3  -2   1   14.47    2.81
   3  -2   1   13.08    1.59
   3  -2   1   17.44    1.51
  -3   2  -1   12.06    3.20
  -3   2  -1   16.05    2.38
   3  -2   1   13.36    2.97
   3  -2   1   12.98    5.55
  -4   2  -1   18.44    2.25
   4  -2   1   15.17    3.29
   4  -2   1   18.38    2.10
   4  -2   1   19.41    1.81
   4  -2   1   29.62    4.39
  -4   2  -1   29.52    5.62
  -4   2  -1   18.64    3.83
   4  -2   1   13.90    5.11
  -5   2  -1    5.04    1.66
  -5   2  -1    8.84    2.05
   5  -2   1    5.36    1.39
  -5   2  -1    0.38    1.58
  -5   2  -1    0.61    2.22
  -6   2  -1   21.92    2.48
  -6   2  -1   21.93    2.39
   6  -2   1   15.78    2.37
   6  -2   1   21.17    2.76
  -6   2  -1    6.70    7.34
  -6   2  -1   42.12   10.98
  -7   2  -1    4.77    2.39
  -7   2  -1    6.44    2.45
   7  -2   1    2.05    2.27
   7  -2   1    8.39    2.50
  -7   2  -1   16.29    9.86
  -8   2  -1    0.35    2.74
  -8   2  -1    0.64    2.87
   8  -2   1   -3.38    3.38
   8  -2   1    1.16    2.53
  -8   2  -1  -13.60   13.60
   9   1  -1    1.50    1.35
   9   1  -1   -1.08    1.08
  -9  -1   1   -0.63    1.11
  -9  -1   1    0.97    1.22
  -9  -1   1   -2.98    6.18
   8   1  -1   48.49    4.83
   8   1  -1   60.31    5.13
  -8  -1   1   59.01    4.51
  -8  -1   1   52.91    4.73
  -8  -1   1   75.00   14.67
   7   1  -1   50.32    4.44
   7   1  -1   52.11    4.16
  -7  -1   1   54.64    4.45
  -7  -1   1   55.17    4.72
  -7  -1   1   56.48    4.03
  -7  -1   1   47.13   10.59
   6   1  -1    4.78    1.55
   6   1  -1    8.22    1.47
  -6  -1   1    3.98    1.40
  -6  -1   1    4.51    1.43
  -6  -1   1    5.15    1.42
   6   1  -1   26.88   10.01
  -6  -1   1    7.70    6.45
  -6  -1   1    8.43    6.22
   5   1  -1   28.33    2.22
   5   1  -1   22.42    2.47
   5   1  -1   27.22    2.20
  -5  -1   1   27.97    2.10
  -5  -1   1   28.97    2.47
  -5  -1   1   28.70    2.05
   5   1  -1   18.99    7.20
  -5  -1   1   26.70    4.77
   4   1  -1   10.53    1.08
   4   1  -1    8.39    1.27
   4   1  -1    9.11    1.10
  -4  -1   1    9.68    1.01
  -4  -1   1    9.77    1.30
  -4  -1   1   10.00    1.14
  -4  -1   1    8.30    1.05
   4   1  -1   14.85    5.27
   4   1  -1    1.25    4.50
  -4  -1   1    6.61    3.41
  -4  -1   1    6.62    3.52
   3   1  -1 1054.16   62.22
   3   1  -1 1118.51   72.81
   3   1  -1 1243.98   66.10
   3   1  -1 1149.99   94.34
   3   1  -1 1274.46   66.48
  -3  -1   1 1153.60   66.11
  -3  -1   1 1197.98   60.75
  -3  -1   1 1185.97   65.37
  -3  -1   1 1253.93   78.30
  -3  -1   1 1185.51   54.28
  -3  -1   1 1209.54   60.08
   3   1  -1 1394.49   78.74
   3   1  -1 1379.35   63.32
  -3  -1   1 1318.20   58.65
  -3  -1   1 1323.64   51.04
   2   1  -1  492.44   31.07
   2   1  -1  455.34   28.89
   2   1  -1  532.80   30.48
   2   1  -1  499.64   29.39
   2   1  -1  489.14   36.38
  -2  -1   1  487.73   27.14
  -2  -1   1  507.05   33.57
  -2  -1   1  493.01   28.81
  -2  -1   1  517.47   27.05
  -2  -1   1  551.80   35.16
   2   1  -1  538.92   28.91
   2   1  -1  552.00   28.93
  -2  -1   1  535.58   28.13
  -2  -1   1  543.78   27.54
   1   1  -1  810.73   43.59
   1   1  -1  742.26   47.39
   1   1  -1  806.53   61.72
   1   1  -1  732.21   53.64
   1   1  -1  781.89   51.82
  -1  -1   1  783.21   47.76
  -1  -1   1  759.38   43.13
  -1  -1   1  755.83   51.82
  -1  -1   1  747.89   52.90
  -1  -1   1  786.10   51.95
  -1  -1   1  810.19   58.20
   1   1  -1  829.18   68.43
   1   1  -1  836.84   52.74
  -1  -1   1  860.20   50.29
  -1  -1   1  843.60   48.32
   0   1  -1    1.26    0.32
   0   1  -1    0.62    0.23
   0  -1   1    1.30    0.34
   0  -1   1    0.26    0.22
   0   1  -1    0.79    0.61
   0   1  -1    0.66    0.46
   0  -1   1    0.07    0.48
   0  -1   1    0.29    0.53
  -1   1  -1  180.35   14.24
  -1   1  -1  167.81   14.03
  -1   1  -1  180.77   15.15
  -1   1  -1  177.16   14.33
   1  -1   1  196.17   14.68
   1  -1   1  180.39   12.20
   1  -1   1  198.69   13.97
   1  -1   1  151.26    9.96
   1  -1   1  179.79   12.64
   1  -1   1  177.90   12.63
   1  -1   1  193.73   12.57
  -1   1  -1  204.07   12.36
  -1   1  -1  199.51    9.97
   1  -1   1  193.02    9.64
   1  -1   1  210.34   11.00
  -2   1  -1   21.42    1.80
  -2   1  -1   16.96    1.37
  -2   1  -1   17.95    1.65
  -2   1  -1   18.76    1.78
   2  -1   1   16.94    1.63
   2  -1   1   22.18    1.59
   2  -1   1   18.27    1.61
   2  -1   1   19.54    1.43
   2  -1   1   17.38    1.56
  -2   1  -1   19.57    2.30
  -2   1  -1   16.18    1.95
   2  -1   1   20.17    2.40
  -3   1  -1  139.39    9.53
  -3   1  -1  146.44   10.84
  -3   1  -1  152.58   10.03
   3  -1   1  153.16   11.26
   3  -1   1  137.63    9.23
   3  -1   1  158.84   13.07
   3  -1   1  148.67   11.91
   3  -1   1  165.56   10.76
  -3   1  -1  133.61    9.48
  -3   1  -1  151.31    7.05
   3  -1   1  148.44    7.86
   3  -1   1  149.90    8.40
  -4   1  -1   23.91    2.08
  -4   1  -1   28.18    2.21
  -4   1  -1   24.05    2.30
   4  -1   1   20.39    2.10
   4  -1   1   22.95    1.68
   4  -1   1   26.90    2.16
  -4   1  -1   23.76    4.65
  -4   1  -1   27.67    3.68
   4  -1   1   13.59    4.73
  -5   1  -1  134.56    9.13
  -5   1  -1  141.65    9.74
   5  -1   1  124.96    6.81
   5  -1   1  121.71    7.79
   5  -1   1  104.49    8.70
   5  -1   1  124.47    9.04
   5  -1   1  124.41    6.49
  -5   1  -1  153.53   14.49
  -5   1  -1  146.20    9.23
   5  -1   1  118.05   11.94
  -6   1  -1   -0.13    1.46
  -6   1  -1    0.59    1.39
   6  -1   1   -1.19    1.19
  -6   1  -1   -4.77    4.77
  -6   1  -1    5.74    6.54
  -7   1  -1   49.20    4.43
  -7   1  -1   47.91    4.25
   7  -1   1   48.21    4.20
   7  -1   1   45.74    4.31
  -7   1  -1   54.93   11.19
  -8   1  -1   23.11    3.50
  -8   1  -1   20.24    3.53
   8  -1   1   27.28    3.33
   8  -1   1   17.65    3.60
  -8   1  -1   16.37   13.52
   8   0  -1    8.46    2.92
   8   0  -1    3.09    2.39
  -8   0   1    4.55    2.51
  -8   0   1    1.35    2.40
  -8   0   1   17.67   12.28
   7   0  -1    1.75    2.03
   7   0  -1    2.10    1.75
  -7   0   1    1.31    1.93
  -7   0   1   -0.44    1.71
  -7   0   1    3.22    7.64
   6   0  -1    9.75    2.01
   6   0  -1    9.48    1.79
  -6   0   1   10.37    1.77
  -6   0   1   14.34    2.00
  -6   0   1    5.08    5.56
  -6   0   1   14.57    7.97
   5   0  -1    7.86    1.32
   5   0  -1    6.39    1.33
  -5   0   1    9.40    1.38
  -5   0   1    8.52    1.44
   5   0  -1    5.08    5.93
  -5   0   1    5.80    3.49
  -5   0   1   13.02    4.48
   4   0  -1   86.67    6.63
   4   0  -1   76.06    5.84
   4   0  -1   90.14    7.01
   4   0  -1   89.85    6.74
  -4   0   1   91.16    5.89
  -4   0   1   95.30    6.60
  -4   0   1   90.68    5.81
  -4   0   1   78.52    6.18
   4   0  -1   94.31    9.51
   4   0  -1   98.46    8.55
  -4   0   1   90.95    6.33
  -4   0   1   93.53    5.90
   3   0  -1  226.77   19.20
   3   0  -1  232.08   15.42
   3   0  -1  230.64   18.62
   3   0  -1  197.63   14.34
  -3   0   1  203.71   14.51
  -3   0   1  216.28   12.62
  -3   0   1  224.72   12.90
  -3   0   1  219.09   17.37
   3   0  -1  258.18   16.32
   3   0  -1  264.18   21.73
  -3   0   1  237.36   11.00
   2   0  -1    1.52    0.36
   2   0  -1    1.15    0.42
   2   0  -1    1.79    0.42
   2   0  -1    1.70    0.38
   2   0  -1    1.69    0.35
  -2   0   1    1.26    0.30
  -2   0   1    1.54    0.33
  -2   0   1    2.13    0.36
   2   0  -1    0.87    1.34
   2   0  -1    1.11    1.22
  -2   0   1    0.61    1.29
   1   0  -1 1486.21   80.90
   1   0  -1 1653.04  123.48
   1   0  -1 1551.94   88.23
   1   0  -1 1601.87   98.47
   1   0  -1 1473.98  105.21
  -1   0   1 1554.92   94.43
  -1   0   1 1550.01  119.65
  -1   0   1 1547.18  105.09
  -1   0   1 1407.66   77.62
   1   0  -1 1789.65  117.26
   1   0  -1 1782.68  132.15
  -1   0   1 1655.47  103.92
  -1   0  -1 1102.96   85.51
  -1   0  -1 1203.33   78.88
  -1   0  -1 1187.03   73.48
   1   0   1 1216.97   78.39
   1   0   1 1139.04   67.29
   1   0   1 1262.25   76.12
   1   0   1 1181.32   65.83
   1   0   1 1147.07   80.45
  -1   0  -1 1382.68   83.56
   1   0   1 1435.56   70.81
   1   0   1 1422.31   66.79
  -2   0  -1   56.42    3.96
  -2   0  -1   50.42    3.44
  -2   0  -1   52.62    3.52
  -2   0  -1   51.59    3.71
   2   0   1   57.29    2.90
   2   0   1   59.98    3.19
   2   0   1   52.06    3.26
   2   0   1   49.83    3.95
   2   0   1   51.87    3.99
  -2   0  -1   55.41    4.00
   2   0   1   54.82    3.46
   2   0   1   61.69    3.65
  -3   0  -1  803.20   56.72
  -3   0  -1  787.95   52.20
  -3   0  -1  831.38   53.08
  -3   0  -1  823.31   53.05
   3   0   1  905.66   44.09
   3   0   1  850.29   61.43
   3   0   1  839.84   54.57
   3   0   1  879.35   40.78
   3   0   1  789.53   62.54
  -3   0  -1  935.96   42.40
   3   0   1 1006.69   56.87
   3   0   1  978.15   43.70
  -4   0  -1   32.20    2.22
  -4   0  -1   33.95    2.35
  -4   0  -1   32.02    2.46
  -4   0  -1   27.43    2.32
   4   0   1   30.26    2.45
   4   0   1   36.08    2.59
   4   0   1   35.60    1.65
   4   0   1   28.44    2.29
   4   0   1   34.44    2.38
   4   0   1   22.96    4.76
   4   0   1   17.97    4.70
  -5   0  -1   59.69    3.68
  -5   0  -1   57.53    4.78
   5   0   1   46.46    3.88
   5   0   1   64.61    4.71
  -5   0  -1   74.66    7.88
  -5   0  -1   67.77    6.35
   5   0   1   46.79    8.11
  -6   0  -1  489.00   38.14
  -6   0  -1  484.63   31.36
   6   0   1  567.03   45.06
  -6   0  -1  586.91   44.43
  -6   0  -1  575.07   31.91
  -7   0  -1    6.19    2.07
  -7   0  -1    3.30    1.95
   7   0   1    3.52    2.13
   7   0   1    1.80    1.98
  -7   0  -1   12.78    8.84
  -8   0  -1   24.51    2.95
  -8   0  -1   15.95    2.79
   8   0   1    8.84    3.32
   8   0   1   18.51    3.19
  -8   0  -1   12.63   12.02
   8  -1  -1   83.43    6.74
   8  -1  -1   72.64    6.19
  -8   1   1   72.86    6.90
  -8   1   1   71.61    7.20
  -8   1   1   94.44   16.44
   7  -1  -1  105.84    8.70
   7  -1  -1  104.04    7.60
  -7   1   1  105.66    7.06
  -7   1   1  103.02    8.19
  -7   1   1  112.66   15.41
   6  -1  -1   21.50    2.60
   6  -1  -1   21.13    2.59
  -6   1   1   18.95    2.65
  -6   1   1   24.40    2.44
  -6   1   1   27.59    8.36
  -6   1   1   20.12    6.59
   5  -1  -1  256.16   16.79
   5  -1  -1  226.49   16.14
  -5   1   1  255.23   18.71
  -5   1   1  252.06   18.39
   5  -1  -1  235.90   18.80
  -5   1   1  280.41   17.80
  -5   1   1  275.96   19.11
   4  -1  -1   35.48    2.60
   4  -1  -1   32.45    3.72
   4  -1  -1   34.40    2.77
  -4   1   1   36.52    2.36
  -4   1   1   36.48    2.36
  -4   1   1   34.65    2.72
   4  -1  -1   21.84    4.88
  -4   1   1   31.46    4.00
  -4   1   1   25.47    3.91
   3  -1  -1  632.01   61.48
   3  -1  -1  585.67   41.43
   3  -1  -1  677.54   37.21
   3  -1  -1  714.01   61.55
   3  -1  -1  646.10   29.20
   3  -1  -1  652.44   41.04
   3  -1  -1  640.05   68.72
   3  -1  -1  646.73   27.27
  -3   1   1  636.08   45.35
  -3   1   1  662.25   44.03
  -3   1   1  635.23   38.86
   3  -1  -1  734.84   35.01
   3  -1  -1  751.77   49.14
  -3   1   1  669.78   36.75
  -3   1   1  631.52   24.81
   2  -1  -1  126.32    8.09
   2  -1  -1  159.27    9.10
   2  -1  -1  142.10   13.41
   2  -1  -1  173.29   16.99
   2  -1  -1  143.67    7.22
   2  -1  -1  158.47   10.18
   2  -1  -1  146.16   12.97
   2  -1  -1  137.85    6.36
  -2   1   1  151.60   11.52
  -2   1   1  153.92   10.54
  -2   1   1  147.89   10.48
  -2   1   1  153.74   10.24
   2  -1  -1  160.05    8.14
   2  -1  -1  155.19   13.12
  -2   1   1  142.47    8.96
  -2   1   1  145.25    6.31
   1  -1  -1  201.76   13.20
   1  -1  -1  242.02   18.17
   1  -1  -1  242.29   15.53
   1  -1  -1  254.75   26.27
   1  -1  -1  245.50   21.21
   1  -1  -1  231.20   11.21
   1  -1  -1  230.47   12.27
  -1   1   1  242.13   12.36
  -1   1   1  244.37   13.56
  -1   1   1  261.88   22.91
  -1   1   1  228.27   15.82
  -1   1   1  260.64   19.73
   1  -1  -1  270.98   13.63
   1  -1  -1  272.14   15.94
  -1   1   1  231.55   14.20
  -1   1   1  245.27   11.36
   0  -1  -1  888.91   58.12
   0  -1  -1  859.83   56.50
   0  -1  -1  890.49   66.35
   0  -1  -1  929.13   53.25
   0  -1  -1  927.08   62.03
   0   1   1  893.06   60.01
   0   1   1  858.63   57.53
   0   1   1  837.17   51.33
   0   1   1  852.73   58.44
   0  -1  -1  796.34   52.98
   0  -1  -1  913.90   52.60
   0   1   1  864.78   38.07
   0   1   1  908.60   45.18
  -1  -1  -1 1099.69   75.99
  -1  -1  -1 1155.77   71.47
  -1  -1  -1 1197.22   69.60
  -1  -1  -1 1120.37   67.51
  -1  -1  -1 1224.09   77.55
   1   1   1 1062.24   78.78
   1   1   1 1133.26   72.05
   1   1   1 1272.40   87.41
   1   1   1 1117.16   80.13
   1   1   1 1108.03   67.08
  -1  -1  -1 1290.89   61.05
  -1  -1  -1 1214.28   60.54
   1   1   1 1226.32   66.00
   1   1   1 1231.19   57.24
  -2  -1  -1   16.67    1.16
  -2  -1  -1   16.38    1.21
  -2  -1  -1   19.17    1.19
  -2  -1  -1   17.88    1.18
   2   1   1   19.93    1.27
   2   1   1   18.67    1.07
   2   1   1   18.40    2.27
   2   1   1   17.73    1.20
   2   1   1   18.24    1.45
  -2  -1  -1   16.83    2.52
  -2  -1  -1   20.25    2.46
   2   1   1   16.33    2.46
   2   1   1   17.30    2.65
  -3  -1  -1   77.77    5.22
  -3  -1  -1   74.99    4.22
  -3  -1  -1   77.27    4.29
  -3  -1  -1   77.06    5.21
   3   1   1   73.12    5.35
   3   1   1   78.52    3.60
   3   1   1   83.78    4.10
   3   1   1   80.55    4.56
   3   1   1   74.37    4.93
  -3  -1  -1   80.43    6.05
  -3  -1  -1   73.21    5.34
   3   1   1   83.71    6.01
   3   1   1   87.27    5.64
  -4  -1  -1  353.20   18.88
  -4  -1  -1  328.84   21.14
  -4  -1  -1  329.57   17.71
  -4  -1  -1  321.66   26.44
   4   1   1  321.60   23.62
   4   1   1  328.70   21.68
   4   1   1  353.48   17.18
   4   1   1  341.56   18.95
   4   1   1  362.96   15.65
  -4  -1  -1  340.60   15.79
  -4  -1  -1  362.32   15.34
   4   1   1  372.56   22.90
   4   1   1  375.97   21.44
  -5  -1  -1    2.41    0.90
  -5  -1  -1    2.54    1.15
  -5  -1  -1    4.01    1.00
   5   1   1    1.73    1.13
   5   1   1    1.95    0.92
  -5  -1  -1    7.12    4.65
  -5  -1  -1   -0.10    3.93
   5   1   1    9.77    6.18
  -6  -1  -1   96.50    7.38
  -6  -1  -1  103.33    7.94
  -6  -1  -1  103.19    8.80
   6   1   1  109.30    7.48
  -6  -1  -1  100.36   10.17
  -6  -1  -1  129.30   12.11
   6   1   1  122.10   13.53
  -7  -1  -1   46.34    3.41
  -7  -1  -1   43.86    3.95
  -7  -1  -1   47.54    3.31
   7   1   1   43.65    3.94
  -7  -1  -1   38.27    9.40
  -8  -1  -1   13.95    2.58
  -8  -1  -1   19.55    2.77
   8   1   1   16.11    3.25
   8   1   1   19.40    3.04
  -8  -1  -1   33.23   11.53
  -9  -1  -1   26.65    4.12
  -9  -1  -1   27.34    4.05
   9   1   1   36.92    4.78
   9   1   1   23.42    4.60
  -9  -1  -1    4.80   16.27
   8  -2  -1   -0.69    1.52
  -8   2   1   -2.05    2.05
  -8   2   1   -0.11    1.54
  -8   2   1   -4.82    8.59
   7  -2  -1   19.48    3.19
   7  -2  -1   14.57    2.90
  -7   2   1   19.19    3.05
  -7   2   1   19.85    3.14
  -7   2   1   28.02   10.37
   6  -2  -1    1.56    1.75
   6  -2  -1    1.91    1.84
  -6   2   1    6.90    2.01
  -6   2   1    3.69    1.89
  -6   2   1   13.85    9.70
  -6   2   1    9.38    5.66
   5  -2  -1   41.22    3.41
   5  -2  -1   43.35    3.47
  -5   2   1   44.23    4.03
  -5   2   1   48.02    4.44
  -5   2   1   53.02    6.82
  -5   2   1   43.21    6.97
   4  -2  -1   84.52    8.58
   4  -2  -1  104.10    4.66
   4  -2  -1  103.09    4.98
   4  -2  -1   87.10    5.97
   4  -2  -1   99.52    7.27
  -4   2   1  108.20    7.56
  -4   2   1   81.74    6.14
  -4   2   1  103.22    8.19
   4  -2  -1   86.22    9.02
  -4   2   1  107.11   10.92
  -4   2   1  105.10    7.42
   3  -2  -1   21.19    3.45
   3  -2  -1   13.49    2.57
   3  -2  -1   21.19    3.83
   3  -2  -1   14.63    2.97
   3  -2  -1   22.92    4.22
   3  -2  -1   13.42    4.56
   3  -2  -1   12.28    2.42
  -3   2   1   10.22    1.37
   3  -2  -1   14.02    3.33
  -3   2   1   16.44    2.26
  -3   2   1   20.37    3.28
   2  -2  -1  196.13   22.64
   2  -2  -1  202.41    9.23
   2  -2  -1  188.06   21.21
   2  -2  -1  200.42   14.84
   2  -2  -1  190.88   10.63
   2  -2  -1  201.98   10.34
   2  -2  -1  211.33   20.10
  -2   2   1  187.47   14.34
  -2   2   1  221.95   20.96
  -2   2   1  204.14   20.36
  -2   2   1  214.11   17.03
   2  -2  -1  224.79    8.05
   2  -2  -1  225.56   13.03
  -2   2   1  187.21   13.10
  -2   2   1  175.23    6.97
   1  -2  -1  556.14   54.27
   1  -2  -1  476.78   29.44
   1  -2  -1  530.60   45.51
   1  -2  -1  507.54   24.65
   1  -2  -1  497.97   26.71
   1  -2  -1  477.11   32.33
   1  -2  -1  557.75   54.59
   1  -2  -1  543.16   55.44
  -1   2   1  484.63   33.50
  -1   2   1  498.42   36.36
  -1   2   1  587.70   54.71
   0  -2  -1  410.91   25.95
   0  -2  -1  509.33   47.25
   0  -2  -1  384.93   30.94
   0  -2  -1  530.51   44.64
   0  -2  -1  460.23   23.70
   0  -2  -1  447.40   25.69
   0  -2  -1  478.80   38.61
   0   2   1  465.13   29.86
   0   2   1  459.53   28.35
   0   2   1  417.87   28.41
   0   2   1  429.06   29.46
   0   2   1  482.51   30.84
   0  -2  -1  481.02   29.05
   0  -2  -1  459.22   17.80
   0   2   1  434.33   16.84
  -1  -2  -1   42.75    7.67
  -1  -2  -1   35.26    4.93
  -1  -2  -1   38.82    6.59
  -1  -2  -1   38.51    5.05
   1   2   1   59.59    7.65
   1   2   1   48.95    3.02
   1   2   1   50.02    2.62
  -1  -2  -1   21.86    4.05
  -1  -2  -1   20.10    3.00
   1   2   1   25.68    2.25
  -2  -2  -1   92.66    5.92
  -2  -2  -1   91.32    5.30
  -2  -2  -1   99.37    7.51
  -2  -2  -1   98.11    6.51
  -2  -2  -1   88.59    4.58
   2   2   1   97.95    5.05
   2   2   1  100.22    6.08
   2   2   1   95.87    6.47
   2   2   1  101.01    6.06
   2   2   1   96.19    5.40
   2   2   1   94.01    5.44
  -2  -2  -1   96.12    5.04
  -2  -2  -1  108.77    6.13
   2   2   1   94.73    5.51
   2   2   1   94.04    5.99
  -3  -2  -1  170.66   10.15
  -3  -2  -1  158.61    9.32
  -3  -2  -1  167.85    8.57
  -3  -2  -1  160.91    9.86
  -3  -2  -1  160.23    9.81
   3   2   1  167.57    7.81
   3   2   1  167.15    9.27
   3   2   1  166.97    9.58
   3   2   1  167.95   11.22
   3   2   1  159.91    8.33
  -3  -2  -1  173.94    8.26
  -3  -2  -1  178.52    7.84
   3   2   1  173.11   10.32
   3   2   1  175.39   10.29
  -4  -2  -1   74.53   12.96
  -4  -2  -1   91.23    9.06
  -4  -2  -1   80.99   11.60
   4   2   1   79.26    7.95
   4   2   1  103.21    9.93
   4   2   1  114.04    5.17
   4   2   1  106.33    4.74
  -4  -2  -1   67.07    7.82
  -4  -2  -1   82.92   11.43
   4   2   1   87.31    8.16
  -5  -2  -1   61.20    3.38
  -5  -2  -1   59.89    3.89
  -5  -2  -1   59.55    3.30
   5   2   1   62.01    3.60
   5   2   1   60.36    3.32
   5   2   1   62.74    3.41
   5   2   1   61.59    4.28
  -5  -2  -1   70.03    7.85
  -5  -2  -1   53.50    7.13
   5   2   1   65.36    9.04
   5   2   1   73.93    9.31
  -6  -2  -1  176.96   11.92
  -6  -2  -1  170.20    8.02
  -6  -2  -1  172.89    9.31
  -6  -2  -1  170.88    9.38
   6   2   1  164.54   11.49
   6   2   1  155.55    9.01
   6   2   1  178.49   11.31
  -6  -2  -1  218.12   16.37
  -6  -2  -1  186.93   13.46
   6   2   1  200.46   16.05
  -7  -2  -1    2.53    0.63
  -7  -2  -1    1.96    0.62
  -7  -2  -1    2.48    0.53
   7   2   1    3.53    0.76
  -7  -2  -1    6.30    2.66
  -8  -2  -1    1.02    2.39
  -8  -2  -1    3.92    2.13
   8   2   1    3.78    2.49
   8   2   1    1.32    2.69
  -8  -2  -1   -9.85   10.93
  -9  -2  -1    9.01    3.01
  -9  -2  -1    1.88    3.05
   9   2   1   11.56    3.32
   9   2   1    4.99    3.57
  -9  -2  -1  -11.67   18.22
   7  -3  -1    3.32    2.21
   7  -3  -1    6.66    2.55
  -7   3   1    1.65    2.47
  -7   3   1    4.21    2.04
  -7   3   1   -6.31    7.41
   6  -3  -1    2.74    1.52
   6  -3  -1    2.39    1.40
  -6   3   1    1.71    1.82
  -6   3   1    1.98    1.39
  -6   3   1   -2.91    6.93
  -6   3   1   -3.12    5.14
   5  -3  -1   36.63    2.91
   5  -3  -1   44.00    3.22
  -5   3   1   38.27    3.26
  -5   3   1   39.08    3.90
  -5   3   1   48.36    6.27
  -5   3   1   49.86    6.89
   4  -3  -1  234.52   14.76
   4  -3  -1  235.64   14.33
   4  -3  -1  217.79   13.41
   4  -3  -1  232.42   11.76
  -4   3   1  221.09   19.20
  -4   3   1  220.40   16.26
  -4   3   1  239.89   19.49
  -4   3   1  235.83   18.28
   3  -3  -1  577.28   28.26
   3  -3  -1  546.00   33.13
   3  -3  -1  571.09   32.43
   3  -3  -1  510.22   29.81
  -3   3   1  579.35   39.98
  -3   3   1  564.55   37.49
  -3   3   1  615.23   35.62
  -3   3   1  616.58   37.17
   2  -3  -1  105.59   11.23
   2  -3  -1  115.83   11.22
   2  -3  -1   98.01    7.57
   2  -3  -1  118.83    6.23
   2  -3  -1  114.13    6.31
   2  -3  -1  113.16    7.07
   2  -3  -1   92.79    7.24
   2  -3  -1  109.11   11.11
   2  -3  -1  108.63    5.99
  -2   3   1  137.08   10.48
  -2   3   1  126.26    9.31
  -2   3   1  115.99   11.89
   1  -3  -1  837.71   87.85
   1  -3  -1  715.31   61.73
   1  -3  -1  832.37   43.09
   1  -3  -1  719.60   52.08
   1  -3  -1  796.48   77.76
   1  -3  -1  822.87   38.31
   1  -3  -1  736.83   45.95
   1  -3  -1  889.67   92.83
  -1   3   1  867.98   71.71
  -1   3   1  802.68   60.38
   0  -3  -1  290.06   18.07
   0  -3  -1  319.28   32.92
   0  -3  -1  304.26   28.55
   0  -3  -1  262.44   22.13
   0  -3  -1  282.29   14.79
   0  -3  -1  318.65   30.00
   0  -3  -1  284.00   13.63
   0   3   1  279.00   21.90
   0   3   1  293.93   23.44
   0   3   1  260.96   18.97
   0   3   1  295.82   21.61
   0  -3  -1  301.49   16.96
   0  -3  -1  296.42   10.08
   0   3   1  239.86   12.50
   0   3   1  261.76   10.95
  -1  -3  -1    9.07    0.73
  -1  -3  -1    7.37    1.00
  -1  -3  -1   11.35    1.41
  -1  -3  -1    9.75    1.71
  -1  -3  -1    8.80    1.46
  -1  -3  -1   11.85    1.78
   1   3   1    7.05    0.91
   1   3   1    8.79    0.71
   1   3   1   11.60    1.21
  -1  -3  -1    4.61    2.52
  -1  -3  -1   10.08    2.10
   1   3   1    9.50    2.02
  -2  -3  -1    6.07    2.10
  -2  -3  -1    7.04    0.97
  -2  -3  -1   10.93    1.97
  -2  -3  -1    9.75    1.78
   2   3   1    3.89    2.41
  -2  -3  -1    1.77    2.19
  -2  -3  -1    8.75    2.07
   2   3   1   11.52    2.21
   2   3   1    6.01    1.68
  -3  -3  -1   82.69    5.23
  -3  -3  -1   86.82    5.58
  -3  -3  -1   89.78    6.22
  -3  -3  -1   87.50    5.15
  -3  -3  -1   90.73    6.11
   3   3   1   90.39    6.63
   3   3   1   84.66    5.06
   3   3   1   89.11    5.51
   3   3   1   90.67    4.76
   3   3   1   91.21    5.06
   3   3   1   86.27    5.44
  -3  -3  -1   96.71    7.32
  -3  -3  -1   95.64    5.99
   3   3   1   87.32    7.48
   3   3   1   92.19    7.27
  -4  -3  -1  177.39   11.69
  -4  -3  -1  182.94   10.97
  -4  -3  -1  177.29   10.43
  -4  -3  -1  175.59    9.90
   4   3   1  175.55   11.85
   4   3   1  178.93   12.04
   4   3   1  174.31    9.11
   4   3   1  173.54   10.37
   4   3   1  176.86    9.90
  -4  -3  -1  217.73   11.09
  -4  -3  -1  171.71   10.38
   4   3   1  164.69   13.90
   4   3   1  174.07   12.42
  -5  -3  -1  146.92    8.64
  -5  -3  -1  150.14    8.42
  -5  -3  -1  153.42    9.11
   5   3   1  158.68   10.06
   5   3   1  168.89   10.79
   5   3   1  172.60    8.06
   5   3   1  165.28    8.95
   5   3   1  139.77   12.75
  -5  -3  -1  174.17   13.24
  -5  -3  -1  163.05   11.45
   5   3   1  161.80   14.16
   5   3   1  152.89   11.86
  -6  -3  -1    4.96    1.35
  -6  -3  -1    7.64    1.36
  -6  -3  -1    7.53    1.43
   6   3   1    9.90    1.62
   6   3   1    7.83    1.44
  -6  -3  -1   -3.36    6.44
   6   3   1   12.88   10.36
  -7  -3  -1    4.40    1.54
  -7  -3  -1    6.15    1.56
  -7  -3  -1    7.88    1.79
   7   3   1    9.28    2.59
  -7  -3  -1    6.95    9.76
  -8  -3  -1    1.65    0.74
  -8  -3  -1    0.55    0.86
  -8  -3  -1    0.29    0.84
   8   3   1    0.92    0.90
   8   3   1    2.32    1.04
  -8  -3  -1    7.73    5.56
  -9  -3  -1    7.90    2.99
  -9  -3  -1    8.91    2.72
   9   3   1    9.29    3.09
   9   3   1    7.05    3.30
  -9  -3  -1   25.33   19.62
   6  -4  -1   20.11    2.73
   6  -4  -1   27.43    3.34
  -6   4   1   26.22    3.85
  -6   4   1   22.06    3.48
  -6   4   1   26.61    4.65
  -6   4   1   33.21    4.74
   5  -4  -1    3.59    1.45
   5  -4  -1    4.38    1.80
   5  -4  -1    2.17    1.53
  -5   4   1    5.48    2.06
  -5   4   1   -0.77    2.24
   4  -4  -1   -0.38    0.44
   4  -4  -1    0.57    0.48
   4  -4  -1    0.14    0.52
  -4   4   1    0.59    0.71
   3  -4  -1    0.05    0.60
   3  -4  -1   -0.73    1.05
   3  -4  -1    0.74    0.64
   3  -4  -1    0.63    0.71
  -3   4   1   -0.14    1.09
   2  -4  -1   36.00    2.34
   2  -4  -1   36.56    2.77
   2  -4  -1   29.84    2.70
   2  -4  -1   28.20    2.28
   2  -4  -1   29.41    2.22
   1  -4  -1   16.15    1.77
   1  -4  -1   17.25    2.01
   1  -4  -1   18.54    1.81
   1  -4  -1   19.61    1.97
   1  -4  -1   14.59    1.97
   1  -4  -1   20.18    2.09
  -1   4   1   15.60    1.95
  -1   4   1   21.53    2.72
   0  -4  -1  312.32   26.08
   0  -4  -1  353.98   18.38
   0  -4  -1  375.01   19.90
   0  -4  -1  348.19   22.55
   0   4   1  374.25   27.23
   0   4   1  361.14   25.80
   0   4   1  371.33   31.36
   0  -4  -1  371.78   26.88
   0  -4  -1  360.78   26.25
   0   4   1  332.61   16.47
   0   4   1  346.81   22.25
  -1  -4  -1  183.40   10.30
  -1  -4  -1  159.57   11.44
  -1  -4  -1  191.93    9.22
   1   4   1  168.69   13.33
   1   4   1  186.71   14.86
   1   4   1  203.88   12.57
   1   4   1  174.78   14.08
   1   4   1  146.89    9.49
  -1  -4  -1  188.39   10.62
  -1  -4  -1  176.48    8.39
   1   4   1  180.81    7.56
   1   4   1  180.62   10.52
  -2  -4  -1   65.62    4.25
  -2  -4  -1   73.51    5.24
  -2  -4  -1   70.42    5.02
  -2  -4  -1   71.81    6.54
  -2  -4  -1   72.95    5.95
  -2  -4  -1   78.83    4.77
   2   4   1   65.41    4.34
   2   4   1   79.72    5.93
   2   4   1   78.74    5.77
   2   4   1   81.46    5.82
   2   4   1   74.94    5.12
  -2  -4  -1   78.20    6.79
  -2  -4  -1   60.59    5.01
   2   4   1   72.77    5.24
   2   4   1   68.63    5.79
  -3  -4  -1  197.06   13.99
  -3  -4  -1  191.65   12.00
  -3  -4  -1  196.51   14.28
  -3  -4  -1  193.43   14.97
   3   4   1  188.17   10.04
   3   4   1  207.33   12.76
   3   4   1  199.44   11.57
   3   4   1  203.71   11.20
   3   4   1  211.38   13.37
  -3  -4  -1  220.75   11.99
  -3  -4  -1  228.66   16.10
   3   4   1  190.99   11.98
   3   4   1  200.15   13.91
  -4  -4  -1    1.16    0.45
  -4  -4  -1    2.27    0.65
  -4  -4  -1    2.95    0.77
  -4  -4  -1    0.49    0.39
   4   4   1    0.32    0.45
   4   4   1    2.27    0.75
   4   4   1    0.77    0.55
   4   4   1    0.25    0.30
  -4  -4  -1   -0.29    3.55
  -4  -4  -1    1.66    2.73
   4   4   1   -0.59    2.67
   4   4   1    2.09    2.84
  -5  -4  -1   82.20    4.54
  -5  -4  -1   85.67    6.65
  -5  -4  -1   88.83    6.63
  -5  -4  -1   78.88    5.34
   5   4   1   81.42    5.78
   5   4   1   89.56    4.73
   5   4   1   88.43    5.76
   5   4   1   92.78    5.09
   5   4   1   76.57    5.08
  -5  -4  -1   72.05    8.44
   5   4   1   65.62   12.10
   5   4   1   86.21    9.49
  -6  -4  -1   61.43    3.68
  -6  -4  -1   76.79    4.72
   6   4   1   75.74    5.07
   6   4   1   72.60    4.00
   6   4   1   74.50    4.84
  -6  -4  -1   67.19   10.66
   6   4   1   77.79   13.43
  -7  -4  -1    2.43    1.41
  -7  -4  -1    4.64    1.36
   7   4   1    1.58    1.61
   7   4   1    2.93    1.48
   7   4   1    1.26    1.54
  -7  -4  -1    7.46    8.62
   7   4   1   -1.10   10.81
  -8  -4  -1    2.86    1.96
  -8  -4  -1    4.36    2.18
  -8  -4  -1    0.77    1.83
   8   4   1    3.78    2.63
   8   4   1   -0.97    2.47
   8   4   1    0.60    2.33
  -8  -4  -1   13.22   14.46
  -9  -4  -1   15.37    3.39
  -9  -4  -1   16.67    2.91
   9   4   1   19.59    3.93
   9   4   1   14.63    3.74
   6  -5  -1   13.41    2.86
  -6   5   1   11.09    3.95
   5  -5  -1    7.44    2.35
  -5   5   1    6.34    3.12
   4  -5  -1   39.46    3.85
   4  -5  -1   45.26    3.78
   4  -5  -1   48.62    3.75
  -4   5   1   37.94    3.70
   3  -5  -1   69.29    4.50
   3  -5  -1   54.04    4.37
   3  -5  -1   55.59    4.41
   2  -5  -1   80.62    6.16
   2  -5  -1   79.26    5.15
   2  -5  -1   77.14    6.26
  -2   5   1   80.29    6.64
  -2   5   1   91.98    7.45
   1  -5  -1  283.61   17.31
   1  -5  -1  262.62   17.72
   1  -5  -1  269.82   18.48
  -1   5   1  307.83   23.93
  -1   5   1  339.22   24.77
   0  -5  -1  440.84   33.31
   0  -5  -1  397.90   26.46
   0   5   1  517.75   48.74
   0   5   1  461.11   33.32
   0  -5  -1  443.37   25.66
   0   5   1  419.72   24.70
   0   5   1  410.12   26.83
  -1  -5  -1   77.24    5.96
  -1  -5  -1   80.05    4.71
   1   5   1   78.79    6.11
   1   5   1   74.78    5.51
   1   5   1   86.97    6.61
  -1  -5  -1   48.76    6.27
   1   5   1   77.58    4.71
   1   5   1   64.12    5.87
  -2  -5  -1   27.44    2.45
  -2  -5  -1   22.75    1.48
  -2  -5  -1   25.02    2.23
   2   5   1   28.33    2.38
   2   5   1   27.62    2.16
  -2  -5  -1   19.06    4.72
   2   5   1   21.46    4.50
  -3  -5  -1   95.05    6.90
  -3  -5  -1   83.58    6.45
   3   5   1   83.84    6.42
   3   5   1   82.46    6.45
   3   5   1   85.58    6.74
  -3  -5  -1   79.36    6.83
   3   5   1   72.49    7.38
   3   5   1   78.44    7.26
  -4  -5  -1   29.21    2.60
  -4  -5  -1   28.87    2.48
   4   5   1   37.37    2.85
   4   5   1   31.41    2.35
  -4  -5  -1   22.63    6.82
   4   5   1   34.78    7.68
   4   5   1   35.49    7.46
  -5  -5  -1   15.00    2.05
  -5  -5  -1   16.96    2.11
   5   5   1   16.50    2.26
   5   5   1   14.52    1.37
   5   5   1   15.63    1.29
   5   5   1   18.30    2.21
  -5  -5  -1    7.57    8.18
   5   5   1    3.35    7.62
   5   5   1   22.87   11.52
  -6  -5  -1    2.86    1.37
  -6  -5  -1    3.70    1.60
   6   5   1    3.09    1.27
   6   5   1    5.35    1.97
   6   5   1    5.31    1.86
  -6  -5  -1    9.42   10.74
   6   5   1    3.15   12.66
  -7  -5  -1   16.16    2.33
  -7  -5  -1   15.39    2.00
   7   5   1   11.37    2.07
   7   5   1   15.90    2.79
   7   5   1   16.10    2.51
   7   5   1    3.29   16.55
  -8  -5  -1    5.35    2.27
  -8  -5  -1   -0.02    2.15
   8   5   1    9.26    3.01
   8   5   1    2.69    2.95
  -9  -5  -1    0.76    2.53
  -9  -5  -1    2.62    2.58
   9   5   1    0.80    3.13
   9   5   1    3.45    3.15
   5  -6  -1    3.04    2.30
  -5   6   1    1.46    3.73
   4  -6  -1   24.40    3.40
   4  -6  -1   27.93    3.07
  -4   6   1   24.66    3.71
   3  -6  -1   25.85    2.71
   3  -6  -1   26.48    2.60
   3  -6  -1   26.58    2.87
  -3   6   1   24.93    3.28
   2  -6  -1  217.88   15.54
   2  -6  -1  207.01   12.16
  -2   6   1  188.91   14.88
  -2   6   1  183.59   15.43
   1  -6  -1    4.68    1.30
   1  -6  -1    7.30    1.64
   1  -6  -1    5.62    1.30
  -1   6   1   10.71    2.12
  -1   6   1    6.29    1.74
   0  -6  -1   28.30    2.37
   0  -6  -1   38.07    3.09
   0   6   1   32.11    2.97
   0   6   1   35.86    3.50
   0   6   1   30.27    2.60
  -1  -6  -1   85.61    4.89
  -1  -6  -1   86.32    6.90
   1   6   1   97.09    6.43
   1   6   1   91.18    6.23
   1   6   1   98.18   10.08
   1   6   1  101.45    7.79
   1   6   1   92.75    6.48
  -2  -6  -1   27.09    2.82
  -2  -6  -1   21.50    1.54
   2   6   1   29.49    2.48
   2   6   1   28.52    2.27
   2   6   1   29.94    3.25
   2   6   1   29.23    5.93
   2   6   1   34.03    5.42
  -3  -6  -1    0.30    0.38
  -3  -6  -1    0.16    0.48
   3   6   1    1.04    0.39
   3   6   1    0.82    0.54
   3   6   1    0.41    0.34
   3   6   1    0.05    1.90
   3   6   1    0.44    1.97
  -4  -6  -1   94.40    6.66
  -4  -6  -1   86.57    6.35
   4   6   1   82.57    5.97
   4   6   1   92.37    6.87
   4   6   1   85.73    6.19
   4   6   1   74.05   10.89
   4   6   1   86.23   10.89
  -5  -6  -1   59.90    4.91
  -5  -6  -1   50.60    3.92
   5   6   1   55.48    4.23
   5   6   1   58.54    4.46
   5   6   1   44.75   11.69
  -6  -6  -1    6.19    1.72
  -6  -6  -1    8.34    1.90
   6   6   1    7.92    2.09
   6   6   1    6.56    2.17
   6   6   1  -12.89   13.70
  -7  -6  -1   58.16    4.49
  -7  -6  -1   51.94    3.95
   7   6   1   37.71    3.68
   7   6   1   43.21    4.20
   7   6   1   64.64   17.92
  -8  -6  -1    0.38    0.95
  -8  -6  -1    1.68    1.10
   8   6   1    1.88    1.19
   8   6   1    1.08    1.11
   3  -7  -1   -0.54    2.30
   3  -7  -1    2.99    2.25
   3  -7  -1    2.02    1.98
   2  -7  -1   73.68    5.47
   2  -7  -1   69.59    5.94
   2  -7  -1   77.61    5.39
  -2   7   1   69.69    6.72
   1  -7  -1   30.59    3.06
   1  -7  -1   36.23    3.35
   1  -7  -1   31.88    2.99
  -1   7   1   42.85    3.91
   0  -7  -1   71.48    5.86
   0   7   1   73.85    5.86
  -1  -7  -1    8.48    2.18
   1   7   1    7.78    1.89
   1   7   1    3.99    1.55
   1   7   1    1.69    1.61
   1   7   1   -4.94    4.94
   1   7   1   15.24    5.55
  -2  -7  -1   13.51    1.90
   2   7   1   16.92    2.21
   2   7   1   19.82    2.23
   2   7   1    7.12    6.97
  -3  -7  -1   49.43    4.18
   3   7   1   48.38    4.72
   3   7   1   44.80    3.96
   3   7   1   49.54    3.86
   3   7   1   45.12   10.15
  -4  -7  -1   25.66    3.09
  -4  -7  -1   26.54    2.58
   4   7   1   25.09    2.64
   4   7   1   24.81    2.60
   4   7   1   22.53    2.80
   4   7   1   28.83   10.82
  -5  -7  -1   54.41    4.82
  -5  -7  -1   71.00    5.91
   5   7   1   62.03    4.44
   5   7   1   67.74    4.67
   5   7   1   56.45    5.51
   5   7   1   59.08   12.85
  -6  -7  -1    4.61    2.20
  -6  -7  -1    3.53    1.91
   6   7   1    3.35    1.78
   6   7   1    2.22    2.50
   6   7   1  -12.55   12.55
  -7  -7  -1   -0.37    0.73
  -7  -7  -1    0.35    0.61
   7   7   1    3.11    4.71
  -8  -7  -1    9.28    3.15
  -8  -7  -1   14.70    3.53
   2  -8  -1   11.42    3.96
   2  -8  -1    8.95    3.43
   1  -8  -1   13.66    2.66
   1  -8  -1   19.89    3.99
  -1   8   1   16.11    4.87
   0  -8  -1    0.37    0.72
   0  -8  -1    0.64    0.65
   0   8   1    0.55    0.47
   0   8   1    0.69    0.85
  -1  -8  -1    1.45    1.81
   1   8   1   -0.10    1.36
   1   8   1   -4.03    4.03
   1   8   1    1.88    4.83
  -2  -8  -1   38.83    3.86
   2   8   1   32.90    3.63
   2   8   1   36.04    9.13
  -3  -8  -1   19.83    3.02
   3   8   1   13.05    2.33
   3   8   1   20.52   11.73
  -4  -8  -1    5.71    2.25
  -4  -8  -1    5.00    1.82
   4   8   1    1.83    2.21
   4   8   1    5.55   12.98
  -5  -8  -1   16.26    2.97
  -5  -8  -1   13.76    2.58
   5   8   1    9.59    2.29
   5   8   1   15.84   13.97
  -6  -8  -1   11.45    3.04
  -6  -8  -1   10.29    2.93
   6   8   1   -8.58   20.72
  -7  -8  -1   -1.06    1.06
  -7  -8  -1    1.32    1.32
   7   8   1    0.61    2.19
   7   8   1    6.58    9.78
  -1  -9  -1   11.15    3.74
   1   9   1    4.11    3.04
  -2  -9  -1    4.18    3.23
   2   9   1    5.10    3.60
   2   9   1   20.71   11.17
  -3  -9  -1   39.17    4.44
   3   9   1   32.79    5.66
   3   9   1   49.47   14.91
  -4  -9  -1    7.05    3.38
  -4  -9  -1    1.40    2.67
   4   9   1    0.94    1.90
   4   9   1  -15.05   15.05
  -5  -9  -1    4.03    3.08
  -5  -9  -1    7.42    3.20
   5   9   1    4.61    3.83
   5   9   1   14.89   19.18
  -5  -9   2   -1.07    1.29
   5   9  -2    3.25    7.68
  -4  -9   2    0.16    0.76
   4   9  -2   -1.78    4.31
  -3  -9   2    2.23    1.81
   3   9  -2    5.05   13.28
  -2  -9   2    9.99    2.85
   2   9  -2   12.46   11.29
  -1  -9   2   27.08    4.03
  -1  -9   2   29.77    3.37
   1   9  -2   13.74    4.80
  -7  -8   2    6.38    3.33
  -7  -8   2    5.38    3.23
   7   8  -2  -21.34   21.34
   6   8  -2    3.02    3.69
   6   8  -2    2.11    3.77
  -6  -8   2    1.14    2.22
  -6  -8   2    1.32    2.78
   6   8  -2    9.08   16.79
   5   8  -2   18.89    4.09
   5   8  -2   15.10    3.68
   5   8  -2   17.03    2.75
  -5  -8   2   23.14    2.60
   5   8  -2   24.77   13.82
   4   8  -2   33.04    3.53
   4   8  -2   29.88    4.12
   4   8  -2   28.79    3.51
  -4  -8   2   30.02    3.31
  -4  -8   2   28.11    3.00
   4   8  -2   32.25   12.95
   3   8  -2   44.11    3.93
   3   8  -2   37.99    3.74
   3   8  -2   30.40    3.55
  -3  -8   2   42.06    3.64
   3   8  -2   51.95   11.18
   2   8  -2    6.07    2.48
   2   8  -2    5.41    2.46
  -2  -8   2    2.48    2.19
   2   8  -2   11.11    8.96
   1   8  -2    7.76    2.59
   1   8  -2    3.33    2.43
  -1  -8   2    7.66    2.22
   1   8  -2   -1.74    6.10
   1   8  -2    9.76    7.41
   0   8  -2   12.53    3.70
   0  -8   2   18.26    2.98
   0  -8   2   22.55    3.57
  -1   8  -2   40.48    4.93
   1  -8   2   29.94    3.20
   1  -8   2   34.28    3.61
  -2   8  -2    0.87    1.64
   2  -8   2   -0.38    0.95
   8   7  -2    2.31    5.00
  -8  -7   2    1.44    2.85
  -8  -7   2    0.19    3.34
   7   7  -2    8.00    3.72
  -7  -7   2   12.34    2.42
  -7  -7   2   13.19    2.89
   7   7  -2   14.06   21.61
   6   7  -2    0.38    1.89
   6   7  -2    3.71    2.45
  -6  -7   2    1.47    1.49
  -6  -7   2    0.84    1.31
   6   7  -2    2.35   11.38
   5   7  -2   35.13    4.38
   5   7  -2   39.60    3.87
   5   7  -2   38.39    3.90
  -5  -7   2   37.30    2.90
  -5  -7   2   45.54    3.91
   5   7  -2   41.64   13.09
   4   7  -2    0.78    1.20
   4   7  -2    0.90    1.47
   4   7  -2   -0.40    1.22
  -4  -7   2    1.14    0.97
  -4  -7   2    0.17    0.75
   4   7  -2   -5.79    5.82
   3   7  -2    4.47    2.36
   3   7  -2    4.08    1.94
   3   7  -2    8.01    1.86
  -3  -7   2    4.76    1.68
  -3  -7   2    4.02    1.26
   3   7  -2    9.13    7.44
   2   7  -2    1.17    0.92
   2   7  -2   -0.27    0.70
   2   7  -2   -0.04    0.62
  -2  -7   2    0.06    0.67
   2   7  -2    1.78    2.53
   2   7  -2    1.43    2.32
   1   7  -2   57.47    4.83
   1   7  -2   53.59    5.11
  -1  -7   2   53.25    4.16
   1   7  -2   64.60    6.55
   1   7  -2   71.36    7.01
   0   7  -2    7.79    2.96
   0   7  -2   12.19    2.81
   0  -7   2    5.99    1.78
   0  -7   2    5.07    2.01
   0   7  -2   -0.07    3.20
  -1   7  -2   31.29    3.99
   1  -7   2   31.94    3.23
   1  -7   2   40.55    2.93
   1  -7   2   36.23    3.48
  -2   7  -2   86.29    8.48
   2  -7   2   80.96    6.77
   2  -7   2   76.33    5.36
   2  -7   2   79.77    5.95
  -3   7  -2   23.15    4.96
   3  -7   2   20.71    2.92
   3  -7   2   19.12    3.34
   8   6  -2   25.31    3.88
  -8  -6   2   23.28    3.41
  -8  -6   2   22.60    3.23
  -8  -6   2   25.76    3.71
   7   6  -2   11.29    2.97
  -7  -6   2    7.65    2.05
   7   6  -2   36.35   19.45
   6   6  -2    0.57    0.88
   6   6  -2   -0.16    0.91
  -6  -6   2    2.11    0.74
  -6  -6   2    0.37    0.49
   6   6  -2   -3.65    4.77
   5   6  -2   24.09    2.96
   5   6  -2   23.63    3.12
  -5  -6   2   26.79    2.51
  -5  -6   2   22.17    2.10
   5   6  -2   21.47   10.45
   4   6  -2   -0.02    1.87
   4   6  -2    0.82    1.77
   4   6  -2   -1.89    1.92
  -4  -6   2    0.37    1.01
  -4  -6   2    1.08    1.33
   4   6  -2    3.71   10.39
   4   6  -2   -7.65    7.65
   3   6  -2   58.74    4.69
   3   6  -2   56.18    5.57
   3   6  -2   60.10    4.51
  -3  -6   2   67.63    4.53
  -3  -6   2   57.27    3.62
   3   6  -2   53.76    9.95
   3   6  -2   45.92    7.52
   2   6  -2   67.49    5.85
   2   6  -2   54.55    5.07
   2   6  -2   56.31    4.91
  -2  -6   2   56.80    4.39
   2   6  -2   57.43    8.77
   2   6  -2   60.07    7.03
   1   6  -2   37.99    3.78
   1   6  -2   36.26    3.33
   1   6  -2   49.25    4.75
  -1  -6   2   37.05    2.32
  -1  -6   2   42.89    3.05
   1   6  -2   46.67    6.03
   1   6  -2   45.44    5.98
   0   6  -2  157.51   12.51
   0   6  -2  147.51   11.39
   0  -6   2  141.00    8.81
   0  -6   2  146.73    9.25
   0   6  -2  130.30    6.50
   0   6  -2  132.65    9.66
  -1   6  -2   48.48    4.92
   1  -6   2   49.92    3.50
   1  -6   2   45.86    3.28
   1  -6   2   45.54    3.40
  -2   6  -2    2.48    2.06
   2  -6   2    1.91    1.65
   2  -6   2    2.43    1.41
   2  -6   2    2.05    1.50
  -3   6  -2   -0.76    1.83
  -3   6  -2   -2.55    2.55
   3  -6   2    2.57    1.71
   3  -6   2    2.08    1.63
   3  -6   2   -0.55    1.73
  -4   6  -2    5.18    2.88
   4  -6   2   13.72    2.40
   4  -6   2    9.92    2.89
   9   5  -2   33.43    5.08
   9   5  -2   31.32    4.65
  -9  -5   2   36.21    4.13
  -9  -5   2   35.93    4.48
  -9  -5   2   31.50    3.45
   8   5  -2   51.37    4.75
   8   5  -2   49.43    5.08
  -8  -5   2   58.54    4.99
  -8  -5   2   61.74    4.22
  -8  -5   2   60.57    4.31
   7   5  -2   -0.18    0.96
   7   5  -2    1.07    0.92
  -7  -5   2    1.12    0.78
  -7  -5   2    0.39    0.68
  -7  -5   2    0.08    0.73
   7   5  -2   -2.72    6.44
   6   5  -2  107.74    8.09
   6   5  -2   97.80    6.06
   6   5  -2  118.97    7.59
  -6  -5   2  121.54    7.32
  -6  -5   2  118.94    5.65
   6   5  -2   98.01   17.52
  -6  -5   2   93.48   13.97
   5   5  -2   86.72    4.21
   5   5  -2   81.73    6.11
   5   5  -2   83.15    5.81
  -5  -5   2   89.43    5.49
  -5  -5   2   89.20    4.04
   5   5  -2   71.29   12.03
  -5  -5   2   51.13   10.54
   4   5  -2    5.70    2.16
  -4  -5   2    7.78    1.30
  -4  -5   2    8.69    1.45
   4   5  -2    8.58    9.76
   4   5  -2   19.62    6.81
  -4  -5   2    4.82    5.92
   3   5  -2   62.84    4.70
   3   5  -2   58.84    5.12
   3   5  -2   61.37    4.92
  -3  -5   2   54.48    4.10
  -3  -5   2   58.89    4.10
  -3  -5   2   56.33    3.47
   3   5  -2   47.51    7.25
  -3  -5   2   32.23    7.03
   2   5  -2    1.37    1.33
   2   5  -2    0.91    1.06
   2   5  -2    4.06    1.83
  -2  -5   2    2.43    1.11
  -2  -5   2    1.39    0.78
  -2  -5   2    4.74    1.82
   2   5  -2   -1.75    4.30
   2   5  -2   -0.10    3.91
  -2  -5   2    0.47    4.91
   1   5  -2    0.18    1.09
   1   5  -2    1.06    1.50
   1   5  -2   -0.54    1.10
  -1  -5   2    2.16    0.95
  -1  -5   2    1.34    0.93
  -1  -5   2   -0.07    1.91
  -1  -5   2    1.80    0.51
  -1  -5   2    1.28    0.75
   1   5  -2    0.29    3.17
   1   5  -2   -0.61    3.41
  -1  -5   2    3.95    4.00
   0   5  -2    0.64    0.72
   0   5  -2    2.81    1.27
   0   5  -2   -0.35    0.55
   0  -5   2   -0.44    0.44
   0  -5   2   -0.34    0.43
   0  -5   2    0.27    0.37
   0  -5   2   -0.47    0.47
   0   5  -2   -0.73    1.24
   0   5  -2    0.19    1.10
   0  -5   2    0.27    1.93
  -1   5  -2    3.60    1.57
  -1   5  -2    4.76    1.65
   1  -5   2    5.46    1.54
   1  -5   2    1.03    1.37
   1  -5   2    2.98    1.10
   1  -5   2    5.00    1.30
   1  -5   2    1.46    1.33
  -2   5  -2    7.53    2.19
  -2   5  -2    1.89    1.56
   2  -5   2    4.62    1.11
   2  -5   2    0.25    1.58
   2  -5   2    3.69    1.15
  -3   5  -2   48.15    3.79
  -3   5  -2   47.86    5.15
   3  -5   2   45.18    3.31
   3  -5   2   41.93    3.34
   3  -5   2   47.45    3.19
  -4   5  -2    8.02    2.47
  -4   5  -2   10.05    2.34
   4  -5   2    5.64    1.71
   4  -5   2    6.12    1.66
  -5   5  -2    8.78    2.41
   5  -5   2    8.65    2.36
   5  -5   2   10.10    2.79
  -6   5  -2   34.83    4.62
   9   4  -2   -0.80    3.54
   9   4  -2    5.11    4.23
  -9  -4   2    3.78    2.71
  -9  -4   2    4.53    2.94
  -9  -4   2    4.51    3.07
   8   4  -2   42.20    4.51
   8   4  -2   44.33    4.04
   8   4  -2   45.47    4.26
  -8  -4   2   45.10    3.50
  -8  -4   2   43.59    3.88
  -8  -4   2   48.84    3.74
  -8  -4   2   33.97   16.80
   7   4  -2   -1.90    1.90
   7   4  -2    2.49    1.99
   7   4  -2    1.28    1.45
  -7  -4   2   -1.39    1.39
  -7  -4   2    1.62    1.45
  -7  -4   2    0.56    1.31
   7   4  -2   -5.48   24.51
  -7  -4   2    0.95    9.31
   6   4  -2    1.39    1.52
   6   4  -2    1.78    1.50
   6   4  -2    1.32    1.11
   6   4  -2    1.29    1.04
  -6  -4   2   -1.17    1.17
  -6  -4   2    0.11    1.12
  -6  -4   2    0.32    0.72
   6   4  -2   -8.22    9.95
  -6  -4   2   -4.75    6.93
   5   4  -2   47.75    2.76
   5   4  -2   49.01    3.77
   5   4  -2   58.56    3.87
  -5  -4   2   48.99    3.71
  -5  -4   2   50.79    3.67
  -5  -4   2   43.77    3.23
  -5  -4   2   49.17    3.10
   5   4  -2   41.52   11.26
   5   4  -2   47.95    9.50
  -5  -4   2   41.98    8.25
  -5  -4   2   50.03   11.80
   4   4  -2    0.75    0.16
   4   4  -2    0.63    0.37
   4   4  -2    0.23    0.33
  -4  -4   2    0.36    0.41
  -4  -4   2    0.08    0.27
  -4  -4   2    0.14    0.32
  -4  -4   2    0.48    0.21
   4   4  -2    3.18    1.87
   4   4  -2    0.66    1.95
  -4  -4   2   -0.51    1.28
  -4  -4   2   -0.05    1.72
   3   4  -2  133.90    9.23
   3   4  -2  121.52    8.25
  -3  -4   2  117.57    9.58
  -3  -4   2  124.79    7.55
  -3  -4   2  117.95    5.94
  -3  -4   2  117.32    8.56
  -3  -4   2  121.93    7.08
   3   4  -2  121.74   13.12
   3   4  -2  121.74   12.60
  -3  -4   2  143.96    9.88
  -3  -4   2  116.13   11.59
   2   4  -2 1142.25   71.08
   2   4  -2 1414.29  101.44
  -2  -4   2 1422.77   84.35
  -2  -4   2 1215.06   75.00
  -2  -4   2 1343.99   90.34
  -2  -4   2 1391.89   81.16
   2   4  -2 1468.13  104.33
   2   4  -2 1548.06  125.08
  -2  -4   2 1672.05   88.15
  -2  -4   2 1636.21   98.76
   1   4  -2  137.98    9.84
   1   4  -2  115.71    9.85
   1   4  -2  131.70   11.18
   1   4  -2  130.27    7.09
  -1  -4   2  135.62   11.41
  -1  -4   2  113.20    7.71
  -1  -4   2  114.77    7.47
  -1  -4   2  126.94    7.59
  -1  -4   2  122.47    8.42
   1   4  -2  134.58   11.24
   1   4  -2  119.21    9.60
  -1  -4   2  128.56    9.91
  -1  -4   2  121.07    8.76
   0   4  -2  225.05   22.99
   0   4  -2  276.18   27.04
   0   4  -2  227.36   23.41
   0   4  -2  235.81   12.36
   0  -4   2  233.54   15.13
   0  -4   2  235.71   24.06
   0  -4   2  235.03   25.42
   0  -4   2  240.59   17.11
   0  -4   2  251.09   15.39
   0  -4   2  234.11   16.70
   0  -4   2  246.46   18.04
   0   4  -2  224.93   18.29
   0   4  -2  232.69   19.08
   0  -4   2  227.89   14.27
   0  -4   2  244.26   20.86
  -1   4  -2   67.65    7.09
  -1   4  -2   79.42    8.12
  -1   4  -2   74.16    5.79
   1  -4   2   69.17    4.60
   1  -4   2   65.49    4.18
   1  -4   2   58.24    4.65
   1  -4   2   58.83    6.24
   1  -4   2   60.08    5.31
   1  -4   2   60.93    5.14
  -1   4  -2   63.81    4.06
  -1   4  -2   60.30    4.09
   1  -4   2   62.85    4.98
  -2   4  -2   29.04    3.38
  -2   4  -2   27.52    2.37
   2  -4   2   27.25    1.86
   2  -4   2   22.26    2.34
   2  -4   2   29.93    2.18
   2  -4   2   22.99    2.73
  -3   4  -2   27.78    2.30
  -3   4  -2   24.14    3.39
   3  -4   2   27.78    2.50
   3  -4   2   25.47    1.92
  -4   4  -2   43.47    3.52
  -4   4  -2   39.20    4.66
  -4   4  -2   39.72    3.15
   4  -4   2   46.17    3.55
   4  -4   2   40.52    3.09
  -5   4  -2   34.33    3.90
  -5   4  -2   34.27    3.07
   5  -4   2   40.03    3.73
   5  -4   2   40.29    3.25
  -5   4  -2   34.49    5.90
  -5   4  -2   27.71    5.68
  -6   4  -2    4.44    2.92
  -6   4  -2    0.77    2.19
   6  -4   2    2.61    2.96
   6  -4   2    1.13    2.00
  -6   4  -2   -2.49    7.75
  -6   4  -2   -6.61    7.26
   9   3  -2    9.46    3.70
   9   3  -2   15.94    3.65
  -9  -3   2    7.15    5.41
  -9  -3   2   12.04    3.06
  -9  -3   2    9.70    3.06
  -9  -3   2   17.29   19.29
   8   3  -2    5.32    2.50
   8   3  -2    4.88    2.45
  -8  -3   2    5.36    2.12
  -8  -3   2    9.17    2.27
  -8  -3   2    4.34    2.52
  -8  -3   2   29.08   14.71
   7   3  -2   21.28    2.52
   7   3  -2   13.41    2.27
  -7  -3   2   16.39    1.87
  -7  -3   2   16.28    2.16
  -7  -3   2   17.27    2.85
  -7  -3   2   14.51    8.63
   6   3  -2  107.96    6.86
   6   3  -2  100.02    6.90
   6   3  -2  103.88    5.90
  -6  -3   2   99.10    7.07
  -6  -3   2   95.31    5.17
  -6  -3   2   94.23    5.66
  -6  -3   2   99.31    5.87
  -6  -3   2  104.54    5.77
   6   3  -2   90.97   14.02
  -6  -3   2  106.35   14.47
  -6  -3   2  100.05   11.90
   5   3  -2    0.61    0.47
   5   3  -2    1.17    0.38
   5   3  -2    0.42    0.32
   5   3  -2    0.17    0.51
  -5  -3   2    0.32    0.35
  -5  -3   2    0.62    0.26
  -5  -3   2    0.03    0.38
  -5  -3   2    0.84    0.32
   5   3  -2    0.17    2.96
   5   3  -2   -1.38    2.43
  -5  -3   2    0.10    2.20
  -5  -3   2    2.97    1.85
   4   3  -2   23.79    2.12
   4   3  -2   29.51    2.24
   4   3  -2   28.31    2.21
   4   3  -2   25.00    1.89
   4   3  -2   21.66    2.02
   4   3  -2   27.25    1.67
  -4  -3   2   26.75    2.09
  -4  -3   2   25.81    2.07
  -4  -3   2   28.26    1.92
  -4  -3   2   25.28    1.57
  -4  -3   2   27.03    2.02
   4   3  -2   27.31    6.63
   4   3  -2   18.69    5.64
  -4  -3   2   16.15    4.87
   3   3  -2  122.75    7.09
   3   3  -2  128.12    8.41
   3   3  -2  119.48    9.01
   3   3  -2  133.23    9.33
   3   3  -2  133.04    8.69
  -3  -3   2  126.80    7.32
  -3  -3   2  131.68    7.43
  -3  -3   2  131.87    9.17
  -3  -3   2  131.63    8.43
  -3  -3   2  127.64    6.14
   3   3  -2  118.24    8.06
   3   3  -2  132.08   13.64
  -3  -3   2  120.23    7.66
  -3  -3   2  142.70    8.63
   2   3  -2  425.59   36.08
   2   3  -2  392.59   24.29
   2   3  -2  385.94   26.30
  -2  -3   2  404.55   22.68
  -2  -3   2  410.17   34.44
  -2  -3   2  371.36   25.46
  -2  -3   2  403.43   21.12
  -2  -3   2  402.96   21.39
  -2  -3   2  462.48   42.26
   2   3  -2  407.72   27.80
   2   3  -2  460.90   37.20
  -2  -3   2  428.18   26.94
  -2  -3   2  463.56   19.32
   1   3  -2   -0.40    0.40
   1   3  -2   -0.30    0.35
   1   3  -2   -0.22    0.42
   1   3  -2    0.03    0.26
  -1  -3   2   -0.39    0.39
  -1  -3   2    0.15    0.32
  -1  -3   2   -0.20    0.27
  -1  -3   2   -0.03    0.15
  -1  -3   2    0.03    0.19
   1   3  -2    1.07    1.10
   1   3  -2    1.37    1.08
  -1  -3   2   -0.56    1.07
  -1  -3   2   -0.98    1.02
   0   3  -2   29.96    2.99
   0   3  -2   27.13    2.79
   0   3  -2   32.64    1.98
   0   3  -2   25.58    3.04
   0  -3   2   27.14    2.10
   0  -3   2   29.69    3.18
   0  -3   2   28.88    1.99
   0  -3   2   30.76    2.15
   0  -3   2   29.73    3.02
   0   3  -2   28.12    3.12
   0   3  -2   23.64    3.18
   0  -3   2   24.40    2.87
   0  -3   2   21.20    2.84
  -1   3  -2   72.62    4.59
  -1   3  -2   69.43    6.92
  -1   3  -2   77.88    8.72
  -1   3  -2   72.56    7.58
   1  -3   2   67.03    4.25
   1  -3   2   72.92    6.35
   1  -3   2   71.55    4.66
   1  -3   2   70.20    5.19
   1  -3   2   63.23    5.36
   1  -3   2   66.96    6.79
   1  -3   2   69.56    7.50
  -1   3  -2   65.01    4.67
  -1   3  -2   62.26    5.46
   1  -3   2   64.28    5.31
   1  -3   2   61.68    4.74
  -2   3  -2  222.00   20.56
  -2   3  -2  238.61   25.13
  -2   3  -2  231.23   22.98
   2  -3   2  215.40   21.12
   2  -3   2  214.31   12.76
   2  -3   2  231.21   15.58
   2  -3   2  218.98   23.64
   2  -3   2  235.77   17.31
   2  -3   2  234.39   27.42
   2  -3   2  217.91   22.72
  -2   3  -2  229.44    9.70
  -2   3  -2  248.33   19.01
   2  -3   2  186.61    8.78
   2  -3   2  254.98   13.95
  -3   3  -2   54.12    6.94
  -3   3  -2   61.29    6.23
  -3   3  -2   59.72    4.36
   3  -3   2   51.85    5.79
   3  -3   2   53.35    4.10
   3  -3   2   53.77    5.82
   3  -3   2   51.63    3.06
   3  -3   2   59.51    3.77
  -3   3  -2   65.32    5.84
  -3   3  -2   62.08    3.92
  -4   3  -2    6.21    1.50
  -4   3  -2    6.61    1.54
  -4   3  -2    4.49    1.82
   4  -3   2    4.83    1.88
   4  -3   2    4.60    1.02
   4  -3   2    2.75    1.50
   4  -3   2    2.93    1.40
  -4   3  -2   16.50    4.77
  -4   3  -2    6.58    3.13
  -5   3  -2    4.42    1.69
  -5   3  -2    6.25    1.85
   5  -3   2    2.19    1.83
  -5   3  -2    7.79    7.00
  -5   3  -2    7.75    4.83
  -6   3  -2   18.35    2.84
  -6   3  -2   22.09    2.92
   6  -3   2   22.09    2.93
   6  -3   2   24.24    2.85
  -6   3  -2   19.21   11.82
  -6   3  -2   25.63    7.98
  -7   3  -2    0.47    2.71
  -7   3  -2    7.90    2.93
   7  -3   2    5.73    3.32
   7  -3   2    5.41    2.26
  -7   3  -2   -1.10   10.65
   9   2  -2    1.14    0.81
   9   2  -2    0.82    0.95
  -9  -2   2    0.28    0.89
  -9  -2   2    0.08    0.84
  -9  -2   2   -2.79    6.52
   8   2  -2    1.00    2.49
   8   2  -2    3.24    2.74
  -8  -2   2    2.17    2.12
  -8  -2   2    1.35    2.47
  -8  -2   2    0.26    2.45
  -8  -2   2   -3.38   13.62
   7   2  -2   62.44    4.46
   7   2  -2   60.74    4.88
  -7  -2   2   62.33    4.26
  -7  -2   2   63.62    4.82
  -7  -2   2   58.52    5.32
  -7  -2   2   51.26   11.26
   6   2  -2   62.15    3.89
   6   2  -2   63.53    4.33
  -6  -2   2   56.31    4.19
  -6  -2   2   61.35    4.13
  -6  -2   2   61.02    4.46
   6   2  -2   49.82   10.89
  -6  -2   2   70.51   10.76
  -6  -2   2   43.72    8.35
   5   2  -2   11.98    1.49
  -5  -2   2    9.88    0.85
  -5  -2   2   11.89    1.25
  -5  -2   2   11.46    1.25
  -5  -2   2   12.69    1.25
   5   2  -2    2.62    6.21
   5   2  -2   17.11    9.86
  -5  -2   2   13.10    4.90
  -5  -2   2   14.79    6.16
   4   2  -2   45.82    2.99
   4   2  -2   38.61    3.63
   4   2  -2   39.92    3.59
   4   2  -2   45.23    3.23
  -4  -2   2   46.54    2.46
  -4  -2   2   43.35    2.96
  -4  -2   2   48.09    2.64
  -4  -2   2   45.79    2.50
  -4  -2   2   46.63    2.71
  -4  -2   2   48.74    3.04
   4   2  -2   39.37    6.75
   4   2  -2   35.01    5.42
  -4  -2   2   45.44    6.01
  -4  -2   2   45.28    5.24
   3   2  -2   47.87    3.38
   3   2  -2   44.91    3.12
   3   2  -2   42.03    2.85
   3   2  -2   45.01    2.98
   3   2  -2   45.80    2.76
   3   2  -2   45.96    3.77
  -3  -2   2   48.13    2.79
  -3  -2   2   44.60    2.76
  -3  -2   2   48.17    2.81
  -3  -2   2   49.37    2.87
  -3  -2   2   47.26    2.22
   3   2  -2   34.86    4.50
   3   2  -2   45.04    5.53
  -3  -2   2   43.59    4.45
  -3  -2   2   42.10    3.98
   2   2  -2  292.39   20.10
   2   2  -2  260.82   19.13
   2   2  -2  290.15   19.31
   2   2  -2  258.50   15.70
   2   2  -2  309.95   22.84
  -2  -2   2  302.71   19.04
  -2  -2   2  280.67   13.20
  -2  -2   2  285.24   20.70
  -2  -2   2  305.90   19.39
  -2  -2   2  299.59   16.18
  -2  -2   2  275.26   17.35
   2   2  -2  298.73   22.71
   2   2  -2  287.08   18.50
  -2  -2   2  305.54   13.53
  -2  -2   2  310.96   16.39
   0   2  -2  699.33   67.68
   0   2  -2  711.04   65.63
   0   2  -2  542.14   34.69
   0  -2   2  575.34   37.62
   0  -2   2  776.94   64.38
   0  -2   2  608.48   47.03
   0  -2   2  561.50   39.86
   0  -2   2  638.26   43.65
   0  -2   2  753.57   89.54
   0   2  -2  593.93   55.95
   0   2  -2  548.90   60.79
   0  -2   2  646.56   53.99
   0  -2   2  573.43   45.03
  -1   2  -2    1.91    0.43
  -1   2  -2    1.77    0.70
  -1   2  -2    1.96    0.73
  -1   2  -2    3.18    0.49
  -1   2  -2    1.72    0.40
   1  -2   2    1.88    0.63
   1  -2   2    2.39    0.41
   1  -2   2    1.52    0.54
   1  -2   2    2.90    0.79
   1  -2   2    1.97    0.40
   1  -2   2    2.20    0.42
   1  -2   2    2.47    0.77
  -1   2  -2   -1.11    1.11
  -1   2  -2    1.05    1.30
   1  -2   2    1.90    1.24
   1  -2   2    1.24    1.73
  -2   2  -2  200.85   16.44
  -2   2  -2  199.72   18.82
  -2   2  -2  209.11   23.43
   2  -2   2  166.84   10.36
   2  -2   2  219.93   22.98
   2  -2   2  201.49   13.96
   2  -2   2  212.53   19.84
   2  -2   2  212.50   23.55
   2  -2   2  219.41   19.00
   2  -2   2  203.89   18.15
  -2   2  -2  225.12   17.77
   2  -2   2  240.49   19.16
   2  -2   2  214.92   12.13
  -3   2  -2   19.07    1.84
  -3   2  -2   16.32    2.21
  -3   2  -2   17.57    1.91
  -3   2  -2   17.00    1.89
   3  -2   2   17.22    1.76
   3  -2   2   21.31    1.98
   3  -2   2   15.07    1.08
   3  -2   2   15.56    1.48
   3  -2   2   15.68    1.82
  -3   2  -2   24.71    4.17
  -3   2  -2   20.41    2.92
  -4   2  -2  432.17   32.31
  -4   2  -2  401.04   30.95
   4  -2   2  397.01   27.78
   4  -2   2  355.84   21.17
   4  -2   2  420.62   28.79
  -4   2  -2  477.07   47.84
  -4   2  -2  471.53   18.67
   4  -2   2  407.37   23.12
  -5   2  -2  425.65   34.44
  -5   2  -2  419.80   41.55
   5  -2   2  429.26   28.67
  -5   2  -2  496.30   45.09
  -5   2  -2  520.66   27.23
  -6   2  -2    6.05    1.89
  -6   2  -2    4.01    1.85
   6  -2   2    2.89    2.07
  -6   2  -2    0.41    9.71
  -6   2  -2    6.60    6.33
  -7   2  -2   34.51    3.56
  -7   2  -2   32.80    3.83
   7  -2   2   31.58    3.95
  -7   2  -2   46.28   11.37
  -8   2  -2    4.51    3.66
  -8   2  -2    6.97    2.98
   8  -2   2    6.99    4.27
   8  -2   2    7.36    3.70
  -8   2  -2    2.24   14.08
   9   1  -2   31.56    4.38
   9   1  -2   23.45    4.01
  -9  -1   2   25.50    3.86
  -9  -1   2   27.59    4.10
  -9  -1   2   42.69   17.27
   8   1  -2   24.08    3.19
   8   1  -2   25.19    3.87
  -8  -1   2   21.73    2.95
  -8  -1   2   21.93    2.93
  -8  -1   2   26.60   15.18
   7   1  -2    0.16    1.75
   7   1  -2    3.65    1.80
  -7  -1   2    6.15    1.83
  -7  -1   2    4.59    2.12
  -7  -1   2    4.78    2.14
  -7  -1   2   -3.88    8.39
   6   1  -2  201.95   14.57
   6   1  -2  188.70   12.73
  -6  -1   2  191.55   17.88
  -6  -1   2  198.85   12.97
  -6  -1   2  197.72   11.12
   6   1  -2  187.81   19.64
  -6  -1   2  227.90   14.92
   5   1  -2    0.59    0.36
   5   1  -2    0.57    0.42
   5   1  -2    0.38    0.30
  -5  -1   2    0.74    0.34
  -5  -1   2    0.10    0.32
  -5  -1   2    0.39    0.32
  -5  -1   2   -0.25    0.35
   5   1  -2   -2.30    2.30
  -5  -1   2   -0.52    1.26
  -5  -1   2   -0.48    1.52
   4   1  -2  607.83   41.21
   4   1  -2  630.95   41.73
   4   1  -2  651.44   37.92
   4   1  -2  547.57   37.70
  -4  -1   2  602.70   41.11
  -4  -1   2  629.68   32.43
  -4  -1   2  662.05   46.67
  -4  -1   2  599.89   30.75
   4   1  -2  768.79   52.42
   4   1  -2  723.55   56.35
  -4  -1   2  687.66   34.12
  -4  -1   2  693.74   42.08
   3   1  -2   14.89    1.29
   3   1  -2   15.92    1.54
   3   1  -2   16.50    1.23
   3   1  -2   17.91    1.26
  -3  -1   2   16.41    1.17
  -3  -1   2   16.93    0.92
  -3  -1   2   19.47    1.26
  -3  -1   2   15.63    0.96
  -3  -1   2   16.77    1.22
  -3  -1   2   15.61    1.04
   3   1  -2   18.01    4.19
   3   1  -2    9.91    3.67
  -3  -1   2   20.34    3.13
  -3  -1   2   19.96    2.95
   2   1  -2  159.39   13.94
   2   1  -2  161.52   11.04
   2   1  -2  178.12   11.03
   2   1  -2  166.86   10.40
  -2  -1   2  168.78    9.05
  -2  -1   2  176.09   10.47
  -2  -1   2  159.64   11.26
  -2  -1   2  171.34   10.55
  -2  -1   2  164.08    9.37
  -2  -1   2  166.67    9.74
   2   1  -2  163.06   18.84
   2   1  -2  186.20    8.80
  -2  -1   2  181.93   11.53
  -2  -1   2  176.55   12.29
   1   1  -2  380.35   28.06
   1   1  -2  423.91   31.61
   1   1  -2  381.43   23.73
   1   1  -2  331.00   25.34
  -1  -1   2  358.10   20.41
  -1  -1   2  387.82   29.79
  -1  -1   2  383.95   25.53
  -1  -1   2  376.10   20.20
  -1  -1   2  385.46   23.84
   1   1  -2  410.86   36.33
   1   1  -2  394.17   28.77
  -1  -1   2  404.19   36.26
  -1  -1   2  412.45   34.88
   0   1  -2  197.10   16.82
   0   1  -2  139.66   10.36
   0   1  -2  153.19    9.60
   0  -1   2  151.12   10.19
   0  -1   2  162.74   11.97
   0   1  -2  162.94   11.95
   0  -1   2  170.10   11.59
   0  -1   2  169.77   14.36
  -1   1  -2   55.40    4.68
  -1   1  -2   56.97    5.15
  -1   1  -2   47.80    3.19
  -1   1  -2   49.47    3.69
  -1   1  -2   56.08    3.95
  -1   1  -2   46.96    3.71
   1  -1   2   54.98    4.04
   1  -1   2   43.17    2.81
   1  -1   2   55.58    3.97
   1  -1   2   53.14    3.93
   1  -1   2   51.33    3.01
  -1   1  -2   55.15    4.27
  -1   1  -2   56.10    4.15
   1  -1   2   61.37    4.45
   1  -1   2   54.37    3.70
  -2   1  -2   22.22    1.79
  -2   1  -2   21.26    2.16
  -2   1  -2   22.09    1.86
  -2   1  -2   18.87    1.52
   2  -1   2   24.46    2.09
   2  -1   2   21.70    1.83
   2  -1   2   20.12    1.92
   2  -1   2   20.23    1.64
  -2   1  -2   23.76    2.93
  -2   1  -2   18.99    2.67
   2  -1   2   20.07    2.56
   2  -1   2   24.05    2.55
  -3   1  -2  328.35   28.05
  -3   1  -2  290.96   24.98
  -3   1  -2  278.20   22.21
  -3   1  -2  293.09   19.06
   3  -1   2  326.13   26.03
   3  -1   2  292.89   24.11
   3  -1   2  317.18   23.70
   3  -1   2  304.96   23.96
  -3   1  -2  312.77   26.05
  -3   1  -2  332.09   18.32
   3  -1   2  351.28   15.33
   3  -1   2  364.74   24.57
  -4   1  -2    0.91    0.83
  -4   1  -2    0.59    0.65
   4  -1   2   -0.44    0.97
   4  -1   2   -0.10    0.58
   4  -1   2   -0.86    0.86
   4  -1   2   -0.15    0.47
   4  -1   2   -0.25    0.69
  -4   1  -2   -0.54    2.93
  -4   1  -2    1.71    2.34
   4  -1   2    5.32    3.70
  -5   1  -2   12.96    1.88
   5  -1   2    8.38    1.32
   5  -1   2    9.91    1.33
   5  -1   2    8.92    1.12
   5  -1   2   12.60    1.82
  -5   1  -2   19.88    5.03
  -5   1  -2   11.49    6.00
   5  -1   2   -1.84    7.20
  -6   1  -2   17.05    2.12
  -6   1  -2   12.71    2.01
   6  -1   2   13.91    2.18
  -6   1  -2   11.28    7.80
  -6   1  -2    9.67    6.26
  -7   1  -2   18.27    2.95
  -7   1  -2   18.54    2.50
   7  -1   2   22.19    3.10
  -7   1  -2   29.49   10.25
  -8   1  -2   13.44    2.99
  -8   1  -2   12.31    3.09
   8  -1   2   13.18    2.70
   8  -1   2   10.30    3.70
  -8   1  -2    6.15   13.75
   8   0  -2   50.43    4.78
   8   0  -2   51.38    4.95
  -8   0   2   53.63    4.65
  -8   0   2   54.68    5.48
  -8   0   2   59.88   14.13
   7   0  -2   53.32    4.67
   7   0  -2   47.64    4.20
  -7   0   2   49.92    4.25
  -7   0   2   53.89    4.81
  -7   0   2   62.60   11.49
   6   0  -2   49.04    3.91
   6   0  -2   41.90    3.68
  -6   0   2   46.45    3.94
  -6   0   2   48.75    3.95
  -6   0   2   26.75    7.21
   5   0  -2   72.91    5.36
   5   0  -2   64.56    4.99
   5   0  -2   63.89    5.34
  -5   0   2   78.82    4.98
  -5   0   2   62.44    4.25
  -5   0   2   76.97    5.87
   5   0  -2   65.20    8.97
  -5   0   2   79.92    7.78
  -5   0   2   88.97    7.41
   4   0  -2   17.58    1.65
   4   0  -2   18.24    1.67
   4   0  -2   19.13    1.89
  -4   0   2   18.14    1.50
  -4   0   2   17.75    1.82
  -4   0   2   18.31    1.64
  -4   0   2   21.68    1.58
   4   0  -2   26.26    5.92
   4   0  -2   11.79    4.74
  -4   0   2   14.98    3.26
  -4   0   2   19.56    3.74
   3   0  -2    8.16    0.78
   3   0  -2    6.68    1.03
   3   0  -2    5.96    0.97
   3   0  -2    8.38    0.95
   3   0  -2    8.50    1.12
  -3   0   2    9.75    0.87
  -3   0   2    8.92    0.98
  -3   0   2    7.55    0.86
  -3   0   2    7.94    0.86
   3   0  -2    8.59    3.75
   3   0  -2    9.14    3.27
  -3   0   2    7.09    2.30
   2   0  -2  168.70   11.68
   2   0  -2  160.19   10.70
   2   0  -2  179.84   14.95
   2   0  -2  170.28   12.70
   2   0  -2  160.30    8.24
  -2   0   2  149.51    7.12
  -2   0   2  167.52    9.18
  -2   0   2  156.85    8.57
  -2   0   2  170.36   12.41
  -2   0   2  157.69    8.60
  -2   0   2  178.14    9.87
   2   0  -2  185.63   15.75
   2   0  -2  195.31   14.52
  -2   0   2  188.33   11.30
   1   0  -2   12.03    0.75
   1   0  -2   14.45    1.12
   1   0  -2   13.07    1.00
   1   0  -2   13.48    0.66
   1   0  -2   11.85    0.92
   1   0  -2   10.40    0.87
  -1   0   2   12.45    0.82
  -1   0   2   13.07    1.01
  -1   0   2   13.40    0.68
  -1   0   2   12.40    1.02
  -1   0   2   15.28    0.99
  -1   0   2   12.30    0.67
   1   0  -2   12.26    1.61
   1   0  -2   12.06    1.39
  -1   0   2   11.62    1.40
   0   0  -2   46.43    3.58
   0   0  -2   63.10    5.60
   0   0  -2   47.60    3.18
   0   0  -2   63.41    4.98
   0   0  -2   42.01    2.93
   0   0  -2   51.41    5.20
   0   0   2   47.65    3.75
   0   0   2   48.24    2.95
   0   0   2   42.23    3.19
   0   0   2   57.56    3.97
   0   0  -2   54.65    4.76
   0   0  -2   47.31    3.31
   0   0   2   52.13    5.51
   0   0   2   51.35    3.82
  -1   0  -2  142.65    7.95
  -1   0  -2  161.34   11.35
  -1   0  -2  143.47   12.11
  -1   0  -2  132.57    9.62
  -1   0  -2  121.81    7.26
   1   0   2  133.78    9.86
   1   0   2  138.12    9.59
   1   0   2  148.51    9.58
   1   0   2  139.65    7.82
   1   0   2  145.49    9.17
   1   0   2  141.48   10.01
  -1   0  -2  153.06    9.22
  -1   0  -2  152.23   11.91
   1   0   2  158.09    8.46
   1   0   2  159.94    8.55
  -2   0  -2   16.94    1.09
  -2   0  -2   17.51    1.32
  -2   0  -2   16.12    1.04
  -2   0  -2   12.96    1.17
   2   0   2   14.88    1.17
   2   0   2   17.23    1.19
   2   0   2   15.38    0.92
   2   0   2   17.87    1.43
   2   0   2   18.21    1.03
  -2   0  -2   20.26    2.40
  -2   0  -2   19.82    2.45
   2   0   2   19.64    2.53
   2   0   2   19.05    2.22
  -3   0  -2 1038.62   66.52
  -3   0  -2 1033.69   66.52
  -3   0  -2 1008.18   60.45
  -3   0  -2 1043.13   65.69
   3   0   2 1067.16   69.58
   3   0   2 1091.70   67.60
   3   0   2 1151.04   71.53
   3   0   2 1132.29   70.56
   3   0   2 1094.77   57.26
  -3   0  -2 1236.28   67.46
   3   0   2 1285.49   55.32
   3   0   2 1325.48   54.71
  -4   0  -2  166.19   11.19
  -4   0  -2  165.20   11.13
  -4   0  -2  146.41   13.01
  -4   0  -2  166.70    8.71
   4   0   2  171.96   11.87
   4   0   2  164.59    9.21
   4   0   2  178.28   11.78
   4   0   2  155.79   12.44
   4   0   2  164.18   10.97
  -4   0  -2  181.31   10.30
   4   0   2  175.59   11.72
   4   0   2  185.91   11.51
  -5   0  -2  216.54   14.89
  -5   0  -2  220.47   15.49
   5   0   2  234.53   18.52
   5   0   2  235.73   13.31
   5   0   2  214.10   15.35
  -5   0  -2  237.83   13.05
  -5   0  -2  162.59   15.36
   5   0   2  219.41   15.34
  -6   0  -2   71.02    5.77
  -6   0  -2   70.50    4.25
   6   0   2   65.88    6.16
  -6   0  -2   61.32    8.35
  -7   0  -2   11.58    2.19
  -7   0  -2   13.24    2.09
   7   0   2   10.73    2.72
  -7   0  -2   19.28    8.31
  -8   0  -2   54.98    4.62
  -8   0  -2   48.29    4.89
   8   0   2   57.51    5.32
   8   0   2   57.60    5.33
  -8   0  -2   63.37   12.68
   8  -1  -2   17.39    3.49
  -8   1   2   17.09    3.36
  -8   1   2   18.74    3.43
  -8   1   2    1.48   14.85
   7  -1  -2   -0.22    0.99
  -7   1   2    0.35    0.83
  -7   1   2    0.47    0.80
  -7   1   2    2.87    3.03
   6  -1  -2   17.12    2.32
   6  -1  -2   12.89    2.30
  -6   1   2   10.85    1.95
  -6   1   2   14.91    1.90
  -6   1   2   12.41    6.16
  -6   1   2   31.86    8.43
   5  -1  -2  130.85    8.42
   5  -1  -2  117.44    8.61
  -5   1   2  131.16    9.02
  -5   1   2  127.76    8.06
   5  -1  -2   90.50   10.28
  -5   1   2  130.18   12.14
   4  -1  -2  310.35   21.99
   4  -1  -2  366.66   24.34
   4  -1  -2  376.76   25.71
  -4   1   2  376.02   22.13
  -4   1   2  341.97   21.05
  -4   1   2  362.38   20.71
   4  -1  -2  412.55   37.34
  -4   1   2  389.57   32.67
  -4   1   2  390.79   22.97
   3  -1  -2    0.15    0.27
   3  -1  -2    0.08    0.14
   3  -1  -2    0.55    0.23
   3  -1  -2   -0.25    0.35
   3  -1  -2   -0.11    0.33
   3  -1  -2    0.12    0.35
   3  -1  -2   -0.28    0.28
  -3   1   2    0.26    0.20
   3  -1  -2   -1.11    1.11
   3  -1  -2    1.02    1.09
  -3   1   2    0.43    0.66
  -3   1   2   -0.08    0.83
   2  -1  -2 2375.37  151.61
   2  -1  -2 2378.55  102.09
   2  -1  -2 2880.46  300.87
   2  -1  -2 2030.15  133.94
   2  -1  -2 2418.63  112.34
  -2   1   2 2315.75  166.15
  -2   1   2 2267.38  121.69
  -2   1   2 2253.54  181.43
  -2   1   2 2233.55  113.55
   2  -1  -2 2707.71  213.79
   2  -1  -2 2723.56  219.15
  -2   1   2 2345.98  160.67
  -2   1   2 2458.22  153.86
   1  -1  -2   73.94    4.27
   1  -1  -2   75.80    4.94
   1  -1  -2   84.81    7.94
   1  -1  -2   69.67    3.82
   1  -1  -2   78.32    5.33
   1  -1  -2   87.10    7.00
  -1   1   2   85.18    6.38
  -1   1   2   80.38    3.92
  -1   1   2   86.48    6.53
  -1   1   2   77.42    4.01
  -1   1   2   76.10    4.83
   1  -1  -2   83.32    6.76
   1  -1  -2   84.57    6.51
  -1   1   2   76.67    5.62
  -1   1   2   82.08    5.89
   0  -1  -2  563.88   33.69
   0  -1  -2  500.63   39.33
   0  -1  -2  589.40   35.91
   0  -1  -2  512.47   29.23
   0   1   2  502.55   34.10
   0   1   2  528.50   33.42
   0   1   2  474.39   29.33
   0  -1  -2  621.22   51.13
   0  -1  -2  614.56   57.06
   0   1   2  581.09   44.85
   0   1   2  565.87   39.25
  -1  -1  -2 4129.46  259.45
  -1  -1  -2 3986.79  218.75
   1   1   2 4041.81  200.57
   1   1   2 4102.90  195.55
  -2  -1  -2  123.22    6.98
  -2  -1  -2  119.31    7.01
  -2  -1  -2  128.70    7.87
  -2  -1  -2  122.88    7.58
   2   1   2  120.42    7.36
   2   1   2  120.99    6.99
   2   1   2  124.60    6.78
   2   1   2  122.09    7.33
   2   1   2  131.59    7.68
   2   1   2  119.18    7.02
   2   1   2  124.20    8.93
  -2  -1  -2  117.50    7.78
  -2  -1  -2  130.99    6.06
   2   1   2  131.12    7.22
   2   1   2  125.11    6.31
  -3  -1  -2  140.14    8.45
  -3  -1  -2  148.87    8.14
  -3  -1  -2  142.22    8.38
  -3  -1  -2  144.52    9.07
   3   1   2  154.96    8.45
   3   1   2  165.98    8.30
   3   1   2  156.54   10.42
   3   1   2  144.47    7.51
   3   1   2  157.94    7.89
   3   1   2  143.87    6.89
  -3  -1  -2  164.22   11.28
  -3  -1  -2  165.40    8.30
   3   1   2  155.71    8.52
   3   1   2  154.98    7.54
  -4  -1  -2    2.06    0.66
  -4  -1  -2    0.37    0.85
  -4  -1  -2    3.33    0.70
  -4  -1  -2    2.72    0.53
   4   1   2    2.20    0.70
   4   1   2    1.53    1.11
   4   1   2    1.22    0.69
   4   1   2    1.07    0.88
   4   1   2    5.40    1.04
  -4  -1  -2    4.44    3.71
  -4  -1  -2    4.55    3.71
   4   1   2    7.84    4.16
   4   1   2   -3.89    3.89
  -5  -1  -2    9.62    1.06
  -5  -1  -2    9.00    1.11
  -5  -1  -2    7.73    1.06
   5   1   2    7.37    1.23
   5   1   2    7.60    1.15
   5   1   2    8.16    0.91
   5   1   2    8.14    0.83
  -5  -1  -2    0.22    5.50
  -5  -1  -2    3.38    4.12
   5   1   2    3.81    5.86
  -6  -1  -2   35.88    2.86
  -6  -1  -2   34.21    2.48
  -6  -1  -2   31.95    2.66
   6   1   2   26.28    2.54
   6   1   2   29.20    2.90
   6   1   2   30.18    1.92
   6   1   2   30.65    1.73
  -6  -1  -2   38.43    9.63
  -6  -1  -2   29.96    7.23
   6   1   2   31.58   10.85
  -7  -1  -2    5.91    1.61
  -7  -1  -2    7.34    1.90
  -7  -1  -2    3.41    1.64
   7   1   2    0.03    1.97
  -7  -1  -2   11.57    8.29
  -8  -1  -2    6.41    2.61
  -8  -1  -2    3.02    2.34
   8   1   2   14.91    3.16
   8   1   2    8.13    3.30
  -8  -1  -2   13.05   11.61
  -9  -1  -2    7.84    3.51
  -9  -1  -2    0.76    2.96
   9   1   2    7.35    3.91
   9   1   2    3.15    3.53
  -9  -1  -2   23.49   20.67
   8  -2  -2    3.06    3.09
  -8   2   2    1.03    3.38
  -8   2   2    9.28    3.55
  -8   2   2  -10.30   12.42
   7  -2  -2   23.11    3.24
   7  -2  -2   24.85    3.56
  -7   2   2   26.02    3.16
  -7   2   2   22.18    3.50
  -7   2   2   31.88   10.13
   6  -2  -2   13.72    2.16
   6  -2  -2   15.69    2.16
  -6   2   2   18.34    2.45
  -6   2   2   12.17    2.30
  -6   2   2   17.18    6.58
  -6   2   2   25.19    9.47
   5  -2  -2   11.26    1.75
   5  -2  -2   10.44    1.48
  -5   2   2   10.05    1.63
  -5   2   2   10.18    1.88
  -5   2   2   13.63    4.93
  -5   2   2   12.63    5.65
   4  -2  -2  127.53    8.02
   4  -2  -2  126.83    7.62
   4  -2  -2  125.07    6.07
   4  -2  -2  121.70    7.34
   4  -2  -2  113.74   13.50
  -4   2   2  117.54    7.68
  -4   2   2  115.13    8.75
  -4   2   2  124.12    9.12
   4  -2  -2  100.74    9.93
  -4   2   2  112.71    8.05
  -4   2   2  122.20   13.13
   3  -2  -2   41.33    4.67
   3  -2  -2   37.58    3.03
   3  -2  -2   33.38    4.00
   3  -2  -2   35.32    2.47
   3  -2  -2   37.83    3.73
   3  -2  -2   39.64    2.14
   3  -2  -2   37.93    2.79
   3  -2  -2   42.12    1.98
  -3   2   2   45.12    3.65
  -3   2   2   40.18    3.03
  -3   2   2   45.27    3.36
  -3   2   2   36.78    2.69
   3  -2  -2   34.18    4.04
  -3   2   2   40.06    3.95
  -3   2   2   36.17    3.27
   2  -2  -2   22.61    2.39
   2  -2  -2   22.23    2.66
   2  -2  -2   26.28    1.38
   2  -2  -2   23.63    1.78
   2  -2  -2   25.85    1.47
   2  -2  -2   23.25    1.80
   2  -2  -2   25.16    2.31
  -2   2   2   33.31    3.08
  -2   2   2   24.61    2.35
  -2   2   2   25.59    2.24
   2  -2  -2   22.24    2.64
   2  -2  -2   17.22    2.38
  -2   2   2   20.64    2.38
  -2   2   2   26.05    2.43
   1  -2  -2   84.97    7.68
   1  -2  -2   80.72    4.24
   1  -2  -2   93.70   10.50
   1  -2  -2   83.41    4.61
   1  -2  -2   75.23    5.10
   1  -2  -2   79.86    5.33
   1  -2  -2   96.26    9.48
  -1   2   2   98.76    8.63
  -1   2   2  100.40    9.65
  -1   2   2  101.12    7.98
  -1   2   2   88.40    5.94
   1  -2  -2   82.49    6.48
   1  -2  -2   83.73    7.17
  -1   2   2   76.09    6.15
  -1   2   2   78.22    6.31
   0  -2  -2 1393.75  110.78
   0  -2  -2 1196.89  102.94
   0  -2  -2 1090.50   58.57
   0  -2  -2 1195.85   94.28
   0  -2  -2 1141.46   66.83
   0  -2  -2 1153.62   83.47
   0  -2  -2 1033.08   91.11
   0   2   2 1144.30   68.87
   0   2   2 1131.60   85.20
   0   2   2 1104.19   72.83
   0   2   2 1028.05   62.89
   0  -2  -2 1197.05   72.58
   0  -2  -2 1223.03   93.58
   0   2   2 1127.04   52.36
   0   2   2 1093.39   60.19
  -1  -2  -2  264.41   19.14
  -1  -2  -2  247.24   13.15
  -1  -2  -2  244.32   13.57
  -1  -2  -2  238.69   19.81
  -1  -2  -2  242.73   12.76
  -1  -2  -2  234.13   14.11
   1   2   2  236.91   14.70
   1   2   2  232.95   21.84
   1   2   2  227.85   17.39
   1   2   2  269.72   18.75
   1   2   2  230.39   13.85
   1   2   2  235.12   16.42
   1   2   2  275.51   18.13
  -1  -2  -2  232.24   14.51
  -1  -2  -2  253.53   20.41
   1   2   2  247.68   11.00
   1   2   2  213.15   11.48
  -2  -2  -2  182.02   10.73
  -2  -2  -2  173.69   11.29
  -2  -2  -2  172.70   14.71
  -2  -2  -2  178.06   12.86
  -2  -2  -2  174.53    9.82
  -2  -2  -2  167.25    9.82
   2   2   2  167.39    9.72
   2   2   2  171.21   11.28
   2   2   2  174.77   10.76
   2   2   2  160.79   10.90
   2   2   2  174.28   11.86
  -2  -2  -2  168.25   10.74
  -2  -2  -2  190.75   11.94
   2   2   2  191.05    8.57
  -3  -2  -2  357.43   20.55
  -3  -2  -2  339.24   21.69
  -3  -2  -2  346.30   20.89
  -3  -2  -2  327.18   18.64
   3   2   2  349.88   19.25
   3   2   2  344.08   17.33
   3   2   2  330.13   18.01
   3   2   2  342.48   19.11
   3   2   2  335.14   20.82
  -3  -2  -2  374.81   16.67
  -3  -2  -2  387.36   15.92
   3   2   2  394.88   15.67
   3   2   2  377.75   16.80
  -4  -2  -2  441.30   27.54
  -4  -2  -2  416.20   25.25
  -4  -2  -2  405.14   26.52
  -4  -2  -2  401.04   23.76
   4   2   2  422.68   24.38
   4   2   2  428.61   25.28
   4   2   2  450.92   27.00
   4   2   2  445.00   23.70
   4   2   2  481.69   29.47
   4   2   2  428.26   20.06
  -4  -2  -2  495.20   20.18
  -4  -2  -2  502.55   21.61
   4   2   2  510.61   21.54
   4   2   2  514.18   25.01
  -5  -2  -2   94.25    5.99
  -5  -2  -2   88.85    5.54
  -5  -2  -2   86.32    4.38
   5   2   2   91.25    4.69
   5   2   2   95.50    5.18
   5   2   2   95.09    6.14
   5   2   2   94.20    5.04
  -5  -2  -2  108.19    9.21
  -5  -2  -2   97.30    7.81
   5   2   2   99.17    9.33
   5   2   2  119.71   11.32
  -6  -2  -2  108.51    7.59
  -6  -2  -2  114.33    6.94
  -6  -2  -2  102.96    5.27
   6   2   2  111.65    7.23
   6   2   2  114.80    6.20
   6   2   2  111.75    5.51
   6   2   2  119.49    7.28
  -6  -2  -2  119.62   14.03
  -6  -2  -2  115.10   10.41
   6   2   2  132.44   13.59
  -7  -2  -2   34.56    2.62
  -7  -2  -2   35.93    2.89
  -7  -2  -2   31.66    2.74
   7   2   2   29.58    3.33
  -7  -2  -2   29.90    9.90
  -8  -2  -2   75.79    5.43
  -8  -2  -2   72.07    4.98
   8   2   2   74.92    6.42
  -8  -2  -2   75.32   14.31
  -9  -2  -2   37.50    4.59
  -9  -2  -2   41.37    4.16
   9   2   2   48.03    4.65
   9   2   2   39.61    4.52
  -9  -2  -2   34.70   20.94
   7  -3  -2    7.89    2.50
  -7   3   2    8.43    3.04
  -7   3   2    4.27    8.38
   6  -3  -2    0.88    1.96
   6  -3  -2    5.62    2.20
  -6   3   2    0.78    2.17
  -6   3   2    6.26    1.86
  -6   3   2    3.42    7.12
  -6   3   2    2.88   10.07
   5  -3  -2   -1.10    1.10
   5  -3  -2    1.58    1.20
  -5   3   2    0.65    1.23
  -5   3   2    0.73    1.47
  -5   3   2    2.19    3.74
  -5   3   2   -3.92    3.92
   4  -3  -2  135.48    8.79
   4  -3  -2  125.38    8.51
   4  -3  -2  129.96    7.44
   4  -3  -2  132.97    8.28
  -4   3   2  136.16   10.04
  -4   3   2  137.47    8.62
  -4   3   2  145.07   12.77
  -4   3   2  162.24   12.97
   3  -3  -2   10.44    1.44
   3  -3  -2    7.23    1.21
   3  -3  -2    5.49    1.24
   3  -3  -2    7.47    1.41
  -3   3   2    6.19    1.33
   3  -3  -2    9.35    3.57
  -3   3   2    4.74    2.15
  -3   3   2    4.12    2.07
   2  -3  -2  800.98   49.14
   2  -3  -2  870.48   43.98
   2  -3  -2  882.78   42.45
   2  -3  -2  900.98   89.51
   2  -3  -2  797.72   53.20
   2  -3  -2  834.16   89.88
  -2   3   2  926.27   94.81
  -2   3   2  947.72   80.37
   1  -3  -2  203.02    9.54
   1  -3  -2  227.78   21.13
   1  -3  -2  201.58   20.42
   1  -3  -2  203.94   12.75
   1  -3  -2  210.35   16.88
   1  -3  -2  192.82   13.23
   1  -3  -2  176.90   14.71
   1  -3  -2  216.15   18.61
   1  -3  -2  219.09   10.90
  -1   3   2  233.18   17.44
  -1   3   2  225.25   19.55
  -1   3   2  245.87   15.94
  -1   3   2  211.60   13.94
  -1   3   2   32.15    1.41
   0  -3  -2   19.87    1.97
   0  -3  -2   17.36    2.53
   0  -3  -2   21.79    2.24
   0  -3  -2   21.55    1.66
   0  -3  -2   23.74    1.60
   0  -3  -2   23.62    1.63
   0  -3  -2   20.19    1.82
   0   3   2   24.91    2.11
   0   3   2   25.78    2.07
   0   3   2   23.59    1.90
   0   3   2   23.17    1.66
   0  -3  -2   18.48    2.72
   0  -3  -2   14.75    2.14
   0   3   2   14.63    1.70
  -1  -3  -2  131.68    7.21
  -1  -3  -2  144.16   12.47
  -1  -3  -2  129.16   10.13
  -1  -3  -2  146.12   12.21
  -1  -3  -2  133.08    6.59
   1   3   2  126.20    8.27
   1   3   2  129.94    9.08
   1   3   2  140.19    9.11
   1   3   2  134.92    8.96
   1   3   2  138.98    9.53
   1   3   2  133.39    8.54
  -1  -3  -2  145.88   10.28
  -1  -3  -2  143.26    7.29
   1   3   2  130.96    5.53
   1   3   2  129.83    6.64
  -2  -3  -2  113.16    5.48
  -2  -3  -2  115.27    6.09
  -2  -3  -2  116.31    7.57
  -2  -3  -2  107.34    7.96
  -2  -3  -2  107.37    9.62
   2   3   2  110.58    9.02
   2   3   2  116.29    6.38
   2   3   2  116.64    8.41
   2   3   2  122.47   13.73
   2   3   2  122.36    8.84
   2   3   2  119.94    9.92
  -2  -3  -2  122.80    8.76
  -2  -3  -2  130.71    7.49
   2   3   2  122.49    7.30
   2   3   2  113.42    7.58
  -3  -3  -2  255.02   19.48
  -3  -3  -2  251.17   11.70
  -3  -3  -2  255.23   17.60
  -3  -3  -2  247.25   14.54
  -3  -3  -2  260.32   16.29
   3   3   2  259.78   13.84
   3   3   2  248.07   13.69
   3   3   2  258.07   16.32
   3   3   2  245.88   17.99
   3   3   2  235.64   13.62
   3   3   2  243.02   14.51
  -3  -3  -2  277.82   14.99
  -3  -3  -2  277.60   12.48
   3   3   2  261.26   12.56
   3   3   2  254.26   12.40
  -4  -3  -2    6.00    0.89
  -4  -3  -2    5.38    1.11
  -4  -3  -2    5.42    1.14
  -4  -3  -2    5.11    0.98
   4   3   2    5.06    1.05
   4   3   2    4.66    1.11
   4   3   2    7.56    1.02
   4   3   2    5.60    1.00
  -4  -3  -2    8.21    5.66
  -4  -3  -2   -0.23    4.40
   4   3   2   -0.94    5.02
   4   3   2   -0.81    4.65
  -5  -3  -2  128.03   10.17
  -5  -3  -2  136.20    8.15
  -5  -3  -2  128.68    6.58
   5   3   2  133.30    7.60
   5   3   2  131.99    7.75
   5   3   2  137.23    6.17
   5   3   2  127.65    9.70
   5   3   2  137.73    6.88
  -5  -3  -2  164.17   12.18
  -5  -3  -2  157.60   10.64
   5   3   2  129.36   10.98
   5   3   2  164.35   14.29
  -6  -3  -2   48.20    3.60
  -6  -3  -2   46.16    2.82
  -6  -3  -2   47.99    3.09
   6   3   2   48.78    2.63
   6   3   2   44.21    3.28
   6   3   2   46.17    2.85
  -6  -3  -2   53.00    9.62
  -6  -3  -2   56.68    9.62
   6   3   2   49.74   11.84
  -7  -3  -2    1.04    1.03
  -7  -3  -2    0.67    1.07
   7   3   2    3.38    1.29
  -7  -3  -2   -3.60    5.95
  -8  -3  -2    9.10    2.44
  -8  -3  -2    5.08    1.99
  -8  -3  -2    2.40    1.97
   8   3   2    3.67    2.81
  -8  -3  -2    9.60   11.21
  -9  -3  -2   11.25    2.93
  -9  -3  -2    8.90    2.85
   9   3   2   10.52    3.91
   9   3   2   11.95    3.97
  -9  -3  -2   18.49   21.96
   6  -4  -2   -0.01    0.83
  -6   4   2    1.19    0.77
  -6   4   2   -0.03    1.27
  -6   4   2   -0.09    1.52
   5  -4  -2    3.68    2.00
   5  -4  -2    4.05    2.08
   5  -4  -2    2.89    1.55
  -5   4   2    6.39    2.21
   4  -4  -2   29.29    2.53
   4  -4  -2   28.85    2.57
   4  -4  -2   24.19    2.57
  -4   4   2   31.05    2.85
   3  -4  -2  462.27   29.67
   3  -4  -2  451.68   23.71
   3  -4  -2  440.94   25.78
   3  -4  -2  405.34   30.62
   3  -4  -2  479.98   24.88
  -3   4   2  471.04   29.86
  -3   4   2  465.81   37.55
   2  -4  -2   65.81    5.15
   2  -4  -2   68.32    4.36
   2  -4  -2   59.57    4.23
   2  -4  -2   62.48    4.08
   2  -4  -2   68.33    4.53
  -2   4   2   68.98    4.69
  -2   4   2   84.08    6.31
   1  -4  -2   70.19    6.42
   1  -4  -2   88.73    4.74
   1  -4  -2   80.71    5.63
   1  -4  -2   76.32    8.02
   1  -4  -2   77.22    6.08
   1  -4  -2   82.63    4.59
   1  -4  -2   74.32    4.87
   1  -4  -2   75.25    7.09
   1  -4  -2   70.57    7.23
  -1   4   2   96.77    7.80
  -1   4   2   87.86    5.67
   0  -4  -2   75.64    5.26
   0  -4  -2   71.13    7.25
   0  -4  -2   78.68    7.49
   0  -4  -2   71.88    6.03
   0  -4  -2   74.93    4.24
   0  -4  -2   76.75    6.82
   0  -4  -2   74.59    4.51
   0   4   2   81.88    5.77
   0   4   2   90.03    8.26
   0   4   2   90.55    6.98
   0  -4  -2   61.76    6.03
   0  -4  -2   80.05    4.09
   0   4   2   80.87    5.31
   0   4   2   71.90    4.83
  -1  -4  -2   27.25    2.23
  -1  -4  -2   21.04    2.62
  -1  -4  -2   28.88    2.38
  -1  -4  -2   23.05    2.11
  -1  -4  -2   28.43    2.20
   1   4   2   35.16    3.03
   1   4   2   28.53    2.06
   1   4   2   24.68    2.13
  -1  -4  -2   26.85    4.45
  -1  -4  -2   25.80    3.45
   1   4   2   32.02    3.36
   1   4   2   37.29    3.71
  -2  -4  -2    3.00    1.21
  -2  -4  -2    4.22    1.08
  -2  -4  -2    4.62    1.11
  -2  -4  -2    2.87    0.60
   2   4   2    5.61    1.01
   2   4   2    3.97    0.96
  -2  -4  -2   -0.89    3.85
  -2  -4  -2   -0.68    3.14
   2   4   2    4.58    3.39
   2   4   2    3.18    3.04
  -3  -4  -2  197.59   14.78
  -3  -4  -2  201.67   14.62
  -3  -4  -2  202.71   12.54
  -3  -4  -2  200.67   13.20
   3   4   2  201.36   10.89
   3   4   2  227.43   17.20
   3   4   2  194.99   13.73
   3   4   2  192.74   11.37
   3   4   2  207.87   12.48
   3   4   2  206.20   12.51
  -3  -4  -2  223.04   13.50
  -3  -4  -2  204.45   16.25
   3   4   2  196.45   12.32
   3   4   2  221.23   11.91
  -4  -4  -2   85.19    6.06
  -4  -4  -2   81.56    6.14
  -4  -4  -2   86.26    6.53
  -4  -4  -2   83.77    6.83
   4   4   2   87.17    5.25
   4   4   2  108.64    6.96
   4   4   2   86.25    6.63
   4   4   2  106.79    5.80
  -4  -4  -2   98.79   11.16
  -4  -4  -2   82.45    8.53
   4   4   2  112.83   10.05
   4   4   2  101.14    9.70
  -5  -4  -2   27.80    2.25
  -5  -4  -2   27.01    2.46
   5   4   2   25.67    2.26
   5   4   2   35.94    2.41
   5   4   2   37.06    2.86
   5   4   2   31.74    2.36
   5   4   2   34.37    2.44
  -5  -4  -2   26.21    9.49
  -5  -4  -2   21.91    7.15
   5   4   2   22.35    7.89
   5   4   2   26.06   10.46
  -6  -4  -2   66.11    3.81
  -6  -4  -2   70.68    4.46
   6   4   2   66.25    3.98
   6   4   2   66.98    4.63
   6   4   2   65.91    3.59
   6   4   2   66.64    4.83
  -6  -4  -2   67.12   11.18
   6   4   2   71.06   12.75
  -7  -4  -2   20.42    2.50
  -7  -4  -2   17.64    2.42
   7   4   2   19.74    2.68
   7   4   2   24.62    3.00
  -7  -4  -2   18.40    8.70
   7   4   2   30.17   14.94
  -8  -4  -2   49.71    3.73
  -8  -4  -2   47.87    4.07
  -8  -4  -2   49.25    3.79
   8   4   2   48.62    4.04
   8   4   2   52.46    4.48
  -8  -4  -2   42.83   16.75
  -9  -4  -2   18.64    3.41
  -9  -4  -2   24.49    3.89
   9   4   2   24.35    4.12
   5  -5  -2    3.34    2.82
   5  -5  -2    3.25    1.66
  -5   5   2    6.01    2.48
   4  -5  -2    2.69    1.37
   4  -5  -2    0.27    1.43
   4  -5  -2   -0.95    1.23
  -4   5   2   -0.03    1.36
   3  -5  -2  115.79    8.57
   3  -5  -2  128.07    7.55
   3  -5  -2  116.35    8.70
  -3   5   2  156.23   13.12
   2  -5  -2   56.28    3.89
   2  -5  -2   50.97    4.13
   2  -5  -2   52.59    4.08
  -2   5   2   68.47    5.32
  -2   5   2   60.78    5.15
   1  -5  -2   52.83    4.02
   1  -5  -2   59.34    4.06
   1  -5  -2   57.02    4.25
  -1   5   2   63.39    5.03
   0  -5  -2   19.97    1.77
   0  -5  -2   19.21    2.09
   0   5   2   23.20    3.12
   0   5   2   31.31    3.02
  -1  -5  -2    5.50    1.29
  -1  -5  -2    5.12    1.01
   1   5   2    7.49    1.09
   1   5   2   12.97    2.56
   1   5   2    7.23    2.15
   1   5   2    7.62    1.14
  -1  -5  -2    5.33    3.63
   1   5   2   10.85    3.57
   1   5   2    2.87    2.82
  -2  -5  -2  194.78   12.77
  -2  -5  -2  193.98   15.35
  -2  -5  -2  205.75   13.43
   2   5   2  225.24   15.16
   2   5   2  209.79   15.67
   2   5   2  211.22   17.59
   2   5   2  202.18   15.04
  -2  -5  -2  211.16   12.77
   2   5   2  215.22   14.11
   2   5   2  215.70   10.00
  -3  -5  -2    4.69    1.32
   3   5   2    8.14    1.67
   3   5   2    6.60    1.12
   3   5   2    6.90    0.61
   3   5   2    5.48    1.10
  -3  -5  -2   -1.64    4.61
   3   5   2    1.92    4.98
   3   5   2    3.79    4.91
  -4  -5  -2    7.58    2.16
  -4  -5  -2    6.83    2.63
   4   5   2   11.17    2.71
   4   5   2   12.48    2.71
   4   5   2    8.96    2.28
   4   5   2    4.96    0.84
  -4  -5  -2    5.24    7.72
   4   5   2   14.37    7.25
   4   5   2   17.38    8.54
  -5  -5  -2  122.44    9.08
  -5  -5  -2  125.23    7.59
   5   5   2  123.29    7.76
   5   5   2  120.97    6.71
   5   5   2  119.85    6.36
   5   5   2  123.21    6.95
   5   5   2  110.33    6.55
  -5  -5  -2  125.63   13.68
   5   5   2  144.01   15.12
   5   5   2  131.52   13.11
  -6  -5  -2   25.86    2.42
  -6  -5  -2   26.60    2.56
   6   5   2   27.83    2.58
   6   5   2   24.06    2.15
   6   5   2   29.50    3.16
   6   5   2   29.96    2.71
  -6  -5  -2    7.83    9.75
   6   5   2   26.69   10.48
  -7  -5  -2   12.54    1.92
  -7  -5  -2    9.56    2.18
   7   5   2   16.96    3.62
   7   5   2   10.74    1.77
   7   5   2   12.97    2.41
   7   5   2   18.05    2.94
   7   5   2    8.84   12.43
  -8  -5  -2   12.10    2.56
  -8  -5  -2    8.17    2.37
   8   5   2   14.44    3.27
   8   5   2   13.19    3.11
  -9  -5  -2    6.44    3.19
  -9  -5  -2    2.50    3.01
   9   5   2    4.47    3.78
   9   5   2    3.29    3.31
   4  -6  -2   51.65    5.04
   4  -6  -2   63.40    5.11
   4  -6  -2   53.16    4.87
  -4   6   2   56.08    4.92
   3  -6  -2   27.33    2.71
   3  -6  -2   25.43    2.89
   3  -6  -2   31.74    2.76
  -3   6   2   27.90    3.17
   2  -6  -2  142.92    8.99
   2  -6  -2  149.94    9.46
   2  -6  -2  134.43   10.36
  -2   6   2  118.24   11.34
   1  -6  -2    8.14    1.39
   1  -6  -2    9.04    1.77
   1  -6  -2    7.71    1.59
  -1   6   2    9.19    1.76
  -1   6   2    9.78    1.90
   0  -6  -2    3.34    3.34
   0  -6  -2    6.85    1.80
   0  -6  -2    8.65    1.26
   0   6   2   12.00    2.08
   0   6   2    8.02    2.43
   0   6   2    5.56    2.19
  -1  -6  -2  141.82    8.30
  -1  -6  -2  143.11   10.16
   1   6   2  143.44    9.56
   1   6   2  120.56    7.58
   1   6   2  137.02   13.25
   1   6   2  144.34   10.08
   1   6   2  130.45   10.17
  -2  -6  -2   44.55    2.70
  -2  -6  -2   48.59    3.92
  -2  -6  -2   41.56    3.21
   2   6   2   55.36    4.37
   2   6   2   52.06    3.79
   2   6   2   50.13    3.48
   2   6   2   69.26    7.42
   2   6   2   52.06    7.19
  -3  -6  -2   26.69    3.01
   3   6   2   29.16    2.46
   3   6   2   34.45    3.46
   3   6   2   28.62    2.37
   3   6   2   31.52    7.17
   3   6   2   27.52    8.02
  -4  -6  -2   27.06    2.67
  -4  -6  -2   30.81    3.31
   4   6   2   29.31    2.82
   4   6   2   35.51    3.09
   4   6   2   33.82    3.01
   4   6   2   35.26    9.06
   4   6   2   20.72    8.14
  -5  -6  -2    1.59    1.28
  -5  -6  -2    2.03    1.32
   5   6   2    2.11    1.65
   5   6   2    4.51    1.78
   5   6   2   -3.02    8.14
  -6  -6  -2    9.01    2.06
  -6  -6  -2   12.24    2.37
   6   6   2    8.06    2.32
   6   6   2    9.09    2.02
   6   6   2    2.68   12.05
  -7  -6  -2   99.93    6.40
  -7  -6  -2  106.68    8.92
   7   6   2   88.83    6.78
   7   6   2   95.19    6.56
   7   6   2   98.11   18.88
  -8  -6  -2   12.09    2.85
  -8  -6  -2    8.49    3.07
   8   6   2    9.98    3.58
   8   6   2   14.97    3.90
   3  -7  -2    2.24    2.00
   3  -7  -2    0.03    2.50
   3  -7  -2    2.00    2.55
   2  -7  -2   24.71    3.35
   2  -7  -2   27.04    3.50
   2  -7  -2   30.62    3.07
   1  -7  -2   32.15    2.87
   1  -7  -2   28.81    2.77
   1  -7  -2   31.27    3.65
   0  -7  -2   17.67    2.48
   0  -7  -2   14.89    2.39
   0   7   2   17.52    2.74
   0   7   2   17.23    2.34
  -1  -7  -2   30.38    3.07
   1   7   2   27.28    2.76
   1   7   2   22.68    2.76
   1   7   2   15.41    6.01
   1   7   2   15.20    5.34
  -2  -7  -2  108.51    8.37
   2   7   2  104.71    7.03
   2   7   2  109.58    7.02
   2   7   2   87.99    8.26
   2   7   2  119.64   11.84
   2   7   2   97.69   10.45
  -3  -7  -2    2.21    1.39
   3   7   2    2.07    1.31
   3   7   2    1.53    1.66
   3   7   2   -0.07    1.25
   3   7   2    3.41    7.58
  -4  -7  -2    1.58    0.64
  -4  -7  -2    1.08    0.65
   4   7   2    0.10    0.77
   4   7   2    0.02    0.59
   4   7   2    1.11    0.65
   4   7   2   -1.78    3.77
  -5  -7  -2   61.91    5.14
  -5  -7  -2   72.33    5.93
   5   7   2   54.89    4.50
   5   7   2   67.40    4.36
   5   7   2   65.40    4.57
   5   7   2   60.74   15.40
  -6  -7  -2   35.43    4.00
  -6  -7  -2   27.35    2.76
   6   7   2   22.53    2.90
   6   7   2   17.18   14.34
  -7  -7  -2   24.01    2.92
  -7  -7  -2   32.69    3.91
   7   7   2   25.00    4.29
   7   7   2   39.59   21.97
  -8  -7  -2   46.84    5.67
  -8  -7  -2   49.48    4.94
   2  -8  -2   -0.68    3.21
   2  -8  -2   -1.52    3.05
  -2   8   2    0.28    2.61
   1  -8  -2    2.09    2.51
   1  -8  -2   -0.56    2.86
  -1   8   2    8.26    4.64
   0  -8  -2   24.37    3.51
   0  -8  -2   26.26    2.91
   0   8   2   19.83    3.60
  -1  -8  -2    2.52    2.63
   1   8   2    4.64    1.79
   1   8   2   -2.83    5.31
   1   8   2   -5.16    5.16
  -2  -8  -2    1.03    1.81
   2   8   2    1.70    1.32
   2   8   2   -1.53    6.92
  -3  -8  -2    4.97    2.71
   3   8   2    7.59    2.48
   3   8   2   10.22   11.80
  -4  -8  -2   -1.89    1.89
  -4  -8  -2    0.01    1.79
   4   8   2    0.98    1.37
   4   8   2   23.37   12.05
  -5  -8  -2    6.78    2.34
  -5  -8  -2    6.23    2.59
   5   8   2    7.41    2.38
   5   8   2   11.99   13.76
  -6  -8  -2   -0.31    3.02
  -6  -8  -2   -1.22    2.29
   6   8   2   28.99   19.63
  -7  -8  -2   -0.49    2.83
  -7  -8  -2    3.16    3.39
   7   8   2    6.39   27.16
  -1  -9  -2   19.22    3.82
   1   9   2   16.02    5.51
  -2  -9  -2    1.63    3.03
   2   9   2    0.17    3.77
   2   9   2    6.90    9.74
  -3  -9  -2   -0.63    2.75
   3   9   2   12.01    4.78
   3   9   2   36.00   16.09
  -4  -9  -2    3.88    2.94
  -4  -9  -2   -0.77    2.49
   4   9   2   -0.12    3.16
   4   9   2  -13.02   15.42
  -5  -9  -2   -2.74    3.20
  -5  -9  -2    2.07    3.23
   5   9   2    3.26    5.24
   5   9   2   -4.99   21.47
  -5  -9   3   -2.32    2.32
   5   9  -3   -3.48   13.91
   4   9  -3    0.77    2.38
  -4  -9   3    5.44    2.82
   4   9  -3    7.56   15.39
   3   9  -3    0.98    5.72
  -3  -9   3    2.89    2.56
   3   9  -3  -11.23   13.97
   2   9  -3   -0.13    1.35
   2   9  -3    0.78    1.43
  -2  -9   3    0.21    0.98
   2   9  -3    2.54    4.20
   1   9  -3    9.07    3.90
   1   9  -3    2.92    3.94
  -1  -9   3    5.36    2.61
  -1  -9   3    9.55    3.53
   1   9  -3    4.30    6.99
   7   8  -3    4.68    3.75
   6   8  -3    2.07    3.33
   6   8  -3    8.90    4.13
  -6  -8   3    1.39    2.67
   6   8  -3   11.04   20.94
   5   8  -3   -0.57    1.82
   5   8  -3    0.09    2.05
  -5  -8   3    1.96    1.27
   5   8  -3    9.58    7.92
   4   8  -3   16.88    3.12
   4   8  -3   18.51    3.43
  -4  -8   3   16.96    2.93
   4   8  -3   34.08   11.82
   3   8  -3    3.51    2.20
   3   8  -3    1.25    2.18
  -3  -8   3    1.57    1.61
   3   8  -3   -6.37    7.91
   2   8  -3   23.04    3.57
   2   8  -3   31.33    3.66
  -2  -8   3   30.74    3.13
   2   8  -3   32.67    8.35
   1   8  -3   33.26    4.26
   1   8  -3   38.69    4.42
  -1  -8   3   47.90    4.02
   1   8  -3   35.82    8.72
   1   8  -3   49.85    7.75
   0   8  -3   12.53    2.95
   0   8  -3    9.46    3.35
   0  -8   3   13.87    3.35
   0  -8   3   14.15    2.95
  -1   8  -3   -1.26    3.96
   1  -8   3    1.20    2.00
   1  -8   3    4.19    2.90
  -2   8  -3   -0.80    3.50
   2  -8   3    3.09    2.03
   8   7  -3    5.64    5.57
   7   7  -3   58.31    6.54
  -7  -7   3   77.62    5.58
  -7  -7   3   77.67    4.79
   7   7  -3   82.84   22.30
   6   7  -3   29.45    4.09
  -6  -7   3   30.65    2.89
  -6  -7   3   28.16    3.61
   6   7  -3   21.87   15.24
   5   7  -3    9.64    3.25
   5   7  -3   10.69    3.20
  -5  -7   3   14.50    1.82
  -5  -7   3   18.51    2.61
   5   7  -3   27.95   11.98
   4   7  -3    0.46    1.80
   4   7  -3    1.60    1.99
   4   7  -3    0.28    1.32
  -4  -7   3    0.05    0.85
  -4  -7   3   -0.80    1.24
   4   7  -3   -7.95    7.95
   3   7  -3    0.43    1.63
   3   7  -3   -0.04    1.67
  -3  -7   3    1.42    1.15
  -3  -7   3   -1.11    1.64
   3   7  -3   -0.67    7.50
   2   7  -3    2.51    1.97
   2   7  -3    3.51    1.97
  -2  -7   3    4.34    1.56
  -2  -7   3    2.57    1.10
   2   7  -3    0.84    6.73
   2   7  -3   20.25    8.82
   1   7  -3    5.34    2.21
   1   7  -3    6.33    2.53
  -1  -7   3    4.68    1.66
   1   7  -3   -0.14    5.59
   1   7  -3   12.51    6.62
   0   7  -3    5.97    2.57
   0   7  -3    2.80    2.10
   0  -7   3    2.76    1.52
   0  -7   3    4.31    2.02
   0   7  -3    3.94    4.23
   0   7  -3    6.74    5.06
  -1   7  -3   24.43    3.95
   1  -7   3   28.96    2.68
   1  -7   3   27.91    3.09
  -2   7  -3   -1.27    3.18
   2  -7   3   -1.90    1.90
   2  -7   3   -1.75    1.75
   2  -7   3    0.50    2.17
  -3   7  -3   -1.42    3.16
   3  -7   3    1.65    2.47
   3  -7   3   -0.34    1.61
   8   6  -3    1.95    2.97
  -8  -6   3    3.81    2.41
  -8  -6   3    1.12    2.15
  -8  -6   3   -0.48    2.27
   7   6  -3    0.03    2.87
  -7  -6   3   -0.63    1.68
  -7  -6   3    0.34    2.02
  -7  -6   3    1.45    1.73
   7   6  -3   12.94   19.20
   6   6  -3   42.57    4.40
  -6  -6   3   47.30    4.16
  -6  -6   3   51.08    3.37
   6   6  -3   30.10   13.97
   5   6  -3   -2.39    2.39
   5   6  -3   -0.09    0.85
  -5  -6   3   -0.05    0.86
  -5  -6   3    0.07    0.73
   5   6  -3   -0.75    6.34
   4   6  -3   33.75    3.39
   4   6  -3   25.25    3.10
   4   6  -3   35.23    3.63
  -4  -6   3   35.09    2.82
  -4  -6   3   32.56    2.20
   4   6  -3   26.88    9.04
   4   6  -3   38.69   17.11
   3   6  -3  137.99    9.93
   3   6  -3  156.50   10.88
   3   6  -3  148.10   12.92
  -3  -6   3  175.74    9.76
  -3  -6   3  155.55    8.82
   3   6  -3  168.76   13.79
   3   6  -3  149.63   18.69
   2   6  -3  110.19    7.78
   2   6  -3  112.25    8.26
  -2  -6   3  109.07    6.26
  -2  -6   3  124.62    7.02
  -2  -6   3   86.64    6.68
   2   6  -3  109.15    9.62
   2   6  -3   97.88   12.08
   1   6  -3   54.11    4.68
   1   6  -3   54.89    4.36
  -1  -6   3   51.26    3.89
  -1  -6   3   53.00    3.01
   1   6  -3   43.96    5.70
   1   6  -3   48.48    7.03
   0   6  -3    0.09    1.28
   0   6  -3    1.14    1.69
   0  -6   3   -0.77    0.77
   0  -6   3    1.68    0.82
   0  -6   3   -0.84    1.03
   0   6  -3   -0.15    3.40
   0   6  -3   -0.83    3.19
  -1   6  -3   20.91    2.99
  -1   6  -3   25.66    3.44
   1  -6   3   24.58    2.25
   1  -6   3   22.62    1.99
   1  -6   3   23.78    2.29
  -2   6  -3    4.46    2.91
   2  -6   3    3.67    2.05
   2  -6   3    5.68    1.72
   2  -6   3    4.74    1.48
  -3   6  -3   58.03    6.28
  -3   6  -3   54.17    4.49
   3  -6   3   55.02    4.37
   3  -6   3   66.64    4.51
  -4   6  -3    2.84    4.04
   4  -6   3    3.76    2.22
   4  -6   3   10.97    3.10
   9   5  -3   -0.44    4.28
   8   5  -3   38.71    4.91
  -8  -5   3   46.12    4.16
  -8  -5   3   46.91    3.80
  -8  -5   3   47.58    4.32
   7   5  -3   60.85    5.25
  -7  -5   3   64.64    4.82
  -7  -5   3   61.17    4.18
  -7  -5   3   58.90    4.09
   7   5  -3   41.43   17.96
   6   5  -3    9.81    1.38
   6   5  -3   11.92    2.77
  -6  -5   3   15.78    2.02
   6   5  -3    0.51   12.50
  -6  -5   3    8.22   19.49
   5   5  -3   10.28    0.93
   5   5  -3    7.22    1.65
   5   5  -3   10.69    0.97
   5   5  -3    8.46    2.16
  -5  -5   3    8.55    1.58
  -5  -5   3   10.77    1.81
   5   5  -3   11.69   12.62
   5   5  -3    9.45    8.78
  -5  -5   3   -1.04    9.22
   4   5  -3   89.48    6.03
   4   5  -3   72.75    6.71
  -4  -5   3   85.56    3.99
  -4  -5   3   81.35    4.81
   4   5  -3   80.57   12.90
   4   5  -3   75.84    8.67
  -4  -5   3   64.01    8.23
   3   5  -3  316.49   25.81
   3   5  -3  329.55   26.42
   3   5  -3  311.98   24.52
  -3  -5   3  313.99   14.99
  -3  -5   3  344.67   19.11
   3   5  -3  297.39   19.37
  -3  -5   3  297.26   21.81
   2   5  -3   12.74    1.90
   2   5  -3    9.94    1.55
   2   5  -3   10.07    1.69
  -2  -5   3    7.53    0.97
  -2  -5   3    6.86    1.16
   2   5  -3   10.82    4.93
   2   5  -3   16.98    4.87
  -2  -5   3    1.50    5.40
   1   5  -3   19.90    2.31
   1   5  -3   20.90    2.63
  -1  -5   3   16.21    1.61
  -1  -5   3   24.92    1.96
  -1  -5   3   20.95    1.52
   1   5  -3   14.22    4.57
  -1  -5   3   11.52    4.53
   0   5  -3   10.68    2.04
   0  -5   3    9.51    1.27
   0  -5   3   11.92    1.49
   0  -5   3   10.03    1.33
   0   5  -3   13.72    3.23
   0   5  -3   12.65    3.79
  -1   5  -3  183.50   16.50
  -1   5  -3  181.84   19.31
   1  -5   3  168.08   10.29
   1  -5   3  171.58   11.01
  -1   5  -3  186.08   10.75
  -1   5  -3  162.93   11.67
   1  -5   3  153.53   14.30
  -2   5  -3   19.88    2.60
  -2   5  -3   15.89    1.87
   2  -5   3   18.32    2.02
   2  -5   3   16.38    2.03
  -3   5  -3    4.45    1.86
  -3   5  -3    4.51    2.23
   3  -5   3    9.01    1.98
   3  -5   3    6.97    1.59
  -4   5  -3    0.41    0.92
  -4   5  -3    3.41    1.38
   4  -5   3   -0.23    0.62
   4  -5   3   -0.60    0.62
  -5   5  -3    1.20    1.52
   5  -5   3    0.23    1.09
   5  -5   3   -0.30    1.09
   9   4  -3    7.13    3.06
   9   4  -3    3.71    3.36
  -9  -4   3    2.52    2.86
  -9  -4   3   -2.24    2.24
  -9  -4   3    3.02    2.69
   8   4  -3   63.87    5.19
   8   4  -3   69.81    6.12
   8   4  -3   65.26    5.73
  -8  -4   3   71.13    5.08
  -8  -4   3   69.30    4.71
  -8  -4   3   67.22    5.28
  -8  -4   3   78.49   19.75
   7   4  -3   14.53    2.77
   7   4  -3   16.69    2.02
   7   4  -3   17.98    2.43
  -7  -4   3   16.43    2.37
  -7  -4   3   15.45    1.97
  -7  -4   3   11.67    2.01
  -7  -4   3   14.08   11.38
   6   4  -3   83.15    5.31
   6   4  -3   75.42    5.03
   6   4  -3   70.98    4.50
  -6  -4   3   74.79    4.77
  -6  -4   3   75.96    5.08
  -6  -4   3   69.83    4.51
   6   4  -3   50.87   11.98
  -6  -4   3   73.74   11.51
   5   4  -3   69.32    5.23
   5   4  -3   67.44    3.97
  -5  -4   3   63.87    3.95
  -5  -4   3   78.85    4.73
  -5  -4   3   68.00    3.92
  -5  -4   3   69.22    4.63
   5   4  -3   66.03    9.97
  -5  -4   3   69.43    8.34
   4   4  -3  101.28    6.18
   4   4  -3  102.89    7.99
  -4  -4   3  110.64    7.01
  -4  -4   3  107.26    6.29
  -4  -4   3  106.73    4.61
  -4  -4   3  110.89    6.90
   4   4  -3  112.65   14.21
   4   4  -3  113.61   10.93
  -4  -4   3  105.59   11.66
  -4  -4   3  127.76   12.07
   3   4  -3   46.01    3.64
   3   4  -3   37.10    3.48
  -3  -4   3   38.98    2.91
  -3  -4   3   42.00    2.62
  -3  -4   3   42.75    3.19
  -3  -4   3   43.13    2.07
  -3  -4   3   39.34    3.55
   3   4  -3   35.29    7.59
   3   4  -3   29.69    4.64
  -3  -4   3   29.62    5.19
   2   4  -3 2737.32  237.26
   2   4  -3 3044.43  247.70
  -2  -4   3 3399.63  269.92
  -2  -4   3 3800.82  262.94
   1   4  -3  146.46    7.09
   1   4  -3  144.98   13.72
   1   4  -3  133.96   11.68
  -1  -4   3  123.89   10.66
  -1  -4   3  127.90    8.73
  -1  -4   3  156.71   12.57
  -1  -4   3  133.02    7.88
  -1  -4   3  134.26   11.77
   1   4  -3  144.44   14.19
   1   4  -3  131.63   11.49
  -1  -4   3  127.40   10.68
  -1  -4   3  138.21   12.70
   0   4  -3    8.69    1.57
   0   4  -3    9.29    1.22
   0   4  -3    9.12    1.53
   0  -4   3    8.83    0.97
   0  -4   3    8.83    0.88
   0  -4   3    9.42    1.13
   0  -4   3    6.70    1.63
   0  -4   3    9.52    1.14
   0  -4   3    7.84    1.58
   0   4  -3   10.82    3.79
   0   4  -3    8.08    2.56
  -1   4  -3   14.62    1.52
  -1   4  -3   13.35    1.43
  -1   4  -3   14.48    2.22
  -1   4  -3   12.48    2.07
   1  -4   3   12.13    1.29
   1  -4   3   14.35    1.47
   1  -4   3   14.35    1.48
   1  -4   3   10.58    1.51
  -1   4  -3   16.04    3.12
   1  -4   3   12.15    3.94
  -2   4  -3   36.69    3.28
  -2   4  -3   38.06    3.87
   2  -4   3   32.57    2.80
   2  -4   3   36.95    2.56
   2  -4   3   26.59    3.28
   2  -4   3   35.46    2.26
  -2   4  -3   38.23    3.86
  -2   4  -3   35.39    2.97
   2  -4   3   23.85    4.11
  -3   4  -3  189.40   20.36
  -3   4  -3  191.78   12.16
   3  -4   3  190.61   10.99
   3  -4   3  182.50   10.12
  -3   4  -3  211.75   12.95
  -3   4  -3  210.35    9.38
  -4   4  -3  104.07   10.12
   4  -4   3   99.13    8.13
  -4   4  -3  112.28    7.51
  -4   4  -3  109.99    7.81
  -5   4  -3   14.12    2.43
  -5   4  -3    8.83    2.33
   5  -4   3   12.99    2.47
  -5   4  -3   12.19    6.07
  -5   4  -3   15.68    5.77
  -6   4  -3   22.65    3.26
  -6   4  -3   32.96    3.70
   6  -4   3   34.86    3.57
   6  -4   3   30.66    3.83
  -6   4  -3   22.48    9.41
  -6   4  -3   27.34    7.58
   9   3  -3    3.54    2.68
   9   3  -3    1.78    2.37
   9   3  -3    1.19    2.45
  -9  -3   3    1.70    2.04
  -9  -3   3   -2.56    2.56
  -9  -3   3    1.00    2.12
  -9  -3   3   -2.56   16.61
   8   3  -3    5.79    2.70
   8   3  -3   14.24    2.98
   8   3  -3   14.15    2.92
  -8  -3   3    8.30    2.86
  -8  -3   3    8.39    2.54
  -8  -3   3    6.64    2.19
  -8  -3   3    4.25   15.69
   7   3  -3   61.12    5.18
   7   3  -3   59.27    4.10
   7   3  -3   54.15    4.39
  -7  -3   3   53.58    4.14
  -7  -3   3   55.20    4.24
  -7  -3   3   55.05    4.29
  -7  -3   3   45.16   10.73
   6   3  -3    1.20    1.88
   6   3  -3    1.09    1.56
   6   3  -3    3.83    1.29
  -6  -3   3    2.33    1.08
  -6  -3   3    3.89    1.42
  -6  -3   3    2.66    1.34
  -6  -3   3    3.62    1.30
  -6  -3   3    0.62    1.16
   6   3  -3   -5.94   10.40
  -6  -3   3   -2.12    8.93
  -6  -3   3    7.25    7.95
   5   3  -3  118.09    7.29
   5   3  -3  112.13    7.45
   5   3  -3  106.48    6.32
  -5  -3   3  116.79    6.64
  -5  -3   3  116.61    7.51
  -5  -3   3  119.08    6.94
  -5  -3   3  110.55    8.12
  -5  -3   3  116.43    6.26
   5   3  -3  114.34   14.96
   5   3  -3  113.38   11.36
  -5  -3   3  140.41   12.90
  -5  -3   3  126.16   10.53
   4   3  -3  459.36   30.55
   4   3  -3  452.19   32.23
   4   3  -3  435.21   25.96
  -4  -3   3  459.07   23.98
  -4  -3   3  463.09   28.48
  -4  -3   3  451.31   24.85
  -4  -3   3  446.55   28.45
  -4  -3   3  440.52   21.57
   4   3  -3  461.88   52.23
   4   3  -3  503.90   32.62
  -4  -3   3  487.95   35.40
  -4  -3   3  531.38   31.28
   3   3  -3  624.64   47.93
   3   3  -3  620.61   44.74
   3   3  -3  537.26   38.48
   3   3  -3  578.14   36.92
  -3  -3   3  613.47   35.62
  -3  -3   3  606.24   25.53
  -3  -3   3  594.36   33.17
  -3  -3   3  597.00   41.69
  -3  -3   3  635.22   56.08
   3   3  -3  711.79   73.81
   3   3  -3  640.76   32.75
  -3  -3   3  733.00   44.19
  -3  -3   3  689.79   38.28
   2   3  -3    0.27    0.35
   2   3  -3   -0.04    1.04
   2   3  -3    1.86    0.92
  -2  -3   3    0.37    0.67
  -2  -3   3   -0.25    0.30
  -2  -3   3    0.69    0.87
  -2  -3   3    0.49    0.84
  -2  -3   3    0.92    0.40
  -2  -3   3   -1.14    1.14
   2   3  -3   -3.16    4.04
   2   3  -3   -2.29    2.64
  -2  -3   3   -2.70    2.70
  -2  -3   3    4.20    3.27
   1   3  -3   54.66    5.07
   1   3  -3   48.99    3.18
   1   3  -3   55.23    5.62
  -1  -3   3   41.23    2.52
  -1  -3   3   46.71    5.01
  -1  -3   3   47.98    3.20
  -1  -3   3   46.35    2.88
  -1  -3   3   50.17    3.51
   1   3  -3   51.54    6.28
   1   3  -3   44.74    4.60
  -1  -3   3   47.27    4.23
  -1  -3   3   64.47    5.29
   0   3  -3  156.49    8.26
   0   3  -3  157.63   15.10
   0   3  -3  160.06   20.36
   0  -3   3  155.27   10.02
   0  -3   3  170.47   17.13
   0  -3   3  148.38    9.23
   0  -3   3  152.70   12.61
   0  -3   3  135.62   10.01
   0  -3   3  159.54   11.99
   0  -3   3  175.70   20.02
   0   3  -3  151.34   18.88
   0   3  -3  136.55   16.40
   0  -3   3  150.26   14.76
   0  -3   3  161.34   15.51
  -1   3  -3   17.69    2.11
  -1   3  -3   18.24    1.84
  -1   3  -3   17.31    2.26
  -1   3  -3   21.82    1.48
   1  -3   3   18.89    1.37
   1  -3   3   16.60    1.75
   1  -3   3   14.49    1.44
   1  -3   3   19.97    1.33
   1  -3   3   20.01    1.92
   1  -3   3   14.67    1.56
   1  -3   3   15.42    1.59
  -1   3  -3   12.95    2.89
  -1   3  -3   12.46    2.50
   1  -3   3   16.22    3.29
   1  -3   3   13.30    3.09
  -2   3  -3   72.51    6.79
  -2   3  -3   68.88    6.74
  -2   3  -3   75.11    8.13
   2  -3   3   67.30    6.75
   2  -3   3   65.06    3.70
   2  -3   3   71.99    5.05
   2  -3   3   64.43    4.81
   2  -3   3   67.43    6.76
  -2   3  -3   78.20    6.81
  -2   3  -3   83.72    5.94
   2  -3   3   62.82    5.80
  -3   3  -3   10.17    1.89
  -3   3  -3   13.70    1.54
   3  -3   3   10.05    1.86
   3  -3   3    6.78    1.66
   3  -3   3    8.18    1.78
   3  -3   3   10.26    1.52
   3  -3   3   11.49    1.04
  -3   3  -3    9.76    3.70
  -3   3  -3   11.66    3.02
  -4   3  -3    9.83    1.64
  -4   3  -3    9.46    2.33
  -4   3  -3   10.29    1.68
   4  -3   3    8.91    1.08
   4  -3   3    7.89    2.27
   4  -3   3   10.59    1.83
  -4   3  -3   10.80    5.46
  -4   3  -3   11.46    3.77
  -5   3  -3    3.42    1.67
  -5   3  -3    5.51    1.59
   5  -3   3    4.08    1.83
  -5   3  -3   -0.08    4.58
  -5   3  -3   -2.60    6.92
  -6   3  -3   -0.49    1.33
  -6   3  -3   -0.33    1.43
   6  -3   3   -0.49    1.21
  -6   3  -3    1.90    4.74
  -7   3  -3    2.98    2.25
  -7   3  -3    0.12    2.19
   7  -3   3    0.66    1.77
   7  -3   3    0.62    2.21
  -7   3  -3   10.26    8.89
   9   2  -3   18.62    3.77
   9   2  -3   31.90    4.24
  -9  -2   3   20.61    3.41
  -9  -2   3   28.25    3.48
  -9  -2   3   37.71   18.13
   8   2  -3   10.59    2.78
   8   2  -3    7.36    2.65
  -8  -2   3    9.20    3.05
  -8  -2   3    7.86    2.64
  -8  -2   3    9.28    2.59
  -8  -2   3   22.56   14.31
   7   2  -3    1.74    1.57
   7   2  -3    1.52    1.52
  -7  -2   3    0.44    1.46
  -7  -2   3   -1.56    1.56
  -7  -2   3    1.93    1.40
  -7  -2   3   -3.28    7.70
   6   2  -3   64.25    4.15
   6   2  -3   65.12    4.77
  -6  -2   3   61.34    5.45
  -6  -2   3   65.58    4.24
  -6  -2   3   62.89    4.11
   6   2  -3   46.88   11.11
  -6  -2   3   80.54   12.98
  -6  -2   3   55.95    8.19
   5   2  -3    0.55    0.91
   5   2  -3    2.01    1.29
  -5  -2   3    1.34    0.81
  -5  -2   3    2.01    0.99
  -5  -2   3    0.26    0.90
  -5  -2   3    1.22    0.64
  -5  -2   3    1.91    0.70
   5   2  -3   -2.19    5.51
   5   2  -3   -1.32    8.10
  -5  -2   3    7.00    5.52
  -5  -2   3    3.24    4.96
   4   2  -3   33.43    2.61
   4   2  -3   33.18    2.73
   4   2  -3   34.77    2.26
   4   2  -3   33.43    2.48
   4   2  -3   27.66    3.12
  -4  -2   3   35.35    2.36
  -4  -2   3   32.65    2.35
  -4  -2   3   35.92    2.02
  -4  -2   3   36.42    2.17
  -4  -2   3   35.17    2.27
  -4  -2   3   31.94    1.97
   4   2  -3   27.23    6.57
   4   2  -3   33.87    4.80
  -4  -2   3   41.34    5.66
  -4  -2   3   28.94    4.74
   3   2  -3  219.91   15.59
   3   2  -3  192.72   18.85
   3   2  -3  199.64   13.80
   3   2  -3  227.29   20.10
   3   2  -3  222.14   16.37
  -3  -2   3  210.16   14.24
  -3  -2   3  216.28   11.64
  -3  -2   3  222.86   12.83
  -3  -2   3  221.17   11.28
  -3  -2   3  209.81   12.77
   3   2  -3  227.35   19.30
   3   2  -3  218.82   12.81
  -3  -2   3  226.77   13.02
  -3  -2   3  231.60   12.90
   2   2  -3  128.46    9.05
   2   2  -3  144.04    8.34
   2   2  -3  140.80   11.41
   2   2  -3  151.56   11.70
  -2  -2   3  144.91    8.27
  -2  -2   3  140.69    9.18
  -2  -2   3  154.30   10.50
  -2  -2   3  154.24    9.11
  -2  -2   3  141.09    6.74
  -2  -2   3  135.61   10.56
   2   2  -3  145.87   16.33
   2   2  -3  148.10    9.43
  -2  -2   3  161.46    9.36
  -2  -2   3  150.65   10.03
   1   2  -3   43.85    2.93
   1   2  -3   44.96    2.59
  -1  -2   3   40.45    2.26
  -1  -2   3   43.76    2.92
  -1  -2   3   48.93    3.02
  -1  -2   3   49.44    2.88
   1   2  -3   47.14    5.38
   1   2  -3   41.86    4.38
  -1  -2   3   46.61    3.87
  -1  -2   3   46.33    4.19
   0   2  -3   85.23    5.79
   0   2  -3  100.00    8.49
   0   2  -3   95.75    8.29
   0  -2   3  100.06   10.11
   0  -2   3   84.90    5.71
   0  -2   3   81.13    5.54
   0  -2   3   76.27    6.06
   0  -2   3  107.37    9.97
   0  -2   3   83.85    5.27
   0   2  -3   75.12    9.83
   0   2  -3   76.80    8.07
   0  -2   3   77.86    6.62
   0  -2   3   92.23    9.31
  -1   2  -3    7.44    1.16
  -1   2  -3    8.20    1.20
  -1   2  -3    8.11    0.75
  -1   2  -3    7.21    0.82
  -1   2  -3    6.52    0.78
   1  -2   3    5.68    1.15
   1  -2   3    7.93    0.98
   1  -2   3    9.66    1.29
   1  -2   3    8.67    0.68
   1  -2   3    6.53    0.67
   1  -2   3    7.78    0.65
  -1   2  -3    3.64    1.85
  -1   2  -3    5.32    1.93
   1  -2   3    5.81    2.05
   1  -2   3    4.92    1.85
  -2   2  -3  516.20   55.59
  -2   2  -3  513.97   61.97
  -2   2  -3  511.34   39.77
  -2   2  -3  508.66   50.23
   2  -2   3  505.19   41.09
   2  -2   3  528.90   56.26
   2  -2   3  436.47   37.97
   2  -2   3  534.31   61.84
   2  -2   3  442.73   25.55
   2  -2   3  548.55   44.16
  -2   2  -3  566.59   50.51
  -2   2  -3  583.36   52.37
   2  -2   3  646.45   47.76
   2  -2   3  628.64   54.84
  -3   2  -3   97.83    9.11
  -3   2  -3   93.98    9.39
  -3   2  -3   95.58   11.59
   3  -2   3   99.15    8.48
   3  -2   3   99.54    7.79
   3  -2   3   94.80    6.68
   3  -2   3   84.79    4.64
  -3   2  -3   90.65    8.80
  -3   2  -3  106.07    7.67
   3  -2   3   70.44    6.66
  -4   2  -3  120.74   10.53
  -4   2  -3  100.61    7.99
  -4   2  -3  103.97    9.20
   4  -2   3   87.77    6.62
   4  -2   3   88.57    4.61
   4  -2   3   80.70    8.31
   4  -2   3   97.55    6.67
  -4   2  -3  105.24    7.54
  -4   2  -3  113.07   10.95
   4  -2   3   81.05    7.91
  -5   2  -3  253.20   24.54
  -5   2  -3  242.15   20.17
   5  -2   3  245.02   16.30
   5  -2   3  230.09   15.23
   5  -2   3  228.02   15.43
  -5   2  -3  320.63   28.22
  -5   2  -3  268.58   14.40
  -6   2  -3    7.21    2.23
  -6   2  -3   11.67    1.97
   6  -2   3    9.70    2.59
  -6   2  -3   11.81    6.61
  -7   2  -3   14.61    2.97
  -7   2  -3   10.06    2.73
   7  -2   3   13.50    3.21
  -7   2  -3   -3.04   11.09
  -8   2  -3   -0.36    3.19
  -8   2  -3   -1.73   13.45
   9   1  -3   18.86    4.40
  -9  -1   3   24.08    4.14
  -9  -1   3   20.56    3.45
   8   1  -3   19.20    2.92
   8   1  -3   13.78    3.24
  -8  -1   3   15.70    2.80
  -8  -1   3   13.45    2.90
  -8  -1   3   35.36   14.66
   7   1  -3   18.68    2.47
   7   1  -3   23.11    2.71
  -7  -1   3   18.84    2.46
  -7  -1   3   21.74    3.14
  -7  -1   3   17.48    2.38
  -7  -1   3   18.64    8.08
   6   1  -3    3.14    1.42
   6   1  -3    3.40    1.56
  -6  -1   3    3.29    1.65
  -6  -1   3    5.23    1.64
  -6  -1   3    5.76    1.48
  -6  -1   3   10.41    6.04
  -6  -1   3   -2.32    8.09
   5   1  -3   52.62    3.81
   5   1  -3   50.33    3.73
  -5  -1   3   53.43    4.94
  -5  -1   3   57.10    3.81
  -5  -1   3   51.43    4.09
  -5  -1   3   46.27    3.93
   5   1  -3   43.65    7.38
  -5  -1   3   43.77    6.56
  -5  -1   3   49.56    6.10
   4   1  -3   82.01    6.31
   4   1  -3   86.68    5.42
   4   1  -3   85.28    7.50
   4   1  -3   94.57    5.38
  -4  -1   3   88.20    7.17
  -4  -1   3   82.44    5.55
  -4  -1   3   90.54    5.17
  -4  -1   3   91.52    6.22
   4   1  -3  106.54   10.09
   4   1  -3   83.09    9.45
  -4  -1   3   91.34    6.88
  -4  -1   3   97.90    8.29
   3   1  -3 1355.98   95.27
   3   1  -3 1196.88   88.20
   3   1  -3 1323.29  109.71
   3   1  -3 1248.32   80.48
  -3  -1   3 1162.55   59.90
  -3  -1   3 1277.23   73.28
  -3  -1   3 1252.25   76.04
  -3  -1   3 1206.06   73.70
  -3  -1   3 1238.18   75.26
   3   1  -3 1525.03  142.33
   3   1  -3 1379.16   78.09
  -3  -1   3 1443.43   98.99
  -3  -1   3 1328.95   88.71
   2   1  -3  141.53    9.80
   2   1  -3  121.30    9.42
   2   1  -3  121.16   10.75
   2   1  -3  126.14   10.40
   2   1  -3  145.11   10.67
  -2  -1   3  126.10    7.64
  -2  -1   3  134.77    8.07
  -2  -1   3  124.15    8.06
  -2  -1   3  127.76    6.54
  -2  -1   3  125.86    7.27
   2   1  -3  128.91   15.46
   2   1  -3  125.95    8.52
  -2  -1   3  142.34   10.71
  -2  -1   3  133.82    9.63
   1   1  -3  676.19   51.13
   1   1  -3  722.38   60.25
   1   1  -3  760.74   55.78
   1   1  -3  738.43   53.54
   1   1  -3  831.07   69.27
  -1  -1   3  739.85   38.73
  -1  -1   3  685.43   47.16
  -1  -1   3  723.12   39.41
  -1  -1   3  721.71   59.05
  -1  -1   3  819.04   57.99
   1   1  -3  797.38   70.17
   1   1  -3  697.60   62.72
  -1  -1   3  729.36   62.09
  -1  -1   3  797.09   59.70
   0  -1   3 1798.56  160.68
   0   1  -3 2822.27  244.10
   0   1  -3 3653.94  292.58
   0  -1   3 3786.39  287.45
   0  -1   3 3973.93  300.83
  -1   1  -3   39.13    2.75
  -1   1  -3   46.72    2.90
  -1   1  -3   42.27    2.82
  -1   1  -3   50.63    5.03
  -1   1  -3   47.41    3.25
  -1   1  -3   49.55    4.85
   1  -1   3   50.28    3.92
   1  -1   3   46.65    3.23
   1  -1   3   50.27    3.43
   1  -1   3   45.64    2.59
   1  -1   3   48.61    3.86
   1  -1   3   37.76    2.40
  -1   1  -3   47.39    4.57
  -1   1  -3   41.18    4.33
   1  -1   3   54.48    4.60
   1  -1   3   55.92    4.68
  -2   1  -3  174.65   15.15
  -2   1  -3  176.98   18.42
  -2   1  -3  176.01   13.31
  -2   1  -3  169.14   12.94
   2  -1   3  187.66   15.49
   2  -1   3  187.54   12.54
   2  -1   3  187.65   17.97
   2  -1   3  178.01   14.01
  -2   1  -3  184.61   13.54
  -2   1  -3  193.89   16.63
   2  -1   3  195.77   13.39
   2  -1   3  200.07   14.22
  -3   1  -3   27.40    2.28
  -3   1  -3   27.31    2.05
  -3   1  -3   27.01    2.66
  -3   1  -3   29.75    2.13
   3  -1   3   31.59    2.72
   3  -1   3   24.20    1.70
   3  -1   3   31.56    2.89
   3  -1   3   28.62    2.40
   3  -1   3   22.90    1.31
   3  -1   3   32.76    2.41
  -3   1  -3   28.58    4.39
  -3   1  -3   17.31    3.29
   3  -1   3   33.21    4.81
   3  -1   3   25.38    4.07
  -4   1  -3   37.09    3.36
  -4   1  -3   39.92    3.45
   4  -1   3   38.38    3.00
   4  -1   3   29.87    2.85
   4  -1   3   36.34    3.33
   4  -1   3   33.47    2.22
  -4   1  -3   43.48    6.87
  -4   1  -3   32.66    4.82
   4  -1   3   35.19    6.10
  -5   1  -3  197.28   12.02
  -5   1  -3  196.35   16.15
   5  -1   3  193.22   15.10
   5  -1   3  164.91   10.99
   5  -1   3  178.88   14.09
   5  -1   3  172.52   12.98
  -5   1  -3  214.95   20.63
  -5   1  -3  219.15   13.75
   5  -1   3  170.40   13.38
  -6   1  -3    5.31    1.81
  -6   1  -3    9.00    1.77
   6  -1   3    4.61    1.96
  -6   1  -3   21.77   17.91
  -6   1  -3    5.32    6.33
  -7   1  -3    0.89    1.86
  -7   1  -3    4.36    2.43
   7  -1   3    5.58    2.35
  -7   1  -3    9.48    9.43
  -8   1  -3   17.71    3.51
  -8   1  -3   13.97    3.52
   8  -1   3   20.97    4.02
   8  -1   3   19.39    3.51
  -8   1  -3   19.94   15.69
   8   0  -3    4.57    2.55
   8   0  -3    1.42    3.11
  -8   0   3    1.32    2.57
  -8   0   3    5.72    2.78
  -8   0   3    6.36   11.95
   7   0  -3   -0.54    1.62
   7   0  -3   -1.04    1.54
  -7   0   3   -0.19    1.63
  -7   0   3   -1.65    1.65
  -7   0   3    5.83    7.11
   6   0  -3   83.52    6.58
   6   0  -3   92.31    6.61
  -6   0   3   97.44    7.87
  -6   0   3   90.21    5.56
  -6   0   3   88.70   11.24
  -6   0   3   92.29   11.78
   5   0  -3   47.93    3.38
   5   0  -3   42.96    3.54
  -5   0   3   48.50    3.47
  -5   0   3   48.07    3.24
  -5   0   3   40.86    3.46
   5   0  -3   38.41    7.75
  -5   0   3   46.90    6.16
  -5   0   3   42.59    7.05
   4   0  -3   43.25    2.95
   4   0  -3   40.90    3.08
   4   0  -3   43.45    3.84
  -4   0   3   49.30    3.71
  -4   0   3   45.02    3.61
  -4   0   3   47.23    3.25
  -4   0   3   45.08    3.09
   4   0  -3   41.37    5.55
  -4   0   3   41.92    4.87
   3   0  -3   -0.73    0.73
   3   0  -3   -0.50    0.68
   3   0  -3    1.33    0.70
   3   0  -3   -0.52    0.52
   3   0  -3   -0.35    0.35
  -3   0   3    0.46    0.48
  -3   0   3   -0.45    0.45
  -3   0   3    0.19    0.08
  -3   0   3    0.02    0.56
  -3   0   3   -0.37    0.37
   3   0  -3   -2.90    2.90
   3   0  -3   -2.21    2.21
  -3   0   3    0.15    1.72
  -3   0   3   -0.19    1.79
   2   0  -3   78.23    7.17
   2   0  -3   81.57    5.82
   2   0  -3   89.56    7.46
   2   0  -3   86.87    7.44
   2   0  -3   84.05    3.98
  -2   0   3   78.15    4.46
  -2   0   3   90.23    6.42
  -2   0   3   80.84    6.05
  -2   0   3   72.48    3.87
  -2   0   3   85.09    7.31
  -2   0   3   86.50    4.84
   2   0  -3   89.56    7.72
   2   0  -3   78.43   11.37
  -2   0   3   89.78    7.24
  -2   0   3   87.12    8.37
   1   0  -3  169.58   16.40
   1   0  -3  183.23   16.16
   1   0  -3  155.42   11.19
   1   0  -3  163.33   16.79
   1   0  -3  157.73   10.00
  -1   0   3  154.22    8.80
  -1   0   3  170.17   10.98
  -1   0   3  162.41    8.06
  -1   0   3  175.23   18.31
  -1   0   3  160.42   11.91
  -1   0   3  163.32   12.79
   1   0  -3  152.96   14.59
   1   0  -3  158.56   14.67
  -1   0   3  160.51   14.98
  -1   0   3  167.35   11.34
   0   0  -3  241.57   17.28
   0   0  -3  317.96   23.90
   0   0  -3  302.54   29.58
   0   0  -3  280.74   22.07
   0   0  -3  266.19   22.30
   0   0  -3  249.99   17.08
   0   0   3  253.89   21.42
   0   0   3  229.46   15.14
   0   0   3  257.48   18.10
   0   0   3  276.32   19.53
   0   0   3  238.26   14.64
   0   0  -3  253.68   24.80
   0   0  -3  252.99   23.40
   0   0   3  265.01   20.49
   0   0   3  240.24   24.79
  -1   0  -3 1549.10   96.66
  -1   0  -3 1768.37  136.94
  -1   0  -3 1733.84  159.03
  -1   0  -3 1713.91  198.46
  -1   0  -3 1677.86  139.95
  -1   0  -3 1350.27  124.83
   1   0   3 1661.81  127.40
   1   0   3 1721.40  125.80
   1   0   3 1683.48  132.62
   1   0   3 1653.48   95.07
   1   0   3 1501.15  109.86
  -1   0  -3 1841.72  123.96
  -1   0  -3 1915.24  177.55
   1   0   3 1901.69  121.75
   1   0   3 1965.79  150.64
  -2   0  -3  189.81   15.35
  -2   0  -3  188.04   14.17
  -2   0  -3  201.46   11.85
   2   0   3  206.83   13.68
   2   0   3  209.99   15.04
   2   0   3  203.23   13.07
   2   0   3  210.27   12.09
   2   0   3  203.77   12.18
   2   0   3  208.32   11.92
  -2   0  -3  208.25   14.00
  -2   0  -3  221.98   17.43
   2   0   3  227.23    8.66
   2   0   3  234.47   11.59
  -3   0  -3  366.24   24.69
  -3   0  -3  356.40   21.15
  -3   0  -3  372.20   22.18
   3   0   3  401.02   23.22
   3   0   3  380.51   23.78
   3   0   3  351.55   17.82
   3   0   3  375.59   21.14
   3   0   3  398.81   25.10
  -3   0  -3  423.57   25.10
  -3   0  -3  425.71   33.61
   3   0   3  469.75   20.84
   3   0   3  471.11   23.42
  -4   0  -3   34.68    2.48
  -4   0  -3   34.38    2.21
   4   0   3   32.88    1.91
   4   0   3   32.33    2.70
   4   0   3   33.43    2.17
   4   0   3   33.38    2.80
   4   0   3   28.96    2.26
  -4   0  -3   18.45    5.16
  -4   0  -3   27.44    4.29
   4   0   3   40.41    5.87
   4   0   3   31.15    5.81
  -5   0  -3  144.58   10.03
  -5   0  -3  139.83    8.79
   5   0   3  135.89    9.14
   5   0   3  148.11    8.78
   5   0   3  148.46   10.47
  -5   0  -3  156.92   11.75
   5   0   3  143.17   11.56
  -6   0  -3   51.56    4.39
  -6   0  -3   54.96    4.14
   6   0   3   50.66    3.81
   6   0   3   53.49    4.33
   6   0   3   57.07    4.64
  -6   0  -3   40.42   10.18
  -6   0  -3   59.12    8.87
  -7   0  -3   86.51    7.92
  -7   0  -3   82.02    5.45
   7   0   3   80.04    6.59
  -7   0  -3   88.30   11.24
  -8   0  -3    4.79    3.11
  -8   0  -3    7.04    2.75
   8   0   3    1.85    3.03
  -8   0  -3   -5.29   13.91
   8  -1  -3    4.95    2.66
  -8   1   3    4.67    3.15
  -8   1   3    4.66    2.72
  -8   1   3    2.36   12.63
   7  -1  -3    0.41    0.64
   7  -1  -3    0.02    0.65
  -7   1   3    0.46    0.56
  -7   1   3   -0.46    0.63
  -7   1   3   -1.35    2.58
   6  -1  -3    5.71    1.78
   6  -1  -3    3.28    1.54
  -6   1   3    4.08    1.76
  -6   1   3    4.93    1.53
  -6   1   3    9.56    5.81
  -6   1   3   -5.35    6.13
   5  -1  -3   81.18    5.71
   5  -1  -3   89.63    5.78
  -5   1   3   75.63    4.93
  -5   1   3   84.28    5.63
  -5   1   3   82.49    6.19
   5  -1  -3   59.29    9.83
  -5   1   3   92.84    7.96
  -5   1   3   79.18    9.30
   4  -1  -3  181.27   11.23
   4  -1  -3  192.42   14.08
   4  -1  -3  163.18   11.17
  -4   1   3  196.52   10.89
  -4   1   3  170.65   12.36
  -4   1   3  191.60   11.13
   4  -1  -3  186.79   15.96
  -4   1   3  184.25   18.83
  -4   1   3  193.03   13.08
   3  -1  -3  880.63   61.62
   3  -1  -3  954.63   78.65
   3  -1  -3 1165.51  115.65
   3  -1  -3 1008.37   60.36
   3  -1  -3 1046.09   54.39
  -3   1   3 1026.63   56.43
  -3   1   3  971.13   56.28
  -3   1   3 1015.53   73.81
  -3   1   3  994.98   80.18
  -3   1   3 1026.69   60.98
   3  -1  -3 1258.59  101.68
   3  -1  -3 1145.14   79.78
  -3   1   3 1029.34   71.05
  -3   1   3 1051.48   65.85
   2  -1  -3    1.65    0.65
   2  -1  -3    2.44    0.43
   2  -1  -3    1.86    0.45
   2  -1  -3    2.86    0.91
   2  -1  -3    1.56    0.63
   2  -1  -3    0.06    0.62
  -2   1   3    0.66    0.68
  -2   1   3    1.78    0.74
  -2   1   3    1.41    0.51
  -2   1   3    2.01    0.51
  -2   1   3    1.56    0.37
  -2   1   3    1.72    0.55
   2  -1  -3    0.44    2.25
   2  -1  -3    2.51    2.18
  -2   1   3   -1.41    1.84
  -2   1   3    2.45    2.00
   1  -1  -3  540.20   47.61
   1  -1  -3  438.35   29.49
   1  -1  -3  543.11   56.04
   1  -1  -3  465.32   37.22
   1  -1  -3  434.04   25.44
  -1   1   3  465.78   29.18
  -1   1   3  483.08   40.52
  -1   1   3  404.06   22.65
  -1   1   3  422.10   25.05
   1  -1  -3  515.01   44.54
   1  -1  -3  472.62   59.27
  -1   1   3  422.50   38.92
  -1   1   3  499.55   43.28
   0  -1  -3  562.96   42.48
   0  -1  -3  492.67   27.63
   0  -1  -3  535.42   28.58
   0  -1  -3  555.50   35.69
   0   1   3  489.91   31.49
   0   1   3  601.70   39.59
   0   1   3  574.04   30.59
   0   1   3  459.50   29.74
   0  -1  -3  620.98   47.39
   0  -1  -3  664.44   69.05
   0   1   3  577.42   51.61
  -1  -1  -3 1415.73  105.08
  -1  -1  -3 1261.30   81.12
  -1  -1  -3 1243.34   82.64
  -1  -1  -3 1150.91   73.92
   1   1   3 1216.73   78.83
   1   1   3 1359.74   82.80
   1   1   3 1236.67   80.03
   1   1   3 1220.71   82.59
   1   1   3 1222.63   77.75
  -1  -1  -3 1573.42  105.22
  -1  -1  -3 1574.43  109.83
   1   1   3 1507.21  102.93
   1   1   3 1523.28   80.58
  -2  -1  -3  426.07   30.00
  -2  -1  -3  429.48   30.49
  -2  -1  -3  442.10   29.08
  -2  -1  -3  493.86   31.19
  -2  -1  -3  470.31   33.75
   2   1   3  450.21   26.84
   2   1   3  443.53   28.97
   2   1   3  425.07   25.77
   2   1   3  432.35   26.37
   2   1   3  423.98   24.94
  -2  -1  -3  483.53   33.25
  -2  -1  -3  493.37   23.99
   2   1   3  506.64   25.93
   2   1   3  506.47   24.89
  -3  -1  -3  306.18   17.67
  -3  -1  -3  318.56   19.23
  -3  -1  -3  307.62   18.78
  -3  -1  -3  293.51   18.79
   3   1   3  304.22   15.02
   3   1   3  303.54   16.70
   3   1   3  319.60   19.84
   3   1   3  303.09   16.71
   3   1   3  319.79   16.99
   3   1   3  313.75   16.99
  -3  -1  -3  330.53   16.25
  -3  -1  -3  321.55   15.03
   3   1   3  358.14   14.94
   3   1   3  341.05   20.75
  -4  -1  -3  923.09   71.53
  -4  -1  -3  983.15   52.31
  -4  -1  -3  922.91   60.69
  -4  -1  -3  924.19   55.79
   4   1   3  976.75   47.65
   4   1   3  988.20   56.95
   4   1   3  919.92   57.57
   4   1   3  978.33   43.75
   4   1   3 1014.88   59.65
   4   1   3 1033.11   64.52
  -4  -1  -3 1159.06   48.62
  -4  -1  -3 1111.20   58.64
   4   1   3 1169.62   51.23
   4   1   3 1123.14   63.24
  -5  -1  -3   80.50    5.12
  -5  -1  -3   85.83    5.10
   5   1   3   89.50    6.36
   5   1   3   85.72    4.71
   5   1   3   89.66    5.35
   5   1   3   86.32    4.27
  -5  -1  -3  108.62   10.48
  -5  -1  -3   76.16    7.28
   5   1   3   82.70    9.03
  -6  -1  -3    5.07    1.47
  -6  -1  -3    3.00    1.26
  -6  -1  -3    5.66    1.27
   6   1   3    4.67    1.51
   6   1   3    4.16    0.91
  -6  -1  -3    3.26    5.71
  -6  -1  -3   14.03    8.85
  -7  -1  -3   16.55    2.14
  -7  -1  -3   19.63    1.89
  -7  -1  -3   19.24    2.43
   7   1   3   19.59    3.02
  -7  -1  -3   23.28    8.96
  -8  -1  -3    0.58    2.41
  -8  -1  -3    0.78    2.75
   8   1   3   -0.37    2.58
  -8  -1  -3    2.37   10.89
  -9  -1  -3    3.95    2.74
  -9  -1  -3    2.53    2.68
   9   1   3    1.74    2.95
   9   1   3   -3.36    3.36
  -9  -1  -3   27.38   17.67
  -8   2   3  -13.32   15.19
   7  -2  -3   15.30    2.88
  -7   2   3   15.96    3.17
  -7   2   3   17.37    2.43
  -7   2   3   20.64    8.60
   6  -2  -3    6.02    2.04
   6  -2  -3    6.41    1.79
  -6   2   3    6.41    1.71
  -6   2   3    7.82    2.06
  -6   2   3    1.82    6.20
   5  -2  -3   45.51    3.31
   5  -2  -3   42.58    3.43
  -5   2   3   44.53    4.15
  -5   2   3   45.31    3.59
  -5   2   3   41.98    6.16
  -5   2   3   50.65    6.48
   4  -2  -3  170.55   10.90
   4  -2  -3  182.72   11.73
   4  -2  -3  179.59   10.91
  -4   2   3  169.85   10.91
  -4   2   3  192.09   13.86
  -4   2   3  172.38   13.48
  -4   2   3  186.73   10.99
  -4   2   3  198.03   15.55
   3  -2  -3   36.97    2.20
   3  -2  -3   36.80    2.51
   3  -2  -3   35.29    2.42
   3  -2  -3   34.62    2.71
   3  -2  -3   38.30    3.35
   3  -2  -3   38.44    3.27
  -3   2   3   39.89    3.17
  -3   2   3   42.02    3.54
  -3   2   3   36.14    2.43
  -3   2   3   39.99    3.11
   3  -2  -3   30.44    4.82
  -3   2   3   33.85    4.18
  -3   2   3   36.62    3.70
   2  -2  -3  329.83   15.96
   2  -2  -3  345.60   28.99
   2  -2  -3  352.63   17.76
   2  -2  -3  330.61   22.71
   2  -2  -3  337.01   23.80
   2  -2  -3  312.56   20.93
   2  -2  -3  338.25   30.31
  -2   2   3  361.29   22.02
  -2   2   3  359.12   20.40
   2  -2  -3  413.59   42.88
   2  -2  -3  389.99   23.34
  -2   2   3  335.00   29.30
   1  -2  -3  798.35   60.00
   1  -2  -3  720.30   40.50
   1  -2  -3  855.44  132.46
   1  -2  -3  719.71   46.40
   1  -2  -3  752.01   60.65
   1  -2  -3  901.75   89.72
   1  -2  -3  768.77   45.56
  -1   2   3  761.98   49.43
  -1   2   3  779.91   47.72
  -1   2   3  757.17   44.06
  -1   2   3  895.08   82.81
   1  -2  -3  927.94   78.35
   1  -2  -3  894.82   78.74
  -1   2   3  815.50   69.22
  -1   2   3  803.20   64.02
   0  -2  -3   -0.08    0.11
   0  -2  -3   -0.12    0.12
   0  -2  -3    0.21    0.16
   0  -2  -3    0.15    0.14
   0  -2  -3   -0.03    0.18
   0  -2  -3   -0.01    0.19
   0  -2  -3   -0.04    0.16
   0   2   3   -0.14    0.14
   0   2   3    0.22    0.20
   0   2   3    0.19    0.23
   0  -2  -3    0.72    0.59
   0  -2  -3    0.75    0.59
   0   2   3   -0.26    0.41
   0   2   3    0.13    0.44
  -1  -2  -3  100.77    8.63
  -1  -2  -3  107.35    6.02
  -1  -2  -3  113.43   10.32
  -1  -2  -3  104.24    5.35
  -1  -2  -3  107.93    6.49
   1   2   3  105.83    8.71
   1   2   3   95.11    5.88
   1   2   3   99.32    6.68
   1   2   3   92.76    8.43
  -1  -2  -3  111.64    8.39
  -1  -2  -3  106.14    8.25
   1   2   3  101.39    5.29
  -2  -2  -3  179.72   11.50
  -2  -2  -3  195.63   11.08
  -2  -2  -3  187.50   11.05
  -2  -2  -3  184.72   13.49
   2   2   3  178.16   11.06
   2   2   3  190.55    9.51
   2   2   3  180.01   10.24
   2   2   3  183.47    9.95
   2   2   3  180.54   13.49
  -2  -2  -3  216.55   16.27
  -2  -2  -3  188.97   11.42
   2   2   3  196.93    9.58
   2   2   3  195.74    9.98
  -3  -2  -3   73.92    4.68
  -3  -2  -3   75.75    4.95
  -3  -2  -3   77.38    4.18
  -3  -2  -3   76.32    4.36
   3   2   3   71.35    4.45
   3   2   3   74.25    4.27
   3   2   3   76.66    5.22
   3   2   3   79.15    4.61
   3   2   3   74.50    4.01
   3   2   3   77.72    4.03
  -3  -2  -3   93.81    6.97
  -3  -2  -3   76.48    6.28
   3   2   3   65.81    5.65
  -4  -2  -3   19.53    1.56
  -4  -2  -3   20.66    1.47
  -4  -2  -3   17.37    1.42
   4   2   3   17.70    1.35
   4   2   3   17.78    1.82
   4   2   3   19.58    1.49
   4   2   3   21.52    1.88
   4   2   3   20.54    1.69
   4   2   3   19.02    1.43
  -4  -2  -3   12.82    4.53
  -4  -2  -3    9.79    5.42
   4   2   3   14.22    4.04
   4   2   3   19.34    5.62
  -5  -2  -3    1.99    0.83
  -5  -2  -3    3.61    0.99
  -5  -2  -3    1.78    0.94
   5   2   3    1.83    1.09
   5   2   3    2.26    0.87
   5   2   3    0.44    0.98
   5   2   3    0.28    0.91
  -5  -2  -3    2.94    6.87
  -5  -2  -3    8.06    6.04
   5   2   3    7.48    7.56
   5   2   3    8.77    7.50
  -6  -2  -3   14.92    1.59
  -6  -2  -3   13.22    1.47
  -6  -2  -3   18.33    1.65
   6   2   3   15.92    1.34
   6   2   3   13.06    1.48
   6   2   3   15.66    1.90
  -6  -2  -3   10.02   11.08
  -6  -2  -3   -3.36    6.64
   6   2   3    3.93    9.67
  -7  -2  -3   37.78    2.84
  -7  -2  -3   39.67    2.86
  -7  -2  -3   38.15    3.25
   7   2   3   36.75    3.20
  -7  -2  -3   25.78   11.43
  -8  -2  -3    0.99    1.86
  -8  -2  -3    2.33    2.20
   8   2   3   -0.84    2.21
  -8  -2  -3   -2.22   11.64
  -9  -2  -3   37.32    4.63
  -9  -2  -3   32.66    4.58
   9   2   3   36.65    4.98
   9   2   3   47.00    4.87
  -9  -2  -3   13.87   22.22
   7  -3  -3    7.84    2.99
  -7   3   3   10.38    2.80
  -7   3   3   10.81    2.84
  -7   3   3   13.26   11.57
   6  -3  -3   -0.65    0.65
   6  -3  -3   -0.55    0.61
  -6   3   3   -0.44    0.61
  -6   3   3    0.27    0.74
  -6   3   3   -1.38    2.50
  -6   3   3    0.97    3.84
   5  -3  -3   24.52    2.52
   5  -3  -3   23.99    2.37
  -5   3   3   24.16    2.53
  -5   3   3   24.93    3.04
  -5   3   3   38.62    6.00
   4  -3  -3  232.73   14.84
   4  -3  -3  226.32   14.54
   4  -3  -3  239.54   17.73
   4  -3  -3  237.89   15.81
  -4   3   3  228.06   15.17
  -4   3   3  229.78   14.27
  -4   3   3  274.44   19.03
  -4   3   3  266.66   15.80
   3  -3  -3  211.72   14.37
   3  -3  -3  235.81   13.47
   3  -3  -3  234.40   12.20
   3  -3  -3  228.41   14.02
  -3   3   3  240.23   19.03
  -3   3   3  226.59   15.23
   3  -3  -3  266.20   11.39
  -3   3   3  248.20   16.64
   2  -3  -3   27.33    2.60
   2  -3  -3   19.99    1.57
   2  -3  -3   22.44    1.75
   2  -3  -3   22.61    1.91
   2  -3  -3   23.08    1.66
  -2   3   3   24.00    2.31
  -2   3   3   26.95    2.15
  -2   3   3   25.22    2.41
   2  -3  -3   25.04    2.85
   2  -3  -3   19.64    3.51
  -2   3   3   27.72    2.30
  -2   3   3   21.25    2.73
   1  -3  -3  458.34   43.31
   1  -3  -3  445.78   21.44
   1  -3  -3  456.86   23.42
   1  -3  -3  411.30   30.96
   1  -3  -3  444.68   42.13
   1  -3  -3  471.62   51.90
  -1   3   3  480.10   32.62
  -1   3   3  474.20   45.60
  -1   3   3  449.41   31.39
  -1   3   3  448.25   34.03
   1  -3  -3  485.79   39.05
   1  -3  -3  451.56   32.81
  -1   3   3  439.91   32.40
  -1   3   3  430.19   28.55
   0  -3  -3  323.85   17.15
   0  -3  -3  361.21   46.92
   0  -3  -3  313.16   27.51
   0  -3  -3  323.37   24.17
   0  -3  -3  357.69   32.26
   0  -3  -3  332.70   33.66
   0  -3  -3  323.06   15.76
   0   3   3  312.10   19.96
   0   3   3  325.83   23.15
   0   3   3  332.62   22.67
   0   3   3  264.64   17.53
   0  -3  -3  370.62   29.55
   0  -3  -3  344.05   23.79
   0   3   3  301.67   20.77
   0   3   3  288.17   13.02
  -1  -3  -3   35.15    2.91
  -1  -3  -3   34.74    2.04
  -1  -3  -3   33.28    3.26
  -1  -3  -3   34.29    2.13
  -1  -3  -3   35.39    2.63
  -1  -3  -3   33.44    2.74
   1   3   3   29.46    1.74
   1   3   3   33.66    2.54
   1   3   3   34.53    1.80
   1   3   3   34.49    2.33
   1   3   3   30.24    2.46
  -1  -3  -3   29.82    4.34
  -1  -3  -3   30.99    3.54
   1   3   3   33.44    3.08
   1   3   3   40.03    3.66
  -2  -3  -3    5.15    0.91
  -2  -3  -3    6.70    0.85
  -2  -3  -3    6.98    0.98
  -2  -3  -3    4.16    0.72
  -2  -3  -3    5.40    0.91
   2   3   3    5.35    0.64
   2   3   3    6.71    1.02
   2   3   3    5.29    0.74
   2   3   3    5.79    0.73
   2   3   3    5.43    0.87
   2   3   3    6.18    1.00
  -2  -3  -3    3.97    2.90
  -2  -3  -3    6.12    3.51
   2   3   3    8.66    2.57
  -3  -3  -3    2.11    0.92
  -3  -3  -3    1.35    0.78
  -3  -3  -3    0.49    0.69
  -3  -3  -3   -0.30    0.71
   3   3   3    1.68    0.73
   3   3   3    0.37    0.84
   3   3   3    0.47    0.66
   3   3   3   -0.78    0.79
   3   3   3    0.06    0.97
  -3  -3  -3    0.32    4.25
  -3  -3  -3    1.70    3.78
   3   3   3   -2.79    2.79
   3   3   3   -0.18    3.50
  -4  -3  -3  291.45   16.89
  -4  -3  -3  302.04   19.04
  -4  -3  -3  289.34   16.67
   4   3   3  289.76   17.78
   4   3   3  290.44   18.29
   4   3   3  303.88   17.95
   4   3   3  274.85   13.23
   4   3   3  285.54   15.61
  -4  -3  -3  362.37   17.74
  -4  -3  -3  328.89   17.01
   4   3   3  319.69   14.85
   4   3   3  319.52   19.37
  -5  -3  -3  120.27    6.57
  -5  -3  -3  130.58   10.36
  -5  -3  -3  128.52    7.43
   5   3   3  131.14    7.89
   5   3   3  130.38    6.03
   5   3   3  131.49    7.00
   5   3   3  132.58    8.68
  -5  -3  -3  160.29   13.99
  -5  -3  -3  136.92   10.72
   5   3   3  160.64   12.36
   5   3   3  154.28   13.34
  -6  -3  -3   16.47    1.81
  -6  -3  -3   19.18    1.81
   6   3   3   17.17    1.53
   6   3   3   20.04    2.03
  -6  -3  -3   -1.75    6.18
  -6  -3  -3   11.17    8.26
   6   3   3    3.54    9.11
  -7  -3  -3   67.11    4.29
  -7  -3  -3   69.90    4.98
   7   3   3   68.54    4.89
  -7  -3  -3   72.91   11.89
  -8  -3  -3   18.98    2.54
  -8  -3  -3   19.61    2.68
   8   3   3   11.01    2.94
  -8  -3  -3    6.58   13.26
  -9  -3  -3    2.88    3.06
  -9  -3  -3    7.31    2.80
   9   3   3    6.34    3.17
   9   3   3    6.07    4.09
  -9  -3  -3   24.26   22.43
   6  -4  -3    2.38    2.35
  -6   4   3    2.89    2.34
  -6   4   3   -0.66    5.73
  -6   4   3    1.87    4.64
   5  -4  -3  158.15   11.69
   5  -4  -3  150.82   10.70
  -5   4   3  139.93   12.52
   4  -4  -3    1.20    0.87
   4  -4  -3   -0.33    0.88
  -4   4   3    0.10    1.02
  -4   4   3    0.81    1.02
   3  -4  -3  320.48   17.53
   3  -4  -3  283.22   18.46
  -3   4   3  294.27   24.44
   2  -4  -3  182.14    9.72
   2  -4  -3  144.67   16.33
   2  -4  -3  157.25   11.87
   2  -4  -3  175.83    9.13
   2  -4  -3  176.03   11.07
   2  -4  -3  163.16   11.03
   2  -4  -3  151.91   13.31
  -2   4   3  183.16   14.99
  -2   4   3  174.41   11.41
   1  -4  -3    3.57    0.99
   1  -4  -3    5.03    1.27
   1  -4  -3    2.91    1.24
   1  -4  -3    4.38    0.84
   1  -4  -3    6.51    0.92
   1  -4  -3    5.60    1.38
   1  -4  -3    5.57    1.41
  -1   4   3    5.10    1.24
  -1   4   3    3.92    1.39
  -1   4   3    5.78    1.47
   0  -4  -3  215.67   20.90
   0  -4  -3  217.63   19.44
   0  -4  -3  229.30   11.20
   0  -4  -3  221.20   12.02
   0  -4  -3  220.97   15.36
   0  -4  -3  196.47   16.23
   0   4   3  210.55   12.28
   0   4   3  253.86   17.21
   0   4   3  224.05   16.87
   0   4   3  227.01   18.17
   0  -4  -3  230.75    9.92
   0   4   3  208.60   15.26
   0   4   3  209.75    9.94
  -1  -4  -3   -0.46    0.94
  -1  -4  -3   -0.87    0.87
  -1  -4  -3   -0.06    0.82
  -1  -4  -3    1.26    0.91
  -1  -4  -3    0.48    0.97
  -1  -4  -3   -0.66    0.78
   1   4   3    0.40    0.52
   1   4   3    0.42    0.79
   1   4   3   -0.65    1.15
   1   4   3    1.42    1.30
   1   4   3   -0.30    0.46
  -1  -4  -3   -0.85    3.05
  -1  -4  -3    4.20    3.43
   1   4   3   -1.80    2.64
   1   4   3    2.43    2.27
  -2  -4  -3  109.67    6.54
  -2  -4  -3  104.22    8.99
  -2  -4  -3  110.91    7.88
  -2  -4  -3  108.75    9.66
  -2  -4  -3  107.78    7.04
   2   4   3  116.95    7.93
   2   4   3  103.38    7.13
   2   4   3  110.11    6.65
   2   4   3  109.64    7.03
   2   4   3  110.28    7.78
   2   4   3  112.74    7.98
  -2  -4  -3  106.19    9.71
  -2  -4  -3  122.11    8.51
   2   4   3  115.99    6.56
   2   4   3   95.01    6.74
  -3  -4  -3  167.83   15.00
  -3  -4  -3  154.56   13.22
   3   4   3  172.91   14.08
   3   4   3  173.79   10.87
   3   4   3  163.77   10.27
   3   4   3  166.89    9.13
   3   4   3  171.02   10.40
  -3  -4  -3  200.74   17.97
  -3  -4  -3  207.62   13.01
   3   4   3  162.55   11.09
   3   4   3  175.22   10.55
  -4  -4  -3   10.85    1.39
  -4  -4  -3   10.66    1.29
   4   4   3    9.90    1.16
   4   4   3   14.47    1.73
   4   4   3    9.21    1.44
   4   4   3    7.56    1.16
   4   4   3   10.94    1.37
  -4  -4  -3   12.83    8.38
  -4  -4  -3    8.14    5.87
   4   4   3    6.70    5.74
   4   4   3    9.49    5.96
  -5  -4  -3    7.08    1.42
  -5  -4  -3    7.05    1.27
   5   4   3    7.56    1.43
   5   4   3    7.17    1.45
   5   4   3    5.53    1.47
   5   4   3    6.66    1.64
   5   4   3    7.96    1.37
  -5  -4  -3    2.99    6.73
   5   4   3   13.33    7.63
   5   4   3    1.82    7.67
  -6  -4  -3   86.15    4.67
  -6  -4  -3   92.85    5.61
   6   4   3   80.36    4.66
   6   4   3   79.37    5.75
   6   4   3   80.67    4.38
  -6  -4  -3   91.16   12.24
   6   4   3  100.74   13.39
  -7  -4  -3   24.93    2.41
  -7  -4  -3   25.26    2.60
   7   4   3   23.33    2.29
   7   4   3   24.57    2.98
  -7  -4  -3   27.37   13.65
   7   4   3   26.15   14.85
  -8  -4  -3    3.65    2.03
  -8  -4  -3    3.13    1.96
   8   4   3    4.43    2.67
  -8  -4  -3   -8.90   14.50
  -9  -4  -3   41.51    4.36
  -9  -4  -3   41.95    4.32
   9   4   3   44.61    4.43
   5  -5  -3    1.70    2.09
  -5   5   3    2.93    2.56
   4  -5  -3   10.76    2.44
   4  -5  -3    8.65    1.98
   4  -5  -3   12.14    1.83
  -4   5   3   13.46    2.33
   3  -5  -3  123.28    8.36
   3  -5  -3  116.61    7.74
   3  -5  -3  120.59    9.26
  -3   5   3  140.77   12.41
   2  -5  -3    6.50    1.35
   2  -5  -3    7.27    1.21
   2  -5  -3    5.49    1.58
  -2   5   3    7.35    1.99
  -2   5   3    5.17    1.68
   1  -5  -3   32.34    4.06
   1  -5  -3   30.15    2.74
   1  -5  -3   38.63    3.07
   1  -5  -3   35.51    2.80
  -1   5   3   37.26    4.19
   0  -5  -3   36.83    3.28
   0  -5  -3   39.71    3.09
   0  -5  -3   42.04    4.17
   0  -5  -3   39.41    3.27
   0   5   3   40.73    2.80
   0   5   3   44.59    4.25
   0   5   3   42.14    3.77
   0  -5  -3   26.25    4.19
   0   5   3   35.69    3.74
   0   5   3   28.71    3.37
  -1  -5  -3  254.32   20.99
  -1  -5  -3  260.79   17.64
   1   5   3  266.58   18.37
   1   5   3  274.47   22.80
   1   5   3  267.06   15.84
  -1  -5  -3  266.21   12.74
   1   5   3  262.80   16.09
   1   5   3  257.68   14.62
  -2  -5  -3    2.56    0.99
  -2  -5  -3    1.82    0.73
  -2  -5  -3    2.42    1.09
   2   5   3    5.24    1.89
   2   5   3    5.16    1.41
   2   5   3    2.22    0.73
   2   5   3    3.75    0.74
  -2  -5  -3    3.03    4.77
   2   5   3    7.82    4.13
   2   5   3    4.66    3.77
  -3  -5  -3   33.21    2.63
  -3  -5  -3   39.36    3.33
   3   5   3   44.46    2.90
   3   5   3   40.84    3.10
   3   5   3   45.42    3.29
   3   5   3   41.88    2.40
   3   5   3   41.57    3.60
  -3  -5  -3   34.76    6.19
   3   5   3   41.88    6.62
   3   5   3   43.23    6.47
  -4  -5  -3  432.18   29.25
  -4  -5  -3  423.60   34.76
   4   5   3  483.06   34.68
   4   5   3  406.39   25.26
   4   5   3  412.91   23.95
  -4  -5  -3  451.26   24.99
   4   5   3  456.54   26.30
   4   5   3  470.62   26.72
  -5  -5  -3   26.10    2.22
  -5  -5  -3   29.32    2.54
   5   5   3   25.21    2.14
   5   5   3   30.27    2.34
   5   5   3   30.43    2.33
   5   5   3   31.84    2.71
   5   5   3   28.07    2.37
  -5  -5  -3   31.80    9.08
   5   5   3   40.77    9.13
  -6  -5  -3   11.51    1.99
  -6  -5  -3   17.06    2.22
   6   5   3    8.36    2.60
   6   5   3   14.91    2.19
   6   5   3   13.83    2.07
   6   5   3   11.53    1.70
   6   5   3    7.22    9.58
  -7  -5  -3   14.33    2.56
  -7  -5  -3   13.40    2.64
   7   5   3   14.02    2.64
   7   5   3    9.60    2.34
   7   5   3   11.48    2.51
   7   5   3    9.39    2.34
   7   5   3   13.89   14.50
  -8  -5  -3   36.53    3.92
  -8  -5  -3   26.63    2.99
   8   5   3   30.22    3.57
   8   5   3   33.92    3.61
  -9  -5  -3    4.89    3.41
   9   5   3    0.41    3.29
   9   5   3    4.37    3.86
   4  -6  -3    8.14    2.58
   4  -6  -3   12.51    2.26
  -4   6   3   12.70    3.27
   3  -6  -3   22.29    2.71
   3  -6  -3   19.11    2.62
   3  -6  -3   18.45    2.61
  -3   6   3   20.49    3.64
  -3   6   3   28.41    4.47
   2  -6  -3    3.31    1.49
   2  -6  -3    0.88    1.58
   2  -6  -3    0.73    1.58
  -2   6   3    2.86    2.09
   1  -6  -3   42.20    3.49
   1  -6  -3   45.37    3.46
   1  -6  -3   44.88    3.12
  -1   6   3   37.46    4.31
   0  -6  -3    5.06    1.47
   0  -6  -3    3.68    1.10
   0   6   3    3.25    1.68
   0   6   3    6.46    1.42
   0   6   3    2.18    3.46
   0   6   3    3.58    2.93
  -1  -6  -3   84.38    5.04
  -1  -6  -3   85.97    6.80
   1   6   3   95.76    6.00
  -1  -6  -3   59.25    8.98
   1   6   3   83.17    7.59
   1   6   3   84.62    7.96
  -2  -6  -3  112.69    9.21
  -2  -6  -3  117.22    5.93
   2   6   3  128.31    7.45
   2   6   3  111.31    8.42
   2   6   3   99.22    8.47
   2   6   3  118.17    7.61
   2   6   3  136.21   10.40
   2   6   3  109.45   10.37
  -3  -6  -3    0.41    0.46
  -3  -6  -3   -0.56    1.02
   3   6   3   -0.39    0.97
   3   6   3   -0.70    0.70
   3   6   3   -1.08    1.08
   3   6   3    0.83    0.71
   3   6   3    2.51    4.61
   3   6   3    1.49    4.66
  -4  -6  -3   53.27    4.72
  -4  -6  -3   52.14    4.95
   4   6   3   47.62    3.94
   4   6   3   56.35    4.92
   4   6   3   51.38    3.74
   4   6   3   54.70    4.26
   4   6   3   74.88   11.15
   4   6   3   55.50   10.06
  -5  -6  -3    1.35    1.41
  -5  -6  -3    1.25    1.14
   5   6   3   -0.24    1.09
   5   6   3   -1.02    1.48
   5   6   3    2.10    1.59
   5   6   3    9.21    7.31
  -6  -6  -3    1.36    1.53
  -6  -6  -3    0.33    1.49
   6   6   3    1.26    1.40
   6   6   3    4.89    2.22
   6   6   3    1.28    1.54
   6   6   3    5.46    9.51
  -7  -6  -3   47.43    4.42
  -7  -6  -3   39.09    3.35
   7   6   3   40.38    3.60
   7   6   3   40.56    3.76
   7   6   3   43.27    4.11
   7   6   3   52.80   20.83
  -8  -6  -3   14.28    3.41
  -8  -6  -3   14.88    2.41
   8   6   3   16.19    3.92
   3  -7  -3    7.10    2.11
   3  -7  -3    4.02    2.74
  -3   7   3    2.66    3.34
   2  -7  -3   12.21    2.77
   2  -7  -3   11.26    2.58
   2  -7  -3   15.41    2.36
  -2   7   3   18.22    4.30
   1  -7  -3   31.37    2.80
   1  -7  -3   32.00    2.85
   1  -7  -3   35.86    3.43
   0  -7  -3   37.02    3.84
   0  -7  -3   27.64    2.61
   0   7   3   38.57    3.04
  -1  -7  -3   -1.19    1.79
   1   7   3    1.27    1.84
   1   7   3    1.79    1.43
   1   7   3   -0.03    5.81
   1   7   3    4.34    5.86
  -2  -7  -3   33.12    3.41
   2   7   3   32.85    2.92
   2   7   3   26.18    3.02
   2   7   3   22.72    2.20
   2   7   3   33.90    7.46
   2   7   3   37.75    9.50
  -3  -7  -3   -0.37    1.20
   3   7   3    1.00    1.06
   3   7   3    0.85    1.14
   3   7   3   -0.22    1.36
   3   7   3   -0.51    7.38
  -4  -7  -3   25.93    2.98
  -4  -7  -3   26.04    2.97
   4   7   3   20.54    2.73
   4   7   3   14.38   11.04
  -5  -7  -3    4.33    1.81
  -5  -7  -3    4.77    2.26
   5   7   3    5.08    1.84
   5   7   3   -6.80   13.05
  -6  -7  -3   -0.42    0.69
  -6  -7  -3   -0.59    0.64
   6   7   3   -0.20    0.84
   6   7   3    1.65    4.01
  -7  -7  -3   38.09    4.01
  -7  -7  -3   35.13    3.56
   7   7   3   33.30    4.43
   7   7   3   32.52   24.57
  -8  -7  -3  160.71   10.63
  -8  -7  -3  164.91   12.74
   2  -8  -3   14.11    3.75
   1  -8  -3   36.12    3.66
   1  -8  -3   46.94    4.60
  -1   8   3   43.94    5.88
   0  -8  -3   -1.05    1.81
   0  -8  -3   -0.81    1.19
   0   8   3   -2.73    2.73
  -1  -8  -3   23.61    3.49
   1   8   3   23.37    3.93
   1   8   3   23.76    5.93
   1   8   3   18.38    5.84
  -2  -8  -3   19.43    3.11
   2   8   3   19.01    3.28
   2   8   3   22.15   10.63
  -3  -8  -3    1.88    2.22
   3   8   3    2.13   10.44
  -4  -8  -3   -1.45    1.82
  -4  -8  -3    3.60    1.79
   4   8   3    2.56    9.62
  -5  -8  -3   -1.48    2.30
  -5  -8  -3    2.23    2.87
   5   8   3    9.75   13.65
  -6  -8  -3   14.79    3.37
  -6  -8  -3   15.51    3.81
   6   8   3   14.90    4.79
   6   8   3   36.80   20.72
  -7  -8  -3    2.08    3.77
  -7  -8  -3    1.82    2.99
   7   8   3   -2.15    3.39
   7   8   3   14.40   27.96
  -1  -9  -3   13.83    4.22
   1   9   3   13.51    5.37
  -2  -9  -3   -0.92    0.92
   2   9   3    1.09    1.20
   2   9   3    1.58    3.12
  -3  -9  -3    0.65    3.15
   3   9   3    1.85    4.37
   3   9   3    5.57   14.52
  -4  -9  -3   14.77    3.35
  -4  -9  -3   12.00    3.32
   4   9   3    6.04    5.10
   4   9   3    5.32   19.70
  -5  -9  -3    6.48    3.34
  -5  -9  -3   -0.16    6.66
   5   9   3   -3.19    3.19
   5   9   3    3.09   24.09
   4   9  -4    3.36    3.77
   4   9  -4    1.22    3.26
  -4  -9   4    3.50    2.67
   4   9  -4   14.19   14.84
   3   9  -4    1.39    3.75
   3   9  -4   -1.55    3.66
  -3  -9   4   -0.50    2.21
   3   9  -4    6.93   14.79
   2   9  -4    0.75    3.55
   2   9  -4    0.45    3.71
  -2  -9   4    0.76    2.28
   2   9  -4   -0.35    9.91
   1   9  -4    0.17    4.09
   1   9  -4    0.33    3.38
  -1  -9   4    5.71    3.49
  -1  -9   4   -0.15    2.63
   1   9  -4   -1.23    8.94
   6   8  -4    0.93    3.94
   6   8  -4    5.28    3.37
  -6  -8   4    4.62    3.15
   6   8  -4  -15.48   15.48
   5   8  -4    9.95    3.80
   5   8  -4   13.70    3.69
  -5  -8   4   13.02    2.82
   5   8  -4    9.88   17.91
   4   8  -4    2.22    2.79
   4   8  -4    5.30    3.19
  -4  -8   4    8.09    2.60
   4   8  -4    7.87   12.28
   3   8  -4   45.53    4.67
   3   8  -4   50.79    4.93
  -3  -8   4   57.68    4.80
   3   8  -4   34.43   12.41
   2   8  -4    5.51    2.74
   2   8  -4    3.50    3.21
  -2  -8   4    1.30    1.92
   2   8  -4   12.05    9.19
   1   8  -4    6.48    3.33
   1   8  -4    9.65    2.85
  -1  -8   4   11.06    2.57
   1   8  -4   12.02    8.10
   0   8  -4   20.53    3.73
   0   8  -4   13.55    3.89
   0  -8   4   14.20    2.69
   0  -8   4   12.24    2.83
   0   8  -4    5.55    4.37
   0   8  -4    7.87    3.91
  -1   8  -4    8.73    3.84
   1  -8   4    7.01    3.19
   1  -8   4   11.10    2.89
   7   7  -4    8.37    4.11
  -7  -7   4    9.80    2.79
  -7  -7   4   13.89    2.67
  -7  -7   4   17.92    3.37
   7   7  -4  -20.02   25.85
   6   7  -4   19.11    3.82
  -6  -7   4   17.44    2.50
  -6  -7   4   20.46    3.58
   6   7  -4   28.94   17.80
   5   7  -4   41.69    4.55
   5   7  -4   37.95    3.98
  -5  -7   4   44.54    3.75
  -5  -7   4   35.34    2.91
   5   7  -4   19.69   12.58
   4   7  -4   87.17    6.84
   4   7  -4   83.27    7.01
  -4  -7   4   81.16    4.92
  -4  -7   4   98.02    6.65
   4   7  -4   71.06   10.82
   3   7  -4    1.80    1.52
   3   7  -4   -0.51    1.59
  -3  -7   4    0.35    0.82
  -3  -7   4    0.63    1.08
   3   7  -4   -4.17    5.17
   2   7  -4   11.89    2.30
   2   7  -4    7.85    2.26
  -2  -7   4    8.66    2.00
   2   7  -4    9.26    7.71
   1   7  -4    4.09    2.10
   1   7  -4    5.02    2.19
  -1  -7   4    4.73    1.54
   1   7  -4    5.13    8.42
   1   7  -4   11.04    6.21
   0   7  -4   12.65    2.60
   0   7  -4   16.44    3.11
   0  -7   4   14.02    2.23
   0  -7   4   17.31    3.09
   0   7  -4   11.82    5.72
   0   7  -4   11.85    5.71
  -1   7  -4   10.41    3.02
   1  -7   4    7.46    1.91
   1  -7   4    6.47    2.17
  -2   7  -4    1.15    3.37
   2  -7   4    2.65    2.24
  -3   7  -4    0.00    1.02
   3  -7   4    1.01    0.71
   3  -7   4    0.73    0.79
   8   6  -4   -0.98    1.68
  -8  -6   4    0.18    1.30
  -8  -6   4   -0.14    1.10
  -8  -6   4    0.25    1.01
   7   6  -4   18.29    3.84
  -7  -6   4   25.86    3.17
  -7  -6   4   20.46    2.58
  -7  -6   4   21.21    2.66
   7   6  -4   17.51   20.77
   6   6  -4   24.66    3.54
  -6  -6   4   29.41    2.67
  -6  -6   4   38.72    3.13
   6   6  -4   25.95   14.51
   5   6  -4   11.26    2.85
  -5  -6   4   13.94    2.19
  -5  -6   4   12.96    1.58
   5   6  -4   11.55    9.81
   4   6  -4    0.10    1.92
   4   6  -4    0.27    2.17
  -4  -6   4    3.50    1.49
  -4  -6   4    1.94    0.93
   4   6  -4    1.13    7.03
   3   6  -4  210.15   12.52
   3   6  -4  527.92   31.16
   3   6  -4  572.29   59.80
   2   6  -4   -1.51    1.51
   2   6  -4    1.37    1.73
  -2  -6   4    1.88    1.54
  -2  -6   4    0.80    0.76
   2   6  -4    1.89    8.64
   2   6  -4    2.38    5.69
   1   6  -4   10.46    2.18
   1   6  -4    7.17    1.97
  -1  -6   4    9.54    1.70
   1   6  -4   13.50    6.86
   1   6  -4    8.20    5.01
   0   6  -4    3.29    2.42
   0   6  -4    3.64    2.15
   0  -6   4    3.37    1.38
   0  -6   4    6.46    1.87
   0   6  -4    1.54    5.57
   0   6  -4    6.26    4.63
  -1   6  -4    0.12    1.10
  -1   6  -4    1.27    1.23
   1  -6   4    0.13    0.94
   1  -6   4    1.40    0.78
  -2   6  -4    7.70    2.89
   2  -6   4   11.99    2.35
   2  -6   4    7.84    2.11
  -3   6  -4   -0.96    3.52
   3  -6   4    0.38    1.87
   3  -6   4    2.81    2.64
  -4   6  -4   25.00    5.11
   4  -6   4   27.85    3.80
   4  -6   4   38.92    3.71
   8   5  -4    3.59    3.03
  -8  -5   4    1.81    2.39
  -8  -5   4    0.12    2.08
  -8  -5   4   -1.54    1.88
   7   5  -4    2.62    2.84
  -7  -5   4    2.50    1.98
  -7  -5   4    3.79    1.70
  -7  -5   4    0.79    1.84
   7   5  -4  -16.44   16.44
   6   5  -4   11.89    1.88
   6   5  -4   11.73    2.76
  -6  -5   4   14.25    1.92
  -6  -5   4   15.16    1.77
  -6  -5   4   17.57    2.22
   6   5  -4   10.12   11.94
   5   5  -4   77.01    4.30
   5   5  -4   76.15    6.34
  -5  -5   4   75.09    4.34
  -5  -5   4   85.54    5.16
   5   5  -4   67.25   11.93
  -5  -5   4   46.82    9.82
   4   5  -4   80.11    6.03
  -4  -5   4   80.34    3.68
  -4  -5   4   73.32    4.43
   4   5  -4   78.98   13.24
   4   5  -4   67.41    8.57
  -4  -5   4   59.70    9.40
   3   5  -4   12.19    2.28
   3   5  -4   14.37    2.17
  -3  -5   4   14.71    1.62
  -3  -5   4   13.91    1.20
   3   5  -4    5.15    7.14
   3   5  -4   15.80    6.36
  -3  -5   4   15.51    7.11
   2   5  -4   45.91    4.00
   2   5  -4   40.60    3.83
  -2  -5   4   41.40    2.24
  -2  -5   4   49.22    2.32
  -2  -5   4   50.08    3.05
   2   5  -4   29.33    7.43
   2   5  -4   47.84    6.16
  -2  -5   4   32.19    6.24
   1   5  -4   72.05    7.18
   1   5  -4   75.51    6.58
  -1  -5   4   66.69    4.36
  -1  -5   4   63.98    4.68
  -1  -5   4   82.47    4.29
   1   5  -4   72.92    9.07
   1   5  -4   65.43    5.69
  -1  -5   4   47.69    6.30
   0   5  -4   85.58    8.17
   0   5  -4   89.24    7.97
   0  -5   4   80.22    6.27
   0  -5   4   74.71    5.33
   0  -5   4   69.78    5.34
   0  -5   4   90.48    4.89
   0  -5   4   66.63    4.64
   0   5  -4   58.75   10.37
   0   5  -4   61.11    9.38
   0  -5   4   60.81    8.69
  -1   5  -4  105.62   10.75
  -1   5  -4  105.87    9.86
   1  -5   4   87.17    7.69
   1  -5   4  103.67    5.86
   1  -5   4  101.86    6.63
   1  -5   4   83.32    6.99
  -1   5  -4  105.34    9.06
  -1   5  -4  106.53   10.61
  -2   5  -4   14.06    2.56
  -2   5  -4   11.75    1.49
   2  -5   4   12.99    2.10
   2  -5   4   14.89    1.82
  -3   5  -4    1.78    1.58
  -3   5  -4    0.51    2.08
   3  -5   4    2.22    1.12
   3  -5   4    2.99    1.41
  -4   5  -4    1.02    1.49
  -4   5  -4   -1.86    1.86
   4  -5   4   -0.48    1.49
  -5   5  -4   -0.25    0.61
  -5   5  -4    0.54    0.71
   5  -5   4   -0.51    0.51
   5  -5   4    0.16    0.61
   9   4  -4   -3.66    3.66
   9   4  -4    2.08    4.15
  -9  -4   4   -2.75    2.85
  -9  -4   4    1.57    2.62
  -9  -4   4   -1.50    3.47
   8   4  -4   30.82    4.93
   8   4  -4   31.39    3.85
   8   4  -4   32.71    4.09
  -8  -4   4   31.75    3.21
  -8  -4   4   38.00    3.98
  -8  -4   4   25.85    3.00
  -8  -4   4   40.46   18.18
   7   4  -4  101.37    6.28
   7   4  -4   85.96    6.99
   7   4  -4   98.43    7.04
  -7  -4   4   94.42    7.27
  -7  -4   4   91.38    6.03
  -7  -4   4   94.55    6.42
  -7  -4   4   82.00   14.45
   6   4  -4   18.43    1.86
   6   4  -4   21.19    2.80
  -6  -4   4   18.01    1.86
  -6  -4   4   15.01    1.84
  -6  -4   4   15.14    2.02
   6   4  -4   20.76   13.74
  -6  -4   4   21.51   10.79
   5   4  -4   48.82    3.91
   5   4  -4   47.01    2.84
  -5  -4   4   44.51    3.64
  -5  -4   4   46.51    2.82
  -5  -4   4   50.67    3.50
  -5  -4   4   44.85    3.18
  -5  -4   4   49.22    3.03
   5   4  -4   47.42   14.47
   5   4  -4   38.08    8.76
  -5  -4   4   45.48    8.50
   4   4  -4  106.40    8.20
   4   4  -4  101.64    6.32
   4   4  -4  113.99    6.66
  -4  -4   4  109.14    6.67
  -4  -4   4  105.32    8.13
  -4  -4   4  116.78    5.41
   4   4  -4  128.43   13.17
   4   4  -4  114.65   10.32
  -4  -4   4  127.70   13.06
  -4  -4   4  103.29    9.85
   3   4  -4   20.72    1.20
   3   4  -4   21.79    2.31
  -3  -4   4   22.23    1.74
  -3  -4   4   22.62    2.10
  -3  -4   4   21.10    2.24
  -3  -4   4   21.28    1.33
   3   4  -4   20.66    6.41
   3   4  -4   22.73    4.97
  -3  -4   4   20.54    6.58
  -3  -4   4   12.44    5.20
  -2  -4   4 1118.10   48.46
  -2  -4   4 1164.42   62.90
   2   4  -4 1155.15   70.18
  -2  -4   4 1178.92   90.81
   1   4  -4   27.68    2.97
   1   4  -4   34.56    3.16
   1   4  -4   30.42    2.08
  -1  -4   4   34.71    2.18
  -1  -4   4   28.36    1.95
  -1  -4   4   25.65    1.49
  -1  -4   4   25.04    2.13
  -1  -4   4   30.24    2.79
   1   4  -4   25.00    5.26
   1   4  -4   27.99    4.43
  -1  -4   4   25.30    4.66
   0   4  -4   20.01    2.73
   0   4  -4   20.25    2.74
   0   4  -4   22.29    1.80
   0  -4   4   19.85    1.68
   0  -4   4   18.98    1.55
   0  -4   4   17.11    1.66
   0  -4   4   15.33    1.37
   0  -4   4   17.79    1.39
   0   4  -4   17.35    4.55
   0   4  -4   13.34    3.38
   0  -4   4    7.27    3.20
  -1   4  -4  230.46   27.61
  -1   4  -4  228.08   28.36
  -1   4  -4  244.32   14.86
   1  -4   4  222.72   15.34
   1  -4   4  218.82   14.29
   1  -4   4  227.92   12.25
   1  -4   4  230.27   17.42
   1  -4   4  208.95   14.85
  -1   4  -4  233.58   29.61
  -1   4  -4  212.60   20.83
   1  -4   4  211.08   16.11
  -2   4  -4  148.79   10.61
  -2   4  -4  146.07   16.22
   2  -4   4  138.30   11.65
   2  -4   4  136.48    8.98
   2  -4   4  147.60    7.81
   2  -4   4  136.76   12.95
  -2   4  -4  156.35   14.69
  -2   4  -4  155.50   12.49
   2  -4   4  131.16   10.97
  -3   4  -4   17.42    1.79
  -3   4  -4   19.60    2.01
  -3   4  -4   18.20    2.88
   3  -4   4   21.28    1.97
   3  -4   4   17.52    1.60
  -3   4  -4   12.10    4.40
  -3   4  -4   16.88    3.71
  -4   4  -4  333.97   34.65
   4  -4   4  350.64   21.10
  -4   4  -4  449.68   21.67
  -4   4  -4  379.91   21.89
  -5   4  -4   12.04    2.03
  -5   4  -4   12.15    2.53
   5  -4   4    8.65    2.42
  -5   4  -4    8.06    8.30
  -5   4  -4   20.40    6.66
  -6   4  -4   -1.50    1.77
  -6   4  -4    0.66    1.86
   6  -4   4   -0.61    1.97
  -6   4  -4    0.41    6.08
   9   3  -4   11.87    3.29
   9   3  -4    8.28    3.53
   9   3  -4    6.68    4.86
  -9  -3   4    8.88    3.14
  -9  -3   4    6.97    3.83
  -9  -3   4   15.24    3.52
  -9  -3   4   -1.22   20.75
   8   3  -4    1.79    2.11
   8   3  -4    3.49    2.44
   8   3  -4   -1.60    2.02
  -8  -3   4    2.32    2.11
  -8  -3   4    4.05    1.97
  -8  -3   4    2.85    2.20
  -8  -3   4    5.57   14.60
   7   3  -4   17.34    2.47
   7   3  -4   16.58    2.32
   7   3  -4   15.17    2.69
  -7  -3   4   17.01    2.10
  -7  -3   4   17.32    2.02
  -7  -3   4   11.55    2.32
  -7  -3   4   12.21   10.31
   6   3  -4   23.01    2.67
   6   3  -4   22.86    2.24
   6   3  -4   23.13    2.42
  -6  -3   4   25.58    2.29
  -6  -3   4   19.66    1.79
  -6  -3   4   21.65    1.94
  -6  -3   4   21.52    1.97
  -6  -3   4   27.04    2.38
   6   3  -4   13.60   10.83
  -6  -3   4    2.25    5.60
  -6  -3   4   16.82    8.07
   5   3  -4  217.88   13.04
   5   3  -4  222.48   14.97
   5   3  -4  240.33   16.43
  -5  -3   4  219.27   15.53
  -5  -3   4  213.63   12.75
  -5  -3   4  209.39   15.28
  -5  -3   4  216.42   12.47
  -5  -3   4  215.75   12.50
   5   3  -4  211.40   18.54
   5   3  -4  223.29   15.79
  -5  -3   4  237.36   18.35
  -5  -3   4  237.31   18.89
   4   3  -4  401.70   30.75
   4   3  -4  369.91   22.81
   4   3  -4  404.15   27.60
  -4  -3   4  359.38   24.47
  -4  -3   4  410.41   27.25
  -4  -3   4  401.30   24.77
  -4  -3   4  412.49   28.90
  -4  -3   4  426.31   22.47
  -4  -3   4  404.27   21.01
   4   3  -4  408.30   50.87
   4   3  -4  436.00   29.84
  -4  -3   4  424.35   31.13
  -4  -3   4  418.88   30.90
   3   3  -4    0.19    0.61
   3   3  -4   -0.52    0.87
   3   3  -4    0.66    0.58
   3   3  -4    0.84    0.90
  -3  -3   4    0.18    0.79
  -3  -3   4    1.05    0.67
  -3  -3   4    0.61    0.58
  -3  -3   4    0.63    0.95
  -3  -3   4    0.13    1.09
  -3  -3   4    1.20    0.51
   3   3  -4    0.06    5.06
   3   3  -4    3.07    4.46
  -3  -3   4   -3.99    3.99
  -3  -3   4   -3.09    3.18
   2   3  -4  665.98   60.36
   2   3  -4  572.09   32.68
   2   3  -4  589.58   36.36
  -2  -3   4  651.68   44.75
  -2  -3   4  612.49   35.17
  -2  -3   4  634.31   54.52
  -2  -3   4  606.89   26.93
  -2  -3   4  624.06   41.53
   2   3  -4  683.43   77.72
   2   3  -4  590.14   42.00
  -2  -3   4  685.68   53.99
  -2  -3   4  598.99   44.61
   1   3  -4  864.71   75.33
   1   3  -4 1200.02  131.66
   1   3  -4  959.64   54.60
   1   3  -4  930.23   52.35
  -1  -3   4 1035.63   59.73
  -1  -3   4 1087.10   66.07
  -1  -3   4 1009.90   60.69
  -1  -3   4  922.75   85.45
  -1  -3   4  918.47   42.93
   1   3  -4 1167.77  129.87
   1   3  -4 1061.67   80.99
  -1  -3   4 1108.07   66.56
  -1  -3   4 1398.81  106.64
   0   3  -4   25.71    1.60
   0   3  -4   29.24    3.01
   0   3  -4   27.02    2.65
   0  -3   4   20.71    1.61
   0  -3   4   22.66    1.43
   0  -3   4   22.94    2.15
   0  -3   4   21.82    1.57
   0  -3   4   25.47    2.72
   0  -3   4   27.22    1.86
   0  -3   4   25.51    1.86
   0  -3   4   26.21    1.95
   0   3  -4   19.24    3.81
   0   3  -4   19.06    3.13
   0  -3   4   20.28    3.02
   0  -3   4   18.08    3.69
  -1   3  -4    3.58    0.67
  -1   3  -4    3.68    1.18
  -1   3  -4    4.81    1.34
  -1   3  -4    4.61    0.70
   1  -3   4    3.59    0.59
   1  -3   4    3.96    0.58
   1  -3   4    4.52    1.35
   1  -3   4    3.87    0.61
   1  -3   4    2.21    1.35
   1  -3   4    6.36    1.45
   1  -3   4    3.05    0.70
   1  -3   4    4.75    0.97
  -1   3  -4    8.90    2.81
  -1   3  -4    3.58    2.03
   1  -3   4    0.12    2.81
   1  -3   4   -0.53    2.58
  -2   3  -4    8.65    1.01
  -2   3  -4    6.20    1.10
  -2   3  -4    5.85    1.91
  -2   3  -4    7.85    1.62
   2  -3   4    6.53    1.50
   2  -3   4    8.08    1.31
   2  -3   4    7.44    1.52
   2  -3   4    8.95    0.89
   2  -3   4    8.46    1.14
  -2   3  -4   12.28    3.62
  -2   3  -4   13.40    3.63
   2  -3   4    6.46    4.87
  -3   3  -4   40.94    3.75
  -3   3  -4   42.15    4.06
  -3   3  -4   44.83    4.58
   3  -3   4   35.70    3.20
   3  -3   4   38.50    3.06
   3  -3   4   40.10    3.74
   3  -3   4   42.71    2.35
  -3   3  -4   47.06    5.97
  -3   3  -4   48.40    4.97
   3  -3   4   37.39    6.98
  -4   3  -4   28.32    3.05
  -4   3  -4   26.23    2.42
  -4   3  -4   22.59    3.48
   4  -3   4   22.43    1.65
   4  -3   4   22.82    2.54
  -4   3  -4   27.00    6.53
  -4   3  -4   26.59    4.97
  -5   3  -4    1.05    1.42
  -5   3  -4    0.07    1.38
  -5   3  -4   -1.16    1.16
   5  -3   4   -1.43    1.54
  -5   3  -4    9.37    7.36
  -5   3  -4    0.45    4.37
  -6   3  -4   -0.65    1.74
  -6   3  -4    0.58    1.63
   6  -3   4    0.92    1.80
  -6   3  -4    4.68    6.91
  -7   3  -4   12.69    3.14
  -7   3  -4   15.46    3.04
   7  -3   4    9.61    3.00
  -7   3  -4   14.27   12.55
   9   2  -4    1.62    2.73
  -9  -2   4    4.29    3.30
  -9  -2   4   -0.25    3.49
  -9  -2   4    2.97    3.01
  -9  -2   4  -11.87   21.92
   8   2  -4   24.73    2.97
   8   2  -4   25.72    3.22
  -8  -2   4   26.32    3.09
  -8  -2   4   25.93    3.16
  -8  -2   4   27.37    4.01
  -8  -2   4   21.18   13.58
   7   2  -4  118.66    7.81
   7   2  -4  114.52    7.60
  -7  -2   4  119.16    7.47
  -7  -2   4  107.18    8.93
  -7  -2   4  117.68   10.05
  -7  -2   4  108.07   12.35
   6   2  -4    3.49    1.61
  -6  -2   4    1.88    1.21
  -6  -2   4    2.31    1.32
  -6  -2   4    5.39    1.41
   6   2  -4   11.62    9.35
  -6  -2   4    5.80    5.99
  -6  -2   4    7.56   10.52
   5   2  -4   10.04    1.49
   5   2  -4   10.16    1.41
   5   2  -4   12.46    1.73
  -5  -2   4    7.64    1.54
  -5  -2   4   13.70    1.37
  -5  -2   4   10.97    1.44
  -5  -2   4    9.06    1.36
  -5  -2   4   11.81    1.13
  -5  -2   4   11.35    1.02
   5   2  -4   10.49    7.59
  -5  -2   4   12.02    6.56
  -5  -2   4   10.56    5.26
   4   2  -4   31.69    2.65
   4   2  -4   29.08    2.98
   4   2  -4   28.11    2.78
   4   2  -4   33.02    2.24
   4   2  -4   36.03    2.69
  -4  -2   4   33.48    2.33
  -4  -2   4   34.63    2.40
  -4  -2   4   35.31    2.50
  -4  -2   4   32.59    2.32
  -4  -2   4   31.81    2.20
  -4  -2   4   32.89    2.33
   4   2  -4   21.24    5.72
   4   2  -4   25.03    8.26
  -4  -2   4   28.08    5.31
  -4  -2   4   27.73    5.80
   3   2  -4   60.85    4.65
   3   2  -4   51.01    5.17
   3   2  -4   55.74    3.98
  -3  -2   4   62.83    3.27
  -3  -2   4   65.36    4.33
  -3  -2   4   61.82    3.76
  -3  -2   4   59.28    3.58
  -3  -2   4   60.11    3.79
   3   2  -4   57.56    5.35
   3   2  -4   53.79    7.31
  -3  -2   4   58.15    5.16
  -3  -2   4   58.61    6.55
   2   2  -4    1.10    0.43
   2   2  -4    0.69    0.57
   2   2  -4    1.17    0.36
   2   2  -4    0.51    0.54
  -2  -2   4    1.12    0.33
  -2  -2   4    0.54    0.40
  -2  -2   4    0.46    0.32
  -2  -2   4    0.32    0.57
  -2  -2   4    1.12    0.66
  -2  -2   4    1.08    0.57
  -2  -2   4    0.23    0.38
   2   2  -4    0.16    2.63
   2   2  -4    5.96    2.61
  -2  -2   4    2.06    1.99
  -2  -2   4    1.35    2.06
   1   2  -4  132.78    6.36
   1   2  -4  146.86   10.34
   1   2  -4  147.43   10.20
   1   2  -4  177.63   19.49
  -1  -2   4  159.81   15.15
  -1  -2   4  144.39   11.08
  -1  -2   4  137.45    6.69
  -1  -2   4  143.79    8.71
  -1  -2   4  142.63    6.89
   1   2  -4  147.72   16.68
   1   2  -4  137.67   15.78
  -1  -2   4  180.42   13.43
  -1  -2   4  158.92   12.34
   0   2  -4  115.06    6.65
   0   2  -4  131.21   12.61
   0   2  -4  104.57    6.43
   0  -2   4  106.36    6.66
   0  -2   4   91.19    6.25
   0  -2   4   98.00    7.36
   0  -2   4  135.58   11.29
   0   2  -4   97.52   10.44
   0   2  -4  110.21   13.08
   0  -2   4  123.84   15.65
   0  -2   4   98.79    9.61
  -1   2  -4   17.69    2.04
  -1   2  -4   19.47    1.36
  -1   2  -4   21.79    2.74
  -1   2  -4   17.88    2.00
  -1   2  -4   21.10    2.52
   1  -2   4   17.56    1.33
   1  -2   4   20.34    1.90
   1  -2   4   21.89    2.19
   1  -2   4   23.49    2.41
   1  -2   4   20.88    1.67
   1  -2   4   20.13    1.16
  -1   2  -4   17.25    3.07
  -1   2  -4   17.39    3.33
   1  -2   4   13.77    2.93
   1  -2   4   18.22    3.71
  -2   2  -4   60.59    7.70
  -2   2  -4   61.18    5.63
  -2   2  -4   65.78    4.72
  -2   2  -4   64.33    6.89
  -2   2  -4   60.56    5.95
   2  -2   4   71.02    4.30
   2  -2   4   63.52    4.84
   2  -2   4   70.15    4.01
   2  -2   4   59.34    6.92
   2  -2   4   55.78    3.40
   2  -2   4   65.84    6.08
  -2   2  -4   60.85    7.45
  -2   2  -4   56.62    6.03
   2  -2   4   69.44    8.68
   2  -2   4   52.64    6.80
  -3   2  -4   -0.02    0.51
  -3   2  -4   -0.03    0.50
  -3   2  -4    0.06    0.77
   3  -2   4    1.64    0.65
   3  -2   4   -0.21    0.40
   3  -2   4    0.44    0.23
   3  -2   4   -0.19    0.28
   3  -2   4    0.86    0.64
  -3   2  -4   -2.21    2.90
  -3   2  -4   -0.80    2.26
   3  -2   4    1.62    3.36
  -4   2  -4  126.70   10.79
  -4   2  -4  145.67   13.61
  -4   2  -4  133.78   13.17
   4  -2   4  119.38    6.13
   4  -2   4  134.28    9.92
   4  -2   4  137.41    9.07
  -4   2  -4  168.48   15.94
  -4   2  -4  161.51   12.39
  -5   2  -4   13.50    2.09
  -5   2  -4   16.68    1.93
   5  -2   4   10.62    1.87
   5  -2   4   10.15    1.65
  -5   2  -4   14.23    7.74
  -5   2  -4   21.35    5.68
  -6   2  -4   19.08    2.67
  -6   2  -4   17.74    2.39
   6  -2   4   12.32    2.36
  -6   2  -4   16.82    7.29
  -7   2  -4   15.49    2.99
  -7   2  -4   21.27    3.00
   7  -2   4   14.90    2.99
  -7   2  -4   18.99   10.85
   8   1  -4    0.79    0.69
   8   1  -4   -0.03    0.63
  -8  -1   4    0.86    0.63
  -8  -1   4   -0.14    0.66
  -8  -1   4    0.29    3.84
   7   1  -4   -0.53    0.53
   7   1  -4    0.47    0.51
  -7  -1   4    0.42    0.53
  -7  -1   4    0.24    0.66
  -7  -1   4   -0.54    0.54
  -7  -1   4   -0.52    2.80
   6   1  -4   29.36    2.96
   6   1  -4   27.77    2.34
  -6  -1   4   31.90    2.55
  -6  -1   4   26.19    2.72
  -6  -1   4   23.78    2.82
  -6  -1   4   24.74    6.92
  -6  -1   4   19.22    8.40
   5   1  -4  145.75    9.91
   5   1  -4  140.80    9.08
  -5  -1   4  149.12   11.73
  -5  -1   4  131.69    9.57
  -5  -1   4  147.80   12.81
  -5  -1   4  144.75   11.46
   5   1  -4  134.20   11.37
  -5  -1   4  161.12   13.61
  -5  -1   4  144.30   13.16
   4   1  -4  235.22   19.51
   4   1  -4  262.93   18.19
   4   1  -4  236.65   16.15
   4   1  -4  244.36   17.93
  -4  -1   4  246.06   15.95
  -4  -1   4  260.27   15.40
  -4  -1   4  255.56   14.91
  -4  -1   4  249.79   17.04
  -4  -1   4  233.33   16.32
  -4  -1   4  232.58   11.74
   4   1  -4  283.96   25.52
   4   1  -4  238.63   17.74
  -4  -1   4  250.85   20.72
  -4  -1   4  255.93   23.61
   3   1  -4  226.62   18.59
   3   1  -4  212.49   14.40
   3   1  -4  219.28   15.92
   3   1  -4  218.49   17.08
   3   1  -4  226.45   21.10
  -3  -1   4  218.77   12.71
  -3  -1   4  204.24   12.35
  -3  -1   4  216.44   15.85
  -3  -1   4  196.23   11.76
  -3  -1   4  215.36   13.02
   3   1  -4  233.46   26.62
   3   1  -4  226.45   18.06
  -3  -1   4  226.37   18.80
  -3  -1   4  219.17   20.24
   2   1  -4   53.22    3.96
   2   1  -4   54.37    5.15
   2   1  -4   53.19    4.10
   2   1  -4   54.44    4.11
   2   1  -4   57.84    4.65
  -2  -1   4   53.51    3.25
  -2  -1   4   53.54    3.34
  -2  -1   4   59.71    3.56
  -2  -1   4   54.82    3.48
  -2  -1   4   56.92    3.42
   2   1  -4   47.43    4.32
   2   1  -4   42.41    5.86
  -2  -1   4   48.22    4.42
  -2  -1   4   57.67    5.21
   1   1  -4   10.76    0.89
   1   1  -4    9.21    1.01
   1   1  -4   10.58    1.17
   1   1  -4    7.91    0.87
   1   1  -4    9.08    0.80
  -1  -1   4   10.33    0.89
  -1  -1   4   11.49    0.89
  -1  -1   4    9.91    0.93
  -1  -1   4    9.81    1.10
  -1  -1   4    9.97    0.73
   1   1  -4    6.90    2.02
  -1  -1   4   12.13    2.08
  -1  -1   4   11.20    2.20
   0   1  -4  155.82   10.55
   0   1  -4  126.68    9.25
   0   1  -4  141.72   10.18
   0  -1   4  133.05    9.68
   0  -1   4  138.65    9.13
   0  -1   4  111.45    8.65
   0   1  -4  137.60   15.11
   0   1  -4  128.94   11.93
   0  -1   4  138.18   10.12
   0  -1   4  137.79    9.94
  -1   1  -4  523.16   56.93
  -1   1  -4  510.62   59.06
  -1   1  -4  427.26   24.75
  -1   1  -4  484.80   31.05
  -1   1  -4  385.21   24.42
  -1   1  -4  529.83   37.70
   1  -1   4  488.03   30.45
   1  -1   4  493.11   40.24
   1  -1   4  380.86   22.87
   1  -1   4  382.47   25.82
   1  -1   4  462.61   33.99
   1  -1   4  461.48   42.39
  -1   1  -4  502.79   64.46
   1  -1   4  580.81   41.66
   1  -1   4  504.05   52.61
  -2   1  -4  521.73   38.38
  -2   1  -4  578.19   71.84
  -2   1  -4  560.03   38.88
  -2   1  -4  583.51   46.73
   2  -1   4  575.69   56.68
   2  -1   4  592.02   33.99
   2  -1   4  588.05   54.02
   2  -1   4  592.33   33.28
   2  -1   4  592.68   48.06
  -2   1  -4  665.84   62.18
  -2   1  -4  657.76   46.41
   2  -1   4  681.17   52.49
   2  -1   4  704.25   45.37
  -3   1  -4  549.34   39.50
  -3   1  -4  522.98   34.39
  -3   1  -4  571.91   59.71
  -3   1  -4  574.09   43.51
   3  -1   4  609.63   35.83
   3  -1   4  600.80   51.42
   3  -1   4  608.46   58.20
   3  -1   4  588.16   49.41
  -3   1  -4  672.02   59.82
  -3   1  -4  621.69   57.10
   3  -1   4  652.47   41.43
   3  -1   4  632.00   66.87
  -4   1  -4  109.70    9.82
  -4   1  -4  102.85    7.60
  -4   1  -4  106.73    8.30
   4  -1   4   96.51    7.98
   4  -1   4  109.62    9.52
   4  -1   4  107.76    7.53
  -4   1  -4  106.32   12.18
  -4   1  -4   98.43    9.62
  -5   1  -4   97.33    7.61
  -5   1  -4   98.02    6.76
   5  -1   4   91.05    7.53
   5  -1   4   84.37    6.45
  -5   1  -4  116.69   11.28
  -5   1  -4  101.19   10.26
  -6   1  -4  107.46    8.06
  -6   1  -4  108.16    8.15
   6  -1   4   97.49    7.06
  -6   1  -4  131.38   11.45
  -7   1  -4   -1.65    1.83
  -7   1  -4   -0.98    1.59
   7  -1   4    2.76    1.88
  -7   1  -4    7.09    8.28
  -8   1  -4    0.67    3.18
  -8   1  -4    4.54    3.17
   8  -1   4    1.85    3.26
  -8   1  -4  -16.21   16.21
  -8   0   4   18.12    3.16
  -8   0   4   16.58    3.39
  -8   0   4   29.39   12.63
   7   0  -4   42.59    4.11
   7   0  -4   41.93    3.65
  -7   0   4   44.46    3.88
  -7   0   4   47.57    4.19
  -7   0   4   29.54    8.91
   6   0  -4   38.06    3.20
   6   0  -4   39.66    3.41
  -6   0   4   41.18    3.63
  -6   0   4   43.41    3.46
  -6   0   4   45.49    8.74
  -6   0   4   47.78   10.40
   5   0  -4    0.22    0.32
   5   0  -4    0.24    0.29
  -5   0   4    0.95    0.38
  -5   0   4    0.39    0.34
  -5   0   4    0.25    0.19
  -5   0   4    0.50    0.28
   5   0  -4   -1.33    2.03
  -5   0   4   -0.49    1.21
  -5   0   4    0.26    1.46
   4   0  -4  219.83   12.45
   4   0  -4  206.05   13.76
   4   0  -4  220.12   19.79
  -4   0   4  228.98   12.86
  -4   0   4  233.79   19.81
  -4   0   4  213.17   14.07
  -4   0   4  222.43   16.97
   4   0  -4  220.32   16.37
  -4   0   4  215.67   16.06
   3   0  -4  676.28   65.05
   3   0  -4  671.51   51.17
   3   0  -4  739.01   37.75
   3   0  -4  764.35   61.62
   3   0  -4  767.97   75.87
  -3   0   4  751.64   49.43
  -3   0   4  724.19   62.67
  -3   0   4  647.27   34.67
  -3   0   4  752.38   47.56
  -3   0   4  727.47   45.76
  -3   0   4  671.19   43.38
   3   0  -4  887.43  101.85
   3   0  -4  752.11   39.91
  -3   0   4  623.01   71.28
  -3   0   4  685.34   41.63
   2   0  -4   89.97    6.40
   2   0  -4   87.90    8.15
   2   0  -4   85.95    4.51
   2   0  -4   84.82    9.24
   2   0  -4   88.54    8.61
  -2   0   4   75.08    4.49
  -2   0   4   85.77    7.08
  -2   0   4   89.02    6.82
  -2   0   4   76.02    4.21
  -2   0   4   84.56    5.77
  -2   0   4   93.90    7.56
   2   0  -4   86.79    8.21
   2   0  -4  100.56   11.54
  -2   0   4   87.71    6.49
  -2   0   4   83.65    8.43
   1   0  -4  654.69   65.27
   1   0  -4  609.23   45.82
   1   0  -4  608.22   41.67
   1   0  -4  624.13   70.09
   1   0  -4  712.18   64.37
  -1   0   4  638.34   32.64
  -1   0   4  679.39   47.08
  -1   0   4  660.98   49.33
  -1   0   4  671.94   58.18
  -1   0   4  660.02   56.50
   1   0  -4  657.14   78.53
   1   0  -4  631.86   69.50
  -1   0   4  619.09   60.84
  -1   0   4  670.80   60.70
   0   0  -4 1053.19   73.81
   0   0  -4 1396.72  140.55
   0   0  -4 1156.43  112.96
   0   0  -4 1170.24   89.38
   0   0  -4 1213.12   91.47
   0   0   4  986.90   63.74
   0   0   4 1028.74   72.18
   0   0   4 1157.67   83.81
   0   0   4 1081.35   68.44
   0   0  -4 1269.58  115.25
   0   0  -4 1145.34   92.61
   0   0   4 1151.72   92.30
   0   0   4 1272.89   78.99
  -1   0  -4    0.19    0.42
  -1   0  -4    0.55    0.37
  -1   0  -4   -0.44    0.44
  -1   0  -4   -0.14    0.40
   1   0   4    0.42    0.45
   1   0   4   -0.27    0.35
   1   0   4   -0.30    0.30
   1   0   4    0.12    0.40
   1   0   4   -0.33    0.33
  -1   0  -4   -0.54    1.42
  -1   0  -4   -1.59    1.59
   1   0   4    1.87    1.44
   1   0   4   -1.08    1.48
  -2   0  -4   36.81    2.58
  -2   0  -4   43.62    2.37
  -2   0  -4   42.51    3.33
  -2   0  -4   42.60    4.03
  -2   0  -4   41.20    2.24
   2   0   4   45.63    3.01
   2   0   4   43.94    3.74
   2   0   4   46.32    3.58
   2   0   4   45.82    2.68
   2   0   4   39.28    2.24
   2   0   4   43.72    2.98
  -2   0  -4   45.66    5.11
  -2   0  -4   39.53    5.05
   2   0   4   45.06    4.70
   2   0   4   45.98    3.88
  -3   0  -4    5.33    0.90
  -3   0  -4    3.10    0.96
  -3   0  -4    5.63    0.67
   3   0   4    5.79    1.07
   3   0   4    5.66    0.90
   3   0   4    4.43    1.00
   3   0   4    5.14    1.03
   3   0   4    5.85    0.94
  -3   0  -4    5.40    4.00
  -3   0  -4    6.12    2.72
   3   0   4    8.50    3.47
   3   0   4    3.59    3.17
  -4   0  -4   48.10    3.12
   4   0   4   40.83    2.18
   4   0   4   50.82    3.25
   4   0   4   49.20    3.12
   4   0   4   55.39    3.70
  -4   0  -4   50.99    7.06
  -4   0  -4   46.45    5.62
  -5   0  -4    7.44    1.25
  -5   0  -4    6.64    1.29
   5   0   4    4.72    1.45
   5   0   4    4.38    0.52
   5   0   4    5.30    1.06
  -5   0  -4    8.12    5.87
  -5   0  -4   -5.48    7.98
   5   0   4   12.53    7.35
  -6   0  -4    9.71    1.78
  -6   0  -4   10.65    1.72
   6   0   4   11.12    2.02
   6   0   4   10.96    1.35
  -6   0  -4    3.55   10.78
  -6   0  -4    5.23    7.58
  -7   0  -4   17.53    2.64
  -7   0  -4   22.35    2.85
   7   0   4   11.13    2.42
  -7   0  -4   17.90    9.77
  -8   0  -4  126.15    9.05
  -8   0  -4  130.50   11.19
   8   0   4  123.68    9.30
  -8   0  -4  128.63   19.15
   8  -1  -4    0.76    2.64
  -8   1   4    4.68    3.13
  -8   1   4    1.88    3.00
  -8   1   4   -4.03   12.68
   7  -1  -4   -0.09    1.60
   7  -1  -4    0.97    0.83
  -7   1   4    0.44    0.75
  -7   1   4    0.44    0.87
  -7   1   4   -2.18    3.57
   6  -1  -4    8.10    1.69
   6  -1  -4    6.31    1.81
  -6   1   4    9.49    1.84
  -6   1   4   12.65    2.08
  -6   1   4    6.93    6.57
   5  -1  -4  335.86   22.33
   5  -1  -4  376.27   23.20
  -5   1   4  338.71   22.74
  -5   1   4  349.23   26.42
  -5   1   4  361.93   28.32
  -5   1   4  377.31   26.72
   4  -1  -4  356.21   23.75
   4  -1  -4  339.08   27.88
   4  -1  -4  341.30   22.74
  -4   1   4  351.70   22.94
  -4   1   4  350.90   20.31
  -4   1   4  327.01   18.58
   4  -1  -4  346.47   26.99
  -4   1   4  362.76   26.02
  -4   1   4  340.74   26.87
   3  -1  -4  103.32   12.14
   3  -1  -4  103.96    7.04
   3  -1  -4  108.47    5.57
   3  -1  -4  108.47    7.08
   3  -1  -4  124.41   11.13
   3  -1  -4   99.31    7.91
  -3   1   4  108.63    5.88
  -3   1   4  120.47    7.15
  -3   1   4  115.75    7.78
  -3   1   4  107.22    6.37
  -3   1   4  104.13    6.62
   3  -1  -4  113.10   12.97
   3  -1  -4  112.77    8.95
  -3   1   4  112.30    9.78
  -3   1   4  111.88    8.56
   2  -1  -4  540.75   67.06
   2  -1  -4  416.98   23.14
   2  -1  -4  502.87   47.26
   2  -1  -4  439.75   44.68
   2  -1  -4  462.64   28.83
   2  -1  -4  429.30   31.90
  -2   1   4  483.25   31.16
  -2   1   4  442.47   20.79
  -2   1   4  478.84   41.75
  -2   1   4  416.35   22.87
  -2   1   4  432.79   24.25
  -2   1   4  460.31   42.79
   2  -1  -4  558.15   70.41
   2  -1  -4  445.18   41.41
  -2   1   4  493.02   60.48
  -2   1   4  442.92   36.46
   1  -1  -4  836.24   94.60
   1  -1  -4  717.33   36.34
   1  -1  -4  868.61   83.38
   1  -1  -4  771.06   51.81
   1  -1  -4  729.37   52.16
  -1   1   4  747.11   44.52
  -1   1   4  897.68   80.65
  -1   1   4  781.56   58.71
  -1   1   4  730.43   38.90
   1  -1  -4  788.20   86.26
   1  -1  -4  758.27  107.06
  -1   1   4  766.23   64.90
  -1   1   4  710.29   71.05
   0  -1  -4   14.92    0.98
   0  -1  -4   11.47    0.74
   0  -1  -4   13.74    1.13
   0  -1  -4   13.66    1.16
   0   1   4   11.27    0.72
   0   1   4   13.06    0.82
   0   1   4   10.20    0.88
   0  -1  -4   12.44    2.05
   0  -1  -4   12.64    2.28
   0   1   4   11.42    2.24
   0   1   4   15.18    2.04
  -1  -1  -4    0.10    0.33
  -1  -1  -4   -0.11    0.46
  -1  -1  -4    0.55    0.32
  -1  -1  -4   -0.23    0.31
  -1  -1  -4    0.35    0.29
   1   1   4   -0.07    0.30
   1   1   4    0.41    0.53
   1   1   4    1.11    0.39
   1   1   4    0.60    0.30
   1   1   4   -0.03    0.32
  -1  -1  -4    3.49    1.87
  -1  -1  -4   -0.86    1.51
   1   1   4    1.00    1.26
   1   1   4   -1.41    1.41
  -2  -1  -4  305.06   19.40
  -2  -1  -4  279.87   21.36
  -2  -1  -4  278.33   20.93
  -2  -1  -4  296.05   26.88
  -2  -1  -4  273.15   18.68
  -2  -1  -4  317.22   27.77
   2   1   4  281.15   18.36
   2   1   4  286.21   17.03
   2   1   4  289.60   19.56
   2   1   4  284.42   16.71
   2   1   4  302.91   18.57
  -2  -1  -4  344.06   18.83
  -2  -1  -4  329.38   28.10
   2   1   4  340.58   15.61
   2   1   4  340.92   16.36
  -3  -1  -4  488.01   31.45
  -3  -1  -4  475.06   29.73
  -3  -1  -4  522.19   37.92
  -3  -1  -4  483.79   31.52
   3   1   4  509.29   24.95
   3   1   4  515.50   23.23
   3   1   4  483.76   24.30
   3   1   4  496.55   25.32
   3   1   4  499.88   27.12
   3   1   4  509.16   28.23
  -3  -1  -4  585.54   38.16
  -3  -1  -4  561.72   32.72
   3   1   4  601.58   33.15
   3   1   4  557.76   22.97
  -4  -1  -4    5.49    0.84
  -4  -1  -4    6.25    0.68
  -4  -1  -4    6.79    1.04
   4   1   4    6.28    1.14
   4   1   4    5.37    0.80
   4   1   4    5.74    1.37
   4   1   4    5.96    0.69
   4   1   4    6.70    1.08
   4   1   4    7.36    1.08
  -4  -1  -4   12.39    5.15
  -4  -1  -4   -4.48    4.48
   4   1   4    2.77    3.47
   4   1   4   11.71    5.06
  -5  -1  -4  107.62    5.78
  -5  -1  -4  120.48    7.12
   5   1   4  115.85    6.33
   5   1   4  123.55    7.10
   5   1   4  115.45    9.17
   5   1   4  119.74    5.88
  -5  -1  -4  130.28   12.90
  -5  -1  -4  118.79   11.06
   5   1   4  121.61   11.23
  -6  -1  -4   79.01    5.09
  -6  -1  -4   70.26    4.12
  -6  -1  -4   74.25    5.05
   6   1   4   71.02    4.36
   6   1   4   76.75    4.72
   6   1   4   80.44    5.83
  -6  -1  -4   88.56   12.86
  -6  -1  -4   62.46    9.78
  -7  -1  -4    3.57    1.51
  -7  -1  -4   -1.64    1.64
   7   1   4   -1.80    1.80
  -7  -1  -4    6.26    7.45
  -8  -1  -4    2.03    2.64
  -8  -1  -4    7.39    2.57
   8   1   4   -0.42    2.76
  -8  -1  -4    1.99   15.56
  -9  -1  -4    2.76    5.61
   7  -2  -4    9.23    2.52
  -7   2   4    9.61    3.35
  -7   2   4    8.08    2.37
  -7   2   4    6.44    9.12
   6  -2  -4  136.84    9.47
   6  -2  -4  137.22    9.73
  -6   2   4  130.56    8.65
  -6   2   4  131.22   10.72
  -6   2   4  143.17   14.21
   5  -2  -4   -1.02    1.02
   5  -2  -4   -1.25    1.25
  -5   2   4    2.54    1.25
  -5   2   4   -1.06    1.13
  -5   2   4    0.26    3.58
  -5   2   4   -4.54    4.54
   4  -2  -4 1007.46   56.14
   4  -2  -4  873.59   56.92
   4  -2  -4  940.45   60.48
  -4   2   4  950.66   66.16
  -4   2   4  934.53   71.27
  -4   2   4  927.92   65.97
   4  -2  -4 1061.67   89.97
  -4   2   4 1018.66   86.13
  -4   2   4 1005.28   66.70
   3  -2  -4  908.95   82.01
   3  -2  -4  791.62   53.27
   3  -2  -4  981.40   69.55
   3  -2  -4  955.14   56.29
   3  -2  -4  907.68   57.62
  -3   2   4  872.77   63.01
  -3   2   4  932.26   67.21
  -3   2   4  894.95   66.34
  -3   2   4  925.47   61.76
   3  -2  -4  918.44   56.05
  -3   2   4  952.37   64.89
  -3   2   4  874.81   54.47
   2  -2  -4    8.23    0.88
   2  -2  -4    4.23    0.62
   2  -2  -4    7.29    1.24
   2  -2  -4    5.40    0.89
   2  -2  -4    6.93    1.09
   2  -2  -4    5.57    1.27
  -2   2   4    6.92    0.89
  -2   2   4    7.35    0.98
  -2   2   4    5.75    1.18
  -2   2   4    5.13    1.05
   2  -2  -4    4.46    3.30
   2  -2  -4    5.63    3.03
  -2   2   4    8.51    2.20
   1  -2  -4    2.03    0.84
   1  -2  -4    3.35    0.70
   1  -2  -4    3.14    0.65
   1  -2  -4    2.61    0.61
   1  -2  -4    2.49    0.86
   1  -2  -4    2.27    0.61
  -1   2   4    2.33    0.74
  -1   2   4    1.74    0.64
  -1   2   4    1.94    0.86
  -1   2   4    3.40    0.82
   1  -2  -4    5.41    2.42
   1  -2  -4   -0.24    2.51
  -1   2   4    4.73    1.72
  -1   2   4    2.20    1.50
   0  -2  -4    0.51    0.42
   0  -2  -4    0.95    0.20
   0  -2  -4    0.94    0.35
   0  -2  -4    0.47    0.29
   0  -2  -4    0.86    0.22
   0  -2  -4    0.72    0.34
   0   2   4    0.78    0.30
   0   2   4    0.32    0.38
   0  -2  -4    0.23    1.14
   0  -2  -4   -0.45    1.13
   0   2   4    0.96    0.92
   0   2   4    0.35    0.92
  -1  -2  -4   74.37    7.12
  -1  -2  -4   60.41    4.70
  -1  -2  -4   68.80    4.30
  -1  -2  -4   60.28    3.53
   1   2   4   67.87    3.97
   1   2   4   67.80    4.78
   1   2   4   70.33    3.84
   1   2   4   62.36    5.52
  -1  -2  -4   77.25    7.20
  -1  -2  -4   71.62    6.86
   1   2   4   70.98    5.36
   1   2   4   68.47    4.33
  -2  -2  -4  467.07   25.83
  -2  -2  -4  465.11   28.28
  -2  -2  -4  471.11   40.32
  -2  -2  -4  421.10   30.17
   2   2   4  444.57   24.14
   2   2   4  472.63   32.52
   2   2   4  445.06   24.68
   2   2   4  453.23   25.02
   2   2   4  444.53   26.77
  -2  -2  -4  531.79   35.74
  -2  -2  -4  506.15   41.72
   2   2   4  525.91   23.60
   2   2   4  503.49   21.35
  -3  -2  -4   40.32    2.75
  -3  -2  -4   42.89    3.06
  -3  -2  -4   45.31    3.08
   3   2   4   41.15    2.70
   3   2   4   42.77    2.51
   3   2   4   42.58    2.57
   3   2   4   41.23    2.49
   3   2   4   42.96    2.37
  -3  -2  -4   49.17    5.57
  -3  -2  -4   32.44    4.82
   3   2   4   46.66    4.77
   3   2   4   40.97    4.63
  -4  -2  -4   25.02    1.78
  -4  -2  -4   24.86    1.66
  -4  -2  -4   24.83    1.59
   4   2   4   26.82    1.96
   4   2   4   25.39    1.56
   4   2   4   25.50    1.82
   4   2   4   20.26    2.12
   4   2   4   26.16    2.22
   4   2   4   23.01    1.69
  -4  -2  -4   23.92    6.25
  -4  -2  -4   17.59    5.62
   4   2   4   29.67    5.77
  -5  -2  -4  153.72    7.46
  -5  -2  -4  164.93   10.54
  -5  -2  -4  174.01    8.90
   5   2   4  170.59    7.61
   5   2   4  159.39    8.37
   5   2   4  170.50    8.29
   5   2   4  166.88    9.82
  -5  -2  -4  194.36   14.06
  -5  -2  -4  212.92   16.02
   5   2   4  191.57   18.19
   5   2   4  184.27   12.51
  -6  -2  -4    1.64    1.14
  -6  -2  -4    4.06    1.08
  -6  -2  -4    4.40    1.63
   6   2   4    2.97    1.24
   6   2   4    5.55    1.41
   6   2   4    3.70    1.11
  -6  -2  -4    3.45    7.81
  -6  -2  -4   -1.65    7.17
   6   2   4   -6.24    8.54
  -7  -2  -4    5.16    1.76
  -7  -2  -4    4.17    1.55
  -7  -2  -4    2.82    1.60
   7   2   4    2.39    2.38
  -7  -2  -4    6.08   10.38
  -8  -2  -4   76.12    6.16
  -8  -2  -4   83.45    6.02
   8   2   4   85.89    7.74
  -8  -2  -4  107.48   19.96
  -9  -2  -4   -0.05    1.02
  -9  -2  -4    0.37    1.00
   9   2   4    0.52    1.17
  -9  -2  -4   -2.90    9.08
   7  -3  -4   18.48    3.46
  -7   3   4   13.05    2.97
  -7   3   4   12.67    3.19
  -7   3   4    3.33    9.97
   6  -3  -4    0.32    1.79
  -6   3   4    3.52    1.98
  -6   3   4   -2.03    2.03
  -6   3   4    1.94    6.34
   5  -3  -4   18.42    2.35
   5  -3  -4   24.31    2.71
  -5   3   4   24.73    2.70
  -5   3   4   25.77    2.96
  -5   3   4   34.79    6.99
  -5   3   4   26.85    5.72
   4  -3  -4  190.03   12.08
   4  -3  -4  174.91   12.11
  -4   3   4  188.36   12.88
  -4   3   4  186.19   11.00
  -4   3   4  194.48   14.77
   3  -3  -4   27.63    2.39
   3  -3  -4   32.17    2.26
   3  -3  -4   26.62    2.65
   3  -3  -4   29.45    2.35
  -3   3   4   32.54    2.79
  -3   3   4   32.68    2.79
   3  -3  -4   29.13    5.86
  -3   3   4   34.86    3.44
  -3   3   4   27.63    3.35
   2  -3  -4   39.60    2.40
   2  -3  -4   45.02    2.82
   2  -3  -4   35.13    2.87
   2  -3  -4   38.13    3.46
   2  -3  -4   37.90    2.81
  -2   3   4   41.70    3.07
  -2   3   4   41.01    3.16
  -2   3   4   46.23    4.02
   2  -3  -4   34.06    5.28
  -2   3   4   33.98    3.99
  -2   3   4   40.17    3.59
   1  -3  -4   -0.34    0.34
   1  -3  -4   -0.00    0.24
   1  -3  -4   -0.18    0.25
   1  -3  -4    0.06    0.35
   1  -3  -4   -0.18    0.20
   1  -3  -4    0.02    0.16
   1  -3  -4   -0.22    0.22
  -1   3   4    0.40    0.28
  -1   3   4   -0.03    0.26
  -1   3   4    0.18    0.32
   1  -3  -4    0.36    0.82
   1  -3  -4    0.94    0.88
  -1   3   4    0.70    0.58
   0  -3  -4  418.05   49.63
   0  -3  -4  408.82   23.34
   0  -3  -4  406.63   20.81
   0  -3  -4  410.71   35.99
   0  -3  -4  436.95   38.12
   0  -3  -4  397.96   34.88
   0  -3  -4  385.10   28.84
   0   3   4  394.25   23.69
   0   3   4  370.37   26.98
   0   3   4  382.21   24.39
   0  -3  -4  432.60   37.47
   0  -3  -4  419.53   41.00
   0   3   4  390.29   25.00
   0   3   4  376.36   29.00
  -1  -3  -4  160.90   12.72
  -1  -3  -4  168.71    9.35
  -1  -3  -4  167.48   10.17
  -1  -3  -4  161.25    8.95
   1   3   4  154.80    9.44
   1   3   4  159.77   10.61
   1   3   4  144.95   12.43
  -1  -3  -4  181.75   17.92
  -1  -3  -4  172.82   13.14
   1   3   4  167.44    8.47
   1   3   4  159.18   10.53
  -2  -3  -4    2.95    0.72
  -2  -3  -4    2.66    0.75
  -2  -3  -4    3.56    1.09
  -2  -3  -4    2.55    0.87
  -2  -3  -4    2.71    0.76
   2   3   4    3.09    0.43
   2   3   4    2.71    0.92
   2   3   4    3.45    0.66
   2   3   4    2.50    0.29
   2   3   4    4.47    0.89
   2   3   4    3.46    0.92
  -2  -3  -4    8.18    4.48
  -2  -3  -4    3.21    3.15
   2   3   4    1.96    2.58
   2   3   4    0.02    3.14
  -3  -3  -4  365.13   30.77
  -3  -3  -4  407.30   24.18
  -3  -3  -4  402.85   28.14
  -3  -3  -4  397.47   20.44
  -3  -3  -4  372.33   27.94
   3   3   4  380.90   21.00
   3   3   4  388.96   26.27
   3   3   4  395.58   20.22
   3   3   4  371.05   23.46
   3   3   4  366.88   19.68
   3   3   4  418.81   19.95
  -3  -3  -4  481.77   33.65
  -3  -3  -4  408.70   26.43
   3   3   4  420.96   20.80
  -4  -3  -4    6.28    1.41
  -4  -3  -4    8.33    1.25
  -4  -3  -4    9.81    1.19
   4   3   4    9.39    1.28
   4   3   4    8.70    1.25
   4   3   4   10.49    1.32
   4   3   4    9.76    1.35
   4   3   4    7.74    1.07
   4   3   4    9.34    1.09
  -4  -3  -4   14.16    6.91
  -4  -3  -4    9.21    5.54
   4   3   4    1.73    4.92
   4   3   4    5.75    5.41
  -5  -3  -4    1.46    1.34
  -5  -3  -4    3.12    0.89
  -5  -3  -4   -0.07    1.01
   5   3   4    0.85    1.07
   5   3   4    1.74    1.19
   5   3   4    2.83    1.27
   5   3   4    2.04    1.10
   5   3   4    1.81    1.53
   5   3   4    2.79    1.13
  -5  -3  -4    1.73    9.49
  -5  -3  -4   -6.11    6.11
   5   3   4    1.41    6.98
   5   3   4    3.23    7.65
  -6  -3  -4    2.11    1.15
  -6  -3  -4    1.96    1.09
   6   3   4    2.43    1.33
   6   3   4    1.17    1.42
   6   3   4   -0.94    1.58
  -6  -3  -4    4.98    8.60
   6   3   4   11.10    9.32
  -7  -3  -4   12.47    1.82
  -7  -3  -4   11.61    1.83
   7   3   4   11.76    2.09
  -7  -3  -4    1.43    9.19
  -8  -3  -4   -0.91    1.97
  -8  -3  -4    0.20    2.14
   8   3   4    1.31    2.46
  -8  -3  -4   -6.38   19.52
  -9  -3  -4   22.90    3.70
  -9  -3  -4   26.99    3.89
   9   3   4   30.44    4.47
  -9  -3  -4   26.83   27.33
   6  -4  -4    7.84    2.65
  -6   4   4    9.21    3.35
   5  -4  -4    3.91    2.00
  -5   4   4    2.82    2.70
   4  -4  -4   88.00    5.44
   4  -4  -4   82.75    6.11
  -4   4   4   87.39    7.77
  -4   4   4   80.56    6.69
  -4   4   4   54.41    3.34
   3  -4  -4    8.56    1.73
   3  -4  -4    6.50    1.28
  -3   4   4    7.97    1.94
  -3   4   4    7.43    1.76
   2  -4  -4   45.37    5.32
   2  -4  -4   63.62    4.36
   2  -4  -4   44.92    4.59
   2  -4  -4   56.08    3.38
  -2   4   4   61.52    4.44
  -2   4   4   48.00    4.01
  -2   4   4   51.55    4.37
   1  -4  -4   33.47    3.50
   1  -4  -4   34.74    3.14
   1  -4  -4   38.76    3.08
   1  -4  -4   39.25    3.02
  -1   4   4   35.30    2.93
  -1   4   4   33.19    2.71
   1  -4  -4   28.37    3.64
  -1   4   4   32.31    2.79
  -1   4   4   35.71    3.27
   0  -4  -4  597.82   49.71
   0  -4  -4  629.76   57.19
   0  -4  -4  600.28   54.71
   0  -4  -4  606.98   48.73
   0  -4  -4  599.22   57.80
   0   4   4  666.70   48.75
   0   4   4  613.47   42.53
   0   4   4  547.93   40.10
   0  -4  -4  618.81   37.71
   0   4   4  587.85   24.66
   0   4   4  588.26   43.20
  -1  -4  -4  748.20   55.72
  -1  -4  -4  730.65   68.42
  -1  -4  -4  727.97   64.76
   1   4   4  715.01   48.17
   1   4   4  694.50   52.32
   1   4   4  576.76   32.93
   1   4   4  654.27   44.07
  -1  -4  -4  784.28   50.21
   1   4   4  692.58   48.28
   1   4   4  636.02   29.67
  -2  -4  -4   31.96    2.53
  -2  -4  -4   33.23    2.92
  -2  -4  -4   31.46    2.55
   2   4   4   33.08    2.46
   2   4   4   34.26    2.80
   2   4   4   31.11    2.28
   2   4   4   35.14    1.99
   2   4   4   34.56    2.00
  -2  -4  -4   24.22    4.81
   2   4   4   35.40    4.50
  -3  -4  -4  165.61   17.46
  -3  -4  -4  187.98   14.66
   3   4   4  187.22   12.44
   3   4   4  197.85   20.06
   3   4   4  181.05   11.21
   3   4   4  185.90   10.62
   3   4   4  192.18   12.03
  -3  -4  -4  212.02   15.55
   3   4   4  218.36   11.51
   3   4   4  211.27   11.34
  -4  -4  -4   44.28    3.45
  -4  -4  -4   45.45    3.11
   4   4   4   44.18    2.68
   4   4   4   41.80    2.99
   4   4   4   47.01    3.06
   4   4   4   46.17    3.88
   4   4   4   41.74    2.76
  -4  -4  -4   48.93    8.28
   4   4   4   50.62    7.05
  -5  -4  -4   31.74    2.75
  -5  -4  -4   30.65    2.31
   5   4   4   32.96    2.28
   5   4   4   29.91    2.37
   5   4   4   32.20    3.16
   5   4   4   31.86    2.74
   5   4   4   30.26    2.52
   5   4   4   33.73    2.40
  -5  -4  -4   33.76   10.22
   5   4   4   21.61    7.22
   5   4   4   29.96    9.12
  -6  -4  -4   98.15    5.68
  -6  -4  -4   99.68    6.17
   6   4   4   99.93    6.71
   6   4   4   95.37    5.47
   6   4   4   98.19    5.03
  -6  -4  -4   93.60   13.13
   6   4   4  111.84   13.10
  -7  -4  -4    7.29    1.74
  -7  -4  -4    5.94    1.58
   7   4   4    2.64    2.28
   7   4   4    5.64    2.18
   7   4   4    5.90    2.09
  -7  -4  -4    4.10   12.46
  -8  -4  -4   17.34    2.81
   8   4   4   25.44    3.51
  -8  -4  -4   10.66   19.70
  -9  -4  -4    1.73    1.30
  -9  -4  -4    0.44    1.29
   9   4   4   -0.31    1.62
   5  -5  -4   68.28    6.76
   5  -5  -4   72.79    5.77
  -5   5   4   67.72    5.34
   4  -5  -4    1.07    1.54
   4  -5  -4   -0.90    1.60
  -4   5   4    0.65    2.00
  -4   5   4   -2.04    2.04
   3  -5  -4   11.37    1.93
   3  -5  -4   11.12    1.79
   3  -5  -4   11.53    1.94
  -3   5   4   22.05    4.51
  -3   5   4   15.18    2.27
   2  -5  -4   13.52    1.66
   2  -5  -4   14.94    1.68
   2  -5  -4   13.82    1.95
  -2   5   4   14.61    2.16
  -2   5   4   14.90    1.97
   1  -5  -4    4.04    1.57
   1  -5  -4    3.13    0.96
   1  -5  -4    2.58    1.03
   1  -5  -4   -2.05    2.20
   1  -5  -4    2.42    1.99
  -1   5   4    2.36    0.96
  -1   5   4    1.68    1.30
   0  -5  -4   -1.12    1.26
   0  -5  -4    0.87    1.33
   0  -5  -4   -0.35    0.95
   0  -5  -4   -1.30    1.30
   0  -5  -4   -0.78    0.78
   0   5   4    0.48    0.62
   0   5   4   -1.06    1.06
   0   5   4    0.74    1.21
   0  -5  -4    0.39    3.60
   0   5   4   -2.38    2.38
   0   5   4    2.88    2.49
  -1  -5  -4   45.17    3.39
  -1  -5  -4   42.28    3.09
  -1  -5  -4   45.34    3.94
   1   5   4   48.82    3.12
   1   5   4   39.38    3.44
   1   5   4   49.24    2.63
   1   5   4   39.48    3.32
  -1  -5  -4   30.37    5.53
   1   5   4   38.35    4.36
   1   5   4   40.96    4.99
  -2  -5  -4   -0.79    0.79
  -2  -5  -4    0.85    0.94
   2   5   4    0.44    0.41
   2   5   4   -0.86    0.86
   2   5   4   -0.09    0.66
   2   5   4    0.16    0.44
   2   5   4   -0.03    0.82
  -2  -5  -4    3.52    3.89
   2   5   4    0.06    3.15
   2   5   4   -0.52    2.68
  -3  -5  -4   82.68    6.13
  -3  -5  -4   98.22    7.60
   3   5   4   94.67    6.68
   3   5   4   90.82    5.38
   3   5   4   92.19    5.95
   3   5   4   94.38    6.25
   3   5   4   94.45    7.05
  -3  -5  -4   86.09    9.91
   3   5   4   90.23    7.90
  -4  -5  -4    5.87    1.22
  -4  -5  -4    4.92    1.34
   4   5   4    2.65    1.16
   4   5   4    3.51    1.18
   4   5   4    0.90    1.73
   4   5   4    5.14    1.32
  -4  -5  -4   -3.65    7.02
   4   5   4   11.25    7.28
   4   5   4    4.89    6.36
  -5  -5  -4   27.06    2.72
  -5  -5  -4   28.10    2.67
   5   5   4   25.83    2.43
   5   5   4   24.15    2.36
   5   5   4   28.20    2.23
   5   5   4   29.93    2.70
  -5  -5  -4   26.38   10.12
   5   5   4   39.14    9.05
   5   5   4   13.52    9.51
  -6  -5  -4  147.99   10.66
  -6  -5  -4  137.08    8.01
   6   5   4  128.49    9.19
   6   5   4  129.33    6.70
   6   5   4  137.90    7.96
   6   5   4  124.93    7.59
   6   5   4  145.47   14.78
  -7  -5  -4  305.69   19.09
  -7  -5  -4  298.60   18.08
   7   5   4  308.97   14.90
   7   5   4  314.15   16.91
   7   5   4  293.40   21.04
   7   5   4  293.71   18.12
   7   5   4  401.48   28.63
  -8  -5  -4    4.81    2.53
  -8  -5  -4    3.33    2.24
   8   5   4   -2.34    2.99
   8   5   4    4.47    3.06
   4  -6  -4   17.43    2.70
   4  -6  -4   18.48    2.78
  -4   6   4   19.26    3.32
   3  -6  -4   50.82    4.28
   3  -6  -4   57.63    5.11
   3  -6  -4   58.51    4.72
  -3   6   4   53.42    6.13
  -3   6   4   56.91    4.51
   2  -6  -4   60.19    4.04
   2  -6  -4   54.88    4.93
   2  -6  -4   57.22    4.64
  -2   6   4   62.02    6.53
   1  -6  -4   28.09    2.28
   1  -6  -4   28.43    3.14
   1  -6  -4   28.75    2.33
  -1   6   4   20.48    2.63
   0  -6  -4   91.73    6.07
   0  -6  -4  101.11    6.68
   0   6   4   71.10    6.07
   0   6   4   90.78    6.57
   0   6   4   84.85    6.68
  -1  -6  -4   47.66    3.22
  -1  -6  -4   46.07    3.71
   1   6   4   35.35    3.30
   1   6   4   50.12    2.92
   1   6   4   36.75    3.52
   1   6   4   41.99    5.52
   1   6   4   39.01    6.54
  -2  -6  -4    6.33    1.65
   2   6   4    2.37    1.18
   2   6   4    1.46    1.25
   2   6   4    2.48    0.95
   2   6   4    2.19    1.20
   2   6   4    3.95    5.10
   2   6   4    5.41    4.57
  -3  -6  -4   16.46    1.55
  -3  -6  -4   21.89    2.55
   3   6   4   17.81    2.19
   3   6   4   20.80    1.74
   3   6   4   19.38    1.91
   3   6   4   21.00    1.75
   3   6   4   19.42    1.65
   3   6   4   14.76    6.86
   3   6   4   17.67    7.81
  -4  -6  -4    6.33    1.79
  -4  -6  -4    5.87    1.65
   4   6   4    5.30    1.55
   4   6   4    5.34    1.45
   4   6   4    4.11    1.34
   4   6   4    6.73    7.71
  -5  -6  -4   24.97    2.68
  -5  -6  -4   26.91    2.83
   5   6   4   22.52    2.85
   5   6   4   21.24    3.19
   5   6   4   26.50    2.45
   5   6   4   23.01   10.18
  -6  -6  -4   -1.21    1.21
  -6  -6  -4    3.60    1.52
   6   6   4    3.42    1.41
   6   6   4    0.27    1.63
   6   6   4   -1.59    1.59
   6   6   4    4.27    8.06
  -7  -6  -4   14.14    2.65
  -7  -6  -4   10.91    2.52
   7   6   4   12.43    3.75
   7   6   4   14.14    3.44
   7   6   4   10.74    2.79
   7   6   4   -2.36   19.01
  -8  -6  -4   15.83    3.34
  -8  -6  -4   12.17    2.64
   8   6   4   11.47    3.75
   3  -7  -4    1.06    2.10
   3  -7  -4    1.07    2.66
  -3   7   4    4.78    4.48
   2  -7  -4   -0.66    1.88
   2  -7  -4    0.90    1.78
   2  -7  -4    1.60    2.11
  -2   7   4   -2.18    2.91
   1  -7  -4   16.06    2.64
   1  -7  -4   13.32    2.21
   1  -7  -4   21.26    2.37
  -1   7   4   22.50    3.89
   0  -7  -4   21.43    2.33
   0  -7  -4   24.14    2.96
  -1  -7  -4   -1.53    1.53
   1   7   4   -1.98    1.98
   1   7   4   10.24    4.82
  -2  -7  -4    5.48    1.77
   2   7   4    2.50    1.39
   2   7   4    3.82    1.32
   2   7   4    0.33    6.58
   2   7   4    3.80    7.21
  -3  -7  -4   11.15    2.04
   3   7   4    7.65    1.44
   3   7   4    6.95    2.40
   3   7   4   20.48    8.82
  -4  -7  -4    7.65    1.98
  -4  -7  -4    7.19    2.53
   4   7   4    7.58    2.29
   4   7   4   11.32    2.49
   4   7   4   18.68   10.02
  -5  -7  -4    0.64    1.25
  -5  -7  -4    0.42    1.29
   5   7   4   -0.44    1.47
   5   7   4   -1.52    1.52
   5   7   4    4.04    9.39
  -6  -7  -4   14.73    3.01
  -6  -7  -4   15.87    2.91
   6   7   4   16.54    3.20
   6   7   4   19.94    3.68
   6   7   4    5.01   15.35
  -7  -7  -4   -1.23    2.75
  -7  -7  -4    2.81    3.00
   7   7   4    4.16    4.00
   7   7   4   -1.58    1.58
   7   7   4  -22.31   22.31
   1  -8  -4    7.14    2.53
   1  -8  -4   11.86    3.25
  -1   8   4   14.92    4.71
   0  -8  -4   64.54    5.51
   0  -8  -4   56.27    4.92
   0   8   4   64.32    7.45
  -1  -8  -4    5.32    2.58
   1   8   4   -1.70    7.25
   1   8   4    9.29    6.55
  -2  -8  -4   -0.47    0.70
   2   8   4   -0.28    2.94
  -3  -8  -4    2.75    2.48
   3   8   4    2.99    2.91
   3   8   4    7.98   12.55
  -4  -8  -4    3.87    2.72
  -4  -8  -4    2.47    2.15
   4   8   4   -2.73    3.09
   4   8   4    1.21   14.90
  -5  -8  -4   44.87    4.40
  -5  -8  -4   51.33    5.46
   5   8   4   48.67    5.57
   5   8   4   34.95   18.18
  -6  -8  -4    0.89    2.29
  -6  -8  -4    2.17    2.78
   6   8   4   -2.19    3.32
   6   8   4   28.17   18.54
  -1  -9  -4    5.89    3.54
  -2  -9  -4   10.99    3.24
   2   9   4   -0.16    4.49
   2   9   4   -2.48   12.03
  -3  -9  -4    1.05    3.25
   3   9   4    4.94    5.18
   3   9   4   -5.56   15.69
  -4  -9  -4   -0.51    1.25
  -4  -9  -4    0.36    1.49
   4   9   4   -1.30    2.07
   4   9   4   -0.85    8.49
   4   9  -5   -0.95    4.44
   4   9  -5    0.82    3.28
  -4  -9   5    4.17    3.04
   4   9  -5  -15.49   15.49
   3   9  -5   -0.75    3.59
   3   9  -5    4.47    4.09
  -3  -9   5    0.04    2.68
   3   9  -5   -6.43   14.35
   2   9  -5   11.95    3.71
   2   9  -5    7.68    3.94
  -2  -9   5    3.12    3.15
   2   9  -5   -1.22   12.62
   1   9  -5   -0.66    4.45
   1   9  -5    3.23    4.52
   6   8  -5   11.73    4.17
   6   8  -5    4.71    4.73
  -6  -8   5    4.24    2.92
   6   8  -5   -3.57   18.64
   5   8  -5   -0.41    3.30
   5   8  -5    4.94    3.80
  -5  -8   5   -0.78    2.17
   5   8  -5   -5.09   13.96
   4   8  -5   90.28    7.92
   4   8  -5   87.04    6.88
   4   8  -5  109.72   16.25
   3   8  -5    0.34    0.98
   3   8  -5   -0.93    0.93
  -3  -8   5   -0.49    0.72
   3   8  -5    1.90    3.43
   2   8  -5    6.71    3.21
   2   8  -5    7.65    3.22
  -2  -8   5    5.73    2.47
   2   8  -5   -1.92    8.80
   1   8  -5    2.83    1.60
   1   8  -5    0.33    1.80
  -1  -8   5   -0.08    0.99
  -1  -8   5   -1.17    1.17
   1   8  -5   -0.64    4.60
   0   8  -5   -1.00    1.08
   0   8  -5    0.97    1.00
   0  -8   5   -0.55    0.63
   0  -8   5    1.24    0.79
   0   8  -5   -1.70    2.15
   0   8  -5   -2.19    2.19
  -1   8  -5    1.57    3.43
   1  -8   5   -0.19    2.21
   7   7  -5    6.39    4.44
  -7  -7   5    4.68    3.80
  -7  -7   5    9.30    2.52
  -7  -7   5    3.59    2.84
   7   7  -5   -6.30   24.57
   6   7  -5   10.69    3.71
  -6  -7   5    8.48    2.61
   6   7  -5   18.28   15.68
   5   7  -5   -2.09    2.94
   5   7  -5   -2.69    2.84
  -5  -7   5    2.13    2.95
  -5  -7   5    3.75    2.00
   5   7  -5    5.75   12.15
   4   7  -5   92.72    7.24
   4   7  -5   93.60    7.05
  -4  -7   5  100.07    6.50
   4   7  -5   74.71   12.33
   3   7  -5   36.95    3.66
   3   7  -5   35.66    3.75
  -3  -7   5   38.65    3.32
   3   7  -5   21.85    9.22
   2   7  -5    9.95    2.46
   2   7  -5    6.82    2.38
  -2  -7   5    7.15    1.98
   2   7  -5    2.40    8.03
   1   7  -5    0.68    0.85
   1   7  -5   -0.28    0.79
  -1  -7   5   -0.21    0.68
   1   7  -5    0.15    2.67
   1   7  -5   -0.02    3.97
   0   7  -5  102.24   10.11
   0   7  -5  101.81    8.30
   0  -7   5  122.67    8.25
   0  -7   5  117.26    7.02
   0   7  -5  129.03   11.42
   0   7  -5  149.17   14.21
  -1   7  -5    3.82    2.81
  -1   7  -5    7.35    2.97
   1  -7   5    7.18    2.37
   1  -7   5    3.45    2.12
  -1   7  -5    7.24    3.45
  -1   7  -5    3.20    3.06
  -2   7  -5    3.93    3.18
   2  -7   5    4.78    2.16
  -3   7  -5    3.25    4.41
   3  -7   5    1.09    3.17
   3  -7   5    4.00    2.62
   8   6  -5   24.49    4.78
  -8  -6   5   26.49    3.52
  -8  -6   5   30.10    3.80
  -8  -6   5   38.45    4.40
   7   6  -5   -1.80    3.29
  -7  -6   5    3.78    2.27
  -7  -6   5    1.87    1.92
  -7  -6   5    3.94    2.36
   7   6  -5    1.78   20.43
   6   6  -5   54.89    5.34
  -6  -6   5   59.34    4.53
  -6  -6   5   58.51    4.47
  -6  -6   5   62.95    4.46
   6   6  -5   36.77   17.35
   5   6  -5    3.66    2.70
  -5  -6   5    0.55    1.16
  -5  -6   5    0.93    1.49
   5   6  -5   -4.80    9.12
   4   6  -5    3.89    2.11
   4   6  -5    5.19    2.31
  -4  -6   5    2.34    1.23
  -4  -6   5    1.47    1.08
   4   6  -5    3.58    6.85
   3   6  -5  182.23   15.38
   3   6  -5  558.14   30.45
   3   6  -5  583.14   61.69
   2   6  -5   14.48    2.60
   2   6  -5   14.29    2.30
  -2  -6   5   18.46    2.07
  -2  -6   5   13.02    1.17
   2   6  -5   15.51    7.11
   2   6  -5    2.98    9.17
   1   6  -5    5.33    2.03
   1   6  -5    0.99    1.71
  -1  -6   5    4.56    1.44
   1   6  -5   -4.92    4.92
   1   6  -5   15.17    8.26
   0   6  -5   47.62    4.41
   0   6  -5   48.09    4.57
   0  -6   5   41.87    3.35
   0  -6   5   51.46    3.49
   0   6  -5   65.35    9.52
   0   6  -5   46.95    7.25
  -1   6  -5    6.64    2.62
  -1   6  -5    6.67    2.69
   1  -6   5   11.08    1.74
   1  -6   5    8.75    1.74
  -1   6  -5    8.31    5.66
  -1   6  -5   10.12    5.57
  -2   6  -5   25.50    3.83
   2  -6   5   25.28    3.07
   2  -6   5   29.08    2.75
  -3   6  -5  126.34   14.38
   3  -6   5  132.35    8.66
  -4   6  -5    4.20    4.40
   4  -6   5    6.84    2.36
   8   5  -5    5.64    3.82
  -8  -5   5    5.05    2.92
  -8  -5   5    2.52    2.75
  -8  -5   5    3.43    3.25
   7   5  -5    2.35    2.86
  -7  -5   5    1.35    1.71
  -7  -5   5    3.35    1.80
  -7  -5   5    5.45    1.95
   6   5  -5   73.53    5.82
  -6  -5   5   74.44    5.59
  -6  -5   5   72.69    4.98
  -6  -5   5   82.65    5.65
   6   5  -5   57.57   14.96
   5   5  -5   -1.97    1.97
   5   5  -5   -0.08    1.01
  -5  -5   5   -0.27    1.04
  -5  -5   5    2.72    1.47
  -5  -5   5    1.94    1.11
   5   5  -5   -0.33    8.79
  -5  -5   5    2.25    8.77
   4   5  -5   63.45    5.21
  -4  -5   5   60.97    3.74
  -4  -5   5   70.71    4.57
   4   5  -5   36.18   12.58
   4   5  -5   41.27    8.59
  -4  -5   5   41.97    9.39
   3   5  -5  113.07    9.21
   3   5  -5  112.01    8.35
  -3  -5   5  105.54    4.96
  -3  -5   5  114.89    5.77
   3   5  -5  124.51   14.62
   3   5  -5  102.51    8.87
  -3  -5   5   83.00    8.50
   2   5  -5  102.70   10.14
   2   5  -5   99.03    8.38
  -2  -5   5  114.28    5.60
  -2  -5   5   95.54    4.42
  -2  -5   5  110.71    5.71
   2   5  -5   86.65   12.08
   2   5  -5  106.94    8.53
  -2  -5   5   72.35    9.42
   1   5  -5   -0.37    0.37
  -1  -5   5    0.16    0.28
  -1  -5   5    0.18    0.30
  -1  -5   5    0.06    0.14
  -1  -5   5   -0.04    0.14
  -1  -5   5    0.25    0.18
   1   5  -5    2.74    1.49
   1   5  -5    0.52    1.25
  -1  -5   5    0.03    1.47
   0   5  -5   10.50    2.06
   0   5  -5   10.18    1.93
   0  -5   5   11.11    1.45
   0  -5   5    6.78    1.42
   0  -5   5    5.58    1.02
   0  -5   5   10.05    1.43
   0  -5   5    7.44    0.94
   0   5  -5   -0.86    4.39
   0   5  -5    5.55    4.45
   0  -5   5    0.53    5.38
  -1   5  -5    7.29    2.42
  -1   5  -5    6.27    2.21
   1  -5   5    9.16    1.38
   1  -5   5    8.70    1.64
  -1   5  -5    9.07    4.67
  -1   5  -5    0.20    5.62
  -2   5  -5   22.09    3.21
  -2   5  -5   20.32    2.12
   2  -5   5   21.56    2.37
   2  -5   5   21.11    2.07
  -2   5  -5   18.64    4.90
  -2   5  -5    8.71    5.75
  -3   5  -5    4.21    3.07
  -3   5  -5    4.11    1.92
   3  -5   5   -0.14    1.70
  -3   5  -5   -1.27    4.02
  -3   5  -5    5.78    4.78
  -4   5  -5    9.00    2.21
  -4   5  -5    8.81    3.10
   4  -5   5    4.05    2.73
  -4   5  -5    6.56    5.24
  -5   5  -5    8.93    4.26
   5  -5   5    8.54    2.86
   9   4  -5    1.75    1.93
   8   4  -5   20.97    3.39
  -8  -4   5   21.66    2.67
  -8  -4   5   23.03    3.19
  -8  -4   5   21.33    3.32
  -8  -4   5   10.04   19.00
   7   4  -5    1.35    1.45
   7   4  -5    0.45    2.08
  -7  -4   5    1.90    1.44
  -7  -4   5   -1.09    1.48
  -7  -4   5   -0.76    1.44
  -7  -4   5   10.76   10.50
   6   4  -5    1.29    1.22
   6   4  -5    2.10    1.77
  -6  -4   5    0.57    1.11
  -6  -4   5   -0.40    1.06
  -6  -4   5   -0.10    1.21
   6   4  -5    9.42    9.11
  -6  -4   5    2.66    7.71
   5   4  -5   58.71    4.85
   5   4  -5   55.33    3.46
  -5  -4   5   55.08    3.64
  -5  -4   5   54.96    3.63
  -5  -4   5   56.49    3.82
   5   4  -5   51.44    9.99
  -5  -4   5   45.08    9.40
   4   4  -5    2.76    1.13
   4   4  -5    4.47    1.71
   4   4  -5    1.93    0.85
  -4  -4   5    2.98    0.93
  -4  -4   5    2.20    0.81
  -4  -4   5    2.50    0.96
   4   4  -5    3.43    9.05
   4   4  -5    7.19    6.39
  -4  -4   5   -3.56    5.23
   3   4  -5   -0.22    0.22
   3   4  -5   -0.61    0.61
  -3  -4   5    0.80    0.40
  -3  -4   5   -0.03    0.27
  -3  -4   5   -0.14    0.26
   3   4  -5    0.93    2.87
   3   4  -5    3.55    2.15
  -3  -4   5   -1.85    1.86
   2   4  -5  126.02   13.55
   2   4  -5  124.37    6.39
  -2  -4   5  137.33    5.94
  -2  -4   5  122.44    7.12
  -2  -4   5  140.75    8.33
   2   4  -5  117.65    8.74
   2   4  -5  112.88   11.71
  -2  -4   5  116.92   11.44
   1   4  -5   88.37    7.86
   1   4  -5   96.75    4.91
   1   4  -5   98.00    9.77
  -1  -4   5   85.38    5.03
  -1  -4   5   89.25    3.91
  -1  -4   5   89.21    5.98
  -1  -4   5   93.68    5.68
   1   4  -5   85.15   12.72
   1   4  -5   92.74    7.51
  -1  -4   5   92.27    8.81
   0   4  -5   16.77    1.41
   0   4  -5   16.40    2.24
   0   4  -5   14.93    2.47
   0  -4   5   11.00    1.05
   0  -4   5   12.34    1.38
   0  -4   5   13.53    1.23
   0  -4   5   16.89    1.77
   0  -4   5   12.14    1.04
   0   4  -5    6.77    5.28
   0  -4   5    4.02    2.99
  -1   4  -5    9.27    1.25
  -1   4  -5    6.02    1.89
  -1   4  -5    7.09    1.68
   1  -4   5    6.92    1.02
   1  -4   5    7.13    1.43
   1  -4   5    6.85    1.01
   1  -4   5    5.81    1.17
   1  -4   5    4.49    0.87
  -1   4  -5   14.60    4.53
  -1   4  -5    0.28    3.43
   1  -4   5   -0.72    4.84
  -2   4  -5    1.15    2.01
  -2   4  -5    4.11    2.08
  -2   4  -5    0.56    1.06
   2  -4   5    0.12    0.90
   2  -4   5    0.95    1.15
   2  -4   5    0.37    1.04
  -2   4  -5    3.46    4.34
  -2   4  -5    2.06    4.43
   2  -4   5    8.37    7.45
  -3   4  -5  119.71    7.56
  -3   4  -5  118.74   11.66
  -3   4  -5  120.89    8.31
   3  -4   5  106.58    6.88
   3  -4   5  121.56    7.59
  -3   4  -5  125.31   10.24
  -3   4  -5  100.53   10.07
  -4   4  -5    1.72    1.97
  -4   4  -5   -0.66    2.59
  -4   4  -5    4.24    1.52
   4  -4   5    2.47    1.98
  -4   4  -5   -5.15    5.15
  -4   4  -5   11.25    7.26
  -5   4  -5    6.36    3.31
  -5   4  -5    4.80    2.19
  -5   4  -5    7.75    1.99
   5  -4   5    2.62    2.06
  -5   4  -5    8.98    7.15
  -5   4  -5    4.69    8.99
  -6   4  -5   13.68    2.97
  -6   4  -5   13.19    3.25
   6  -4   5   12.51    3.11
  -6   4  -5   21.70   10.97
   9   3  -5    1.34    4.17
   9   3  -5    1.51    3.71
  -9  -3   5    2.09    3.36
  -9  -3   5    2.01    3.22
   8   3  -5    1.96    1.64
   8   3  -5   -1.21    1.54
   8   3  -5   -2.05    2.05
  -8  -3   5    1.30    1.68
  -8  -3   5    0.31    1.74
  -8  -3   5    0.80    1.71
  -8  -3   5    3.02   10.25
   7   3  -5    4.48    2.12
   7   3  -5   10.08    2.25
   7   3  -5    6.57    2.78
  -7  -3   5    4.51    1.68
  -7  -3   5    4.99    2.21
  -7  -3   5    4.55    1.87
  -7  -3   5   -1.85   11.41
   6   3  -5   41.20    3.21
   6   3  -5   41.40    4.17
   6   3  -5   39.38    3.22
  -6  -3   5   37.16    3.44
  -6  -3   5   41.53    2.97
  -6  -3   5   44.30    3.30
   6   3  -5   17.44   10.20
  -6  -3   5   32.32    8.78
   5   3  -5   67.75    4.85
   5   3  -5   65.52    3.97
  -5  -3   5   66.64    5.08
  -5  -3   5   63.66    4.29
  -5  -3   5   69.19    4.76
  -5  -3   5   65.52    4.14
  -5  -3   5   68.16    4.91
   5   3  -5   81.91   15.28
   5   3  -5   55.25    7.75
  -5  -3   5   64.79   10.09
  -5  -3   5   43.81    9.11
   4   3  -5  151.80   10.97
   4   3  -5  145.16   10.91
   4   3  -5  145.90    9.08
  -4  -3   5  149.73    9.11
  -4  -3   5  150.55    8.36
  -4  -3   5  149.34   10.79
  -4  -3   5  154.26    9.95
  -4  -3   5  137.26    9.41
   4   3  -5  155.58   15.91
   4   3  -5  140.39   12.27
  -4  -3   5  170.51   15.83
  -4  -3   5  152.28   14.27
   3   3  -5  183.83   12.86
   3   3  -5  175.37   11.84
   3   3  -5  188.45   13.60
  -3  -3   5  185.75   11.10
  -3  -3   5  166.24   10.24
  -3  -3   5  188.63   13.19
  -3  -3   5  192.49   13.49
  -3  -3   5  187.33   11.33
  -3  -3   5  175.69   16.34
   3   3  -5  177.34   22.98
   3   3  -5  162.05   10.82
  -3  -3   5  183.95   21.20
  -3  -3   5  161.49   10.85
   2   3  -5    0.58    0.35
   2   3  -5    1.85    0.73
   2   3  -5   -0.95    0.95
  -2  -3   5    0.65    0.36
  -2  -3   5    0.72    0.52
  -2  -3   5    1.36    0.61
  -2  -3   5    1.26    1.03
  -2  -3   5    0.39    0.33
  -2  -3   5   -0.85    0.85
   2   3  -5    3.30    4.36
   2   3  -5   -1.96    3.04
  -2  -3   5    3.86    3.46
  -2  -3   5    1.32    2.59
   1   3  -5  519.13   28.00
   1   3  -5  479.29   24.58
  -1  -3   5  484.09   42.73
  -1  -3   5  457.99   21.96
  -1  -3   5  515.09   33.20
  -1  -3   5  569.80   36.60
  -1  -3   5  471.82   22.07
  -1  -3   5  418.48   27.05
   1   3  -5  460.54   42.27
  -1  -3   5  520.42   51.27
  -1  -3   5  608.47   56.20
   0   3  -5   17.33    1.37
   0   3  -5   19.05    1.94
   0   3  -5   16.91    2.18
   0  -3   5   16.75    1.24
   0  -3   5   19.44    1.40
   0  -3   5   16.57    2.00
   0  -3   5   19.75    1.98
   0  -3   5   16.07    2.07
   0  -3   5   13.57    1.29
   0   3  -5   14.05    3.86
   0   3  -5   10.68    2.93
   0  -3   5   11.06    2.94
   0  -3   5   12.95    4.43
  -1   3  -5  376.43   21.49
  -1   3  -5  397.82   33.24
  -1   3  -5  429.74   63.14
  -1   3  -5  442.46   62.56
   1  -3   5  457.82   39.71
   1  -3   5  377.01   23.10
   1  -3   5  439.64   27.51
   1  -3   5  382.14   26.08
   1  -3   5  443.05   21.91
  -1   3  -5  372.05   43.57
  -1   3  -5  379.18   49.75
   1  -3   5  379.49   43.27
  -2   3  -5  200.92   17.25
  -2   3  -5  194.98   21.75
  -2   3  -5  232.48   27.64
  -2   3  -5  218.44   30.19
   2  -3   5  196.71   12.01
   2  -3   5  210.25   15.29
   2  -3   5  241.42   13.16
  -2   3  -5  256.00   17.45
  -2   3  -5  221.20   26.05
   2  -3   5  211.96   21.05
  -3   3  -5   -0.15    1.79
  -3   3  -5    0.56    1.18
  -3   3  -5    1.69    0.96
   3  -3   5    1.11    0.73
   3  -3   5   -0.74    1.03
   3  -3   5   -0.34    1.22
  -3   3  -5    8.64    4.87
  -3   3  -5    2.11    5.70
   3  -3   5   -7.45    7.45
  -4   3  -5  327.80   33.55
  -4   3  -5  324.25   23.75
  -4   3  -5  292.21   20.76
   4  -3   5  317.87   19.92
  -4   3  -5  386.52   26.25
  -4   3  -5  363.00   24.66
  -5   3  -5  108.46    8.10
  -5   3  -5  106.91    8.69
  -5   3  -5  122.84   13.72
   5  -3   5  121.67    7.13
  -5   3  -5  146.76   12.63
  -5   3  -5  129.14   12.67
  -6   3  -5   -0.58    2.46
  -6   3  -5    2.75    2.11
   6  -3   5    2.94    2.79
  -6   3  -5   -2.85   10.01
  -7   3  -5    1.59    3.07
  -7   3  -5   -2.90    2.90
   7  -3   5   -0.43    3.27
  -7   3  -5   -6.82   13.79
   9   2  -5   11.13    3.43
   9   2  -5   10.79    4.09
   8   2  -5   16.28    3.36
   8   2  -5   18.18    3.01
   8   2  -5   14.35    2.82
  -8  -2   5   26.62    3.34
  -8  -2   5   21.87    3.87
  -8  -2   5   18.22    3.05
  -8  -2   5   19.48   14.21
   7   2  -5   -0.09    0.54
   7   2  -5    0.00    0.59
   7   2  -5    0.52    0.55
  -7  -2   5   -0.50    0.57
  -7  -2   5    0.87    0.56
  -7  -2   5   -0.09    0.51
  -7  -2   5   -2.72    2.72
   6   2  -5   28.89    2.66
   6   2  -5   30.06    2.76
   6   2  -5   25.40    2.45
  -6  -2   5   22.92    2.83
  -6  -2   5   31.63    2.79
  -6  -2   5   23.99    2.31
   6   2  -5   11.69   10.64
  -6  -2   5    5.73    6.94
  -6  -2   5   12.14    9.87
   5   2  -5  204.51   12.84
   5   2  -5  220.29   15.81
   5   2  -5  207.29   14.56
  -5  -2   5  202.84   14.09
  -5  -2   5  200.54   13.59
  -5  -2   5  209.06   13.54
  -5  -2   5  198.44   15.85
  -5  -2   5  204.15   12.20
   5   2  -5  198.96   12.55
  -5  -2   5  200.04   17.39
  -5  -2   5  215.50   22.58
   4   2  -5  169.34   11.49
   4   2  -5  154.01   11.44
   4   2  -5  149.25   10.10
  -4  -2   5  159.47   10.63
  -4  -2   5  167.11   12.13
  -4  -2   5  156.26    9.59
  -4  -2   5  151.50   11.13
  -4  -2   5  160.84   10.73
   4   2  -5  166.46   21.16
   4   2  -5  140.99   13.55
  -4  -2   5  161.71   18.87
  -4  -2   5  152.19   15.50
   3   2  -5   94.01    6.60
   3   2  -5   98.28    7.16
   3   2  -5   84.79    8.45
   3   2  -5   92.92    7.21
  -3  -2   5   95.30    6.59
  -3  -2   5  102.56    8.39
  -3  -2   5   94.05    6.18
  -3  -2   5   99.42    6.32
  -3  -2   5  103.76    6.18
  -3  -2   5  104.54    7.12
   3   2  -5   81.08    7.41
   3   2  -5   98.73   11.69
  -3  -2   5   84.37    8.05
  -3  -2   5   98.69   10.05
   2   2  -5   48.22    3.27
   2   2  -5   48.31    4.23
   2   2  -5   41.96    3.79
   2   2  -5   46.54    3.49
  -2  -2   5   51.12    2.82
  -2  -2   5   46.76    4.01
  -2  -2   5   49.27    3.07
  -2  -2   5   49.57    3.08
  -2  -2   5   49.36    3.44
   2   2  -5   49.37    6.84
   2   2  -5   47.03    4.70
  -2  -2   5   48.44    5.89
  -2  -2   5   46.96    4.22
   1   2  -5   95.87    5.07
   1   2  -5   97.37    7.29
   1   2  -5  117.06   12.64
   1   2  -5  105.54    6.89
  -1  -2   5  102.04    7.35
  -1  -2   5  104.87    6.86
  -1  -2   5  115.25   10.15
  -1  -2   5  105.84    5.99
  -1  -2   5   95.59    6.92
   1   2  -5   92.37    8.71
   1   2  -5   94.58   12.72
  -1  -2   5   92.11    8.88
  -1  -2   5  104.09   10.39
   0   2  -5  391.40   37.00
   0   2  -5  374.57   41.81
   0   2  -5  282.13   18.42
   0   2  -5  321.94   22.26
   0  -2   5  380.58   35.96
   0  -2   5  312.02   20.04
   0  -2   5  285.56   20.56
   0  -2   5  268.19   17.86
   0  -2   5  401.65   39.75
   0   2  -5  306.75   37.11
   0  -2   5  365.17   38.03
   0  -2   5  330.16   39.80
  -1   2  -5   24.86    1.68
  -1   2  -5   30.30    3.48
  -1   2  -5   20.66    2.07
  -1   2  -5   21.26    2.18
  -1   2  -5   23.05    1.92
  -1   2  -5   28.16    3.21
   1  -2   5   24.53    2.72
   1  -2   5   24.90    1.19
   1  -2   5   23.84    1.64
   1  -2   5   25.59    1.91
   1  -2   5   25.63    2.67
  -1   2  -5   22.49    3.72
  -1   2  -5   15.95    4.33
   1  -2   5   18.01    4.93
   1  -2   5   20.59    3.47
  -2   2  -5   36.92    3.05
  -2   2  -5   38.92    3.54
  -2   2  -5   36.42    2.47
  -2   2  -5   39.22    5.34
  -2   2  -5   44.93    3.75
  -2   2  -5   38.94    4.72
   2  -2   5   40.71    4.29
   2  -2   5   44.33    2.79
   2  -2   5   37.08    2.34
   2  -2   5   35.86    2.70
   2  -2   5   33.67    2.58
   2  -2   5   38.47    4.10
  -2   2  -5   36.41    5.02
  -2   2  -5   33.01    5.06
   2  -2   5   22.08    5.07
  -3   2  -5    2.72    1.57
  -3   2  -5    4.15    0.96
  -3   2  -5    2.61    1.01
   3  -2   5    3.70    1.00
   3  -2   5    2.27    1.06
  -3   2  -5    5.04    4.16
  -3   2  -5    8.80    4.52
   3  -2   5   -2.71    6.38
  -4   2  -5   10.68    1.48
  -4   2  -5   11.92    1.66
  -4   2  -5    9.81    2.03
   4  -2   5   10.23    1.41
  -4   2  -5    7.11    6.42
  -4   2  -5   13.87    5.70
   4  -2   5   20.98    8.02
  -5   2  -5   -0.16    1.84
  -5   2  -5    4.52    1.53
  -5   2  -5    4.02    1.35
   5  -2   5    4.31    1.61
   5  -2   5    1.42    1.41
  -5   2  -5   -6.92    7.91
  -5   2  -5    4.68    5.33
  -6   2  -5   34.12    3.72
  -6   2  -5   39.37    3.37
   6  -2   5   39.01    3.66
  -6   2  -5   43.81   10.31
  -7   2  -5   68.06    5.82
  -7   2  -5   70.05    6.92
   7  -2   5   74.10    5.70
  -7   2  -5   95.20   16.11
   8   1  -5   10.82    2.83
  -8  -1   5    8.16    2.76
  -8  -1   5   14.15    2.33
  -8  -1   5   13.01   13.53
   7   1  -5   32.43    2.99
   7   1  -5   33.28    3.18
  -7  -1   5   35.58    3.51
  -7  -1   5   40.76    3.64
  -7  -1   5   38.68    3.53
  -7  -1   5   36.79    9.98
   6   1  -5  186.10   12.90
   6   1  -5  188.97   12.25
  -6  -1   5  185.02   13.31
  -6  -1   5  183.50   15.45
  -6  -1   5  201.51   13.11
  -6  -1   5  189.44   17.14
   5   1  -5   14.54    1.68
   5   1  -5   12.57    1.47
  -5  -1   5   12.28    1.58
  -5  -1   5   13.41    1.91
  -5  -1   5   13.02    1.60
  -5  -1   5   13.54    1.52
   5   1  -5    4.43    7.82
  -5  -1   5   12.27    5.43
  -5  -1   5   27.07    7.91
   4   1  -5  246.24   16.32
   4   1  -5  258.07   20.15
  -4  -1   5  235.80   13.77
  -4  -1   5  254.40   17.38
  -4  -1   5  228.93   12.13
  -4  -1   5  249.85   17.43
  -4  -1   5  232.85   17.90
  -4  -1   5  244.43   20.81
   4   1  -5  241.27   26.29
   4   1  -5  229.87   16.53
  -4  -1   5  273.54   24.85
  -4  -1   5  232.93   20.56
   3   1  -5   32.00    3.32
   3   1  -5   41.99    2.93
   3   1  -5   34.72    3.53
   3   1  -5   34.91    2.81
   3   1  -5   34.74    2.49
  -3  -1   5   32.28    2.88
  -3  -1   5   34.67    2.60
  -3  -1   5   36.00    1.99
  -3  -1   5   36.73    2.78
  -3  -1   5   37.24    2.74
   3   1  -5   26.57    6.91
   3   1  -5   32.52    4.99
  -3  -1   5   29.49    4.67
  -3  -1   5   39.65    4.36
   2   1  -5    1.64    0.56
   2   1  -5    1.06    0.67
   2   1  -5    2.52    0.66
   2   1  -5    2.06    0.93
   2   1  -5    2.05    0.79
  -2  -1   5    1.24    0.57
  -2  -1   5    1.90    0.57
  -2  -1   5    0.59    0.65
  -2  -1   5    0.68    0.49
  -2  -1   5    1.80    0.62
   2   1  -5    1.90    3.98
   2   1  -5   -1.89    2.63
  -2  -1   5    3.85    2.57
  -2  -1   5    1.63    2.92
   1   1  -5   75.23    6.39
   1   1  -5   71.36    4.72
   1   1  -5   64.47    6.71
   1   1  -5   65.36    6.41
   1   1  -5   62.37    6.56
  -1  -1   5   70.62    4.46
  -1  -1   5   70.38    5.28
  -1  -1   5   74.19    5.53
  -1  -1   5   70.18    5.53
  -1  -1   5   67.92    4.61
   1   1  -5   64.49    8.03
   1   1  -5   65.31    5.91
  -1  -1   5   67.35    6.07
  -1  -1   5   76.65    7.88
   0   1  -5  342.70   28.00
   0   1  -5  388.44   33.34
   0   1  -5  445.16   31.81
   0  -1   5  384.37   25.17
   0  -1   5  476.23   41.17
   0  -1   5  370.79   24.53
   0  -1   5  400.47   28.89
   0   1  -5  396.04   45.65
   0   1  -5  422.83   44.31
   0  -1   5  419.25   34.93
   0  -1   5  458.40   37.34
  -1   1  -5  560.08   67.07
  -1   1  -5  524.14   38.72
  -1   1  -5  463.02   24.21
  -1   1  -5  573.28   62.79
  -1   1  -5  492.14   29.10
  -1   1  -5  401.81   26.63
   1  -1   5  467.33   34.17
   1  -1   5  520.46   46.04
   1  -1   5  507.47   46.64
   1  -1   5  447.93   29.57
   1  -1   5  466.40   28.73
  -1   1  -5  505.68   48.43
  -1   1  -5  468.35   58.20
   1  -1   5  502.89   55.19
   1  -1   5  589.37   44.55
  -2   1  -5  126.18   15.36
  -2   1  -5  118.07   15.72
  -2   1  -5  115.24    7.62
  -2   1  -5  101.71    5.69
  -2   1  -5  115.15    7.35
   2  -1   5  117.53   12.26
   2  -1   5  122.13   13.48
   2  -1   5  118.47    7.78
   2  -1   5  123.31    6.78
   2  -1   5  102.67    5.12
  -2   1  -5  117.54   15.13
   2  -1   5  104.30   11.49
   2  -1   5  128.68   12.38
  -3   1  -5  259.29   17.37
  -3   1  -5  243.07   27.14
  -3   1  -5  255.12   17.91
   3  -1   5  257.53   19.15
   3  -1   5  250.34   20.88
   3  -1   5  270.47   14.20
   3  -1   5  222.90   20.22
   3  -1   5  248.52   23.85
  -3   1  -5  271.17   24.85
  -3   1  -5  260.89   26.39
   3  -1   5  282.00   23.17
   3  -1   5  280.09   26.75
  -4   1  -5  201.20   20.31
  -4   1  -5  208.42   15.43
  -4   1  -5  211.24   16.51
   4  -1   5  216.34   17.68
   4  -1   5  197.73   17.60
   4  -1   5  217.20   13.64
  -4   1  -5  225.67   21.50
  -4   1  -5  217.34   23.62
   4  -1   5  246.43   17.87
  -5   1  -5  144.88   11.37
  -5   1  -5  151.33   11.11
   5  -1   5  131.03   11.36
   5  -1   5  136.26    9.79
  -5   1  -5  163.15   16.07
  -5   1  -5  147.03   14.25
  -6   1  -5    0.22    1.33
  -6   1  -5   -0.13    1.42
   6  -1   5    3.41    1.59
  -6   1  -5    2.58    5.92
  -7   1  -5    3.69    1.99
  -7   1  -5   -1.09    2.11
   7  -1   5   -0.91    2.40
  -7   1  -5   -6.59   10.00
  -8   1  -5    8.78    3.27
  -8   1  -5   13.48    3.63
   8  -1   5   12.92    3.93
  -8   1  -5   14.70   15.78
   8   0  -5    0.81    1.50
  -8   0   5    2.66    1.55
  -8   0   5   -0.76    1.65
  -8   0   5    1.41    7.77
   7   0  -5   44.56    4.17
   7   0  -5   41.95    4.44
  -7   0   5   45.71    4.46
  -7   0   5   42.10    3.75
  -7   0   5   40.67   10.55
   6   0  -5    2.43    1.47
   6   0  -5    1.93    1.69
  -6   0   5    2.69    1.62
  -6   0   5    4.45    1.72
  -6   0   5    1.98    7.44
   5   0  -5  623.43   41.09
   5   0  -5  723.69   45.93
  -5   0   5  655.66   44.78
  -5   0   5  625.49   40.54
   5   0  -5  629.80   44.09
  -5   0   5  650.68   41.85
   4   0  -5  320.47   21.41
   4   0  -5  328.73   18.42
  -4   0   5  347.71   29.83
  -4   0   5  315.07   20.11
  -4   0   5  310.63   16.08
  -4   0   5  343.82   22.30
  -4   0   5  343.80   21.68
   4   0  -5  311.22   26.45
  -4   0   5  345.07   27.32
   3   0  -5  115.68    6.47
   3   0  -5  122.73   13.44
   3   0  -5  110.82    8.10
   3   0  -5  105.72   11.46
   3   0  -5  119.23    9.52
  -3   0   5  112.27    7.59
  -3   0   5  127.74    8.52
  -3   0   5  120.58    8.72
  -3   0   5  125.09    8.30
  -3   0   5  108.88    5.86
  -3   0   5  100.56    6.15
   3   0  -5  114.73   14.37
   3   0  -5   98.98    7.55
  -3   0   5  112.11    8.44
  -3   0   5  116.36   11.88
   2   0  -5   87.40    8.26
   2   0  -5   75.05    4.70
   2   0  -5   78.47    7.69
   2   0  -5   74.99    8.62
   2   0  -5   73.10    5.25
  -2   0   5   84.27    5.49
  -2   0   5   79.76    6.67
  -2   0   5   81.61    5.31
  -2   0   5   69.39    3.95
  -2   0   5   73.62    3.94
  -2   0   5   82.86    6.29
   2   0  -5   75.48   10.37
   2   0  -5   76.26    7.23
  -2   0   5   82.51    8.54
  -2   0   5   76.70    6.81
   1   0  -5   41.35    3.03
   1   0  -5   37.88    3.81
   1   0  -5   44.67    3.23
   1   0  -5   41.01    4.35
   1   0  -5   38.49    4.19
  -1   0   5   40.31    2.28
  -1   0   5   40.80    2.14
  -1   0   5   48.19    3.63
  -1   0   5   38.22    2.45
  -1   0   5   44.99    3.35
  -1   0   5   40.34    2.69
   1   0  -5   32.91    4.88
   1   0  -5   31.73    4.49
  -1   0   5   39.98    4.24
  -1   0   5   40.79    4.30
   0   0  -5  711.48   68.47
   0   0  -5  648.33   79.52
   0   0  -5  515.84   40.41
   0   0  -5  703.63   71.25
   0   0  -5  548.75   53.94
   0   0  -5  551.18   40.31
   0   0   5  585.36   42.46
   0   0   5  496.20   37.66
   0   0   5  522.54   28.03
   0   0   5  455.70   29.85
   0   0  -5  520.71   51.18
   0   0  -5  578.73   51.42
   0   0   5  555.86   48.05
   0   0   5  575.85   35.18
  -1   0  -5   43.37    3.70
  -1   0  -5   42.88    2.99
  -1   0  -5   48.77    3.96
  -1   0  -5   46.56    6.65
  -1   0  -5   53.01    4.79
   1   0   5   51.57    4.17
   1   0   5   46.55    3.41
   1   0   5   51.18    3.82
   1   0   5   46.63    2.78
   1   0   5   44.56    2.83
  -1   0  -5   49.75    5.36
  -1   0  -5   39.62    5.05
   1   0   5   47.47    4.40
   1   0   5   48.30    4.49
  -2   0  -5    4.65    0.99
  -2   0  -5    7.39    0.98
  -2   0  -5    5.28    0.81
  -2   0  -5    6.66    0.57
  -2   0  -5    7.31    0.72
   2   0   5    5.57    0.82
   2   0   5    6.94    0.94
   2   0   5    6.20    0.85
   2   0   5    4.50    0.92
   2   0   5    5.19    0.83
  -2   0  -5    2.67    2.65
  -2   0  -5    5.11    3.13
   2   0   5    2.23    2.58
   2   0   5    6.27    3.04
  -3   0  -5    6.01    1.03
  -3   0  -5    7.17    0.78
  -3   0  -5    8.61    1.34
   3   0   5    7.72    1.23
   3   0   5    9.16    1.21
   3   0   5    8.26    1.02
   3   0   5    9.49    0.99
   3   0   5    9.05    1.43
   3   0   5   10.32    1.15
  -3   0  -5    7.08    4.08
  -3   0  -5    6.53    3.79
   3   0   5    8.59    3.80
   3   0   5   12.04    3.87
  -4   0  -5  204.10   12.72
   4   0   5  206.19   15.73
   4   0   5  209.33   12.43
   4   0   5  204.81   13.99
  -4   0  -5  207.58   18.37
  -4   0  -5  219.14   18.95
   4   0   5  220.60   14.91
  -5   0  -5   17.71    1.61
  -5   0  -5   16.42    1.84
   5   0   5   13.57    1.50
   5   0   5   13.93    1.90
  -5   0  -5   24.96    8.28
  -5   0  -5   16.94    6.96
  -6   0  -5    0.83    1.22
  -6   0  -5    2.89    1.13
   6   0   5    0.05    1.39
   6   0   5    1.95    1.12
  -6   0  -5   -6.43    6.43
  -7   0  -5   61.23    4.86
  -7   0  -5   61.70    5.54
   7   0   5   59.62    5.57
  -7   0  -5   74.06   13.23
  -8   0  -5   -0.90    2.58
  -8   0  -5    2.50    2.21
   8   0   5    2.78    3.13
  -8   0  -5  -12.88   12.88
   8  -1  -5    6.83    2.73
  -8   1   5    6.92    3.23
  -8   1   5    1.86    2.51
  -8   1   5   13.53   14.09
   7  -1  -5   19.55    2.92
  -7   1   5   13.75    2.81
  -7   1   5   14.63    2.50
  -7   1   5   14.35    8.48
   6  -1  -5  134.77    8.40
   6  -1  -5  123.23    8.79
  -6   1   5  128.78    8.99
  -6   1   5  119.75    9.70
  -6   1   5  123.27   12.19
   5  -1  -5  355.15   19.84
   5  -1  -5  337.31   22.70
  -5   1   5  349.61   23.93
  -5   1   5  324.54   21.76
  -5   1   5  360.90   23.92
  -5   1   5  378.28   28.38
   4  -1  -5   17.21    1.67
   4  -1  -5   19.90    1.47
  -4   1   5   17.40    1.42
  -4   1   5   16.53    1.23
  -4   1   5   16.37    1.42
  -4   1   5   16.13    2.02
   4  -1  -5   28.94    6.21
  -4   1   5   20.63    4.92
  -4   1   5   16.79    4.33
   3  -1  -5   14.82    1.55
   3  -1  -5   22.11    2.82
   3  -1  -5   18.70    1.64
   3  -1  -5   17.31    1.11
  -3   1   5   20.94    1.76
  -3   1   5   21.95    2.00
  -3   1   5   18.55    1.20
  -3   1   5   20.88    1.30
   3  -1  -5   17.09    5.33
  -3   1   5   15.63    3.92
  -3   1   5   22.44    4.03
   2  -1  -5   99.64    6.98
   2  -1  -5   85.68    9.69
   2  -1  -5   93.33    4.24
   2  -1  -5   93.37    6.52
   2  -1  -5   88.61    9.86
   2  -1  -5  102.70   10.58
  -2   1   5  100.15    7.56
  -2   1   5   89.36    4.88
  -2   1   5   98.03    7.50
  -2   1   5   97.55    6.57
  -2   1   5   91.72    5.04
   2  -1  -5  100.46   14.29
   2  -1  -5   92.98    8.72
  -2   1   5   77.68    9.77
  -2   1   5   92.40    7.90
   1  -1  -5   48.19    3.75
   1  -1  -5   52.91    3.86
   1  -1  -5   54.76    9.21
   1  -1  -5   59.62    5.89
  -1   1   5   46.66    2.80
  -1   1   5   50.33    4.08
  -1   1   5   61.46    5.42
   1  -1  -5   36.17    6.57
   1  -1  -5   48.74    6.55
  -1   1   5   44.22    4.85
  -1   1   5   28.21    3.79
   0  -1  -5   26.09    2.07
   0  -1  -5   19.35    1.29
   0  -1  -5   23.52    2.15
   0  -1  -5   26.80    2.75
   0  -1  -5   20.29    1.59
   0   1   5   18.84    1.15
   0   1   5   19.26    1.60
   0   1   5   21.85    1.21
   0  -1  -5   18.85    3.09
   0  -1  -5   22.23    3.37
   0   1   5   25.79    3.21
   0   1   5   21.70    3.11
  -1  -1  -5   16.99    1.77
  -1  -1  -5   19.33    1.43
  -1  -1  -5   20.91    1.88
  -1  -1  -5   18.67    2.06
  -1  -1  -5   18.26    1.98
   1   1   5   19.31    1.24
   1   1   5   23.56    1.48
   1   1   5   19.83    1.61
   1   1   5   23.63    1.62
   1   1   5   18.74    1.28
  -1  -1  -5   12.53    2.94
  -1  -1  -5   19.24    3.52
   1   1   5   18.03    2.86
   1   1   5   19.18    3.45
  -2  -1  -5  540.37   34.52
  -2  -1  -5  587.76   52.71
  -2  -1  -5  570.91   50.50
  -2  -1  -5  571.54   47.02
  -2  -1  -5  549.93   47.32
  -2  -1  -5  582.32   44.15
   2   1   5  564.30   35.17
   2   1   5  568.94   36.45
   2   1   5  520.15   32.57
   2   1   5  560.31   30.60
   2   1   5  548.81   38.48
  -2  -1  -5  639.75   45.48
  -2  -1  -5  623.71   63.48
   2   1   5  612.52   46.09
   2   1   5  621.93   25.43
  -3  -1  -5  173.42   11.89
  -3  -1  -5  179.23   14.35
  -3  -1  -5  178.33   10.38
  -3  -1  -5  177.18   10.68
  -3  -1  -5  158.78   14.53
   3   1   5  170.34   10.06
   3   1   5  175.83    9.39
   3   1   5  170.52   12.62
   3   1   5  183.66    9.27
  -3  -1  -5  198.75   15.20
  -3  -1  -5  175.06   18.16
   3   1   5  195.42   12.14
   3   1   5  195.01   10.20
  -4  -1  -5  375.56   26.18
  -4  -1  -5  350.12   16.23
  -4  -1  -5  347.86   17.68
   4   1   5  351.66   23.38
   4   1   5  362.11   24.68
   4   1   5  345.71   17.58
   4   1   5  396.09   20.74
  -4  -1  -5  425.65   28.30
  -4  -1  -5  388.11   27.79
   4   1   5  423.29   30.16
   4   1   5  418.34   22.76
  -5  -1  -5   53.88    2.83
  -5  -1  -5   52.49    3.18
   5   1   5   47.50    3.16
   5   1   5   48.86    2.58
   5   1   5   49.69    4.25
  -5  -1  -5   53.59    9.49
  -5  -1  -5   56.78   10.13
   5   1   5   32.06    8.72
  -6  -1  -5    9.89    1.45
  -6  -1  -5    9.58    1.19
  -6  -1  -5   11.38    1.68
   6   1   5    6.60    1.36
   6   1   5   11.51    2.07
   6   1   5    6.25    1.39
  -6  -1  -5   20.92    9.31
  -6  -1  -5   13.85    7.38
  -7  -1  -5   51.42    4.38
  -7  -1  -5   54.90    3.66
   7   1   5   51.24    4.69
  -7  -1  -5   54.47   13.11
  -8  -1  -5   51.93    5.44
  -8  -1  -5   59.03    4.86
   8   1   5   50.04    5.33
  -8  -1  -5   32.33   16.50
   7  -2  -5    7.50    2.21
  -7   2   5    1.88    1.87
  -7   2   5   -2.72    2.72
  -7   2   5   -5.94    9.78
   6  -2  -5   34.20    3.50
  -6   2   5   33.71    3.30
  -6   2   5   35.29    3.36
  -6   2   5   42.67    8.31
   5  -2  -5   33.01    3.03
   5  -2  -5   36.65    2.64
  -5   2   5   28.58    2.73
  -5   2   5   33.67    2.91
  -5   2   5   38.92    6.93
  -5   2   5   29.23    6.95
   4  -2  -5   18.35    1.46
   4  -2  -5   19.53    1.83
   4  -2  -5   20.94    2.26
  -4   2   5   20.44    2.25
  -4   2   5   21.75    2.16
  -4   2   5   15.34    1.42
  -4   2   5   15.56    1.85
   4  -2  -5   16.61    7.15
  -4   2   5   23.02    5.38
  -4   2   5   16.60    4.92
   3  -2  -5    2.86    0.89
   3  -2  -5    1.88    1.07
   3  -2  -5    1.70    1.39
   3  -2  -5    2.67    0.67
  -3   2   5    2.45    1.31
  -3   2   5    3.49    0.73
  -3   2   5    3.52    1.12
  -3   2   5    1.69    0.77
   3  -2  -5   -1.79    4.13
  -3   2   5    3.13    2.77
  -3   2   5    6.53    3.41
   2  -2  -5  102.73    7.20
   2  -2  -5  105.41    6.38
   2  -2  -5  105.21    9.95
   2  -2  -5  116.07    6.88
   2  -2  -5   95.90    7.75
  -2   2   5  116.68    9.21
  -2   2   5  102.23    5.67
  -2   2   5   94.51    5.77
  -2   2   5  103.56    6.38
   2  -2  -5  105.02   14.52
   2  -2  -5   94.57    9.04
  -2   2   5   94.06    8.82
  -2   2   5   99.30    8.06
   1  -2  -5 1382.36   72.80
   1  -2  -5 1459.62  121.11
   1  -2  -5 1345.53   88.36
  -1   2   5 1479.27  100.89
  -1   2   5 1372.31   74.29
  -1   2   5 1454.49  130.33
  -1   2   5 1223.39   78.61
   1  -2  -5 1657.56  125.94
   1  -2  -5 1555.70  135.89
  -1   2   5 1468.57  139.69
  -1   2   5 1405.64  110.66
   0  -2  -5  146.40   11.66
   0  -2  -5  131.30    7.16
   0  -2  -5  171.89   18.80
   0  -2  -5  169.43    9.71
   0  -2  -5  143.36    7.62
   0   2   5  156.80    8.53
   0   2   5  149.48    8.27
   0   2   5  145.15   11.64
   0  -2  -5  161.61   13.09
   0  -2  -5  155.52   18.98
   0   2   5  160.63   12.48
   0   2   5  140.83   13.31
  -1  -2  -5  319.61   31.23
  -1  -2  -5  263.20   15.67
  -1  -2  -5  302.30   18.86
   1   2   5  286.43   16.68
   1   2   5  277.77   29.09
   1   2   5  297.57   19.16
   1   2   5  294.28   15.23
  -1  -2  -5  323.96   28.17
  -1  -2  -5  315.71   35.13
   1   2   5  316.74   23.61
   1   2   5  307.69   20.16
  -2  -2  -5  761.98   60.34
  -2  -2  -5  781.11   48.75
  -2  -2  -5  872.97   71.65
  -2  -2  -5  832.02   53.41
   2   2   5  792.42   41.46
   2   2   5  767.09   41.96
   2   2   5  763.80   45.26
   2   2   5  755.75   45.65
   2   2   5  781.96   53.83
   2   2   5  780.51   54.87
  -2  -2  -5  941.19   65.73
  -2  -2  -5  927.83   83.91
   2   2   5  959.39   49.30
   2   2   5  947.73   45.47
  -3  -2  -5  162.59   12.51
  -3  -2  -5  164.05   13.21
  -3  -2  -5  163.12   10.51
  -3  -2  -5  159.74   11.05
  -3  -2  -5  163.59    8.80
   3   2   5  156.85    8.91
   3   2   5  158.75   10.06
   3   2   5  153.35    9.63
   3   2   5  158.88    7.93
   3   2   5  161.30    8.42
   3   2   5  161.32   10.20
  -3  -2  -5  166.92   14.31
  -3  -2  -5  153.71   12.49
   3   2   5  166.64   12.94
   3   2   5  169.62    9.11
  -4  -2  -5    1.22    1.03
  -4  -2  -5    3.67    0.90
  -4  -2  -5    2.13    0.74
   4   2   5    2.07    0.93
   4   2   5    1.76    0.61
   4   2   5    2.27    1.12
   4   2   5    3.62    1.05
   4   2   5    3.18    0.91
   4   2   5    3.39    0.91
  -4  -2  -5   12.03    6.55
  -4  -2  -5    1.13    4.56
   4   2   5   -0.85    4.57
   4   2   5   -0.83    4.88
  -5  -2  -5    9.79    1.14
  -5  -2  -5   11.33    1.22
   5   2   5    9.19    1.08
   5   2   5    8.35    1.36
   5   2   5    9.65    1.21
   5   2   5   11.31    1.62
  -5  -2  -5    7.70    6.30
  -5  -2  -5    8.03    8.91
   5   2   5   16.76    7.77
   5   2   5    2.63    4.72
  -6  -2  -5    0.70    0.88
  -6  -2  -5    0.49    1.05
   6   2   5   -1.29    1.29
   6   2   5    0.61    1.04
   6   2   5    1.33    1.00
  -6  -2  -5    1.07    6.46
   6   2   5   -0.76    8.27
  -7  -2  -5   34.32    3.08
   7   2   5   39.61    3.19
  -7  -2  -5   17.99   11.48
  -8  -2  -5    4.50    2.56
  -8  -2  -5    7.06    2.27
   8   2   5    4.02    3.04
  -8  -2  -5   22.38   17.94
  -9  -2  -5    9.00    3.23
  -9  -2  -5    9.89    3.67
   9   2   5   11.49    4.13
  -9  -2  -5   24.44   28.08
   7  -3  -5   68.43    6.51
  -7   3   5   62.05    6.51
  -7   3   5   57.69    5.69
  -7   3   5   60.33   13.07
   6  -3  -5   66.33    5.22
  -6   3   5   63.22    5.69
  -6   3   5   60.14    5.52
  -6   3   5   71.60   11.40
   5  -3  -5    7.74    2.13
  -5   3   5   11.39    2.53
  -5   3   5   15.54    2.46
  -5   3   5   14.44    5.77
   4  -3  -5    0.33    0.69
   4  -3  -5   -0.21    0.49
  -4   3   5   -0.27    0.71
  -4   3   5    1.15    0.73
  -4   3   5    0.81    2.04
  -4   3   5   -1.81    1.81
   3  -3  -5    0.90    1.13
   3  -3  -5    0.76    1.05
   3  -3  -5    1.70    0.77
  -3   3   5    3.83    1.14
  -3   3   5    1.22    0.83
  -3   3   5    3.52    1.30
   3  -3  -5   -4.57    5.49
  -3   3   5   -0.90    2.64
  -3   3   5    2.59    3.43
   2  -3  -5   43.39    3.59
   2  -3  -5   46.22    3.08
   2  -3  -5   49.03    3.72
   2  -3  -5   40.08    3.74
   2  -3  -5   44.81    3.26
  -2   3   5   43.22    3.37
  -2   3   5   42.74    2.96
  -2   3   5   50.54    3.67
  -2   3   5   49.73    5.01
  -2   3   5   54.55    5.16
   1  -3  -5    3.07    0.85
   1  -3  -5    3.47    1.11
   1  -3  -5    0.37    0.89
  -1   3   5    2.23    0.88
  -1   3   5    3.13    1.01
  -1   3   5    1.93    0.76
  -1   3   5    3.57    0.96
   1  -3  -5    2.65    3.78
  -1   3   5    2.51    2.34
  -1   3   5    1.86    2.45
   0  -3  -5  149.40   12.18
   0  -3  -5  149.40   17.91
   0  -3  -5  138.77   11.90
   0  -3  -5  149.56   12.98
   0  -3  -5  134.72    8.29
   0  -3  -5  160.47    8.82
   0  -3  -5  156.80    9.75
   0   3   5  140.02    9.82
   0   3   5  130.72    7.95
   0   3   5  144.09    9.13
   0  -3  -5  144.76   19.88
   0  -3  -5  144.81   15.12
   0   3   5  147.85   12.97
   0   3   5  143.76   12.67
  -1  -3  -5    5.74    1.10
  -1  -3  -5    7.56    1.04
  -1  -3  -5    8.21    1.18
  -1  -3  -5    6.03    0.80
  -1  -3  -5    6.37    1.09
   1   3   5    7.03    0.90
   1   3   5    7.91    1.13
   1   3   5    4.96    0.96
   1   3   5    7.08    0.94
  -1  -3  -5    9.84    4.30
  -1  -3  -5    1.64    3.71
   1   3   5    7.75    3.24
   1   3   5    7.56    2.87
  -2  -3  -5    4.78    0.80
  -2  -3  -5    6.12    0.94
  -2  -3  -5    7.68    1.07
  -2  -3  -5    5.49    0.91
   2   3   5    5.03    0.88
   2   3   5    3.95    0.82
   2   3   5    4.34    1.02
   2   3   5    4.84    0.94
  -2  -3  -5    5.18    4.58
  -2  -3  -5    4.17    3.65
   2   3   5    5.21    3.36
   2   3   5   -0.57    2.70
  -3  -3  -5  289.46   22.07
  -3  -3  -5  274.72   17.29
  -3  -3  -5  281.56   18.61
  -3  -3  -5  254.16   22.90
  -3  -3  -5  255.38   19.58
   3   3   5  257.53   17.68
   3   3   5  255.60   15.15
   3   3   5  278.23   13.55
   3   3   5  284.57   19.85
   3   3   5  269.48   12.80
  -3  -3  -5  349.73   22.97
  -3  -3  -5  292.99   23.82
   3   3   5  313.32   15.29
   3   3   5  308.77   20.64
  -4  -3  -5   78.45    4.91
  -4  -3  -5   78.64    5.74
  -4  -3  -5   84.43    6.05
   4   3   5   78.46    3.99
   4   3   5   75.72    5.28
   4   3   5   79.39    4.87
   4   3   5   87.13    4.50
   4   3   5   77.78    4.34
   4   3   5   79.53    4.78
  -4  -3  -5  102.32   12.61
  -4  -3  -5   88.33    8.99
   4   3   5   86.90    9.52
  -5  -3  -5  201.77   12.69
  -5  -3  -5  198.03   10.60
   5   3   5  196.40   10.15
   5   3   5  207.84   14.83
   5   3   5  207.75    9.41
   5   3   5  214.77   12.26
   5   3   5  197.90   10.84
  -5  -3  -5  254.06   20.59
  -5  -3  -5  226.73   17.38
   5   3   5  232.96   17.88
   5   3   5  230.03   14.25
  -6  -3  -5  267.98   12.96
  -6  -3  -5  286.80   14.19
   6   3   5  272.30   16.62
   6   3   5  283.16   14.08
   6   3   5  284.70   14.51
  -6  -3  -5  346.24   19.62
   6   3   5  327.71   19.43
  -7  -3  -5   51.14    3.51
  -7  -3  -5   52.41    3.90
   7   3   5   56.06    4.25
   7   3   5   42.57    3.69
   7   3   5   49.34    5.19
  -7  -3  -5   44.35   13.29
  -8  -3  -5   71.26    4.72
   8   3   5   77.62    5.85
  -8  -3  -5   97.12   20.45
  -9  -3  -5    2.39    2.44
  -9  -3  -5   -2.82    2.82
   9   3   5    4.78    3.21
  -9  -3  -5   19.33   29.81
   6  -4  -5   -0.42    0.59
  -6   4   5    0.62    0.81
   5  -4  -5   28.82    2.95
  -5   4   5   26.63    3.17
  -5   4   5   37.82    7.76
  -5   4   5   40.55    6.26
   4  -4  -5   11.53    1.63
   4  -4  -5   12.59    1.84
  -4   4   5    8.83    2.63
  -4   4   5   11.06    2.28
  -4   4   5   13.22    4.27
  -4   4   5   -0.09    4.31
   3  -4  -5   19.98    1.72
   3  -4  -5   22.85    2.31
  -3   4   5   21.65    2.05
  -3   4   5   21.37    2.59
  -3   4   5   21.92    3.45
  -3   4   5   18.23    3.53
   2  -4  -5  102.49    7.67
   2  -4  -5  104.07    6.06
   2  -4  -5   92.82    9.59
   2  -4  -5   98.67    8.14
  -2   4   5   98.06    6.59
  -2   4   5   78.93    6.65
  -2   4   5   82.69    7.06
  -2   4   5  109.13    7.21
  -2   4   5  102.60    8.86
   1  -4  -5   16.63    1.47
   1  -4  -5   13.30    2.01
   1  -4  -5   13.23    2.01
  -1   4   5   15.04    1.44
  -1   4   5   12.77    1.52
   1  -4  -5    6.28    4.43
  -1   4   5   11.74    3.25
  -1   4   5   15.16    2.69
   0  -4  -5   12.17    1.49
   0  -4  -5   12.31    1.42
   0  -4  -5   10.65    1.51
   0  -4  -5    9.62    1.58
   0  -4  -5   16.47    1.46
   0   4   5   14.27    1.68
   0   4   5   16.46    1.54
   0   4   5   12.67    1.34
   0  -4  -5    6.39    4.23
   0   4   5   13.89    2.93
   0   4   5   10.66    3.08
  -1  -4  -5   29.63    2.68
  -1  -4  -5   37.43    3.01
  -1  -4  -5   27.67    2.24
   1   4   5   29.97    2.18
   1   4   5   25.14    2.36
   1   4   5   31.40    2.29
  -1  -4  -5   39.39    5.65
   1   4   5   41.37    5.41
   1   4   5   32.43    4.20
  -2  -4  -5   80.32    7.03
  -2  -4  -5   82.03    6.83
  -2  -4  -5   83.61    5.05
   2   4   5   71.81    5.98
   2   4   5   84.94    5.44
   2   4   5   81.32    5.27
  -2  -4  -5   68.10    8.00
   2   4   5   84.38    7.29
   2   4   5   85.56    7.14
  -3  -4  -5    8.15    1.28
  -3  -4  -5    5.21    1.02
   3   4   5    6.08    1.19
   3   4   5    5.12    1.25
   3   4   5    8.56    1.41
   3   4   5    6.37    1.18
   3   4   5    6.87    0.65
  -3  -4  -5    9.39    5.41
   3   4   5    8.83    4.56
   3   4   5    3.68    2.51
  -4  -4  -5   27.94    2.53
  -4  -4  -5   31.76    2.49
   4   4   5   27.51    2.07
   4   4   5   25.82    1.87
   4   4   5   24.72    2.17
   4   4   5   23.44    2.41
   4   4   5   28.11    2.05
   4   4   5   26.98    2.19
  -4  -4  -5   23.71    7.41
   4   4   5   14.73    6.64
  -5  -4  -5    3.84    1.27
  -5  -4  -5    6.01    1.30
   5   4   5    7.80    1.54
   5   4   5    2.49    1.59
   5   4   5    5.85    1.77
   5   4   5    8.87    1.77
   5   4   5    4.70    1.67
  -5  -4  -5   17.62   10.55
   5   4   5   30.91   11.30
   5   4   5    4.85    6.37
  -6  -4  -5  198.44   12.33
  -6  -4  -5  195.26   10.96
   6   4   5  201.51    9.55
   6   4   5  197.76   11.08
   6   4   5  209.81   11.09
  -6  -4  -5  215.69   18.32
   6   4   5  241.85   18.36
  -7  -4  -5   17.25    2.16
  -7  -4  -5   28.28    2.67
   7   4   5   22.11    2.49
   7   4   5   25.98    2.68
   7   4   5   17.49    2.46
  -7  -4  -5    4.40   13.38
  -8  -4  -5    3.86    1.89
   8   4   5    2.16    2.93
  -9  -4  -5    1.83    2.54
  -9  -4  -5   -1.23    2.62
   9   4   5    3.50    3.00
   5  -5  -5    1.32    2.54
   5  -5  -5    3.74    2.23
   4  -5  -5   74.09    5.83
   4  -5  -5   73.18    5.79
  -4   5   5   71.94    8.21
  -4   5   5   63.76    5.34
   3  -5  -5    2.24    1.50
   3  -5  -5    0.02    1.64
   3  -5  -5    3.02    1.77
  -3   5   5    5.20    2.54
  -3   5   5    5.97    2.50
   2  -5  -5   74.51    5.62
   2  -5  -5   78.05    5.48
   2  -5  -5   76.25    5.41
  -2   5   5   80.69    6.42
  -2   5   5   77.20    6.80
   1  -5  -5   14.78    1.47
   1  -5  -5   10.19    2.31
   1  -5  -5   17.39    1.99
   1  -5  -5    8.61    2.55
  -1   5   5   10.91    1.62
  -1   5   5   12.54    1.70
  -1   5   5   13.90    3.08
   0  -5  -5    8.09    1.62
   0  -5  -5    8.87    1.81
   0  -5  -5    8.39    1.38
   0  -5  -5   10.69    1.67
   0  -5  -5    6.76    1.77
   0   5   5    6.52    1.28
   0   5   5    7.74    1.36
   0   5   5   13.67    2.18
   0  -5  -5    7.81    5.04
   0   5   5   10.49    3.59
  -1  -5  -5  120.12    9.43
  -1  -5  -5  117.92    7.44
  -1  -5  -5  118.97    6.53
   1   5   5  101.31    7.38
   1   5   5  123.81    7.57
   1   5   5  108.06    8.00
  -1  -5  -5  100.04    9.92
   1   5   5  113.65   11.78
  -2  -5  -5   27.67    2.38
  -2  -5  -5   26.45    2.50
   2   5   5   26.95    2.03
   2   5   5   21.68    2.38
   2   5   5   26.61    2.47
  -2  -5  -5   16.95    6.96
   2   5   5   31.34    5.66
   2   5   5   16.01    4.89
  -3  -5  -5    6.89    1.30
  -3  -5  -5   10.05    1.60
   3   5   5    9.02    1.27
  -3  -5  -5    2.85    7.39
   3   5   5    9.90    5.14
   3   5   5   -4.58    4.58
  -4  -5  -5   -0.20    0.69
  -4  -5  -5    2.08    1.23
  -4  -5  -5    0.80    1.30
   4   5   5    1.49    1.48
   4   5   5    0.62    1.23
   4   5   5    2.21    0.88
   4   5   5    2.88    1.06
   4   5   5    0.60    1.29
   4   5   5    0.68    1.62
  -4  -5  -5    7.62    8.02
   4   5   5   -0.43    7.67
   4   5   5   -3.96    6.77
  -5  -5  -5   52.82    4.32
  -5  -5  -5   47.95    4.27
   5   5   5   51.60    4.09
   5   5   5   44.26    3.83
   5   5   5   44.59    3.28
   5   5   5   48.52    3.39
   5   5   5   60.05   10.67
  -6  -5  -5   -1.14    1.14
  -6  -5  -5    0.47    1.18
   6   5   5   -0.96    0.96
   6   5   5    0.02    1.56
   6   5   5    0.42    1.51
   6   5   5    1.02    1.32
   6   5   5    6.85    8.44
  -7  -5  -5  243.58   16.11
  -7  -5  -5  220.08   13.83
   7   5   5  243.31   12.09
   7   5   5  223.54   14.44
   7   5   5  216.02   16.46
   7   5   5  238.42   12.99
   7   5   5  297.91   23.72
  -8  -5  -5   21.50    2.80
   8   5   5   22.05    3.53
   4  -6  -5    2.74    2.96
   4  -6  -5    5.29    2.23
  -4   6   5    3.97    2.73
   3  -6  -5    0.95    1.71
   3  -6  -5    0.12    1.34
  -3   6   5   -2.51    2.74
  -3   6   5    3.63    1.71
   2  -6  -5   96.21    6.96
   2  -6  -5   95.25    6.04
   2  -6  -5   99.29    7.62
  -2   6   5  100.06    9.28
   1  -6  -5   60.31    4.29
   1  -6  -5   65.30    4.92
   1  -6  -5   64.33    5.48
   0  -6  -5   -0.78    1.06
   0  -6  -5   -0.64    0.95
   0   6   5    0.95    0.89
   0   6   5    2.28    1.21
   0   6   5    1.00    2.98
   0   6   5    3.91    2.80
  -1  -6  -5   21.72    2.43
  -1  -6  -5   16.48    1.93
   1   6   5   16.03    2.12
   1   6   5   17.66    2.58
   1   6   5    0.29    4.46
   1   6   5   18.11    5.64
  -2  -6  -5    1.41    1.67
  -2  -6  -5    8.15    2.09
   2   6   5    3.79    1.88
   2   6   5    4.62    0.72
   2   6   5    6.96    1.54
   2   6   5    4.41    5.53
   2   6   5    6.71    5.25
   3   6   5   12.53    2.15
   3   6   5    9.94    0.96
   3   6   5   20.37    6.94
   3   6   5   20.52    7.91
  -4  -6  -5   36.30    3.12
  -4  -6  -5   41.12    3.55
   4   6   5   35.51    3.34
   4   6   5   36.10    2.37
   4   6   5   36.70    2.31
   4   6   5   32.54    3.22
   4   6   5   42.19    8.47
  -5  -6  -5   56.85    5.19
  -5  -6  -5   56.99    3.97
   5   6   5   56.09    4.58
   5   6   5   49.71    4.61
   5   6   5   58.12    4.39
   5   6   5   55.33   11.14
  -6  -6  -5   75.35    6.13
  -6  -6  -5   65.55    6.00
   6   6   5   70.08    5.27
   6   6   5   83.04    6.10
   6   6   5   65.27    5.88
   6   6   5   74.26   15.53
  -7  -6  -5   -0.68    1.06
  -7  -6  -5   -1.08    1.08
   7   6   5    0.26    1.50
   7   6   5    1.32    1.45
   7   6   5   -0.23    1.42
   7   6   5   -6.15    8.99
  -8  -6  -5    0.07    2.80
  -8  -6  -5    3.47    2.74
   8   6   5    3.74    3.42
   3  -7  -5   10.86    3.24
   3  -7  -5   13.55    2.72
  -3   7   5    0.76    4.74
   2  -7  -5   15.81    2.63
   2  -7  -5   17.47    3.23
  -2   7   5   17.11    4.08
   1  -7  -5   19.47    2.31
   1  -7  -5   22.84    2.90
   1  -7  -5   16.90    2.50
  -1   7   5   27.54    3.91
   0  -7  -5   48.93    4.32
   0  -7  -5   60.00    4.59
   0   7   5   56.88    5.69
   0   7   5   57.14    4.08
  -1  -7  -5    5.69    2.04
   1   7   5    1.49    2.51
   1   7   5    5.00    2.47
   1   7   5    6.14    6.66
   1   7   5    0.43    5.61
  -2  -7  -5    4.88    2.02
   2   7   5    3.59    2.19
   2   7   5    4.02    2.00
   2   7   5   10.89    8.20
   2   7   5    3.38    8.55
  -3  -7  -5    4.13    2.00
   3   7   5    2.47    1.91
   3   7   5   -5.63    7.99
  -4  -7  -5   10.37    2.28
  -4  -7  -5    6.16    2.16
   4   7   5   11.02    3.63
   4   7   5  -11.02   11.02
  -5  -7  -5    0.26    1.26
  -5  -7  -5   -0.54    1.16
   5   7   5   -1.29    1.29
   5   7   5    1.09    1.53
   5   7   5   -1.14    6.16
  -6  -7  -5    0.45    1.20
  -6  -7  -5   -1.06    1.06
   6   7   5   -1.52    1.73
   6   7   5   -0.70    1.51
   6   7   5    6.30    7.74
  -7  -7  -5    6.95    3.44
  -7  -7  -5    6.08    3.08
   7   7   5   12.57    4.25
   7   7   5    2.98    3.26
   7   7   5   28.99   23.77
   1  -8  -5    1.87    2.61
  -1   8   5   -0.84    3.84
   0  -8  -5   24.74    3.78
   0  -8  -5   16.66    2.75
   0   8   5   18.28    5.18
  -1  -8  -5   -1.69    1.69
   1   8   5    1.19    2.66
   1   8   5   -4.88    6.14
   1   8   5    5.85    4.95
  -2  -8  -5   17.62    3.09
   2   8   5   14.32    3.95
   2   8   5   18.64   11.08
  -3  -8  -5   88.84    7.55
   3   8   5   84.79    7.86
   3   8   5  120.89   15.73
  -4  -8  -5   14.05    2.99
   4   8   5    5.75    3.37
   4   8   5   21.23    4.18
   4   8   5   14.80   15.16
  -5  -8  -5    7.73    2.63
  -5  -8  -5   12.94    3.71
   5   8   5    4.24    4.11
   5   8   5    3.17    2.78
   5   8   5    9.64   16.26
  -6  -8  -5   25.69    4.14
  -6  -8  -5   24.47    4.34
   6   8   5   23.33    4.88
   6   8   5    7.55   21.12
  -2  -9  -5    0.44    2.56
   2   9   5    2.61    3.89
   2   9   5    8.68    9.05
  -3  -9  -5    0.57    2.97
   3   9   5    5.25    4.71
   3   9   5    7.39   18.08
  -4  -9  -5    2.09    3.26
  -4  -9  -5   -0.72    3.15
   4   9   5    7.03    4.98
   4   9   5   15.51   20.15
   3   9  -6   -1.99    2.97
   3   9  -6   -1.53    2.70
  -3  -9   6    0.86    2.11
   2   9  -6    1.18    2.28
   6   8  -6   -0.57    4.02
   6   8  -6    2.47    4.53
  -6  -8   6   -1.23    3.17
   6   8  -6  -17.20   19.55
   5   8  -6   -0.40    3.73
   5   8  -6    5.76    3.47
  -5  -8   6    1.17    2.29
   5   8  -6    5.72   15.66
   4   8  -6   71.48    6.77
   4   8  -6   80.14    7.19
  -4  -8   6   99.75    6.89
   4   8  -6  100.91   17.35
   3   8  -6    0.83    1.39
   3   8  -6    1.56    1.38
  -3  -8   6    1.37    0.91
   3   8  -6   -4.93    4.93
   2   8  -6    1.68    2.83
   2   8  -6    1.65    2.82
  -2  -8   6    5.58    2.14
   2   8  -6    1.72    9.72
   1   8  -6    5.70    3.20
   1   8  -6    3.21    3.19
  -1  -8   6    5.53    2.47
  -1  -8   6    4.12    2.61
   1   8  -6    2.44    9.94
   0   8  -6    5.42    3.52
   0   8  -6    0.19    3.37
   0  -8   6    4.42    2.86
   0  -8   6    5.62    2.60
   0   8  -6    6.84    7.99
  -1   8  -6   -0.90    2.33
  -1   8  -6   -1.27    4.58
   1  -8   6    0.71    3.61
   7   7  -6   19.04    5.17
  -7  -7   6   27.05    4.16
   7   7  -6  -12.20   25.05
   6   7  -6    0.97    1.72
  -6  -7   6    0.53    1.12
   6   7  -6   -7.90    7.90
   5   7  -6   37.93    4.67
   5   7  -6   42.81    4.94
  -5  -7   6   37.33    3.56
   5   7  -6   49.26   13.07
   4   7  -6   12.20    2.97
   4   7  -6   21.28    3.34
  -4  -7   6   17.56    2.68
   4   7  -6   29.64   11.04
   3   7  -6   -0.43    2.36
   3   7  -6    0.16    2.29
  -3  -7   6    4.96    2.19
   3   7  -6    4.56   10.14
   2   7  -6   13.10    2.75
   2   7  -6   16.00    2.94
  -2  -7   6   16.84    2.68
   2   7  -6   28.45   10.20
   1   7  -6   55.96    5.31
   1   7  -6   48.18    5.37
  -1  -7   6   65.02    4.27
  -1  -7   6   58.66    4.81
   1   7  -6   57.41    9.34
   0   7  -6   -0.71    0.96
   0   7  -6    0.55    1.03
   0  -7   6   -0.62    0.68
   0  -7   6   -0.15    0.55
   0   7  -6   -3.56    3.56
   0   7  -6   -1.30    2.67
  -1   7  -6   -0.99    1.59
  -1   7  -6   -1.53    1.53
   1  -7   6    0.25    1.09
   1  -7   6   -0.25    1.38
  -1   7  -6   -3.62    3.62
  -2   7  -6    1.32    3.60
   2  -7   6   -1.55    2.29
  -3   7  -6    5.10    4.04
   3  -7   6    9.62    3.44
   8   6  -6    5.61    4.36
  -8  -6   6   13.73    3.78
  -8  -6   6    6.56    3.58
  -8  -6   6   11.71    2.94
   7   6  -6   18.47    4.07
  -7  -6   6   22.06    3.10
  -7  -6   6   18.38    2.84
  -7  -6   6   22.08    2.79
   7   6  -6    3.82   19.84
   6   6  -6    0.31    3.44
  -6  -6   6    3.22    1.63
  -6  -6   6   -0.26    1.73
  -6  -6   6    5.45    1.80
   6   6  -6  -15.07   15.07
   5   6  -6   11.91    2.55
  -5  -6   6   12.21    1.68
  -5  -6   6   14.20    2.26
  -5  -6   6   13.16    1.65
   5   6  -6   -4.60   11.40
   4   6  -6    2.34    2.31
   4   6  -6    4.87    2.29
  -4  -6   6    2.18    1.72
  -4  -6   6    1.48    1.05
   4   6  -6    1.82    8.56
  -3  -6   6  288.93   14.91
  -3  -6   6  255.63   14.12
   3   6  -6  236.46   19.74
   2   6  -6   46.81    4.04
   2   6  -6   45.30    4.17
  -2  -6   6   54.28    3.62
   2   6  -6   46.44   11.79
   2   6  -6   42.04    7.72
   1   6  -6   12.34    2.67
   1   6  -6    9.33    2.08
  -1  -6   6   10.46    1.86
   1   6  -6   15.44   10.31
   1   6  -6    7.06    5.54
   0   6  -6    5.59    2.36
   0   6  -6    5.25    2.38
   0  -6   6    5.99    1.59
   0  -6   6    8.67    2.00
   0   6  -6    2.94    9.39
   0   6  -6   -0.24    5.65
  -1   6  -6    5.07    2.51
  -1   6  -6    9.35    2.62
   1  -6   6    4.23    1.73
   1  -6   6    7.70    2.01
  -1   6  -6   23.15    8.66
  -1   6  -6   -6.46    6.74
  -2   6  -6    0.22    1.63
  -2   6  -6    2.73    3.05
   2  -6   6    5.56    2.33
  -2   6  -6   -4.61    7.35
  -2   6  -6    2.30    5.72
  -3   6  -6   37.41    5.12
   3  -6   6   36.61    3.38
  -4   6  -6    0.93    2.49
   4  -6   6   -0.03    1.91
   8   5  -6   14.65    4.14
  -8  -5   6   14.06    2.89
  -8  -5   6   13.97    3.05
  -8  -5   6   10.05    3.06
   7   5  -6   17.16    3.62
  -7  -5   6   19.47    3.09
  -7  -5   6   13.39    2.57
  -7  -5   6   18.44    2.67
   6   5  -6   -1.37    1.37
  -6  -5   6   -0.07    0.92
  -6  -5   6   -0.25    0.95
  -6  -5   6    1.51    1.19
   6   5  -6    2.83    8.40
   5   5  -6   99.75    9.10
   5   5  -6   93.14    6.60
  -5  -5   6  112.07    8.16
  -5  -5   6  117.84    7.19
  -5  -5   6  113.27    7.32
   5   5  -6   75.50   10.87
   4   5  -6   33.01    3.51
   4   5  -6   33.82    2.01
  -4  -5   6   37.52    2.80
  -4  -5   6   33.65    2.64
  -4  -5   6   32.80    2.28
   4   5  -6   46.48   14.92
   4   5  -6   13.25    7.84
  -4  -5   6   11.33    7.94
   3   5  -6   11.92    1.14
   3   5  -6   21.84    2.54
   3   5  -6   16.30    2.40
  -3  -5   6   15.68    1.26
  -3  -5   6   17.08    1.40
  -3  -5   6   20.95    2.11
   3   5  -6   16.80   10.12
   3   5  -6   14.52    6.44
  -3  -5   6   10.18    6.93
   2   5  -6  231.12   21.15
   2   5  -6  224.97   17.59
  -2  -5   6  215.86   10.39
  -2  -5   6  230.22   12.62
  -2  -5   6  235.05   11.14
   2   5  -6  170.22   25.31
   2   5  -6  186.85   14.53
  -2  -5   6  192.31   21.34
   1   5  -6   12.45    2.20
  -1  -5   6   13.15    0.82
  -1  -5   6   13.10    0.90
  -1  -5   6   12.01    0.94
  -1  -5   6   15.84    1.55
   1   5  -6   17.17    6.41
   1   5  -6   16.01    4.63
  -1  -5   6    4.58    6.63
   0   5  -6  115.49   11.14
   0   5  -6  116.33   12.88
   0  -5   6  125.29    6.71
   0  -5   6  110.80    7.32
   0  -5   6  121.00    7.04
   0  -5   6  105.95    6.70
   0  -5   6   98.79    6.87
   0   5  -6  108.62   10.90
   0   5  -6  102.58   16.39
   0  -5   6   73.04    9.47
  -1   5  -6  100.84    8.94
  -1   5  -6   98.97   11.87
   1  -5   6   97.16    6.38
   1  -5   6  110.55    6.28
  -1   5  -6   83.53   14.62
  -1   5  -6   97.47   12.04
  -2   5  -6   17.15    3.43
  -2   5  -6   17.69    2.99
   2  -5   6   16.75    1.87
   2  -5   6   19.83    2.09
  -2   5  -6   11.17    6.07
  -2   5  -6   24.81    7.21
  -3   5  -6  137.43   13.12
   3  -5   6  144.01    9.77
  -3   5  -6  168.21   12.57
  -4   5  -6   35.52    5.30
   4  -5   6   42.61    4.04
  -4   5  -6   54.02    7.48
  -5   5  -6   -0.91    4.35
   5  -5   6    0.87    2.96
  -5   5  -6   -6.89    8.84
   8   4  -6    3.74    3.09
  -8  -4   6    7.84    2.48
  -8  -4   6    4.76    2.95
  -8  -4   6    7.27    2.85
  -8  -4   6   23.31   34.96
   7   4  -6   12.14    2.62
   7   4  -6   12.32    2.18
  -7  -4   6    5.79    2.16
  -7  -4   6   14.93    2.68
  -7  -4   6   10.14    2.04
  -7  -4   6   14.89   13.59
   6   4  -6   91.90    6.39
   6   4  -6  102.98    7.50
  -6  -4   6   97.87    7.57
  -6  -4   6  106.33    6.77
  -6  -4   6  107.86    7.77
   6   4  -6   87.25   13.76
  -6  -4   6   75.41   13.38
   5   4  -6   26.92    2.31
   5   4  -6   30.41    3.09
  -5  -4   6   31.67    2.54
  -5  -4   6   31.53    2.51
  -5  -4   6   30.18    2.82
   5   4  -6   15.93    9.47
  -5  -4   6   26.55    9.13
   4   4  -6   97.96    6.20
   4   4  -6   99.35    7.95
   4   4  -6   99.15    6.27
  -4  -4   6   97.38    6.80
  -4  -4   6   94.84    6.21
  -4  -4   6  103.78    6.63
  -4  -4   6  100.78    6.47
   4   4  -6   82.01   15.07
   4   4  -6   86.61    9.88
  -4  -4   6   71.31    9.03
   3   4  -6   98.19    7.33
   3   4  -6   85.68    4.84
  -3  -4   6   88.02    5.37
  -3  -4   6   83.42    5.73
  -3  -4   6   88.10    6.06
  -3  -4   6   93.73    5.55
   3   4  -6   68.38   10.41
   3   4  -6   67.89    6.58
  -3  -4   6   62.24    7.99
   2   4  -6   19.25    2.41
   2   4  -6   14.72    2.34
   2   4  -6   19.77    1.24
  -2  -4   6   18.02    1.22
  -2  -4   6   17.67    1.20
  -2  -4   6   15.21    1.47
  -2  -4   6   16.82    1.60
   2   4  -6   12.68    6.35
   2   4  -6   19.79    5.13
  -2  -4   6    9.48    4.69
   1   4  -6   98.39    8.73
   1   4  -6   94.89    8.43
  -1  -4   6   98.36    5.14
  -1  -4   6   85.56    6.04
   1   4  -6   89.11    6.96
   1   4  -6  101.23   13.24
  -1  -4   6   71.92    8.97
   0   4  -6   27.37    3.11
   0   4  -6   29.85    2.22
   0   4  -6   25.94    2.97
   0  -4   6   27.87    1.89
   0  -4   6   28.00    1.91
   0  -4   6   23.09    2.04
   0   4  -6   20.42    6.55
   0   4  -6   17.52    4.54
  -1   4  -6   78.08    8.32
  -1   4  -6   89.30    5.24
  -1   4  -6   78.75    8.08
   1  -4   6   68.75    4.93
   1  -4   6   75.08    4.84
   1  -4   6   79.88    6.00
   1  -4   6   83.80    4.03
  -1   4  -6   71.54    8.78
  -1   4  -6   81.43    9.53
  -2   4  -6    1.62    0.96
  -2   4  -6   -0.05    1.63
  -2   4  -6    1.19    1.66
   2  -4   6    0.47    0.97
   2  -4   6    2.19    0.81
   2  -4   6   -0.21    0.83
  -2   4  -6    4.46    5.56
  -2   4  -6   -4.68    4.68
   2  -4   6   -8.47    8.47
  -3   4  -6   -0.98    0.98
  -3   4  -6   -1.05    1.05
   3  -4   6   -0.62    1.21
   3  -4   6   -0.02    0.67
  -3   4  -6    0.22    4.30
  -3   4  -6    3.25    4.11
  -4   4  -6    6.16    1.91
  -4   4  -6    4.15    1.79
  -4   4  -6    1.65    2.69
   4  -4   6    5.26    2.01
  -4   4  -6    0.46    7.67
  -4   4  -6   15.31    5.94
  -5   4  -6    9.93    3.71
  -5   4  -6   12.26    2.59
  -5   4  -6   13.39    2.58
   5  -4   6   18.69    3.06
  -5   4  -6   25.22    9.18
   6  -4   6    5.08    3.19
  -6   4  -6    0.81   11.15
   8   3  -6    6.05    2.51
   8   3  -6    7.14    2.61
   8   3  -6   14.21    3.33
  -8  -3   6    9.87    2.52
  -8  -3   6   11.70    3.06
  -8  -3   6    9.58    2.96
  -8  -3   6    5.40   16.84
   7   3  -6   38.53    3.17
   7   3  -6   41.33    3.97
  -7  -3   6   39.46    3.29
  -7  -3   6   34.10    3.66
  -7  -3   6   38.72    3.72
  -7  -3   6   37.75   12.56
   6   3  -6    0.26    1.97
   6   3  -6    0.58    1.35
  -6  -3   6    1.39    1.15
  -6  -3   6    0.81    1.33
  -6  -3   6    1.52    1.39
   6   3  -6    3.32   10.58
  -6  -3   6    6.11    8.25
   5   3  -6   31.49    2.89
   5   3  -6   30.00    2.21
  -5  -3   6   25.32    2.10
  -5  -3   6   24.31    2.64
  -5  -3   6   29.59    2.66
  -5  -3   6   26.06    2.59
  -5  -3   6   26.72    2.41
   5   3  -6   16.90    8.78
  -5  -3   6   24.25    7.72
  -5  -3   6   40.48   10.42
   4   3  -6   -0.30    0.56
   4   3  -6   -0.63    0.87
   4   3  -6   -0.49    0.82
  -4  -3   6    0.80    0.71
  -4  -3   6    0.68    0.85
  -4  -3   6    0.18    0.57
  -4  -3   6   -0.30    0.94
  -4  -3   6    0.15    0.46
  -4  -3   6    0.66    0.55
   4   3  -6    8.73    4.40
   4   3  -6   -7.37    7.37
  -4  -3   6    2.53    4.96
   3   3  -6   29.11    2.91
   3   3  -6   29.22    2.20
   3   3  -6   27.03    2.02
  -3  -3   6   31.29    2.25
  -3  -3   6   26.98    2.31
  -3  -3   6   28.41    2.17
  -3  -3   6   26.84    2.60
  -3  -3   6   27.05    2.16
  -3  -3   6   27.27    2.66
   3   3  -6   15.93    5.53
   3   3  -6   15.81    7.90
  -3  -3   6   25.47    6.79
  -3  -3   6   18.45    5.44
   2   3  -6   -0.43    0.65
   2   3  -6    0.09    0.33
   2   3  -6    1.08    0.51
   2   3  -6    0.30    0.20
  -2  -3   6    0.54    0.38
  -2  -3   6   -0.43    0.43
  -2  -3   6    0.15    0.20
  -2  -3   6   -0.23    0.65
  -2  -3   6    0.27    0.62
  -2  -3   6    0.19    0.21
   2   3  -6   -1.45    2.58
   2   3  -6    4.63    2.36
  -2  -3   6    2.54    1.83
  -2  -3   6   -0.15    2.10
   1   3  -6   12.22    1.82
   1   3  -6   14.62    1.06
   1   3  -6   11.29    1.58
   1   3  -6   11.68    1.25
  -1  -3   6   13.33    1.80
  -1  -3   6   10.86    0.66
  -1  -3   6   10.32    1.29
  -1  -3   6   13.01    1.28
   1   3  -6    8.71    4.04
   1   3  -6    9.83    5.24
  -1  -3   6    6.21    3.48
  -1  -3   6   14.41    4.59
   0   3  -6  566.14   59.83
   0   3  -6  466.78   24.71
   0   3  -6  533.20   57.44
   0  -3   6  402.96   32.19
   0  -3   6  511.03   29.16
   0  -3   6  460.69   43.20
   0  -3   6  498.56   30.75
   0  -3   6  473.95   31.93
   0   3  -6  495.30   72.11
   0   3  -6  468.11   47.90
   0  -3   6  516.34   75.07
   0  -3   6  564.85   52.28
  -1   3  -6    4.62    0.55
  -1   3  -6    4.53    0.76
  -1   3  -6    3.57    1.39
   1  -3   6    3.97    1.13
   1  -3   6    6.47    0.97
   1  -3   6    5.15    0.46
   1  -3   6    4.25    0.70
  -1   3  -6    3.78    3.74
  -1   3  -6    3.31    2.65
   1  -3   6    0.37    3.43
  -2   3  -6  346.63   21.17
  -2   3  -6  308.32   24.19
  -2   3  -6  359.27   41.36
  -2   3  -6  314.86   33.46
  -2   3  -6  348.37   43.80
   2  -3   6  333.64   20.51
   2  -3   6  323.12   18.73
   2  -3   6  366.46   18.91
  -2   3  -6  366.32   48.74
  -2   3  -6  377.33   21.06
   2  -3   6  376.52   32.70
  -3   3  -6  266.26   19.54
  -3   3  -6  258.34   17.61
  -3   3  -6  266.76   26.69
   3  -3   6  257.69   18.03
   3  -3   6  281.12   18.16
   3  -3   6  249.19   15.64
  -3   3  -6  303.52   16.47
  -3   3  -6  312.47   32.25
   3  -3   6  277.24   24.33
  -4   3  -6   22.62    2.04
  -4   3  -6   24.18    2.46
  -4   3  -6   16.40    3.75
   4  -3   6   23.71    2.43
  -4   3  -6   22.90    7.19
  -4   3  -6   22.24    6.98
  -5   3  -6   36.62    3.45
  -5   3  -6   38.58    3.37
  -5   3  -6   32.88    4.56
   5  -3   6   38.70    3.40
  -5   3  -6   33.63    8.20
  -6   3  -6   11.18    2.65
  -6   3  -6   10.37    2.64
   6  -3   6    9.08    3.03
  -6   3  -6   -5.43    9.85
  -7   3  -6    4.66    2.96
  -7   3  -6    1.84    2.86
   7  -3   6    2.68    3.21
  -7   3  -6    1.46   13.21
   8   2  -6    0.84    2.62
   8   2  -6    1.16    3.33
  -8  -2   6    2.29    2.46
  -8  -2   6   -1.01    3.31
  -8  -2   6    1.60    2.26
  -8  -2   6    5.47   15.03
   7   2  -6   17.28    2.76
   7   2  -6   13.72    2.63
   7   2  -6   12.65    2.33
  -7  -2   6   13.51    2.10
  -7  -2   6   17.69    2.63
  -7  -2   6   14.22    2.84
  -7  -2   6    9.83   10.55
   6   2  -6  183.15   12.01
   6   2  -6  182.58   12.39
   6   2  -6  194.04   13.33
  -6  -2   6  187.17   15.68
  -6  -2   6  178.44   15.81
  -6  -2   6  191.43   13.82
  -6  -2   6  202.90   17.49
   5   2  -6    2.43    1.26
   5   2  -6    1.51    1.39
   5   2  -6   -0.07    0.65
  -5  -2   6    0.30    1.02
  -5  -2   6    1.44    1.26
  -5  -2   6    0.60    1.27
  -5  -2   6   -0.34    1.17
  -5  -2   6    1.20    1.06
   5   2  -6    1.68    7.64
  -5  -2   6    3.12    8.67
  -5  -2   6   -5.63    5.63
   4   2  -6  396.17   27.69
   4   2  -6  414.66   32.13
  -4  -2   6  427.80   28.23
  -4  -2   6  398.16   31.89
  -4  -2   6  407.83   29.85
  -4  -2   6  409.02   33.50
  -4  -2   6  378.26   21.00
  -4  -2   6  403.92   27.64
   4   2  -6  414.13   38.49
   4   2  -6  402.22   26.33
  -4  -2   6  407.35   28.83
  -4  -2   6  464.53   33.16
   3   2  -6   18.99    1.90
   3   2  -6   20.85    1.76
   3   2  -6   24.28    2.08
  -3  -2   6   22.11    1.75
  -3  -2   6   18.43    1.58
  -3  -2   6   22.51    1.76
  -3  -2   6   20.37    1.86
  -3  -2   6   19.19    1.67
   3   2  -6   21.82    6.42
  -3  -2   6   33.03    5.82
  -3  -2   6   25.77    4.83
   2   2  -6  322.67   32.34
   2   2  -6  292.17   22.24
   2   2  -6  314.25   22.77
   2   2  -6  289.56   25.98
  -2  -2   6  329.59   26.49
  -2  -2   6  322.37   30.29
  -2  -2   6  336.91   26.27
  -2  -2   6  310.64   19.36
  -2  -2   6  313.45   26.52
   2   2  -6  329.12   38.57
   2   2  -6  316.70   23.98
  -2  -2   6  354.88   38.38
  -2  -2   6  325.19   30.34
   1   2  -6  150.93   15.01
   1   2  -6  130.40    8.30
   1   2  -6  147.98   15.84
   1   2  -6  114.20    7.22
   1   2  -6  120.37    8.73
  -1  -2   6  140.97   12.45
  -1  -2   6  139.03   10.40
  -1  -2   6  122.19    6.92
  -1  -2   6  122.94    9.66
   1   2  -6  106.59   16.07
   1   2  -6  111.91   10.32
  -1  -2   6  133.87   15.54
  -1  -2   6  127.41   12.31
   0   2  -6   60.86    5.67
   0   2  -6   43.93    2.95
   0   2  -6   57.43    5.84
   0   2  -6   56.19    3.50
   0  -2   6   46.69    2.90
   0  -2   6   53.88    5.09
   0  -2   6   46.62    2.84
   0  -2   6   48.15    3.55
   0   2  -6   44.37    6.47
   0   2  -6   39.09    5.96
   0  -2   6   43.86    5.84
   0  -2   6   50.15    5.83
  -1   2  -6   93.13    5.91
  -1   2  -6   96.02    7.08
  -1   2  -6   93.25    5.24
  -1   2  -6  116.07   14.06
  -1   2  -6   96.62    6.38
  -1   2  -6  110.70   12.00
   1  -2   6  104.79    7.07
   1  -2   6  103.93   10.75
   1  -2   6   88.36    6.13
   1  -2   6   94.59    5.88
   1  -2   6  107.71   10.06
  -1   2  -6   76.70   10.79
  -1   2  -6   87.93   11.15
   1  -2   6   94.56   10.13
   1  -2   6   90.38   16.21
  -2   2  -6   23.35    3.23
  -2   2  -6   24.24    1.96
  -2   2  -6   20.33    2.99
  -2   2  -6   20.43    1.41
  -2   2  -6   24.19    2.06
   2  -2   6   19.53    1.41
   2  -2   6   20.81    1.27
   2  -2   6   20.75    1.79
   2  -2   6   22.79    2.13
  -2   2  -6   17.50    4.11
  -2   2  -6   20.89    5.34
   2  -2   6    7.72    4.05
  -3   2  -6    9.86    1.22
  -3   2  -6   12.20    2.32
   3  -2   6    7.59    1.39
   3  -2   6    6.50    1.25
  -3   2  -6    8.38    5.18
  -3   2  -6    7.86    5.36
   3  -2   6    5.41    7.64
  -4   2  -6   81.05    8.17
  -4   2  -6   83.72    7.19
  -4   2  -6   78.98    6.67
   4  -2   6   78.04    5.01
   4  -2   6   72.29    5.72
  -4   2  -6   83.80   10.78
  -4   2  -6   88.19   10.15
   4  -2   6   66.02   11.26
  -5   2  -6   -0.11    0.37
  -5   2  -6    0.64    0.69
  -5   2  -6   -0.40    0.40
   5  -2   6    0.52    0.45
   5  -2   6    0.06    0.37
  -5   2  -6    2.75    2.62
  -5   2  -6   -0.66    1.87
  -6   2  -6   11.32    2.34
  -6   2  -6    8.56    2.65
   6  -2   6   11.38    2.35
  -6   2  -6    9.98    9.55
  -7   2  -6   17.81    3.34
  -7   2  -6   23.52    3.89
   7  -2   6   19.67    3.73
  -7   2  -6   34.66   13.67
   8   1  -6   16.90    3.16
  -8  -1   6    7.24    2.92
  -8  -1   6   14.48    2.95
  -8  -1   6   -1.17   11.75
   7   1  -6    5.62    2.04
   7   1  -6    7.58    2.25
  -7  -1   6    7.87    2.27
  -7  -1   6    7.10    2.28
  -7  -1   6   10.10    2.14
  -7  -1   6   19.32    9.78
   6   1  -6  473.00   29.46
   6   1  -6  410.72   28.19
  -6  -1   6  440.50   29.86
  -6  -1   6  454.13   40.34
  -6  -1   6  479.53   29.59
  -6  -1   6  468.51   42.42
   5   1  -6    7.16    1.53
   5   1  -6    4.02    1.19
  -5  -1   6    2.22    1.39
  -5  -1   6    4.37    0.60
  -5  -1   6    3.91    1.20
  -5  -1   6    4.46    1.20
  -5  -1   6    2.02    1.29
   5   1  -6   -0.67    7.19
  -5  -1   6    2.09    5.55
  -5  -1   6    8.26    7.58
   4   1  -6   27.17    2.31
   4   1  -6   26.49    2.17
   4   1  -6   19.37    1.65
  -4  -1   6   26.52    2.18
  -4  -1   6   25.33    2.09
  -4  -1   6   22.40    1.43
  -4  -1   6   23.75    2.53
  -4  -1   6   22.70    1.72
   4   1  -6   26.64    8.64
   4   1  -6   18.90    6.48
  -4  -1   6   24.56    4.50
  -4  -1   6   29.47    6.22
   3   1  -6   91.87    8.54
   3   1  -6   92.81    9.92
   3   1  -6   91.48    6.17
   3   1  -6   93.29    8.20
   3   1  -6   95.53    7.02
  -3  -1   6  101.25    6.30
  -3  -1   6  101.11    7.59
  -3  -1   6   89.23    7.46
  -3  -1   6   94.83    4.68
  -3  -1   6   98.45    7.32
  -3  -1   6   92.10    5.68
   3   1  -6   87.51   12.52
   3   1  -6   87.68    8.11
  -3  -1   6   89.60    8.24
  -3  -1   6   93.64    8.86
   2   1  -6   26.67    2.41
   2   1  -6   24.26    2.36
   2   1  -6   28.26    2.38
   2   1  -6   28.43    2.15
   2   1  -6   28.77    3.07
  -2  -1   6   28.85    2.20
  -2  -1   6   25.30    1.88
  -2  -1   6   28.70    2.01
  -2  -1   6   25.51    1.98
  -2  -1   6   27.83    2.48
   2   1  -6   23.35    5.18
   2   1  -6   23.03    3.74
  -2  -1   6   21.24    3.28
  -2  -1   6   24.45    4.31
   1   1  -6    0.79    0.38
   1   1  -6    0.51    0.56
   1   1  -6    1.42    0.43
   1   1  -6   -0.37    0.63
   1   1  -6    0.26    0.64
  -1  -1   6    0.74    0.38
  -1  -1   6    1.24    0.49
  -1  -1   6    1.41    0.71
  -1  -1   6    1.30    0.54
  -1  -1   6    0.30    0.30
   1   1  -6    4.05    2.71
   1   1  -6    0.32    1.86
  -1  -1   6    0.55    1.36
  -1  -1   6    1.22    2.09
   0   1  -6   73.36    4.81
   0   1  -6   90.21    8.60
   0   1  -6   73.73    5.68
   0   1  -6   62.58    5.60
   0   1  -6   91.92    9.64
   0  -1   6   66.90    4.57
   0  -1   6   73.04    4.58
   0  -1   6   84.01    6.39
   0  -1   6   66.95    4.63
   0   1  -6   66.54    7.53
   0   1  -6   55.21    6.73
   0  -1   6   68.37    6.31
   0  -1   6   70.49    7.53
  -1   1  -6  119.22    5.63
  -1   1  -6  147.83   16.09
  -1   1  -6  142.18   20.71
  -1   1  -6  137.16   10.92
  -1   1  -6  123.52    6.65
  -1   1  -6  102.27    7.21
   1  -1   6  117.93    8.62
   1  -1   6  144.94   12.92
   1  -1   6  110.42    7.32
   1  -1   6  118.58    8.20
   1  -1   6  139.44   15.81
  -1   1  -6  104.21   15.21
  -1   1  -6  106.43   12.72
   1  -1   6  121.52   16.94
   1  -1   6  117.13   11.96
  -2   1  -6  134.75   19.39
  -2   1  -6  126.01    6.88
  -2   1  -6  142.28   16.34
  -2   1  -6  139.25    9.60
  -2   1  -6  138.14    8.43
   2  -1   6  145.75    8.49
   2  -1   6  147.89   10.78
   2  -1   6  135.07   13.64
   2  -1   6  138.77   12.72
  -2   1  -6  128.21   11.80
  -2   1  -6  122.80   15.60
   2  -1   6  121.76   14.06
  -3   1  -6  237.83   25.85
  -3   1  -6  240.26   15.71
  -3   1  -6  223.65   14.59
   3  -1   6  241.32   18.66
   3  -1   6  213.29   10.42
   3  -1   6  214.34   20.85
  -3   1  -6  240.61   29.69
   3  -1   6  250.33   21.87
  -4   1  -6   14.91    2.13
  -4   1  -6   16.59    1.59
  -4   1  -6   14.32    1.75
   4  -1   6   14.41    1.70
   4  -1   6   12.18    1.51
   4  -1   6   12.27    1.90
  -4   1  -6   22.59    7.81
  -4   1  -6   14.36    6.52
   4  -1   6    9.88    8.26
  -5   1  -6   13.64    1.70
  -5   1  -6   10.48    1.74
   5  -1   6    9.98    1.56
   5  -1   6   12.72    1.92
  -5   1  -6   14.76    9.66
  -5   1  -6   15.20    7.69
  -6   1  -6   56.69    4.75
  -6   1  -6   54.09    4.83
   6  -1   6   47.12    3.94
   6  -1   6   53.84    4.18
  -6   1  -6   68.10   11.37
  -7   1  -6   58.04    4.63
  -7   1  -6   52.49    5.78
   7  -1   6   52.68    4.47
  -7   1  -6   57.20   14.06
  -8   1  -6    7.66    3.90
  -8   1  -6    4.01    2.93
   8  -1   6    7.60    3.91
  -8   1  -6   18.82   18.38
   8   0  -6    0.94    2.39
  -8   0   6    3.50    2.21
  -8   0   6   -2.27    2.27
  -8   0   6   11.88    9.37
   7   0  -6   47.07    4.40
  -7   0   6   42.85    4.32
  -7   0   6   45.55    4.37
  -7   0   6   41.75   10.16
   6   0  -6   17.12    1.83
   6   0  -6   18.15    2.28
  -6   0   6   23.23    2.54
  -6   0   6   22.42    2.38
  -6   0   6   22.55    7.57
   5   0  -6  167.58   11.20
   5   0  -6  180.72   11.24
  -5   0   6  177.34   12.54
  -5   0   6  191.80   11.88
  -5   0   6  158.59   11.58
   5   0  -6  139.02   15.20
  -5   0   6  176.44   16.46
   4   0  -6  290.41   16.92
   4   0  -6  286.16   19.25
  -4   0   6  273.86   14.40
  -4   0   6  276.21   19.17
  -4   0   6  297.50   20.78
  -4   0   6  265.02   12.54
  -4   0   6  272.86   15.94
   4   0  -6  281.93   21.91
  -4   0   6  326.99   27.59
  -4   0   6  276.43   19.96
   3   0  -6   74.77    8.23
   3   0  -6   65.77    7.42
   3   0  -6   81.50    7.57
   3   0  -6   69.70    5.73
  -3   0   6   78.33    4.38
  -3   0   6   83.76    5.78
  -3   0   6   69.11    4.41
  -3   0   6   80.96    5.22
  -3   0   6   78.74    7.28
  -3   0   6   80.67    5.97
   3   0  -6   67.57   12.29
   3   0  -6   61.31    6.95
  -3   0   6   79.08    8.76
  -3   0   6   69.16    6.23
   2   0  -6  401.14   27.97
   2   0  -6  418.65   42.75
   2   0  -6  384.64   35.09
   2   0  -6  406.99   37.58
   2   0  -6  366.54   40.12
  -2   0   6  384.25   30.66
  -2   0   6  424.26   33.09
  -2   0   6  380.39   19.07
  -2   0   6  405.93   30.77
  -2   0   6  372.17   21.97
  -2   0   6  422.71   29.10
   2   0  -6  427.60   40.36
   2   0  -6  393.70   29.52
  -2   0   6  392.27   32.46
  -2   0   6  414.42   46.84
   1   0  -6  185.44   16.62
   1   0  -6  177.68   18.55
   1   0  -6  168.26   22.51
   1   0  -6  159.87   12.14
   1   0  -6  178.37   19.20
  -1   0   6  176.31   14.84
  -1   0   6  159.59    8.63
  -1   0   6  181.79   14.68
  -1   0   6  202.50   19.99
  -1   0   6  165.04   11.43
  -1   0   6  166.62    9.22
   1   0  -6  161.98   19.48
   1   0  -6  142.08   19.91
  -1   0   6  156.88   17.80
  -1   0   6  141.82   18.95
   0   0  -6  190.45   17.61
   0   0  -6  176.08   12.10
   0   0  -6  245.92   23.99
   0   0  -6  245.40   21.23
   0   0  -6  225.13   29.07
   0   0  -6  221.92   20.96
   0   0   6  198.44   15.37
   0   0   6  196.23   16.13
   0   0   6  172.13   10.35
   0   0   6  189.53    9.90
   0   0  -6  192.29   25.25
   0   0  -6  192.31   21.61
   0   0   6  218.04   22.35
   0   0   6  198.79   19.30
  -1   0  -6 2569.34  311.40
  -1   0  -6 2590.43  274.63
  -1   0  -6 2417.83  167.75
  -1   0  -6 2766.80  277.66
  -1   0  -6 2168.38  186.67
   1   0   6 2343.91  132.73
   1   0   6 2249.36  137.42
  -1   0  -6 2556.83  206.05
  -1   0  -6 2631.51  266.07
   1   0   6 2569.70  209.03
   1   0   6 2816.85  231.56
  -2   0  -6  501.61   61.03
  -2   0  -6  534.82   30.63
  -2   0  -6  499.26   48.17
  -2   0  -6  501.30   60.64
  -2   0  -6  467.13   38.21
  -2   0  -6  457.98   35.27
   2   0   6  476.97   30.90
   2   0   6  483.18   32.58
   2   0   6  494.20   42.20
   2   0   6  504.80   32.49
   2   0   6  498.33   40.40
  -2   0  -6  545.00   45.69
  -2   0  -6  509.61   70.55
   2   0   6  531.66   54.71
   2   0   6  602.24   47.71
  -3   0  -6  155.62   15.67
  -3   0  -6  152.59   10.89
  -3   0  -6  169.00    7.92
   3   0   6  163.57   15.92
   3   0   6  174.22   11.78
   3   0   6  159.77    9.89
   3   0   6  158.12   14.28
   3   0   6  167.17   10.12
  -3   0  -6  182.19   13.12
  -3   0  -6  165.44   20.99
   3   0   6  186.24   13.53
   3   0   6  171.70   16.77
  -4   0  -6    6.32    1.52
  -4   0  -6    6.64    0.93
   4   0   6    5.82    1.20
   4   0   6    6.60    1.36
   4   0   6    6.37    1.33
  -4   0  -6    7.58    4.67
  -4   0  -6   13.73    6.83
   4   0   6    8.58    5.90
  -5   0  -6   20.89    1.88
  -5   0  -6   19.50    1.90
   5   0   6   16.17    2.20
  -5   0  -6   12.79    9.68
  -5   0  -6   21.31    7.84
   5   0   6   12.41    8.38
  -6   0  -6    9.14    1.68
  -6   0  -6   10.95    1.87
   6   0   6   13.34    2.20
  -6   0  -6   -7.89    7.93
  -7   0  -6   15.29    2.63
  -7   0  -6   18.15    2.32
   7   0   6   11.70    2.69
  -7   0  -6   29.18   13.34
  -8   0  -6   -1.21    1.42
  -8   0  -6    1.28    1.55
   8   0   6   -0.30    2.10
  -8   0  -6   -9.34    9.34
   8  -1  -6   43.94    5.21
  -8   1   6   40.18    4.54
  -8   1   6   49.57    5.17
  -8   1   6   51.59   14.85
   7  -1  -6   22.45    3.30
  -7   1   6   17.17    2.49
  -7   1   6   23.07    3.14
  -7   1   6   15.03   11.38
   6  -1  -6   36.38    3.27
  -6   1   6   35.48    2.85
  -6   1   6   42.43    3.90
  -6   1   6   42.44    8.70
   5  -1  -6   -0.13    1.03
   5  -1  -6    0.93    0.78
  -5   1   6    1.21    1.05
  -5   1   6    0.69    0.94
  -5   1   6   -2.75    4.49
  -5   1   6   -3.01    5.89
   4  -1  -6    0.67    0.61
   4  -1  -6   -0.24    0.38
  -4   1   6    0.69    0.45
  -4   1   6    0.16    0.45
  -4   1   6    0.17    0.60
  -4   1   6    0.58    0.35
  -4   1   6    0.11    0.69
   4  -1  -6   -2.33    4.00
  -4   1   6    0.19    3.05
  -4   1   6    3.16    2.89
   3  -1  -6    3.87    0.50
   3  -1  -6    3.76    0.90
   3  -1  -6    4.21    1.12
  -3   1   6    4.31    0.94
  -3   1   6    5.62    0.46
  -3   1   6    5.06    1.06
  -3   1   6    4.30    0.84
  -3   1   6    2.69    0.63
   3  -1  -6    4.80    3.73
  -3   1   6    2.76    3.03
  -3   1   6    5.03    4.45
   2  -1  -6  106.38    8.24
   2  -1  -6  114.25    9.24
   2  -1  -6  113.55    8.83
   2  -1  -6  116.28    7.63
   2  -1  -6  123.05   11.61
  -2   1   6  106.23    6.03
  -2   1   6  114.03    7.58
  -2   1   6  106.11    6.50
  -2   1   6  116.74   10.08
   2  -1  -6  115.86   13.10
   2  -1  -6   91.13   13.19
  -2   1   6  117.36   14.52
  -2   1   6   98.92   12.14
   1  -1  -6  235.75   35.56
   1  -1  -6  222.57   22.28
   1  -1  -6  252.13   23.01
   1  -1  -6  249.90   30.04
   1  -1  -6  231.43   16.11
   1  -1  -6  263.97   19.16
  -1   1   6  263.85   27.67
  -1   1   6  229.09   17.53
  -1   1   6  225.88   13.49
   1  -1  -6  224.57   23.94
   1  -1  -6  217.49   30.71
  -1   1   6  180.72   21.83
  -1   1   6  213.06   20.51
   0  -1  -6  111.00    9.99
   0  -1  -6  109.70   12.50
   0  -1  -6  101.90    8.92
   0  -1  -6   94.13    7.18
   0  -1  -6   87.52    5.68
   0   1   6   96.63    5.00
   0   1   6   82.91    4.72
   0   1   6   86.61    5.51
   0   1   6   81.55    5.70
   0  -1  -6   88.48   11.57
   0  -1  -6   98.34   10.68
   0   1   6  105.65   10.41
   0   1   6   90.05    8.48
  -1  -1  -6  323.29   23.52
  -1  -1  -6  344.48   26.05
  -1  -1  -6  356.41   37.90
  -1  -1  -6  391.87   40.10
  -1  -1  -6  364.16   34.34
   1   1   6  341.62   24.82
   1   1   6  321.68   23.33
   1   1   6  293.73   17.95
   1   1   6  316.75   16.76
  -1  -1  -6  369.80   30.82
  -1  -1  -6  330.56   46.80
   1   1   6  362.53   32.65
   1   1   6  351.88   34.19
  -2  -1  -6  177.14   13.07
  -2  -1  -6  189.83   15.54
  -2  -1  -6  168.88   16.04
  -2  -1  -6  187.43   16.41
   2   1   6  175.56   10.35
   2   1   6  176.15   11.88
   2   1   6  179.38    9.52
   2   1   6  177.44   12.47
   2   1   6  176.43   12.07
  -2  -1  -6  201.38   19.76
  -2  -1  -6  184.84   18.40
   2   1   6  203.13   19.85
   2   1   6  190.86   12.31
  -3  -1  -6   20.54    1.96
  -3  -1  -6   24.97    2.09
  -3  -1  -6   27.21    1.91
  -3  -1  -6   21.77    2.04
  -3  -1  -6   23.65    1.87
  -3  -1  -6   26.07    2.55
   3   1   6   26.52    1.93
   3   1   6   24.46    2.19
   3   1   6   23.18    2.04
   3   1   6   27.12    2.50
   3   1   6   24.71    1.67
  -3  -1  -6   24.66    5.15
  -3  -1  -6   37.66    6.51
   3   1   6   23.44    4.78
   3   1   6   28.28    5.56
  -4  -1  -6  278.40   14.09
  -4  -1  -6  277.42   12.40
  -4  -1  -6  293.62   18.75
   4   1   6  285.09   20.38
   4   1   6  282.57   15.59
   4   1   6  290.10   17.61
   4   1   6  283.91   18.03
  -4  -1  -6  303.14   31.41
  -4  -1  -6  323.48   23.35
   4   1   6  315.03   20.36
   4   1   6  338.29   20.64
  -5  -1  -6  103.80    4.92
  -5  -1  -6  105.43    5.94
   5   1   6  102.43    6.63
   5   1   6   96.39    6.01
  -5  -1  -6  100.08   10.58
   5   1   6   62.64    9.29
  -6  -1  -6   93.88    5.76
  -6  -1  -6   72.40    4.14
   6   1   6   78.67    5.78
   6   1   6   81.18    6.64
   6   1   6   88.94    7.17
  -6  -1  -6   72.64   11.55
  -7  -1  -6   54.91    3.76
  -7  -1  -6   54.54    4.52
   7   1   6   54.75    5.04
  -7  -1  -6   41.90   13.50
  -8  -1  -6    9.57    2.48
  -8  -1  -6    8.33    2.67
   8   1   6    1.00    3.05
  -8  -1  -6    9.58   17.92
   7  -2  -6   -0.03    0.96
  -7   2   6   -1.05    1.25
  -7   2   6   -0.47    1.17
  -7   2   6   -1.99    4.78
   6  -2  -6   12.04    2.43
  -6   2   6   11.27    2.44
  -6   2   6   13.02    2.85
  -6   2   6   12.61    8.49
   5  -2  -6    1.85    1.33
   5  -2  -6    3.18    1.55
  -5   2   6    3.61    1.82
  -5   2   6    1.67    1.32
  -5   2   6   -6.93    6.93
  -5   2   6   -0.34    4.75
   4  -2  -6   25.62    2.59
   4  -2  -6   32.60    2.87
   4  -2  -6   33.25    2.20
  -4   2   6   32.57    2.55
  -4   2   6   34.90    2.78
  -4   2   6   33.61    2.68
  -4   2   6   33.52    2.82
  -4   2   6   39.78    6.47
  -4   2   6   41.25    5.01
   3  -2  -6  262.72   14.38
   3  -2  -6  306.61   19.50
   3  -2  -6  268.49   19.34
  -3   2   6  266.72   19.61
  -3   2   6  274.48   20.82
  -3   2   6  265.90   17.04
   3  -2  -6  245.68   26.37
  -3   2   6  275.52   24.03
  -3   2   6  279.69   22.35
   2  -2  -6    6.80    1.20
   2  -2  -6    6.21    0.61
   2  -2  -6    7.22    1.14
  -2   2   6    8.97    1.09
  -2   2   6    7.76    1.03
  -2   2   6    8.59    1.37
   2  -2  -6    1.42    5.19
  -2   2   6    5.90    2.87
  -2   2   6    7.20    3.41
   1  -2  -6  192.44   13.87
   1  -2  -6  181.99   14.34
   1  -2  -6  217.21   15.45
   1  -2  -6  168.06    8.76
   1  -2  -6  207.62   15.92
  -1   2   6  214.90   18.42
  -1   2   6  189.41   13.52
  -1   2   6  192.04    9.84
  -1   2   6  193.69   10.70
   1  -2  -6  230.67   15.50
   1  -2  -6  206.94   21.19
  -1   2   6  202.99   17.90
  -1   2   6  191.41   17.19
   0  -2  -6 1372.95   75.83
   0  -2  -6 1578.31  108.81
   0  -2  -6 1514.26   98.20
   0  -2  -6 1707.02  167.97
   0   2   6 1245.33   95.97
   0   2   6 1388.77  102.68
   0   2   6 1538.81   85.10
   0   2   6 1374.65   71.90
   0  -2  -6 1786.43  174.87
   0  -2  -6 1868.59  215.48
   0   2   6 1533.72  124.44
   0   2   6 1639.80  165.00
  -1  -2  -6   65.99    4.71
  -1  -2  -6   54.78    4.12
  -1  -2  -6   71.06    6.64
  -1  -2  -6   56.80    4.53
  -1  -2  -6   58.04    4.17
   1   2   6   55.69    5.03
   1   2   6   67.14    3.48
   1   2   6   66.26    3.84
   1   2   6   60.10    3.38
  -1  -2  -6   71.08    8.52
  -1  -2  -6   53.77    8.37
   1   2   6   63.48    7.69
   1   2   6   56.87    6.02
  -2  -2  -6    5.34    1.08
  -2  -2  -6    7.73    1.05
  -2  -2  -6    6.76    1.01
  -2  -2  -6    6.10    0.93
  -2  -2  -6    6.35    0.99
   2   2   6    8.01    0.83
   2   2   6    6.25    1.16
   2   2   6    8.84    1.04
   2   2   6    7.84    0.90
   2   2   6    7.90    0.89
   2   2   6    7.63    0.81
  -2  -2  -6    5.87    4.44
  -2  -2  -6    3.59    3.99
   2   2   6    6.52    3.23
   2   2   6    7.91    3.04
  -3  -2  -6   26.82    2.16
  -3  -2  -6   27.84    2.14
  -3  -2  -6   25.23    2.43
  -3  -2  -6   23.32    2.73
  -3  -2  -6   30.45    2.41
   3   2   6   28.62    1.90
   3   2   6   27.87    1.87
   3   2   6   25.65    1.94
   3   2   6   28.68    1.82
   3   2   6   27.42    1.95
   3   2   6   23.44    1.94
  -3  -2  -6   27.85    6.41
  -3  -2  -6   24.63    5.45
   3   2   6   25.95    5.13
   3   2   6   27.65    5.37
  -4  -2  -6  260.68   17.52
  -4  -2  -6  258.61   18.77
  -4  -2  -6  244.52   16.89
   4   2   6  235.56   14.63
   4   2   6  238.84   11.69
   4   2   6  247.04   12.42
   4   2   6  250.26   16.00
   4   2   6  265.60   13.82
  -4  -2  -6  307.12   18.97
  -4  -2  -6  248.78   19.96
   4   2   6  272.15   20.05
   4   2   6  263.25   14.59
  -5  -2  -6  571.06   27.63
  -5  -2  -6  573.10   30.07
   5   2   6  577.41   33.47
   5   2   6  613.58   29.79
   5   2   6  620.18   27.31
  -5  -2  -6  718.53   50.36
  -5  -2  -6  655.04   62.33
  -6  -2  -6   27.05    2.25
  -6  -2  -6   29.93    2.08
   6   2   6   28.12    2.18
   6   2   6   27.94    2.75
   6   2   6   23.82    2.29
  -6  -2  -6    6.45    8.54
   6   2   6   17.52   10.24
  -7  -2  -6   -0.93    0.93
   7   2   6   -0.51    1.24
  -7  -2  -6   -8.01    8.01
  -8  -2  -6    1.50    1.36
  -8  -2  -6    0.50    1.21
   8   2   6    0.82    1.53
  -8  -2  -6    1.68    9.43
   7  -3  -6    0.43    2.11
  -7   3   6   -0.40    2.71
  -7   3   6    1.00    1.58
  -7   3   6    1.48    8.88
   6  -3  -6   72.13    6.24
  -6   3   6   73.58    6.36
  -6   3   6   91.91   11.58
   5  -3  -6  103.40    7.52
  -5   3   6   94.84    7.39
  -5   3   6  121.08   12.41
  -5   3   6  121.81    9.63
   4  -3  -6   11.12    1.76
   4  -3  -6    8.23    1.23
  -4   3   6   10.88    2.10
  -4   3   6   10.67    1.96
  -4   3   6   12.07    5.09
  -4   3   6   25.41    6.89
   3  -3  -6   24.77    2.53
   3  -3  -6   29.62    2.68
   3  -3  -6   23.97    2.04
  -3   3   6   25.27    2.15
  -3   3   6   26.58    2.64
   3  -3  -6   17.94    6.58
  -3   3   6   23.62    4.67
  -3   3   6   23.82    5.23
   2  -3  -6   31.63    2.60
   2  -3  -6   31.46    2.12
   2  -3  -6   30.78    3.05
   2  -3  -6   31.78    2.74
  -2   3   6   31.84    2.19
  -2   3   6   35.14    2.78
  -2   3   6   34.50    3.00
   2  -3  -6   17.37    6.07
  -2   3   6   30.25    4.59
  -2   3   6   32.12    3.97
   1  -3  -6   25.86    2.32
   1  -3  -6   26.49    2.43
   1  -3  -6   30.74    2.62
   1  -3  -6   25.54    1.65
  -1   3   6   28.35    2.29
  -1   3   6   22.71    1.96
  -1   3   6   23.16    1.89
  -1   3   6   34.22    2.71
   1  -3  -6   23.00    5.95
  -1   3   6   25.57    4.16
  -1   3   6   21.75    4.07
   0  -3  -6  101.67   12.21
   0  -3  -6   87.86    7.60
   0  -3  -6  102.35    7.19
   0  -3  -6   94.19    5.04
   0  -3  -6  109.32    8.35
   0   3   6   94.06    7.42
   0   3   6   93.45    6.71
   0   3   6   97.34    5.53
   0  -3  -6   82.05   12.95
   0  -3  -6   87.61    9.70
   0   3   6   88.31    9.87
   0   3   6   93.75    8.69
  -1  -3  -6   65.24    4.27
  -1  -3  -6   77.16    5.25
  -1  -3  -6   76.70    6.57
  -1  -3  -6   75.16    6.01
   1   3   6   72.07    4.02
   1   3   6   66.53    5.30
   1   3   6   73.27    4.33
   1   3   6   78.72    6.89
  -1  -3  -6   79.18    9.33
  -1  -3  -6   59.77    8.83
   1   3   6   74.86    8.22
   1   3   6   78.61    6.93
  -2  -3  -6   12.63    1.55
  -2  -3  -6   12.30    1.28
  -2  -3  -6    9.72    1.45
  -2  -3  -6   14.65    1.37
   2   3   6   16.37    1.30
   2   3   6   14.05    1.38
   2   3   6   10.70    1.24
   2   3   6   13.07    1.36
  -2  -3  -6    4.78    4.39
  -2  -3  -6   11.57    5.07
   2   3   6   12.06    3.56
   2   3   6    8.54    3.22
  -3  -3  -6    5.74    1.18
  -3  -3  -6    4.65    1.03
  -3  -3  -6    7.93    1.07
   3   3   6    6.41    0.69
   3   3   6    7.51    1.28
   3   3   6    6.93    1.24
   3   3   6    6.68    1.27
   3   3   6    6.45    0.76
   3   3   6    7.02    1.07
  -3  -3  -6    4.85    6.12
  -3  -3  -6    5.02    4.80
   3   3   6    6.58    4.79
   3   3   6    5.75    4.39
  -4  -3  -6   10.57    1.37
  -4  -3  -6   11.20    1.50
   4   3   6   12.79    1.60
   4   3   6   10.13    1.32
   4   3   6   14.32    1.44
   4   3   6   11.10    1.32
   4   3   6   12.05    1.33
   4   3   6   12.44    1.38
  -4  -3  -6   -0.17    8.00
  -4  -3  -6    9.77    6.50
   4   3   6    5.33    5.53
   4   3   6    4.37    5.53
  -5  -3  -6   12.92    1.70
  -5  -3  -6   13.55    1.51
   5   3   6   14.51    1.86
   5   3   6   11.89    1.53
   5   3   6   15.34    2.14
   5   3   6   11.58    1.75
  -5  -3  -6    4.87    7.77
   5   3   6    8.94    8.26
   5   3   6    2.52    5.09
  -6  -3  -6  479.48   24.96
  -6  -3  -6  453.86   22.41
   6   3   6  468.68   22.19
   6   3   6  466.78   26.08
   6   3   6  465.26   23.76
  -6  -3  -6  562.46   46.95
   6   3   6  636.66   40.85
  -7  -3  -6   24.05    2.69
  -7  -3  -6   27.60    2.84
   7   3   6   29.73    2.89
   7   3   6   25.84    3.44
   7   3   6   21.24    2.73
  -7  -3  -6    0.65   14.19
  -8  -3  -6    4.07    1.83
   8   3   6    2.46    2.36
  -8  -3  -6   12.08   16.32
   6  -4  -6   -0.06    2.00
  -6   4   6   -0.96    2.56
  -6   4   6    3.45    8.65
   5  -4  -6    1.07    1.38
  -5   4   6   -0.65    1.74
  -5   4   6    1.99    6.08
  -5   4   6   -1.93    5.49
   4  -4  -6   14.72    1.96
  -4   4   6   12.19    2.71
  -4   4   6   14.50    2.24
  -4   4   6   16.19    5.58
   3  -4  -6  156.66   11.10
   3  -4  -6  146.63    8.50
  -3   4   6  153.85   12.69
  -3   4   6  146.32    9.39
  -3   4   6  149.55   13.59
  -3   4   6  169.64   14.36
  -3   4   6  176.18   11.11
   2  -4  -6    4.94    2.45
   2  -4  -6    7.17    2.12
   2  -4  -6    6.83    0.96
   2  -4  -6    5.28    1.41
  -2   4   6    6.31    1.25
  -2   4   6    7.78    1.83
  -2   4   6    6.73    1.59
  -2   4   6    7.09    3.85
  -2   4   6    5.82    4.62
   1  -4  -6   43.15    3.37
   1  -4  -6   37.05    3.78
   1  -4  -6   39.56    3.90
   1  -4  -6   37.37    3.05
  -1   4   6   38.71    3.36
  -1   4   6   44.39    3.19
   1  -4  -6   29.53    6.06
  -1   4   6   39.35    6.00
  -1   4   6   33.37    4.86
   0  -4  -6   44.19    3.82
   0  -4  -6   42.97    3.09
   0  -4  -6   36.97    2.95
   0  -4  -6   38.23    3.15
   0  -4  -6   37.49    3.15
   0   4   6   43.98    3.10
   0   4   6   40.07    2.87
   0  -4  -6   34.59    6.31
   0   4   6   45.64    5.98
   0   4   6   34.16    4.97
  -1  -4  -6  126.47    9.08
  -1  -4  -6  129.07    9.84
  -1  -4  -6  108.11    7.30
   1   4   6  114.75    7.19
   1   4   6  110.06    7.96
   1   4   6  113.33    7.90
  -1  -4  -6  110.32   11.96
   1   4   6  112.66    8.59
   1   4   6  129.27   14.32
  -2  -4  -6   27.70    2.50
  -2  -4  -6   28.28    2.33
  -2  -4  -6   24.74    2.22
   2   4   6   25.74    2.36
   2   4   6   21.64    2.01
   2   4   6   26.93    2.36
   2   4   6   28.69    2.15
  -2  -4  -6   10.03    5.61
   2   4   6    9.51    4.45
   2   4   6   18.38    4.70
  -3  -4  -6    4.81    1.12
  -3  -4  -6    2.58    1.15
   3   4   6    1.91    1.34
   3   4   6    2.54    1.31
   3   4   6    4.47    1.26
   3   4   6    3.78    1.20
  -3  -4  -6   -6.70    6.70
   3   4   6    2.19    4.13
   3   4   6   -1.18    5.18
  -4  -4  -6  215.57   18.14
  -4  -4  -6  188.88   14.71
  -4  -4  -6  206.48   15.82
   4   4   6  195.18   10.14
   4   4   6  193.95   11.86
   4   4   6  197.52   13.83
   4   4   6  191.67   10.73
   4   4   6  164.16   12.15
   4   4   6  204.64    9.89
  -4  -4  -6  182.44   21.04
   4   4   6  210.36   20.46
  -5  -4  -6  104.94    8.51
  -5  -4  -6  106.75    8.51
   5   4   6  105.76    7.90
   5   4   6  109.61    8.47
   5   4   6  111.47    5.91
   5   4   6  106.16    5.75
  -5  -4  -6   90.60   13.72
   5   4   6  129.11   13.07
  -6  -4  -6    0.44    0.62
  -6  -4  -6   -0.36    0.50
   6   4   6   -0.23    0.62
   6   4   6    0.26    0.77
   6   4   6   -0.74    0.74
  -6  -4  -6   -3.07    5.43
   6   4   6   -4.73    4.73
  -7  -4  -6    2.28    1.65
  -7  -4  -6    0.09    1.74
   7   4   6   -0.60    1.86
   7   4   6    0.06    2.31
   7   4   6    0.47    2.01
  -7  -4  -6   28.94   16.59
  -8  -4  -6    0.86    2.22
   8   4   6   -1.97    2.79
   5  -5  -6   40.25    3.98
  -5   5   6   36.50    3.93
   4  -5  -6   20.33    2.55
  -4   5   6   15.38    2.70
   3  -5  -6    6.29    1.84
  -3   5   6    3.93    2.36
  -3   5   6    2.70    2.19
   2  -5  -6   73.78    5.99
   2  -5  -6   76.13    5.61
   2  -5  -6   73.52    4.48
  -2   5   6   75.75    6.27
  -2   5   6   73.86    6.90
  -2   5   6   34.36    3.15
   1  -5  -6  166.44   11.74
   1  -5  -6  193.61   16.24
   1  -5  -6  189.44   12.72
  -1   5   6  162.81   15.50
  -1   5   6  178.88   14.42
  -1   5   6  193.83   12.01
  -1   5   6  210.40   13.45
   0  -5  -6    0.15    0.96
   0  -5  -6    2.10    0.95
   0  -5  -6   -0.21    1.25
   0  -5  -6    0.54    1.28
   0  -5  -6    0.49    1.20
   0   5   6   -0.46    1.05
   0   5   6    1.22    1.01
   0  -5  -6   -4.96    4.96
   0   5   6    0.04    2.89
   0   5   6    3.19    3.61
  -1  -5  -6    6.58    1.50
  -1  -5  -6    9.95    1.78
   1   5   6    7.95    1.64
   1   5   6    7.49    1.74
   1   5   6    7.55    1.37
  -1  -5  -6   13.51    7.18
   1   5   6   14.69    4.61
   1   5   6    5.57    4.35
  -2  -5  -6   24.29    2.32
  -2  -5  -6   21.78    2.21
   2   5   6   18.89    2.45
   2   5   6   18.61    2.25
   2   5   6   21.39    1.91
  -2  -5  -6    6.48    7.99
   2   5   6    8.13    3.72
   2   5   6   19.50    5.14
  -3  -5  -6    7.18    1.50
  -3  -5  -6    4.13    1.46
   3   5   6    8.59    1.66
   3   5   6    5.14    1.61
   3   5   6    6.55    1.45
  -3  -5  -6    2.99    8.38
   3   5   6   -5.35    6.50
  -4  -5  -6    3.99    1.54
  -4  -5  -6    4.26    1.45
  -4  -5  -6    3.81    1.60
   4   5   6    7.86    1.01
   4   5   6    8.06    1.99
   4   5   6    7.69    1.00
   4   5   6    5.45    1.93
   4   5   6    6.73    2.13
   4   5   6   10.27    1.87
  -4  -5  -6    5.01   10.43
   4   5   6    4.33    7.63
   4   5   6    0.03    8.75
  -5  -5  -6    3.51    1.73
  -5  -5  -6    5.31    1.65
   5   5   6    0.10    2.32
   5   5   6    5.24    1.91
   5   5   6    4.46    1.37
   5   5   6    7.61    1.90
   5   5   6   10.06    8.96
  -6  -5  -6    9.41    2.04
  -6  -5  -6    8.75    2.14
   6   5   6   10.42    1.90
   6   5   6    8.37    2.01
   6   5   6    7.49    2.13
   6   5   6    5.83    2.55
   6   5   6    0.60   12.58
  -7  -5  -6   24.96    2.80
  -7  -5  -6   22.73    2.74
   7   5   6   23.13    2.95
   7   5   6   19.62    3.38
   7   5   6   22.94    3.27
   7   5   6   16.31   19.56
  -8  -5  -6    0.29    0.82
   8   5   6   -0.47    0.80
   4  -6  -6    7.83    2.44
   4  -6  -6    7.32    2.98
  -4   6   6    6.28    3.10
   3  -6  -6    3.20    2.18
   3  -6  -6    2.30    2.48
  -3   6   6    1.57    3.57
   2  -6  -6   -0.08    0.78
   2  -6  -6    0.42    0.68
  -2   6   6   -0.99    0.99
   1  -6  -6   56.85    4.71
   1  -6  -6   50.34    4.10
   1  -6  -6   53.02    3.71
  -1   6   6   58.66    5.37
  -1   6   6   55.57    5.07
  -1   6   6   43.64    3.37
   0  -6  -6    3.42    1.50
   0  -6  -6    1.73    1.44
   0   6   6    6.70    4.73
   0   6   6   -1.85    4.81
  -1  -6  -6   30.91    2.72
  -1  -6  -6   37.14    3.46
   1   6   6   40.34    3.65
   1   6   6   32.97    6.21
   1   6   6   28.06    6.60
  -2  -6  -6   86.83    5.98
  -2  -6  -6   81.05    4.78
   2   6   6   78.85    5.72
   2   6   6   68.69    8.39
   2   6   6   72.40   11.60
  -3  -6  -6    3.00    1.56
   3   6   6    5.03    2.21
   3   6   6    7.32    6.35
   3   6   6   24.63    8.86
  -4  -6  -6  167.87   15.69
  -4  -6  -6  170.65   10.93
   4   6   6  179.95   11.91
   4   6   6  180.56   12.42
   4   6   6  175.83   15.78
  -5  -6  -6  114.08    7.48
  -5  -6  -6  108.92    8.35
   5   6   6  107.71    7.88
   5   6   6  104.57    7.34
   5   6   6  119.62    9.16
   5   6   6  104.34   13.77
  -6  -6  -6   10.52    2.66
  -6  -6  -6   10.73    2.28
   6   6   6   13.18    2.99
   6   6   6    7.45    2.96
   6   6   6   11.53    3.40
   6   6   6   15.75   15.31
  -7  -6  -6   33.13    4.12
  -7  -6  -6   25.35    3.10
   7   6   6   31.28    3.36
   7   6   6   24.10    3.88
   7   6   6   28.85    3.69
   7   6   6   44.71   20.39
  -8  -6  -6    3.69    3.13
   8   6   6    4.10    3.64
   3  -7  -6   -1.52    1.72
   3  -7  -6   -0.73    1.92
   2  -7  -6   11.66    2.60
   2  -7  -6   14.69    3.68
  -2   7   6    5.23    4.07
   1  -7  -6   21.22    2.65
   1  -7  -6   22.42    3.42
  -1   7   6   19.95    3.97
   0  -7  -6   -0.04    0.74
   0  -7  -6   -0.35    0.68
   0   7   6    0.87    1.04
   0   7   6    0.11    0.87
   0   7   6    1.69    1.84
   0   7   6   -0.87    2.31
  -1  -7  -6   22.20    2.99
   1   7   6   19.78    3.17
   1   7   6   14.93    3.14
   1   7   6   22.25    7.81
   1   7   6   17.51    7.32
  -2  -7  -6   52.49    5.36
   2   7   6   47.60    4.72
   2   7   6   55.54    4.85
   2   7   6   37.61    8.75
  -3  -7  -6   -0.92    1.95
   3   7   6    4.11    2.76
   3   7   6    1.07    2.73
   3   7   6    2.67    9.52
  -4  -7  -6   12.53    2.74
   4   7   6   12.34    3.11
   4   7   6   14.81    3.22
   4   7   6    5.19   11.46
  -5  -7  -6    5.75    2.97
  -5  -7  -6    7.51    2.47
   5   7   6    7.60    3.50
   5   7   6    5.79    3.00
   5   7   6    0.26   14.75
  -6  -7  -6    1.83    2.61
  -6  -7  -6   -0.53    2.43
   6   7   6    4.74    3.60
   6   7   6    3.35    2.82
   6   7   6   17.25   15.92
  -7  -7  -6    0.27    2.81
  -7  -7  -6    2.29    2.45
   7   7   6   -3.39    3.94
   7   7   6   -1.45    2.99
   7   7   6   -0.01    3.23
   7   7   6   -1.62   20.41
   1  -8  -6    3.01    3.33
  -1   8   6    5.61    4.71
   0  -8  -6   26.38    3.84
   0   8   6   25.65    5.75
  -1  -8  -6    6.71    2.68
   1   8   6    5.12    3.46
   1   8   6    6.85    9.38
  -2  -8  -6    2.57    1.78
   2   8   6   -2.74    2.74
   2   8   6    1.91    2.54
   2   8   6    2.44   10.75
  -3  -8  -6  103.82    8.22
   3   8   6   95.11    7.94
   3   8   6   91.07    9.01
   3   8   6   92.71   15.75
  -4  -8  -6   48.51    3.94
  -4  -8  -6   48.96    4.87
   4   8   6   47.05    4.89
   4   8   6   42.34    5.57
   4   8   6   36.50   14.88
  -5  -8  -6   18.19    3.83
  -5  -8  -6   20.95    3.84
   5   8   6    9.00    3.94
   5   8   6    9.02    4.32
   5   8   6   14.33   16.40
  -6  -8  -6    1.70    3.00
  -6  -8  -6    3.74    2.45
   6   8   6   -3.10    3.21
   6   8   6    1.90    3.89
   6   8   6   -6.46   16.48
  -3  -9  -6    5.57    3.32
   3   9   6   11.83    4.87
   3   9   6   35.29   20.16
   6   8  -7   -3.21    4.34
   6   8  -7   -3.20    4.73
   5   8  -7    0.79    4.04
   5   8  -7    1.38    4.35
  -5  -8   7    0.89    2.48
   5   8  -7   15.50   18.14
   4   8  -7  172.50   12.42
   4   8  -7  154.95   14.48
   4   8  -7  187.74   17.12
   3   8  -7   15.85    3.92
   3   8  -7   16.65    3.91
  -3  -8   7   23.73    3.05
   3   8  -7   22.50   13.76
   2   8  -7    8.45    3.07
   2   8  -7   10.26    3.44
  -2  -8   7    7.31    2.88
   2   8  -7    9.59   10.38
   1   8  -7    5.50    3.21
   1   8  -7    4.89    3.37
  -1  -8   7   -0.51    2.55
  -1  -8   7    0.51    2.71
   1   8  -7   -4.40   11.33
   0   8  -7    0.76    2.88
   0   8  -7   -2.99    2.99
   0  -8   7   -1.02    1.82
   0  -8   7    2.13    2.18
   0   8  -7   -1.57    8.08
  -1   8  -7    1.85    2.02
  -1   8  -7   -0.20    2.33
   1  -8   7    0.61    1.85
   7   7  -7   -0.68    3.14
  -7  -7   7    1.19    1.81
   7   7  -7   -5.27   10.25
   6   7  -7    1.32    3.91
  -6  -7   7    9.58    3.21
   6   7  -7    5.96   16.85
   5   7  -7    1.12    2.09
   5   7  -7    1.20    2.35
  -5  -7   7    0.42    1.65
   5   7  -7   -1.04   10.36
   4   7  -7    7.13    3.46
   4   7  -7   -0.29    3.42
  -4  -7   7    4.82    2.40
   4   7  -7    8.88   11.94
   3   7  -7   60.15    6.02
   3   7  -7   58.61    5.44
  -3  -7   7   66.86    5.05
   3   7  -7   46.63   11.36
   2   7  -7   14.47    2.88
   2   7  -7   11.96    3.16
  -2  -7   7   10.22    2.25
   2   7  -7    5.92    8.33
   1   7  -7   13.65    2.99
   1   7  -7   12.45    3.45
  -1  -7   7   16.44    2.66
  -1  -7   7   16.15    2.35
   1   7  -7   26.73    9.05
   0   7  -7    0.03    2.99
   0   7  -7    2.05    2.54
   0  -7   7    4.19    1.93
   0  -7   7    4.69    2.05
   0   7  -7    8.23    8.35
  -1   7  -7   19.00    4.14
  -1   7  -7   25.02    4.27
   1  -7   7   27.42    3.33
  -1   7  -7   15.77   10.38
  -1   7  -7   11.90   10.27
  -2   7  -7   21.96    5.28
   2  -7   7   35.72    3.89
  -2   7  -7    7.24    2.40
  -3   7  -7   -4.49    4.49
   7   6  -7   24.82    4.61
  -7  -6   7   31.18    4.21
  -7  -6   7   27.30    3.38
  -7  -6   7   26.15    3.16
   6   6  -7    3.59    3.27
  -6  -6   7    3.79    2.08
  -6  -6   7    2.64    1.61
  -6  -6   7    2.74    1.79
   6   6  -7   20.93   14.32
   5   6  -7   36.43    4.23
  -5  -6   7   37.19    3.47
  -5  -6   7   44.22    3.78
  -5  -6   7   35.90    3.09
   5   6  -7   31.92   12.57
   4   6  -7   18.04    3.14
   4   6  -7   23.70    3.29
  -4  -6   7   20.08    2.43
   4   6  -7    4.84    9.68
   3   6  -7    4.96    2.32
   3   6  -7    1.79    2.54
  -3  -6   7    2.59    1.80
   3   6  -7    8.41    8.29
   2   6  -7   44.02    4.14
   2   6  -7   41.76    3.86
  -2  -6   7   44.77    3.13
   2   6  -7   44.63    8.53
   1   6  -7   12.18    2.85
   1   6  -7   13.76    2.62
  -1  -6   7   11.98    1.98
  -1  -6   7   12.45    1.83
   1   6  -7   22.11   12.43
   1   6  -7   10.77    6.47
   0   6  -7   22.81    3.18
   0   6  -7   24.77    3.48
   0  -6   7   26.72    2.60
   0  -6   7   22.16    2.55
   0   6  -7   13.32   11.47
   0   6  -7   26.63    7.89
  -1   6  -7    3.84    2.66
  -1   6  -7    5.15    2.43
   1  -6   7    3.63    1.77
   1  -6   7    3.54    1.71
  -1   6  -7    4.98    9.81
  -1   6  -7    5.15    7.43
  -2   6  -7    6.63    2.53
  -2   6  -7   -1.42    2.77
   2  -6   7    0.82    1.69
  -2   6  -7    1.95   10.23
  -2   6  -7    2.79    8.38
  -3   6  -7    4.56    4.31
   3  -6   7    7.97    2.23
  -4   6  -7    2.84    4.79
   4  -6   7    5.31    2.82
   8   5  -7   -0.96    1.26
  -8  -5   7    0.24    0.87
  -8  -5   7   -0.52    0.80
  -8  -5   7   -0.14    0.77
   7   5  -7    0.06    2.82
  -7  -5   7    1.40    2.23
  -7  -5   7    1.31    2.13
  -7  -5   7   -0.42    1.78
   6   5  -7    8.52    3.35
  -6  -5   7    9.44    2.04
  -6  -5   7    8.25    1.98
  -6  -5   7   11.32    2.07
   6   5  -7   21.31   13.00
   5   5  -7    2.76    2.15
   5   5  -7    5.10    1.33
  -5  -5   7    3.86    1.78
  -5  -5   7    2.48    1.49
  -5  -5   7    0.98    1.29
   5   5  -7    2.16    8.11
   4   5  -7    3.31    2.06
   4   5  -7    4.41    1.11
  -4  -5   7    3.39    1.39
  -4  -5   7    3.95    1.08
  -4  -5   7    3.35    0.98
   4   5  -7   -1.84    8.64
   3   5  -7   13.98    2.48
   3   5  -7   12.78    2.30
   3   5  -7    9.23    1.07
  -3  -5   7    8.58    1.08
  -3  -5   7    7.60    0.97
   3   5  -7    6.96   12.63
   3   5  -7    9.02    7.50
  -3  -5   7   11.97    6.91
   2   5  -7   49.58    5.13
   2   5  -7   57.01    4.33
  -2  -5   7   50.85    3.23
  -2  -5   7   50.41    3.40
  -2  -5   7   46.81    2.88
  -2  -5   7   46.57    2.69
   2   5  -7   42.63   10.78
   2   5  -7   41.88    6.86
   1   5  -7   32.58    3.26
   1   5  -7   33.79    3.26
  -1  -5   7   32.98    2.26
  -1  -5   7   30.34    2.25
   1   5  -7   26.04   10.02
   1   5  -7   31.13    6.55
   0   5  -7    9.93    2.32
   0   5  -7    9.10    2.36
   0  -5   7   12.89    1.50
   0  -5   7    8.53    2.23
   0  -5   7   10.96    1.53
   0   5  -7    5.88    9.21
   0   5  -7    3.72    6.08
  -1   5  -7  137.94   12.34
  -1   5  -7  132.31   13.74
   1  -5   7  149.79    9.24
   1  -5   7  142.61    9.20
  -1   5  -7  121.19   15.63
  -1   5  -7  136.62   12.64
  -2   5  -7   64.79    7.09
  -2   5  -7   67.76    6.88
   2  -5   7   66.02    4.27
   2  -5   7   68.67    5.03
  -2   5  -7   59.59   10.70
  -2   5  -7   71.70   11.00
  -3   5  -7   10.94    3.28
   3  -5   7   14.11    2.21
  -3   5  -7   -3.01    9.19
  -3   5  -7   11.73    7.67
  -4   5  -7   72.05    8.71
   4  -5   7   76.25    5.99
  -4   5  -7   76.50   10.69
  -5   5  -7   11.13    5.04
   5  -5   7   10.67    3.46
  -5   5  -7   17.00   11.12
   8   4  -7    0.38    2.65
  -8  -4   7    1.32    2.26
  -8  -4   7    1.41    2.58
  -8  -4   7    3.45    2.20
   7   4  -7   15.01    2.96
   7   4  -7   18.32    2.85
  -7  -4   7   24.08    2.98
  -7  -4   7   14.91    2.42
  -7  -4   7   17.17    2.81
  -7  -4   7    5.19   15.37
   6   4  -7    7.08    2.71
   6   4  -7    8.11    1.74
  -6  -4   7    9.07    2.04
  -6  -4   7   10.16    1.86
  -6  -4   7   12.17    2.00
   6   4  -7    5.33   14.32
  -6  -4   7   24.82   11.99
   5   4  -7  135.36    9.79
   5   4  -7  128.25    8.78
  -5  -4   7  132.61   10.90
  -5  -4   7  140.27   11.45
  -5  -4   7  146.79    9.68
   5   4  -7  108.59   13.09
  -5  -4   7  103.36   12.02
   4   4  -7   16.24    2.64
   4   4  -7   14.74    1.88
   4   4  -7   17.42    1.89
  -4  -4   7   19.84    1.74
  -4  -4   7   22.59    2.14
  -4  -4   7   19.55    1.90
  -4  -4   7   15.09    1.95
   4   4  -7    8.43    7.44
   4   4  -7   10.39   12.48
  -4  -4   7   16.34    7.52
   3   4  -7   32.92    2.12
   3   4  -7   35.05    3.15
  -3  -4   7   29.25    2.67
  -3  -4   7   30.63    2.51
  -3  -4   7   34.30    2.62
  -3  -4   7   32.80    2.31
   3   4  -7   18.26    6.25
  -3  -4   7   20.00    5.66
   2   4  -7   72.86    6.37
   2   4  -7   66.29    6.49
   2   4  -7   68.07    3.65
  -2  -4   7   74.18    4.13
  -2  -4   7   66.15    4.64
  -2  -4   7   60.64    4.37
  -2  -4   7   65.49    4.36
   2   4  -7   48.55    8.50
   2   4  -7   49.66    6.24
  -2  -4   7   44.71    6.97
   1   4  -7   13.61    1.32
   1   4  -7   14.67    2.00
   1   4  -7   14.49    2.11
  -1  -4   7   14.74    1.62
  -1  -4   7   14.69    1.53
   1   4  -7    9.01    7.99
   1   4  -7    6.96    4.66
  -1  -4   7    4.37    4.24
   0   4  -7  144.59    7.76
   0   4  -7  136.37   15.98
   0   4  -7  142.62   14.15
   0  -4   7  127.10    7.65
   0  -4   7  122.42    8.50
   0  -4   7  138.78    9.62
   0   4  -7  117.38   14.44
   0   4  -7  146.23   13.78
   0  -4   7  103.24   12.13
  -1   4  -7   30.58    4.33
  -1   4  -7   33.21    3.56
  -1   4  -7   33.91    2.30
   1  -4   7   33.16    2.31
   1  -4   7   34.46    2.50
  -1   4  -7   36.79    7.24
  -1   4  -7   18.42    5.16
   1  -4   7   10.50    6.70
  -2   4  -7   43.48    4.82
  -2   4  -7   45.90    2.44
  -2   4  -7   46.64    3.28
  -2   4  -7   55.81    6.07
   2  -4   7   44.36    3.66
   2  -4   7   46.69    3.09
  -2   4  -7   48.60    8.17
  -2   4  -7   41.38    7.87
  -3   4  -7   96.33    5.98
  -3   4  -7   96.60    9.45
  -3   4  -7   97.08    5.86
   3  -4   7   98.51    5.88
  -3   4  -7   83.62   11.63
  -3   4  -7  108.17   13.25
  -4   4  -7   -1.90    2.97
  -4   4  -7    0.60    1.68
  -4   4  -7    1.01    1.56
   4  -4   7   -0.50    1.84
  -4   4  -7   -4.44    9.69
  -4   4  -7   10.58    7.52
  -5   4  -7    1.13    3.62
   5  -4   7    2.24    2.30
  -5   4  -7   -0.08    8.27
   6  -4   7   18.82    3.45
  -6   4  -7   23.68   14.23
   8   3  -7    4.77    3.44
   8   3  -7    6.51    2.79
  -8  -3   7    6.53    2.64
  -8  -3   7    9.74    3.51
  -8  -3   7    6.20    2.51
  -8  -3   7   -8.66   16.02
   7   3  -7  314.95   22.23
   7   3  -7  297.69   19.78
  -7  -3   7  329.60   23.03
  -7  -3   7  305.44   23.89
  -7  -3   7  307.94   23.65
  -7  -3   7  324.17   23.16
   6   3  -7    5.71    1.67
   6   3  -7    4.32    1.99
  -6  -3   7    5.23    1.54
  -6  -3   7    5.78    1.96
  -6  -3   7    5.72    1.77
   6   3  -7    7.28   13.49
  -6  -3   7   -9.54    9.54
   5   3  -7   51.96    3.60
   5   3  -7   59.06    4.35
  -5  -3   7   55.98    4.85
  -5  -3   7   52.40    3.95
  -5  -3   7   51.32    4.36
   5   3  -7   30.03    9.30
  -5  -3   7   26.07    8.32
   4   3  -7    1.25    1.06
   4   3  -7    2.68    1.87
   4   3  -7    0.41    1.33
  -4  -3   7    2.31    1.20
  -4  -3   7    1.34    0.93
  -4  -3   7    2.85    1.54
  -4  -3   7    1.89    0.86
  -4  -3   7    1.06    1.26
   4   3  -7   -2.09   12.65
   4   3  -7   -6.91    6.91
  -4  -3   7   -3.13    5.51
  -4  -3   7   -7.81    7.81
   3   3  -7   28.98    2.33
   3   3  -7   33.70    2.44
   3   3  -7   36.27    3.16
  -3  -3   7   30.62    2.84
  -3  -3   7   31.41    2.94
  -3  -3   7   36.50    2.78
  -3  -3   7   32.92    2.42
  -3  -3   7   33.04    2.98
  -3  -3   7   34.50    3.36
   3   3  -7   27.51    8.11
   3   3  -7   24.02    5.36
  -3  -3   7   15.42    4.29
  -3  -3   7   11.22    6.92
   2   3  -7    4.78    1.39
   2   3  -7    4.36    0.84
   2   3  -7    2.89    0.49
  -2  -3   7    3.03    0.56
  -2  -3   7    3.43    0.75
  -2  -3   7    4.03    0.96
  -2  -3   7    2.59    0.58
   2   3  -7    0.46    5.84
   2   3  -7    4.74    4.08
  -2  -3   7    4.43    4.72
  -2  -3   7    5.85    4.35
   1   3  -7    5.08    1.44
   1   3  -7    3.09    0.96
  -1  -3   7    2.20    0.89
  -1  -3   7    2.56    0.82
   1   3  -7    1.86    5.58
   1   3  -7   -0.84    3.00
  -1  -3   7    7.11    5.44
  -1  -3   7    5.82    3.26
   0   3  -7    0.29    0.62
   0   3  -7    1.21    0.73
   0   3  -7    0.65    0.54
   0   3  -7   -0.53    0.82
   0  -3   7   -0.06    0.54
   0  -3   7    0.35    0.44
   0  -3   7    0.85    0.39
   0   3  -7   -2.89    2.89
   0   3  -7    1.53    1.85
   0  -3   7    0.67    1.49
  -1   3  -7  117.08   14.05
  -1   3  -7  111.46   13.32
  -1   3  -7  107.81    5.95
   1  -3   7  111.69    7.42
   1  -3   7  108.18    7.60
   1  -3   7   95.29    6.78
  -1   3  -7   89.16   11.87
  -1   3  -7   90.88    9.93
   1  -3   7   92.26   10.26
  -2   3  -7   13.55    2.56
  -2   3  -7   14.12    2.40
  -2   3  -7   10.67    1.23
  -2   3  -7   15.46    1.29
   2  -3   7   15.79    1.79
   2  -3   7   14.41    1.12
   2  -3   7   13.15    1.21
  -2   3  -7   25.50    7.10
  -2   3  -7   11.97    5.31
   2  -3   7   14.05    6.85
  -3   3  -7   -0.83    1.75
  -3   3  -7   -0.47    0.96
  -3   3  -7   -0.53    0.97
   3  -3   7   -0.89    1.03
   3  -3   7   -0.38    0.49
   3  -3   7    1.34    0.91
  -3   3  -7    1.83    7.30
  -3   3  -7   -1.54    5.48
  -4   3  -7   69.00    5.43
  -4   3  -7   74.03    7.77
  -4   3  -7   71.75    5.97
   4  -3   7   70.19    5.17
  -4   3  -7   76.08   12.27
  -4   3  -7   69.78   10.83
  -5   3  -7   56.18    4.37
  -5   3  -7   54.34    6.42
  -5   3  -7   53.96    4.68
   5  -3   7   64.59    4.39
   5  -3   7   52.22    4.37
  -5   3  -7   54.11   11.43
  -6   3  -7   12.23    2.83
  -6   3  -7   10.61    2.61
   6  -3   7   15.10    2.67
  -6   3  -7   -4.59   11.10
   8   2  -7   29.68    3.64
   8   2  -7   30.30    4.14
  -8  -2   7   25.12    3.49
  -8  -2   7   30.10    3.82
  -8  -2   7   32.30    4.56
  -8  -2   7    7.22   14.16
   7   2  -7   25.65    3.12
   7   2  -7   28.09    3.84
  -7  -2   7   26.34    2.75
  -7  -2   7   22.47    2.76
  -7  -2   7   26.74    3.58
  -7  -2   7   15.34   11.14
   6   2  -7  159.05   10.71
   6   2  -7  151.73   10.44
  -6  -2   7  156.14   15.40
  -6  -2   7  168.88   11.95
  -6  -2   7  167.62   13.72
  -6  -2   7  145.79   15.08
   5   2  -7  296.00   19.31
   5   2  -7  291.29   19.31
  -5  -2   7  332.47   25.40
  -5  -2   7  284.48   18.01
  -5  -2   7  316.03   18.31
  -5  -2   7  301.63   19.76
  -5  -2   7  299.15   25.18
   5   2  -7  252.99   18.73
  -5  -2   7  286.18   21.29
   4   2  -7   15.49    1.85
   4   2  -7   12.02    1.46
  -4  -2   7   13.86    1.57
  -4  -2   7   12.76    1.70
  -4  -2   7   13.88    1.69
  -4  -2   7   14.02    1.59
  -4  -2   7   15.95    1.76
  -4  -2   7   13.30    1.46
   4   2  -7   10.12   11.53
   4   2  -7    8.97    7.02
  -4  -2   7    9.42    5.49
  -4  -2   7   21.23    7.64
   3   2  -7  175.01   13.10
   3   2  -7  175.49   15.24
   3   2  -7  180.75   15.33
  -3  -2   7  163.60   13.43
  -3  -2   7  166.47   11.73
  -3  -2   7  185.12   16.24
  -3  -2   7  183.52   15.02
  -3  -2   7  183.48   12.74
   3   2  -7  188.31   23.06
   3   2  -7  147.18   11.80
  -3  -2   7  156.65   14.27
  -3  -2   7  188.21   22.93
   2   2  -7    0.20    0.47
   2   2  -7    0.22    0.34
   2   2  -7    0.16    0.32
   2   2  -7    0.30    0.24
  -2  -2   7    0.02    0.34
  -2  -2   7    0.75    0.31
  -2  -2   7   -0.02    0.21
  -2  -2   7    0.46    0.24
  -2  -2   7    0.51    0.19
   2   2  -7   -2.09    2.09
   2   2  -7    1.39    1.58
  -2  -2   7    0.68    1.33
  -2  -2   7    3.98    1.57
   1   2  -7  527.24   62.18
   1   2  -7  572.28   68.42
   1   2  -7  490.69   35.45
   1   2  -7  467.30   28.29
   1   2  -7  446.92   33.10
  -1  -2   7  489.02   31.55
  -1  -2   7  561.68   43.06
  -1  -2   7  489.72   39.28
  -1  -2   7  467.60   30.44
  -1  -2   7  477.96   33.51
   1   2  -7  505.31   58.86
   1   2  -7  473.61   39.31
  -1  -2   7  591.35   59.64
  -1  -2   7  504.49   54.79
   0   2  -7  457.33   29.59
   0   2  -7  588.50   68.07
   0   2  -7  608.27   58.25
   0   2  -7  509.46   36.44
   0  -2   7  466.33   31.74
   0  -2   7  424.19   32.88
   0  -2   7  489.71   29.50
   0  -2   7  473.07   31.31
   0   2  -7  475.96   52.86
   0   2  -7  455.83   45.89
   0  -2   7  505.88   62.85
   0  -2   7  589.41   67.87
  -1   2  -7   37.84    2.51
  -1   2  -7   34.17    2.46
  -1   2  -7   41.21    4.49
  -1   2  -7   37.09    2.25
  -1   2  -7   36.91    1.99
  -1   2  -7   41.00    4.88
   1  -2   7   38.27    2.53
   1  -2   7   30.69    2.59
   1  -2   7   35.10    2.89
   1  -2   7   32.50    3.48
   1  -2   7   30.03    3.50
  -1   2  -7   23.63    4.34
   1  -2   7   26.99    5.66
   1  -2   7   23.99    5.06
  -2   2  -7  140.16   14.63
  -2   2  -7  150.45   19.71
  -2   2  -7  153.03   11.18
  -2   2  -7  130.17    7.49
  -2   2  -7  144.39   12.11
   2  -2   7  129.73   10.04
   2  -2   7  141.52   10.71
  -2   2  -7  128.12   16.82
  -2   2  -7  151.12   15.72
   2  -2   7  107.96   13.35
  -3   2  -7    2.68    0.99
  -3   2  -7    3.86    0.93
  -3   2  -7    3.38    1.98
   3  -2   7    0.41    1.08
  -3   2  -7    6.20    6.32
   3  -2   7    6.80    8.68
  -4   2  -7    3.20    1.24
  -4   2  -7    2.60    1.25
  -4   2  -7   -1.91    2.34
   4  -2   7    4.84    1.64
  -4   2  -7    2.15    8.03
  -4   2  -7    1.39    7.55
  -5   2  -7   26.68    3.77
  -5   2  -7   25.97    2.69
  -5   2  -7   26.62    3.10
   5  -2   7   29.03    3.15
   5  -2   7   25.74    2.47
  -5   2  -7   24.27    9.14
  -6   2  -7    5.54    2.17
  -6   2  -7    5.97    2.29
   6  -2   7    7.05    2.42
  -6   2  -7   15.32   12.00
  -7   2  -7   -0.52    1.24
  -7   2  -7    0.62    1.40
   7  -2   7    1.56    1.40
  -7   2  -7    4.55    6.89
   8   1  -7    0.26    1.13
   8   1  -7   -0.87    0.87
  -8  -1   7   -0.29    0.65
  -8  -1   7    0.10    0.84
  -8  -1   7    0.63    4.02
   7   1  -7  164.85   11.95
   7   1  -7  147.79   11.18
  -7  -1   7  147.15   12.50
  -7  -1   7  143.26   11.63
  -7  -1   7  131.14   15.54
   6   1  -7   14.15    1.82
   6   1  -7   16.67    2.24
   6   1  -7   16.29    2.42
  -6  -1   7   18.62    2.34
  -6  -1   7   16.05    2.09
  -6  -1   7    9.50    2.53
  -6  -1   7    5.38    7.31
   5   1  -7   18.08    2.18
   5   1  -7   20.09    1.95
   5   1  -7   12.32    1.47
  -5  -1   7   16.72    1.83
  -5  -1   7   15.18    1.50
  -5  -1   7   13.07    1.68
  -5  -1   7   16.89    1.96
  -5  -1   7   18.46    1.36
  -5  -1   7   17.24    2.35
   5   1  -7   10.72    8.50
  -5  -1   7   33.43   10.76
  -5  -1   7    9.94    6.77
   4   1  -7   33.30    2.65
   4   1  -7   37.15    2.85
  -4  -1   7   33.51    2.92
  -4  -1   7   31.38    1.90
  -4  -1   7   36.27    2.80
  -4  -1   7   32.62    2.78
  -4  -1   7   34.28    2.11
   4   1  -7   21.28    6.75
  -4  -1   7   26.43    5.07
  -4  -1   7   34.24    8.02
   3   1  -7  155.42   13.24
   3   1  -7  166.08   14.07
   3   1  -7  161.97   12.66
   3   1  -7  163.15   16.12
  -3  -1   7  179.49   11.23
  -3  -1   7  174.24   15.72
  -3  -1   7  160.10   13.37
  -3  -1   7  158.68    7.97
  -3  -1   7  154.81    9.88
  -3  -1   7  170.54   14.34
   3   1  -7  149.17   20.68
   3   1  -7  157.26   11.86
  -3  -1   7  164.49   20.14
  -3  -1   7  151.08   13.97
   2   1  -7   17.36    2.00
   2   1  -7   17.71    2.06
   2   1  -7   20.84    1.95
   2   1  -7   19.37    1.91
   2   1  -7   14.77    1.89
  -2  -1   7   16.86    1.48
  -2  -1   7   19.60    1.66
  -2  -1   7   16.99    1.88
  -2  -1   7   16.46    1.17
  -2  -1   7   16.98    1.62
  -2  -1   7   14.45    1.53
  -2  -1   7   16.57    1.16
   2   1  -7   16.04    5.70
   2   1  -7   13.51    4.60
  -2  -1   7   14.34    3.62
  -2  -1   7   16.00    4.15
   1   1  -7   21.23    2.66
   1   1  -7   28.13    3.60
   1   1  -7   23.98    2.81
   1   1  -7   31.61    2.64
   1   1  -7   24.72    2.81
  -1  -1   7   26.08    2.06
  -1  -1   7   26.39    1.63
  -1  -1   7   29.32    2.26
  -1  -1   7   30.17    2.61
  -1  -1   7   23.43    1.96
   1   1  -7   18.80    4.18
  -1  -1   7   22.58    2.97
  -1  -1   7   24.35    3.96
   0   1  -7  173.81   12.23
   0   1  -7  231.12   25.65
   0   1  -7  215.50   22.45
   0   1  -7  158.31   13.62
   0   1  -7  170.66   14.79
   0  -1   7  176.06   10.86
   0  -1   7  187.24   19.66
   0  -1   7  164.05   11.51
   0  -1   7  164.63   11.53
   0   1  -7  170.56   20.97
   0   1  -7  167.26   15.84
   0  -1   7  206.54   26.46
   0  -1   7  163.79   16.72
  -1   1  -7  134.35   13.78
  -1   1  -7   98.35    7.18
  -1   1  -7  125.38    6.60
  -1   1  -7  128.31   10.77
  -1   1  -7  115.57    5.19
  -1   1  -7  128.83   14.17
   1  -1   7  127.60   12.76
   1  -1   7  114.55    9.50
   1  -1   7  112.06    7.50
   1  -1   7  110.26    9.23
   1  -1   7  120.01   10.88
  -1   1  -7  105.10   14.66
  -1   1  -7  118.42   12.26
   1  -1   7  111.55   20.10
   1  -1   7  115.93   12.97
  -2   1  -7   33.71    2.68
  -2   1  -7   30.23    3.72
  -2   1  -7   32.96    1.88
  -2   1  -7   34.11    4.36
  -2   1  -7   31.55    1.70
  -2   1  -7   28.81    2.45
   2  -1   7   33.02    2.45
   2  -1   7   30.10    2.38
   2  -1   7   30.78    2.96
   2  -1   7   28.14    2.69
   2  -1   7   35.01    2.61
  -2   1  -7   34.43    5.82
  -2   1  -7   19.04    4.93
   2  -1   7   35.54    6.33
   2  -1   7   18.98    4.83
  -3   1  -7    3.13    1.37
  -3   1  -7    2.91    0.75
   3  -1   7    1.39    0.80
   3  -1   7    1.22    0.80
  -3   1  -7   -0.49    5.63
  -3   1  -7   -2.88    4.98
   3  -1   7    4.36    6.03
  -4   1  -7    2.57    1.19
  -4   1  -7    3.41    1.08
  -4   1  -7    0.20    1.83
   4  -1   7    1.32    1.04
   4  -1   7    4.01    1.30
   4  -1   7    0.63    0.95
  -4   1  -7   -5.80    6.87
  -4   1  -7   -0.63    6.33
   4  -1   7    7.23    8.50
  -5   1  -7   15.82    1.86
  -5   1  -7   20.61    3.17
  -5   1  -7   13.65    1.97
   5  -1   7   11.13    1.73
   5  -1   7   12.66    2.00
  -5   1  -7   20.51    8.76
  -5   1  -7   11.28    9.68
  -6   1  -7    1.18    1.77
  -6   1  -7    3.09    2.07
   6  -1   7   -1.69    1.85
   6  -1   7    2.46    2.16
  -6   1  -7   16.41   10.47
  -7   1  -7   23.85    4.11
  -7   1  -7   26.42    3.97
   7  -1   7   28.42    3.36
  -7   1  -7   19.04   15.66
  -8   1  -7   22.41   21.43
   8   0  -7   -0.89    1.96
  -8   0   7    1.31    1.58
  -8   0   7   -1.96    1.99
  -8   0   7    4.11    7.58
   7   0  -7   -0.69    0.69
  -7   0   7    0.52    0.55
  -7   0   7    0.37    0.77
  -7   0   7   -3.02    3.14
   6   0  -7    2.32    1.55
  -6   0   7   -0.06    1.56
  -6   0   7   -0.77    1.29
  -6   0   7    0.23    5.36
   5   0  -7   37.42    2.46
   5   0  -7   41.40    3.12
  -5   0   7   34.08    2.62
  -5   0   7   43.56    3.32
  -5   0   7   37.50    3.25
  -5   0   7   10.69    8.65
  -5   0   7   53.10    7.83
   4   0  -7   72.78    4.64
   4   0  -7   95.58    7.09
  -4   0   7   89.09    4.91
  -4   0   7   97.31    8.15
  -4   0   7   86.24    4.13
  -4   0   7   91.18    7.05
   4   0  -7   79.59   10.21
  -4   0   7  100.68   10.93
  -4   0   7   99.47   12.21
   3   0  -7    0.22    0.38
   3   0  -7    0.09    0.32
   3   0  -7    0.47    0.47
   3   0  -7    0.64    0.45
  -3   0   7    0.15    0.24
  -3   0   7    0.22    0.13
  -3   0   7    0.11    0.30
  -3   0   7    0.49    0.28
  -3   0   7    0.23    0.28
   3   0  -7   -3.14    3.14
   3   0  -7    0.27    1.52
  -3   0   7   -1.06    1.06
  -3   0   7    1.43    1.32
   2   0  -7  453.67   40.82
   2   0  -7  404.90   44.48
   2   0  -7  460.24   39.14
   2   0  -7  438.86   38.05
   2   0  -7  492.48   55.37
  -2   0   7  439.17   20.43
  -2   0   7  478.48   43.59
  -2   0   7  417.26   21.60
  -2   0   7  388.42   34.93
  -2   0   7  446.06   25.28
  -2   0   7  470.16   38.24
   2   0  -7  468.25   47.45
   2   0  -7  390.77   28.39
  -2   0   7  435.47   37.10
  -2   0   7  458.17   44.68
   1   0  -7  470.29   59.00
   1   0  -7  535.75   52.71
   1   0  -7  439.78   36.08
   1   0  -7  495.72   50.87
   1   0  -7  497.09   54.06
  -1   0   7  457.13   29.91
  -1   0   7  431.32   28.06
  -1   0   7  441.39   23.59
  -1   0   7  528.80   59.47
  -1   0   7  458.90   24.76
   1   0  -7  458.02   63.90
   1   0  -7  457.91   63.95
  -1   0   7  468.29   50.46
  -1   0   7  467.83   57.05
   0   0  -7    1.56    0.58
   0   0  -7    1.76    0.60
   0   0  -7    1.94    0.60
   0   0  -7    2.64    0.72
   0   0  -7    2.41    0.61
   0   0  -7    1.41    0.38
   0   0   7    2.02    0.31
   0   0   7    1.40    0.48
   0   0   7    2.06    0.44
   0   0   7    2.03    0.58
   0   0  -7   -2.10    2.10
   0   0  -7    0.06    2.19
   0   0   7    4.80    1.94
   0   0   7    1.86    1.32
  -1   0  -7   38.08    2.38
  -1   0  -7   38.06    4.13
  -1   0  -7   39.96    3.78
  -1   0  -7   45.64    5.55
  -1   0  -7   38.43    3.94
   1   0   7   39.56    2.60
   1   0   7   38.52    4.28
   1   0   7   34.72    2.17
   1   0   7   39.43    3.88
   1   0   7   35.91    3.11
  -1   0  -7   37.23    5.01
  -1   0  -7   32.07    5.44
   1   0   7   34.11    4.35
   1   0   7   49.10    5.77
  -2   0  -7  163.50   12.98
  -2   0  -7  163.84   10.82
  -2   0  -7  159.39   18.08
  -2   0  -7  158.05   10.26
  -2   0  -7  151.60   19.86
  -2   0  -7  156.21   16.44
   2   0   7  160.59   11.20
   2   0   7  154.69   11.39
   2   0   7  172.33   10.61
   2   0   7  164.48   10.66
   2   0   7  173.26   14.46
  -2   0  -7  155.42   14.58
  -2   0  -7  162.13   20.41
   2   0   7  150.26   12.90
   2   0   7  185.54   15.37
  -3   0  -7  312.15   16.37
  -3   0  -7  378.39   17.71
  -3   0  -7  364.70   40.24
   3   0   7  360.24   24.81
   3   0   7  340.54   40.69
   3   0   7  356.48   25.63
   3   0   7  319.88   35.23
  -3   0  -7  406.21   30.44
  -3   0  -7  365.41   44.08
   3   0   7  390.29   43.63
   3   0   7  437.09   40.67
  -4   0  -7  253.96   25.19
  -4   0  -7  272.53   13.39
   4   0   7  290.88   20.88
   4   0   7  284.04   19.41
  -4   0  -7  330.20   19.70
  -4   0  -7  301.26   34.28
   4   0   7  291.29   28.05
  -5   0  -7   41.36    2.97
   5   0   7   37.59    3.45
   5   0   7   33.07    3.28
  -5   0  -7   24.19    9.93
  -5   0  -7   50.23    9.40
  -6   0  -7    1.20    1.24
  -6   0  -7    0.98    1.28
   6   0   7   -1.07    1.24
   6   0   7    0.27    1.28
  -6   0  -7    0.89    6.94
  -7   0  -7   10.50    2.26
  -7   0  -7    7.88    2.41
   7   0   7   10.08    2.83
  -7   0  -7    9.58   14.76
  -8   0  -7   22.95    3.95
  -8   0  -7   22.91    3.60
   8   0   7   24.23    4.45
  -8   0  -7   10.26   16.74
   7  -1  -7  116.56    9.08
  -7   1   7   99.23    8.27
  -7   1   7  105.24   10.07
  -7   1   7  118.22   17.93
   6  -1  -7   60.33    4.87
  -6   1   7   55.84    4.52
  -6   1   7   62.17    5.09
  -6   1   7   65.88   11.15
   5  -1  -7    0.99    0.72
   5  -1  -7   -0.85    1.25
  -5   1   7    1.80    0.68
  -5   1   7    0.92    1.15
  -5   1   7    1.15    1.07
  -5   1   7    2.81    4.86
  -5   1   7    0.53    7.21
   4  -1  -7   16.07    1.92
   4  -1  -7   13.72    1.06
  -4   1   7   16.21    1.81
  -4   1   7   16.16    1.06
  -4   1   7   18.13    1.47
  -4   1   7   13.04    1.25
  -4   1   7   16.54    2.10
   4  -1  -7    8.30    7.30
  -4   1   7   13.46    6.26
  -4   1   7   11.72    4.56
   3  -1  -7  388.58   24.41
   3  -1  -7  353.15   27.90
  -3   1   7  353.96   19.36
  -3   1   7  360.35   20.84
  -3   1   7  367.32   31.64
  -3   1   7  386.60   31.53
   3  -1  -7  308.31   26.13
  -3   1   7  363.88   33.54
  -3   1   7  414.75   32.42
   2  -1  -7  126.68    8.34
   2  -1  -7  130.12    9.27
   2  -1  -7  131.42   15.21
   2  -1  -7  130.92   10.26
   2  -1  -7  118.29   10.01
   2  -1  -7  119.96    8.56
  -2   1   7  114.57    6.98
  -2   1   7  133.54   11.92
  -2   1   7  121.69    7.52
   2  -1  -7  103.05   14.32
   2  -1  -7  114.64   16.02
  -2   1   7  111.40   13.94
   1  -1  -7   70.83    7.78
   1  -1  -7   71.33    4.82
   1  -1  -7   64.27    8.21
   1  -1  -7   69.39    7.25
   1  -1  -7   71.23    5.77
   1  -1  -7   64.69    6.44
  -1   1   7   70.30    4.06
  -1   1   7   74.89    7.33
  -1   1   7   61.54    3.87
   1  -1  -7   64.36    9.89
   1  -1  -7   58.12    6.41
  -1   1   7   60.55    6.31
  -1   1   7   66.14    8.51
   0  -1  -7  263.10   27.24
   0  -1  -7  221.34   14.52
   0  -1  -7  255.06   24.74
   0  -1  -7  268.89   24.35
   0  -1  -7  223.16   17.99
   0   1   7  218.95   11.25
   0   1   7  213.40   11.30
   0   1   7  206.31   13.31
   0   1   7  229.62   22.12
   0  -1  -7  213.80   22.76
   0  -1  -7  214.67   25.48
   0   1   7  255.29   26.36
   0   1   7  238.68   21.20
  -1  -1  -7  128.58   12.82
  -1  -1  -7  132.43   14.50
  -1  -1  -7  104.65    7.16
  -1  -1  -7  100.05    8.68
  -1  -1  -7  124.89   14.45
   1   1   7  111.06    5.57
   1   1   7  108.09    9.89
   1   1   7   97.97    6.11
   1   1   7   93.84    6.45
  -1  -1  -7  120.59   10.69
  -1  -1  -7  112.77   12.45
   1   1   7  121.07   13.09
   1   1   7  115.71   10.67
  -2  -1  -7  193.97   17.37
  -2  -1  -7  184.94   17.82
  -2  -1  -7  188.93   17.50
  -2  -1  -7  185.72   13.06
  -2  -1  -7  183.39   20.56
   2   1   7  191.14   13.02
   2   1   7  180.10   10.13
   2   1   7  184.33   14.71
   2   1   7  180.74   13.14
   2   1   7  184.87   10.85
  -2  -1  -7  194.05   20.09
  -2  -1  -7  194.28   19.35
   2   1   7  190.94   13.18
   2   1   7  194.86   22.59
  -3  -1  -7    0.83    0.63
  -3  -1  -7    0.23    0.62
  -3  -1  -7    0.57    0.27
  -3  -1  -7    0.08    0.59
  -3  -1  -7    0.96    0.62
  -3  -1  -7    0.35    0.39
   3   1   7    0.59    0.46
   3   1   7    1.32    0.54
   3   1   7   -0.59    0.59
   3   1   7    0.77    0.51
   3   1   7    0.53    0.49
  -3  -1  -7    1.40    2.94
  -3  -1  -7    4.78    3.08
   3   1   7   -2.56    2.56
   3   1   7    1.21    2.34
  -4  -1  -7   27.44    1.68
  -4  -1  -7   28.02    1.75
   4   1   7   26.02    2.87
   4   1   7   30.64    2.90
   4   1   7   23.45    2.11
   4   1   7   27.46    2.63
  -4  -1  -7   22.21    6.78
  -4  -1  -7   32.50    8.45
   4   1   7   32.93    8.06
   4   1   7   11.04    6.68
  -5  -1  -7  710.08   32.49
   5   1   7  716.76   46.28
   5   1   7  714.83   48.78
  -5  -1  -7  863.29   65.95
  -5  -1  -7  870.61   71.53
   5   1   7  932.41   71.41
  -6  -1  -7    1.52    1.47
   6   1   7   -1.79    1.79
   6   1   7    0.76    1.25
  -6  -1  -7   -0.60    8.17
  -7  -1  -7   33.12    3.49
  -7  -1  -7   35.75    3.14
   7   1   7   38.27    3.85
  -7  -1  -7   52.79   15.35
  -8  -1  -7   -1.07    1.70
  -8  -1  -7    3.19    1.85
   8   1   7   -0.35    2.09
  -8  -1  -7    6.18   14.32
   7  -2  -7    2.05    1.97
  -7   2   7    1.43    2.43
  -7   2   7    2.95    2.14
  -7   2   7    2.73    9.92
   6  -2  -7    0.30    1.25
  -6   2   7   -0.23    1.26
  -6   2   7    1.05    1.32
  -6   2   7   -2.76    5.01
   5  -2  -7    0.87    1.61
  -5   2   7    0.42    0.42
  -5   2   7    2.76    1.60
  -5   2   7    0.62    1.58
  -5   2   7   11.77    9.57
  -5   2   7   -2.13    6.81
   4  -2  -7  119.64    9.16
   4  -2  -7  138.55    6.50
  -4   2   7  117.37    9.45
  -4   2   7  124.25    8.44
  -4   2   7  127.93    8.65
  -4   2   7  137.13   14.34
  -4   2   7  122.70   11.06
   3  -2  -7    0.86    1.16
   3  -2  -7    1.14    1.08
  -3   2   7    2.66    1.47
  -3   2   7    1.76    1.03
  -3   2   7    3.65    1.11
   3  -2  -7   -4.93    6.34
  -3   2   7    2.12    3.38
  -3   2   7    4.47    5.50
   2  -2  -7    2.46    1.06
   2  -2  -7    0.64    0.84
  -2   2   7    2.07    0.87
  -2   2   7    1.55    1.06
  -2   2   7    1.23    0.71
   2  -2  -7    6.44    4.05
  -2   2   7   -2.79    2.79
  -2   2   7   -0.49    2.29
   1  -2  -7  129.63    6.91
   1  -2  -7  144.70   10.62
   1  -2  -7  160.56   10.62
   1  -2  -7  138.14    8.43
   1  -2  -7  139.10    9.33
   1  -2  -7  140.42   11.24
  -1   2   7  148.61    8.50
  -1   2   7  146.14    7.76
  -1   2   7  131.71    9.90
  -1   2   7  162.66   15.01
   1  -2  -7  148.18   10.55
   1  -2  -7  113.20   13.24
  -1   2   7  130.61   13.08
  -1   2   7  145.37   12.51
   0  -2  -7  306.15   25.71
   0  -2  -7  289.07   16.95
   0  -2  -7  312.83   20.59
   0  -2  -7  306.17   34.49
   0  -2  -7  323.76   23.71
   0   2   7  324.87   14.73
   0   2   7  276.80   15.62
   0   2   7  283.38   24.34
   0   2   7  296.49   16.19
   0  -2  -7  310.92   37.71
   0  -2  -7  316.43   44.98
   0   2   7  310.51   34.22
  -1  -2  -7   -0.27    0.58
  -1  -2  -7    0.36    0.60
  -1  -2  -7    2.36    1.11
  -1  -2  -7    1.15    1.08
  -1  -2  -7    0.92    0.63
   1   2   7   -0.01    0.85
   1   2   7    1.48    0.69
   1   2   7    0.95    0.76
   1   2   7    1.19    0.65
  -1  -2  -7   -0.36    4.88
  -1  -2  -7   -0.85    4.17
   1   2   7    2.83    3.36
   1   2   7    3.68    3.23
  -2  -2  -7    9.69    1.35
  -2  -2  -7    8.32    1.25
  -2  -2  -7    7.48    0.95
  -2  -2  -7   10.07    1.07
  -2  -2  -7   10.28    1.10
   2   2   7    9.85    1.09
   2   2   7    8.12    0.94
   2   2   7   10.30    0.91
   2   2   7   11.08    1.01
   2   2   7   10.65    1.08
   2   2   7    7.91    1.35
  -2  -2  -7    9.82    5.89
  -2  -2  -7    2.73    4.67
   2   2   7   10.72    4.62
   2   2   7   10.31    4.09
  -3  -2  -7  344.39   26.24
  -3  -2  -7  353.03   43.78
  -3  -2  -7  376.29   44.37
  -3  -2  -7  340.95   22.86
  -3  -2  -7  389.24   24.25
   3   2   7  350.55   27.68
   3   2   7  336.83   25.15
   3   2   7  348.70   15.79
   3   2   7  344.48   18.98
   3   2   7  348.04   21.07
   3   2   7  348.39   27.63
  -3  -2  -7  439.32   31.31
  -3  -2  -7  372.25   45.98
   3   2   7  414.29   25.87
   3   2   7  402.17   26.31
  -4  -2  -7   73.80    6.23
  -4  -2  -7   73.15    6.55
   4   2   7   72.76    4.66
   4   2   7   78.47    4.64
   4   2   7   77.11    5.34
   4   2   7   71.47    4.03
   4   2   7   76.49    4.42
  -4  -2  -7   64.85    9.81
  -4  -2  -7   92.56   11.82
   4   2   7   73.07    8.43
   4   2   7   98.46    9.67
  -5  -2  -7  125.84    7.57
  -5  -2  -7  136.49    7.77
   5   2   7  124.06    6.42
   5   2   7  128.21    7.00
   5   2   7  119.29    7.37
  -5  -2  -7  134.35   12.54
  -5  -2  -7  154.30   14.82
   5   2   7  121.54   13.39
  -6  -2  -7    0.41    1.06
  -6  -2  -7   -0.65    0.89
   6   2   7   -1.55    1.55
   6   2   7    1.02    1.73
   6   2   7   -0.30    1.40
  -6  -2  -7   -1.01   10.16
  -7  -2  -7   -0.88    1.40
   7   2   7    0.46    1.67
  -7  -2  -7  -11.19   11.19
  -8  -2  -7   12.05    3.02
  -8  -2  -7    9.50    2.38
   8   2   7    6.37    3.38
  -8  -2  -7   -9.20   18.57
   6  -3  -7   24.79    3.40
  -6   3   7   23.83    3.88
  -6   3   7   30.38   10.36
   5  -3  -7   10.92    2.32
  -5   3   7    6.77    2.03
  -5   3   7    9.53    7.48
  -5   3   7    6.58   10.10
   4  -3  -7   -0.11    0.39
  -4   3   7    0.20    0.62
  -4   3   7    0.45    0.51
  -4   3   7   -0.37    0.37
  -4   3   7    0.30    1.61
  -4   3   7   -0.45    2.04
   3  -3  -7  272.94   17.22
   3  -3  -7  281.36   19.26
   3  -3  -7  289.20   22.42
  -3   3   7  285.93   20.92
  -3   3   7  265.68   15.10
  -3   3   7  275.59   25.43
  -3   3   7  296.50   27.35
  -3   3   7  297.82   24.91
   2  -3  -7  241.13   18.39
   2  -3  -7  268.42   18.56
   2  -3  -7  222.41   13.22
   2  -3  -7  233.16   13.81
   2  -3  -7  233.22   19.45
  -2   3   7  260.29   17.82
  -2   3   7  241.11   15.30
  -2   3   7  267.73   16.86
   2  -3  -7  218.74   22.64
  -2   3   7  240.58   21.50
  -2   3   7  244.45   20.15
   1  -3  -7    3.72    0.99
   1  -3  -7    3.19    0.56
   1  -3  -7    4.87    1.28
  -1   3   7    5.72    1.04
  -1   3   7    2.24    0.85
   1  -3  -7   -3.85    6.01
  -1   3   7    1.08    3.38
  -1   3   7    8.53    3.64
   0  -3  -7  387.43   22.89
   0  -3  -7  472.95   38.02
   0  -3  -7  440.30   31.78
   0  -3  -7  413.17   24.57
   0   3   7  420.55   30.55
   0   3   7  442.26   22.35
   0   3   7  450.85   25.15
   0  -3  -7  424.73   77.04
   0   3   7  456.83   46.46
   0   3   7  456.94   54.92
  -1  -3  -7   36.64    2.77
  -1  -3  -7   41.71    3.79
   1   3   7   38.62    2.92
   1   3   7   31.38    2.60
   1   3   7   40.39    2.53
   1   3   7   42.01    2.71
  -1  -3  -7   40.06    7.45
  -1  -3  -7   20.40    6.54
   1   3   7   29.23    5.13
  -2  -3  -7   25.63    2.73
  -2  -3  -7   23.01    2.66
  -2  -3  -7   21.95    1.85
   2   3   7   24.74    1.87
   2   3   7   31.20    2.14
   2   3   7   26.66    1.83
   2   3   7   24.27    2.39
  -2  -3  -7   22.98    7.75
  -2  -3  -7   14.04    5.61
   2   3   7   32.32    5.18
   2   3   7   22.93    5.73
  -3  -3  -7   29.61    2.97
  -3  -3  -7   29.04    2.36
   3   3   7   32.39    1.95
   3   3   7   29.08    2.83
   3   3   7   32.81    1.99
   3   3   7   34.39    2.07
   3   3   7   29.00    2.27
   3   3   7   29.81    2.23
  -3  -3  -7   19.16    7.10
  -3  -3  -7   23.50    8.24
   3   3   7   27.84    6.03
  -4  -3  -7   -0.26    0.84
  -4  -3  -7    0.83    0.92
  -4  -3  -7    1.37    0.77
   4   3   7    0.81    0.90
   4   3   7    0.42    0.91
   4   3   7   -0.25    0.88
   4   3   7    1.17    0.80
   4   3   7    0.53    0.80
  -4  -3  -7   -2.48    8.05
  -4  -3  -7    8.28    6.75
   4   3   7   -4.54    5.40
   4   3   7    4.93    5.37
  -5  -3  -7    1.64    0.87
  -5  -3  -7    2.24    0.81
   5   3   7   -1.03    1.40
   5   3   7    2.50    1.38
   5   3   7    1.32    0.99
   5   3   7    1.53    1.21
   5   3   7    1.33    1.07
  -5  -3  -7    4.30    6.63
   5   3   7    1.42    3.39
  -6  -3  -7  139.42    8.11
  -6  -3  -7  134.43    8.37
   6   3   7  140.10    6.97
   6   3   7  141.56    7.48
   6   3   7  134.57    7.43
  -6  -3  -7  132.94   17.64
   6   3   7  150.10   16.40
  -7  -3  -7    8.72    2.08
   7   3   7    4.55    1.86
   7   3   7    6.27    2.38
   7   3   7    0.98    2.00
  -7  -3  -7    5.93   15.52
  -8  -3  -7    3.58    2.32
   8   3   7    5.57    3.12
  -8  -3  -7   16.89   23.57
   6  -4  -7   13.80    2.87
  -6   4   7   17.81    3.44
   5  -4  -7   -0.58    0.58
  -5   4   7    0.33    0.74
  -5   4   7    0.50    1.80
  -5   4   7   -0.76    2.24
   4  -4  -7    9.20    2.02
  -4   4   7    6.00    1.99
  -4   4   7    8.41    2.59
  -4   4   7   15.37    7.62
  -4   4   7    7.50    6.38
   3  -4  -7   17.96    2.43
  -3   4   7   22.36    2.75
  -3   4   7   19.82    2.70
  -3   4   7   17.64    2.38
  -3   4   7   32.40    6.05
  -3   4   7    9.57    5.96
   2  -4  -7   32.90    2.19
   2  -4  -7   36.02    2.91
  -2   4   7   36.38    2.81
  -2   4   7   31.00    3.41
  -2   4   7   37.77    3.11
  -2   4   7   28.33    5.86
  -2   4   7   23.99    5.91
   1  -4  -7    1.81    1.39
   1  -4  -7    0.53    0.80
   1  -4  -7    1.34    0.99
   1  -4  -7   -0.62    1.44
  -1   4   7    0.80    1.33
  -1   4   7   -0.44    1.41
   1  -4  -7    3.43    6.85
  -1   4   7    0.32    3.56
  -1   4   7    0.59    3.96
   0  -4  -7    2.76    0.99
   0  -4  -7    1.56    1.33
   0  -4  -7   -0.12    1.02
   0  -4  -7    0.52    0.86
   0   4   7    3.23    1.19
   0   4   7    0.83    1.19
   0  -4  -7    2.67    5.78
   0   4   7    4.45    3.61
   0   4   7    4.27    4.63
  -1  -4  -7   99.05    6.67
  -1  -4  -7   99.72    7.87
  -1  -4  -7  114.45    9.66
   1   4   7   95.04    6.96
   1   4   7  111.79    6.64
   1   4   7  108.25    7.24
  -1  -4  -7   80.69   12.12
   1   4   7   99.73   10.02
   1   4   7   93.02    9.63
  -2  -4  -7   -0.02    0.51
  -2  -4  -7   -0.39    0.62
  -2  -4  -7   -0.04    0.50
   2   4   7    0.14    0.57
   2   4   7    0.57    0.56
   2   4   7   -0.36    0.52
   2   4   7    0.62    0.53
  -2  -4  -7    2.68    3.42
   2   4   7   -2.05    2.05
   2   4   7   -1.36    2.14
  -3  -4  -7  268.85   21.92
  -3  -4  -7  292.26   22.08
   3   4   7  291.34   16.37
   3   4   7  293.57   14.94
   3   4   7  296.05   22.59
   3   4   7  259.46   16.89
  -3  -4  -7  283.18   36.42
   3   4   7  342.90   27.45
   3   4   7  320.55   20.66
  -4  -4  -7   18.47    1.85
  -4  -4  -7   19.80    2.34
  -4  -4  -7   17.44    1.95
   4   4   7   13.02    2.74
   4   4   7   19.61    2.14
   4   4   7   22.88    1.97
   4   4   7   20.10    1.66
   4   4   7   19.98    1.63
   4   4   7   16.77    2.08
   4   4   7   21.29    1.53
  -4  -4  -7   22.35    9.88
   4   4   7   18.44    6.81
   4   4   7   28.32    7.98
  -5  -4  -7   76.81    6.99
  -5  -4  -7   74.80    6.78
   5   4   7   71.96    4.91
   5   4   7   75.50    6.05
   5   4   7   78.17    4.49
   5   4   7   76.41    4.15
   5   4   7   95.28   12.37
  -6  -4  -7   50.05    4.16
  -6  -4  -7   45.09    4.08
   6   4   7   52.31    4.01
   6   4   7   53.18    3.46
   6   4   7   55.96    3.52
  -6  -4  -7   40.11   15.38
   6   4   7   70.20   12.86
  -7  -4  -7   26.26    2.85
  -7  -4  -7   24.80    2.75
   7   4   7   25.01    2.71
   7   4   7   24.45    3.08
   7   4   7   28.07    3.03
  -8  -4  -7   11.05    2.96
   8   4   7    3.89    3.01
   5  -5  -7   11.75    2.98
  -5   5   7   13.21    2.89
   4  -5  -7   13.23    2.60
  -4   5   7    8.31    3.12
   3  -5  -7   96.95    6.16
  -3   5   7   84.06    5.51
  -3   5   7   77.58    9.11
  -3   5   7    0.78    0.16
   2  -5  -7    4.78    1.31
   2  -5  -7    8.23    1.61
  -2   5   7    2.92    2.42
  -2   5   7    9.54    2.38
  -2   5   7    1.08    5.57
  -2   5   7    5.85    4.31
   1  -5  -7   25.95    2.79
   1  -5  -7   20.41    1.86
   1  -5  -7   23.41    2.18
  -1   5   7   30.06    3.00
  -1   5   7   31.42    3.48
  -1   5   7   21.51    5.19
  -1   5   7   23.36    5.06
   0  -5  -7   45.40    3.94
   0  -5  -7   57.24    3.75
   0  -5  -7   65.25    5.11
   0   5   7   52.42    5.07
   0   5   7   59.30    5.09
   0   5   7   48.34    7.26
   0   5   7   52.99    6.54
  -1  -5  -7  179.04   11.56
  -1  -5  -7  193.94   14.46
  -1  -5  -7  192.74   11.37
   1   5   7  195.15   14.70
   1   5   7  190.60   13.39
  -1  -5  -7  160.31   18.09
   1   5   7  205.28   15.79
   1   5   7  188.84   14.75
  -2  -5  -7   62.26    4.50
  -2  -5  -7   67.84    5.18
   2   5   7   54.23    4.31
   2   5   7   56.80    4.74
   2   5   7   54.12    4.20
  -2  -5  -7   46.41   10.25
   2   5   7   74.34    9.42
   2   5   7   68.11    8.43
  -3  -5  -7    1.40    1.38
  -3  -5  -7    1.07    1.56
   3   5   7    1.20    1.67
   3   5   7    3.87    1.82
   3   5   7    1.14    1.50
   3   5   7   -0.03    1.53
   3   5   7    6.53    7.08
   3   5   7    0.88    4.75
  -4  -5  -7   83.50    5.99
  -4  -5  -7   99.36    7.93
  -4  -5  -7   98.41    6.45
   4   5   7  102.52    6.84
   4   5   7   99.57    7.90
   4   5   7   95.99    5.75
   4   5   7  116.08   15.96
   4   5   7  108.60   11.83
  -5  -5  -7    2.68    1.58
  -5  -5  -7    7.09    1.88
   5   5   7    3.73    1.68
   5   5   7    6.13    1.29
   5   5   7    4.66    2.24
   5   5   7    4.27    2.06
   5   5   7   -0.51    8.83
  -6  -5  -7    0.55    1.37
  -6  -5  -7   -1.44    1.44
   6   5   7   -0.58    1.82
   6   5   7    0.91    1.32
   6   5   7   -0.84    1.56
   6   5   7    0.04    9.96
  -7  -5  -7    0.10    1.39
  -7  -5  -7   -0.61    1.51
   7   5   7   -1.07    1.75
   7   5   7   -0.15    1.95
   7   5   7   -0.24    2.21
  -8  -5  -7   -0.65    2.22
   8   5   7    3.69    3.25
   4  -6  -7   25.09    4.39
   4  -6  -7   37.42    3.87
  -4   6   7   32.52    4.01
   3  -6  -7    3.54    2.29
   3  -6  -7    7.78    2.74
  -3   6   7    8.80    3.82
   2  -6  -7    0.24    1.32
   2  -6  -7    1.89    1.52
  -2   6   7    1.03    1.53
  -2   6   7   -1.83    1.83
   1  -6  -7   80.46    6.66
   1  -6  -7   76.39    4.53
   1  -6  -7   94.17    7.01
  -1   6   7   86.67    7.73
  -1   6   7   82.76    7.27
  -1   6   7   73.66    6.78
  -1   6   7   91.42    7.06
   0  -6  -7   12.10    1.90
   0  -6  -7   12.81    2.07
   0   6   7    8.00    2.41
   0   6   7   10.33    2.57
   0   6   7    7.15    6.17
  -1  -6  -7    0.03    0.43
  -1  -6  -7    1.14    0.55
   1   6   7    0.94    0.59
   1   6   7   -0.24    0.54
   1   6   7   -1.08    1.72
  -2  -6  -7  113.67    8.71
  -2  -6  -7  114.82    6.49
   2   6   7  108.40    8.15
   2   6   7  115.57    9.61
   2   6   7  121.89   16.40
   2   6   7  116.56   12.14
  -3  -6  -7  100.13    5.91
  -3  -6  -7  112.88    7.67
   3   6   7  106.11    8.45
   3   6   7  105.34    7.60
   3   6   7  121.15   12.38
  -4  -6  -7   21.83    2.86
   4   6   7   21.89    3.26
   4   6   7   21.90    2.93
   4   6   7   10.36    9.40
  -5  -6  -7    4.26    2.08
  -5  -6  -7    7.73    2.56
   5   6   7    9.53    2.72
   5   6   7    4.93    2.74
   5   6   7    4.75    2.11
   5   6   7   -2.26   11.88
  -6  -6  -7   36.64    4.54
  -6  -6  -7   39.95    4.79
   6   6   7   34.38    4.26
   6   6   7   37.80    4.07
   6   6   7   36.65    3.88
   6   6   7   11.97   15.46
  -7  -6  -7    2.46    2.11
  -7  -6  -7    0.82    1.80
   7   6   7    4.50    2.20
   7   6   7   -1.47    2.73
   7   6   7    4.61    2.34
   7   6   7  -16.33   16.33
  -8  -6  -7   15.18    3.11
   8   6   7   18.76    3.60
   2  -7  -7   15.50    3.37
   2  -7  -7   13.83    2.90
  -2   7   7   15.46    4.65
   1  -7  -7   -0.23    0.62
   1  -7  -7    0.96    0.64
  -1   7   7   -0.27    0.42
  -1   7   7   -0.01    1.02
   0  -7  -7   25.91    3.19
   0  -7  -7   25.93    2.83
   0   7   7   18.74    3.93
   0   7   7   25.37    3.81
   0   7   7   20.24    7.79
   0   7   7   27.21    7.62
  -1  -7  -7   22.31    2.75
   1   7   7   12.04    3.04
   1   7   7   17.53    3.69
   1   7   7   12.41    8.78
  -2  -7  -7    0.93    2.20
   2   7   7   -1.31    2.63
   2   7   7    0.81    2.41
   2   7   7   -2.74    8.45
  -3  -7  -7   31.01    3.41
   3   7   7   25.10    3.88
   3   7   7   27.34    3.54
   3   7   7   31.99   10.05
  -4  -7  -7   66.31    5.95
   4   7   7   63.72    6.19
   4   7   7   56.55    5.27
   4   7   7   48.93   13.43
  -5  -7  -7   11.57    2.73
  -5  -7  -7   14.64    3.23
   5   7   7    8.90    3.62
   5   7   7   12.84    3.25
   5   7   7    2.21   13.58
  -6  -7  -7   11.22    3.23
  -6  -7  -7    4.45    3.20
   6   7   7    1.43    3.45
   6   7   7   10.18    3.94
   6   7   7    6.08   18.35
  -7  -7  -7    0.43    0.92
  -7  -7  -7    0.15    1.03
   7   7   7   -1.08    1.23
   7   7   7   -0.09    1.04
   7   7   7   -0.70    1.02
   7   7   7    6.77    6.55
   1  -8  -7    3.93    3.38
  -1   8   7    6.15    4.60
   0  -8  -7   10.20    3.16
   0   8   7    3.19    4.36
  -1  -8  -7    1.42    0.85
   1   8   7   -1.16    1.16
   1   8   7    1.24    1.04
   1   8   7    0.78    3.50
  -2  -8  -7    1.09    0.84
   2   8   7    0.20    1.16
   2   8   7   -1.05    1.05
   2   8   7    2.80    3.88
  -3  -8  -7   47.79    5.28
   3   8   7   47.55    5.65
   3   8   7   41.74    5.86
   3   8   7   30.75   14.99
  -4  -8  -7   -0.91    0.91
   4   8   7   -1.32    1.32
   4   8   7   -1.16    1.16
   4   8   7   -5.34    5.34
  -5  -8  -7    9.62    3.77
  -5  -8  -7    3.94    3.68
   5   8   7    9.26    3.79
   5   8   7   15.97    5.01
   5   8   7   -9.42   15.81
  -6  -8  -7    3.01    3.23
  -6  -8  -7    4.18    3.35
   6   8   7    5.53    4.47
   6   8   7    7.13    4.22
   6   8   7   17.63   24.71
   5   8  -8    2.14    4.38
   5   8  -8   -1.34    4.17
  -5  -8   8    1.91    3.56
   5   8  -8   28.94   18.63
   4   8  -8   10.50    4.15
   4   8  -8   12.78    4.87
   4   8  -8   -2.95   15.17
   3   8  -8   34.02    4.52
   3   8  -8   35.89    4.75
  -3  -8   8   47.78    5.47
   3   8  -8   35.29   16.25
   2   8  -8    9.39    3.35
   2   8  -8    7.65    3.67
  -2  -8   8    1.74    2.83
  -2  -8   8    1.51    2.87
   2   8  -8    7.98   11.42
   1   8  -8    7.33    3.57
   1   8  -8    1.89    3.72
  -1  -8   8    4.57    3.19
  -1  -8   8    6.48    3.10
   1   8  -8   15.74   13.43
   0   8  -8    3.68    3.60
   0   8  -8   -1.20    3.33
   0  -8   8    3.20    2.51
   0   8  -8    0.82   10.54
   6   7  -8   -0.20    3.77
  -6  -7   8   10.10    3.20
   6   7  -8   -6.67   15.85
   5   7  -8    3.12    2.33
   5   7  -8    2.25    2.22
  -5  -7   8    1.52    1.88
   5   7  -8   -9.55   10.18
   4   7  -8   10.39    3.47
   4   7  -8    9.61    3.08
  -4  -7   8    9.11    2.36
   4   7  -8   -0.41   12.31
   3   7  -8   15.60    3.43
   3   7  -8   17.83    3.36
   3   7  -8   27.93   12.19
   2   7  -8    4.92    2.61
   2   7  -8    8.90    3.15
  -2  -7   8   10.93    2.63
   2   7  -8   16.83   11.11
   1   7  -8   10.86    2.80
   1   7  -8    7.34    3.26
  -1  -7   8   13.19    2.55
  -1  -7   8   11.81    2.46
   1   7  -8    7.80   11.43
   0   7  -8   72.00    7.65
   0   7  -8   83.99    7.83
   0  -7   8   92.85    5.90
   0  -7   8  100.85    7.03
   0   7  -8   89.99   11.56
  -1   7  -8    9.06    3.73
  -1   7  -8    9.43    3.87
   1  -7   8   11.72    3.25
  -1   7  -8    5.47   11.42
  -2   7  -8   17.86    4.71
   2  -7   8   16.34    3.55
  -2   7  -8    7.61   10.71
   7   6  -8   18.44    4.77
  -7  -6   8   20.70    3.50
   6   6  -8   56.55    5.89
  -6  -6   8   63.30    6.61
   6   6  -8   24.85   14.79
   5   6  -8    0.84    2.61
  -5  -6   8   -1.58    1.58
   5   6  -8    2.28   10.87
   4   6  -8    6.09    2.81
   4   6  -8    6.65    2.45
  -4  -6   8   10.21    2.43
   4   6  -8   -2.95   10.85
   3   6  -8   43.51    4.27
   3   6  -8   35.90    3.57
  -3  -6   8   41.46    3.40
   3   6  -8   35.09    9.90
   2   6  -8   -1.37    1.78
   2   6  -8    1.41    1.63
  -2  -6   8    0.50    1.35
   2   6  -8   -2.43    6.46
   1   6  -8   -2.24    2.24
   1   6  -8    3.16    2.43
  -1  -6   8    1.52    1.56
  -1  -6   8    2.07    1.77
   1   6  -8   11.14    7.40
   0   6  -8    7.15    3.18
   0   6  -8   15.42    2.93
   0  -6   8   15.03    2.36
   0  -6   8   13.43    2.00
   0   6  -8   23.02    7.52
  -1   6  -8   32.63    3.87
  -1   6  -8   29.18    4.27
   1  -6   8   31.78    3.06
   1  -6   8   30.55    2.98
  -1   6  -8   28.69    9.43
  -1   6  -8   16.93   13.06
  -2   6  -8   22.35    3.98
  -2   6  -8   23.33    4.08
   2  -6   8   23.46    2.82
  -2   6  -8   34.36   12.42
  -3   6  -8    5.31    3.81
   3  -6   8    4.73    2.29
  -3   6  -8    2.31    8.08
  -4   6  -8    3.22    2.79
   4  -6   8   -0.83    1.96
   8   5  -8   73.96    7.09
  -8  -5   8   81.84    7.46
  -8  -5   8   85.98    6.85
  -8  -5   8   74.10    5.90
   7   5  -8    4.60    2.83
  -7  -5   8   -0.44    2.35
  -7  -5   8    1.76    2.77
  -7  -5   8   -2.35    2.53
   6   5  -8    3.62    3.09
  -6  -5   8    1.24    2.10
  -6  -5   8    0.55    1.68
  -6  -5   8    0.51    1.76
   6   5  -8    0.91   14.48
   5   5  -8    9.34    2.93
   5   5  -8    5.91    1.59
  -5  -5   8    6.72    1.75
  -5  -5   8    6.16    1.93
   5   5  -8    0.53   11.09
   4   5  -8    1.33    2.15
   4   5  -8    2.20    1.14
  -4  -5   8    3.35    1.20
  -4  -5   8    1.73    1.08
  -4  -5   8    0.80    1.55
   4   5  -8   -8.78    8.78
   3   5  -8    0.52    0.48
   3   5  -8   -0.48    1.05
   3   5  -8   -0.98    1.17
  -3  -5   8   -0.21    0.48
  -3  -5   8    0.15    0.50
  -3  -5   8   -0.60    0.66
   3   5  -8    0.33    7.46
   3   5  -8   -2.51    3.08
   2   5  -8    2.18    1.74
   2   5  -8    1.59    1.46
  -2  -5   8    0.40    1.15
   2   5  -8   -0.57    9.53
   2   5  -8    3.96    5.99
   1   5  -8   23.27    2.70
   1   5  -8   23.31    2.69
  -1  -5   8   23.26    2.14
  -1  -5   8   25.14    2.34
   1   5  -8   15.57   10.59
   1   5  -8   18.25    6.72
   0   5  -8    3.99    2.09
   0   5  -8    1.05    2.25
   0  -5   8    0.33    1.33
   0  -5   8    2.55    1.31
   0   5  -8   -1.61    9.63
   0   5  -8    7.44    6.41
  -1   5  -8   10.96    2.75
  -1   5  -8    6.16    2.98
   1  -5   8    8.68    1.61
   1  -5   8    7.80    1.58
  -1   5  -8   22.12   10.57
  -1   5  -8    6.77    8.46
  -2   5  -8   13.69    3.37
  -2   5  -8   15.40    3.13
   2  -5   8   18.22    2.39
  -2   5  -8   11.61    9.80
  -2   5  -8    6.41    9.02
  -3   5  -8   26.69    4.01
   3  -5   8   31.83    2.73
  -3   5  -8   36.99   12.77
  -3   5  -8   40.98   10.45
  -4   5  -8    1.71    3.73
   4  -5   8    9.75    2.65
  -4   5  -8    3.96    9.26
   5  -5   8   -1.81    2.49
  -5   5  -8    4.24   10.16
   8   4  -8    2.46    3.80
  -8  -4   8    0.33    2.28
  -8  -4   8    3.25    2.72
  -8  -4   8    7.97    3.52
   7   4  -8   60.89    5.86
   7   4  -8   52.86    4.61
  -7  -4   8   61.89    5.06
  -7  -4   8   64.72    5.27
  -7  -4   8   60.28    6.19
  -7  -4   8   46.37   16.08
   6   4  -8   21.03    3.52
   6   4  -8   24.54    2.59
  -6  -4   8   24.70    2.82
  -6  -4   8   26.00    2.72
  -6  -4   8   26.87    2.89
   6   4  -8   19.29   14.90
  -6  -4   8   10.91   12.56
   5   4  -8   12.96    2.34
   5   4  -8    8.56    1.91
  -5  -4   8   14.43    2.06
  -5  -4   8   14.26    2.01
  -5  -4   8   11.64    1.86
   5   4  -8   14.60   11.10
  -5  -4   8    4.48    9.62
   4   4  -8   12.05    1.64
   4   4  -8   11.12    2.47
   4   4  -8    8.88    1.38
  -4  -4   8   11.68    1.40
  -4  -4   8    7.88    1.89
  -4  -4   8    8.91    1.69
  -4  -4   8   12.84    1.50
   4   4  -8   11.52   15.55
   4   4  -8    9.24    8.69
  -4  -4   8    1.19    7.90
   3   4  -8   54.87    4.75
   3   4  -8   53.37    3.25
   3   4  -8   52.84    3.29
  -3  -4   8   59.95    3.91
  -3  -4   8   57.52    3.86
  -3  -4   8   55.96    3.78
  -3  -4   8   55.50    3.68
   3   4  -8   37.66    7.79
   3   4  -8   46.21   12.24
  -3  -4   8   36.59    8.55
   2   4  -8   57.45    4.58
   2   4  -8   55.75    3.20
   2   4  -8   56.54    5.20
  -2  -4   8   51.40    3.06
  -2  -4   8   53.35    2.96
  -2  -4   8   54.31    3.70
  -2  -4   8   49.54    3.72
   2   4  -8   41.92   10.28
   2   4  -8   42.33    6.49
  -2  -4   8   39.11    6.60
   1   4  -8   58.21    5.79
   1   4  -8   59.74    5.97
   1   4  -8   66.32    3.62
  -1  -4   8   54.70    4.02
  -1  -4   8   65.26    4.72
  -1  -4   8   60.51    4.02
   1   4  -8   49.00    6.39
  -1  -4   8   35.49    6.51
   0   4  -8    3.32    1.34
   0   4  -8    4.78    1.53
   0   4  -8    6.96    1.65
   0  -4   8    4.68    1.07
   0  -4   8    5.31    1.57
   0  -4   8    5.63    1.14
   0   4  -8   -1.13    5.70
   0   4  -8   -5.34    5.34
   0  -4   8    0.98    6.16
  -1   4  -8  155.24    9.67
  -1   4  -8  148.76   14.44
  -1   4  -8  148.11   12.04
   1  -4   8  147.60    9.26
   1  -4   8  149.76    9.33
  -1   4  -8  132.74   16.35
  -1   4  -8  130.40   16.14
   1  -4   8  101.30   12.55
  -2   4  -8   32.35    3.56
  -2   4  -8   35.97    2.97
  -2   4  -8   34.49    4.30
  -2   4  -8   34.47    1.96
   2  -4   8   32.60    2.72
   2  -4   8   32.52    2.71
  -2   4  -8   34.71    8.16
  -2   4  -8   38.01    7.86
  -3   4  -8    6.56    3.13
  -3   4  -8   11.40    1.63
  -3   4  -8   14.07    1.61
   3  -4   8   13.19    2.10
  -3   4  -8   23.41    8.77
  -3   4  -8   27.11    9.46
  -4   4  -8   44.10    5.31
   4  -4   8   46.15    4.06
  -4   4  -8   42.89   10.20
  -5   4  -8    0.13    1.84
   5  -4   8    2.14    1.00
  -5   4  -8    1.74    5.07
  -6   4  -8    1.92    3.00
  -6   4  -8   17.91   15.59
   8   3  -8   64.18    6.04
   8   3  -8   56.28    5.17
  -8  -3   8   61.52    4.58
  -8  -3   8   68.24    6.59
  -8  -3   8   56.09    5.62
  -8  -3   8   19.38   18.73
   7   3  -8   47.13    4.95
   7   3  -8   50.97    4.20
  -7  -3   8   47.28    4.66
  -7  -3   8   51.06    4.36
  -7  -3   8   55.47    5.28
  -7  -3   8   34.32   12.94
   6   3  -8    1.53    1.69
   6   3  -8    4.04    2.40
  -6  -3   8    3.08    1.70
  -6  -3   8    2.18    1.84
  -6  -3   8   -0.91    1.66
  -6  -3   8    3.07    1.23
  -6  -3   8    9.70    9.92
   5   3  -8   65.12    4.27
   5   3  -8   56.88    4.92
  -5  -3   8   60.36    4.39
  -5  -3   8   55.83    5.05
  -5  -3   8   57.76    5.28
   5   3  -8   41.33   11.50
  -5  -3   8   46.72    9.97
   4   3  -8  211.36   16.18
   4   3  -8  202.01   14.78
  -4  -3   8  220.59   18.34
  -4  -3   8  207.58   15.24
  -4  -3   8  219.20   16.84
  -4  -3   8  236.46   18.43
   4   3  -8  184.67   14.75
  -4  -3   8  188.80   21.52
  -4  -3   8  196.04   15.75
   3   3  -8    1.87    1.83
   3   3  -8    2.80    1.26
   3   3  -8    1.72    0.85
  -3  -3   8    2.18    0.91
  -3  -3   8    1.65    1.16
  -3  -3   8    2.36    1.21
  -3  -3   8    2.09    0.77
  -3  -3   8    1.05    1.46
   3   3  -8    9.33   10.71
   3   3  -8   -3.06    5.59
  -3  -3   8    1.23    5.24
  -3  -3   8   11.54    9.15
   2   3  -8   21.43    1.82
   2   3  -8   21.49    2.65
   2   3  -8   18.71    1.39
  -2  -3   8   22.02    1.87
  -2  -3   8   20.84    1.62
  -2  -3   8   20.56    1.48
  -2  -3   8   22.87    2.04
   2   3  -8   19.70    7.76
   2   3  -8   16.53    5.34
  -2  -3   8   16.01    4.57
  -2  -3   8   18.15    7.19
   1   3  -8   62.33    5.12
   1   3  -8   71.43    7.65
   1   3  -8   79.92    7.79
   1   3  -8   77.49    4.40
  -1  -3   8   80.37    5.06
  -1  -3   8   66.80    4.81
  -1  -3   8   66.56    4.34
   1   3  -8   64.00    9.52
   1   3  -8   63.24    6.61
  -1  -3   8   49.67    7.15
   0   3  -8   54.39    5.04
   0   3  -8   55.85    5.01
   0   3  -8   54.14    3.88
   0  -3   8   47.01    3.54
   0  -3   8   57.50    3.91
   0  -3   8   60.62    3.66
   0   3  -8   19.47    6.75
   0   3  -8   36.66    6.21
   0  -3   8   37.14    6.41
  -1   3  -8    1.44    1.25
  -1   3  -8    2.34    0.69
  -1   3  -8    0.10    1.35
   1  -3   8    0.91    0.58
   1  -3   8    1.07    0.60
  -1   3  -8    1.02    4.07
  -1   3  -8   -1.49    4.24
   1  -3   8    0.87    4.56
  -2   3  -8   -0.06    1.99
  -2   3  -8    3.72    1.92
  -2   3  -8    1.41    0.81
  -2   3  -8    2.49    0.83
  -2   3  -8    2.80    0.80
   2  -3   8    3.29    1.27
   2  -3   8    1.10    0.72
  -2   3  -8    5.10    6.80
  -2   3  -8   -5.69    5.69
   2  -3   8   -1.13    6.87
  -3   3  -8    0.90    0.90
  -3   3  -8   -0.34    0.98
  -3   3  -8    1.19    1.02
  -3   3  -8   -1.89    1.89
   3  -3   8    1.32    0.90
  -3   3  -8    0.92    6.83
  -3   3  -8    1.40    6.12
  -4   3  -8   22.85    3.58
  -4   3  -8   23.80    2.47
  -4   3  -8   23.54    2.28
   4  -3   8   20.40    2.38
  -4   3  -8   -3.26   11.13
  -4   3  -8   24.00   10.32
  -5   3  -8   -0.02    0.45
  -5   3  -8    0.75    0.88
  -5   3  -8   -0.22    0.54
   5  -3   8   -0.15    0.51
   5  -3   8   -0.31    0.48
  -5   3  -8   -0.61    2.98
  -6   3  -8   22.06    5.25
   6  -3   8   28.53    3.69
  -6   3  -8   29.38   14.28
   8   2  -8   -0.28    0.97
   8   2  -8   -0.85    1.25
  -8  -2   8    0.19    0.98
  -8  -2   8   -0.02    0.93
  -8  -2   8   -1.27    1.27
  -8  -2   8    1.44    5.34
   7   2  -8    4.18    2.77
   7   2  -8    2.35    2.58
  -7  -2   8   -0.83    2.26
  -7  -2   8    1.23    2.17
  -7  -2   8    0.27    2.00
  -7  -2   8    2.49   11.57
   6   2  -8   60.53    4.43
   6   2  -8   64.16    4.68
  -6  -2   8   67.79    4.91
  -6  -2   8   64.34    4.73
  -6  -2   8   62.49    6.37
  -6  -2   8   50.61   10.27
   5   2  -8    0.34    1.10
   5   2  -8   -0.04    0.99
  -5  -2   8    0.07    0.59
  -5  -2   8   -0.75    0.75
  -5  -2   8    2.29    1.12
  -5  -2   8    0.47    0.77
  -5  -2   8    1.07    0.88
   5   2  -8    4.96    6.41
  -5  -2   8   -2.62    4.19
   4   2  -8    2.08    1.16
   4   2  -8    0.55    1.55
  -4  -2   8    2.89    1.23
  -4  -2   8    1.33    1.04
  -4  -2   8    1.62    1.12
  -4  -2   8    2.19    1.22
   4   2  -8    3.60   12.07
   4   2  -8   -7.23    7.23
  -4  -2   8    4.66    4.97
  -4  -2   8   -2.91    8.31
   3   2  -8  186.44   14.88
   3   2  -8  196.28   13.81
   3   2  -8  193.04   16.21
  -3  -2   8  211.58   13.50
  -3  -2   8  182.99   13.73
  -3  -2   8  198.66   17.72
  -3  -2   8  196.68   20.79
  -3  -2   8  204.59   15.92
   3   2  -8  183.19   20.97
   3   2  -8  160.77   13.70
  -3  -2   8  225.59   25.56
  -3  -2   8  180.02   18.84
   2   2  -8  386.32   32.87
   2   2  -8  363.99   30.84
   2   2  -8  381.69   29.64
   2   2  -8  383.52   35.29
  -2  -2   8  381.78   30.95
  -2  -2   8  385.66   35.06
  -2  -2   8  402.53   32.23
  -2  -2   8  360.16   23.70
   2   2  -8  353.68   44.00
   2   2  -8  326.02   25.60
  -2  -2   8  354.83   36.63
  -2  -2   8  368.71   39.00
   1   2  -8    0.07    1.05
   1   2  -8    1.00    0.81
   1   2  -8    1.40    0.51
   1   2  -8    2.49    1.15
   1   2  -8    1.20    1.03
   1   2  -8    0.57    0.54
  -1  -2   8    0.12    0.29
  -1  -2   8    1.79    0.87
  -1  -2   8    0.22    1.13
  -1  -2   8    0.75    0.45
  -1  -2   8    1.42    0.66
   1   2  -8   -1.80    3.16
   1   2  -8    1.62    4.90
  -1  -2   8    0.93    2.41
  -1  -2   8    2.53    4.23
   0   2  -8  563.55   38.63
   0   2  -8  537.39   38.08
   0   2  -8  649.37   59.22
   0   2  -8  618.54   61.92
   0  -2   8  622.82   42.73
   0  -2   8  618.60   37.76
   0  -2   8  509.61   32.56
   0   2  -8  590.50   68.05
   0   2  -8  544.78   56.39
   0  -2   8  669.43   81.35
   0  -2   8  617.81   82.56
  -1   2  -8  559.15   62.54
  -1   2  -8  595.39   47.02
  -1   2  -8  579.17   58.56
  -1   2  -8  510.04   31.22
  -1   2  -8  515.50   28.56
  -1   2  -8  531.52   30.95
   1  -2   8  563.45   38.05
   1  -2   8  497.25   37.07
   1  -2   8  505.83   42.01
  -1   2  -8  540.49   52.56
  -1   2  -8  503.11   35.09
   1  -2   8  550.30   50.66
  -2   2  -8   32.11    2.25
  -2   2  -8   28.31    2.16
  -2   2  -8   25.75    1.60
  -2   2  -8   28.11    3.52
  -2   2  -8   28.25    3.79
   2  -2   8   22.47    2.00
   2  -2   8   27.60    2.21
  -2   2  -8   26.89    6.53
  -2   2  -8   20.85    5.38
  -3   2  -8    8.61    1.26
  -3   2  -8    8.58    2.28
  -3   2  -8    9.45    1.38
   3  -2   8    8.58    1.50
  -3   2  -8   14.04    7.11
  -3   2  -8   11.87    6.68
   3  -2   8    0.92    8.49
  -4   2  -8   89.75    7.27
  -4   2  -8   83.79    8.01
  -4   2  -8   88.91    7.10
   4  -2   8   74.58    5.18
   4  -2   8   82.51    5.57
  -4   2  -8   91.84   11.54
  -4   2  -8  111.74   12.65
  -5   2  -8   13.44    2.06
  -5   2  -8   11.84    3.30
  -5   2  -8   11.37    2.00
   5  -2   8   10.50    1.94
   5  -2   8   10.77    1.80
  -5   2  -8   17.64   11.27
  -6   2  -8   19.45    2.86
  -6   2  -8   16.21    2.86
   6  -2   8   17.24    2.62
  -6   2  -8   18.24   13.54
  -7   2  -8   -2.26    2.33
  -7   2  -8   -2.44    2.53
   7  -2   8    0.04    2.56
  -7   2  -8   12.75   15.13
   8   1  -8   60.66    6.36
   8   1  -8   63.74    5.07
  -8  -1   8   51.71    6.15
  -8  -1   8   56.97    5.56
  -8  -1   8   49.05   20.04
   7   1  -8   11.17    2.89
   7   1  -8    6.97    2.85
  -7  -1   8    6.16    2.56
  -7  -1   8    7.36    1.95
  -7  -1   8    3.97   11.39
   6   1  -8   -0.35    0.82
   6   1  -8   -0.65    0.97
  -6  -1   8    0.54    1.03
  -6  -1   8    0.25    0.81
  -6  -1   8    0.39    0.75
  -6  -1   8    2.60    3.61
   5   1  -8   45.73    3.55
   5   1  -8   45.12    3.46
  -5  -1   8   37.17    3.10
  -5  -1   8   37.24    2.52
  -5  -1   8   40.67    3.97
  -5  -1   8   31.05    3.06
  -5  -1   8   41.19    2.94
  -5  -1   8   38.16    3.26
  -5  -1   8   40.38   10.52
  -5  -1   8   44.78    7.72
   4   1  -8  135.10   10.11
   4   1  -8  144.36   10.24
  -4  -1   8  133.72    7.59
  -4  -1   8  129.64    7.74
  -4  -1   8  141.57   12.38
  -4  -1   8  136.23   10.20
  -4  -1   8  143.79   11.64
   4   1  -8  115.62   11.33
  -4  -1   8  148.76   14.51
  -4  -1   8  139.26   14.34
   3   1  -8    0.68    1.16
   3   1  -8    2.67    1.17
   3   1  -8    2.09    1.15
   3   1  -8    2.37    1.15
  -3  -1   8    0.53    0.85
  -3  -1   8    3.52    0.78
  -3  -1   8    2.35    0.67
  -3  -1   8    0.69    0.63
  -3  -1   8    2.04    0.78
   3   1  -8    4.55    6.88
   3   1  -8   -1.77    5.50
  -3  -1   8   -4.51    4.51
  -3  -1   8   -1.34    3.74
   2   1  -8   30.82    3.24
   2   1  -8   34.69    3.28
   2   1  -8   28.96    3.21
   2   1  -8   35.77    3.04
   2   1  -8   36.59    3.28
  -2  -1   8   34.37    3.16
  -2  -1   8   31.88    2.83
  -2  -1   8   28.09    2.20
  -2  -1   8   29.17    2.42
  -2  -1   8   32.91    2.00
   2   1  -8   21.48    6.46
   2   1  -8   24.69    4.37
  -2  -1   8   23.98    5.18
  -2  -1   8   29.02    5.35
   1   1  -8  236.22   26.92
   1   1  -8  222.01   27.99
   1   1  -8  269.12   27.52
   1   1  -8  293.72   29.76
   1   1  -8  289.45   28.53
  -1  -1   8  263.81   14.19
  -1  -1   8  263.06   14.46
  -1  -1   8  264.81   21.97
  -1  -1   8  257.01   24.47
  -1  -1   8  293.82   29.76
  -1  -1   8  265.80   19.73
   1   1  -8  232.61   27.67
   1   1  -8  229.82   23.83
  -1  -1   8  295.86   37.65
  -1  -1   8  253.83   36.16
   0   1  -8    4.14    0.98
   0   1  -8    2.79    0.78
   0   1  -8    3.62    1.11
   0   1  -8    2.23    0.66
   0   1  -8    3.11    1.09
   0  -1   8    4.74    0.64
   0  -1   8    3.35    0.72
   0  -1   8    3.42    0.70
   0  -1   8    2.91    1.00
   0  -1   8    3.78    0.83
   0   1  -8    6.83    4.68
   0   1  -8   -2.43    3.32
   0  -1   8    6.96    4.13
   0  -1   8    0.35    2.57
  -1   1  -8   56.57    4.58
  -1   1  -8   56.63    5.51
  -1   1  -8   53.59    5.01
  -1   1  -8   52.48    3.02
  -1   1  -8   45.86    3.58
  -1   1  -8   48.57    2.29
   1  -1   8   45.17    3.88
   1  -1   8   46.56    4.71
   1  -1   8   41.26    2.97
   1  -1   8   49.38    3.33
   1  -1   8   52.71    3.23
   1  -1   8   45.62    3.93
  -1   1  -8   43.31    7.13
  -1   1  -8   44.63    5.92
   1  -1   8   49.80    8.97
   1  -1   8   35.12    5.04
  -2   1  -8   17.55    1.16
  -2   1  -8   16.57    2.41
  -2   1  -8   19.63    2.68
  -2   1  -8   22.00    2.24
  -2   1  -8   20.18    1.29
   2  -1   8   19.34    2.40
   2  -1   8   21.35    1.74
   2  -1   8   18.23    2.11
   2  -1   8   16.47    1.55
  -2   1  -8   22.80    6.28
  -2   1  -8   12.51    4.59
   2  -1   8   11.94    6.10
   2  -1   8    8.90    4.07
  -3   1  -8   77.25    4.80
  -3   1  -8   70.39    9.32
   3  -1   8   62.66    5.23
   3  -1   8   74.25    6.38
  -3   1  -8   70.64    8.87
  -3   1  -8   71.26   10.27
   3  -1   8   52.22    8.49
  -4   1  -8  418.74   29.86
  -4   1  -8  353.00   36.46
  -4   1  -8  432.61   29.06
   4  -1   8  375.66   30.69
   4  -1   8  399.34   26.97
  -4   1  -8  473.81   47.42
   4  -1   8  426.96   44.67
  -5   1  -8    1.20    1.51
  -5   1  -8    2.90    1.33
  -5   1  -8    2.51    2.48
   5  -1   8    1.96    1.49
   5  -1   8    1.37    1.65
  -5   1  -8   -0.30    8.39
  -6   1  -8   40.08    3.75
  -6   1  -8   34.68    3.73
   6  -1   8   24.51    2.80
   6  -1   8   30.66    3.22
  -6   1  -8   24.61   12.56
  -7   1  -8   -1.52    1.52
  -7   1  -8    0.84    1.47
   7  -1   8   -0.47    1.52
  -7   1  -8   -8.33    8.43
   8   0  -8    3.02    3.63
  -8   0   8    2.71    3.21
  -8   0   8    0.60    3.31
  -8   0   8    1.07   13.70
   7   0  -8    3.42    2.54
  -7   0   8    4.80    2.70
  -7   0   8    0.42    1.86
  -7   0   8    1.64    9.94
   6   0  -8    4.69    1.96
  -6   0   8    5.55    1.98
  -6   0   8    5.78    1.98
  -6   0   8    1.09    7.39
   5   0  -8   73.82    5.57
   5   0  -8   75.14    5.43
  -5   0   8   70.01    5.71
  -5   0   8   72.33    5.39
  -5   0   8   64.44    3.26
  -5   0   8   68.52    3.85
  -5   0   8   84.53    9.41
  -5   0   8   89.18   12.45
   4   0  -8    9.83    1.66
   4   0  -8   10.30    1.66
  -4   0   8    9.97    1.25
  -4   0   8   10.28    1.68
  -4   0   8    9.08    1.05
  -4   0   8   10.44    0.93
   4   0  -8    2.07    7.23
  -4   0   8   11.86    6.88
  -4   0   8    3.71    4.89
   3   0  -8    8.44    1.44
   3   0  -8    7.27    1.28
  -3   0   8    6.38    0.97
  -3   0   8    9.90    1.33
  -3   0   8    9.13    1.06
  -3   0   8    7.03    0.55
   3   0  -8   -0.90    5.58
  -3   0   8   14.10    4.05
  -3   0   8    8.14    4.73
   2   0  -8    1.44    0.66
   2   0  -8    0.52    0.69
   2   0  -8    0.53    0.57
   2   0  -8    1.61    0.70
  -2   0   8    1.96    0.17
  -2   0   8    1.05    0.39
  -2   0   8    1.65    0.58
  -2   0   8    1.70    0.23
  -2   0   8    2.01    0.52
   2   0  -8    2.95    3.09
   2   0  -8   -2.26    2.65
  -2   0   8    0.18    1.69
  -2   0   8   -0.03    2.09
   1   0  -8  108.18   10.29
   1   0  -8  101.84   12.96
   1   0  -8  126.48   11.28
   1   0  -8  116.52   12.76
   1   0  -8  136.01   12.27
  -1   0   8  106.83    6.61
  -1   0   8  108.90    7.89
  -1   0   8  113.79    6.43
  -1   0   8  109.95    5.54
  -1   0   8  129.48   10.59
   1   0  -8  116.23   17.80
   1   0  -8  102.67   12.37
  -1   0   8  107.30   11.67
  -1   0   8  105.56   15.25
   0   0  -8    0.14    0.32
   0   0  -8    0.06    0.23
   0   0  -8    0.01    0.26
   0   0  -8    0.11    0.36
   0   0  -8    0.09    0.36
   0   0  -8    0.72    0.38
   0   0   8    0.34    0.30
   0   0   8   -0.12    0.25
   0   0   8    0.07    0.14
   0   0   8    0.07    0.28
   0   0  -8   -0.21    1.13
   0   0  -8    1.06    1.53
   0   0   8   -0.42    1.04
   0   0   8    0.75    0.89
  -1   0  -8   24.30    2.60
  -1   0  -8   25.68    2.54
  -1   0  -8   23.19    2.31
  -1   0  -8   24.38    1.84
  -1   0  -8   23.66    2.50
   1   0   8   25.24    1.86
   1   0   8   25.13    2.16
   1   0   8   24.76    1.74
   1   0   8   22.98    2.15
  -1   0  -8   17.16    4.25
  -1   0  -8   17.48    5.10
   1   0   8   16.54    3.92
   1   0   8   22.74    4.51
  -2   0  -8  296.45   31.96
  -2   0  -8  302.66   25.48
  -2   0  -8  280.17   34.10
  -2   0  -8  266.93   14.17
  -2   0  -8  298.50   37.16
  -2   0  -8  248.34   16.26
   2   0   8  291.09   22.29
   2   0   8  284.90   22.82
   2   0   8  299.65   20.37
   2   0   8  275.78   16.95
  -2   0  -8  313.88   21.75
  -2   0  -8  272.86   34.09
   2   0   8  281.45   35.62
   2   0   8  318.59   27.59
  -3   0  -8    0.59    0.30
  -3   0  -8   -0.38    0.38
  -3   0  -8   -0.24    0.46
  -3   0  -8    0.37    0.98
  -3   0  -8    0.52    0.34
   3   0   8   -0.64    0.64
   3   0   8    0.21    0.58
   3   0   8    0.20    0.86
   3   0   8    0.68    0.86
  -3   0  -8   -2.19    4.18
  -3   0  -8   -0.06    3.54
   3   0   8    4.02    4.12
   3   0   8   -0.59    3.21
  -4   0  -8  866.97   41.52
  -4   0  -8  808.05   70.46
   4   0   8  872.08   69.16
   4   0   8  865.49   62.98
  -4   0  -8  966.40   72.19
  -4   0  -8  985.03   86.90
   4   0   8 1050.54   91.51
  -5   0  -8   11.72    2.07
  -5   0  -8   14.63    1.62
   5   0   8   10.61    1.89
   5   0   8   13.17    2.17
  -5   0  -8   23.69    8.74
  -5   0  -8   11.83    8.99
  -6   0  -8    5.69    1.82
  -6   0  -8    5.23    1.96
   6   0   8    4.95    1.82
   6   0   8    2.95    1.76
  -6   0  -8    0.87   11.28
  -7   0  -8   -0.69    1.06
  -7   0  -8    0.52    1.01
   7   0   8    0.49    1.35
  -7   0  -8   -6.76    6.96
  -8   0  -8   62.06    6.14
  -8   0  -8   53.33    5.77
   8   0   8   57.59    5.23
  -8   0  -8   41.76   20.83
   7  -1  -8   -1.83    1.92
  -7   1   8   -1.33    1.95
  -7   1   8    0.32    1.57
  -7   1   8   -0.63    8.21
   6  -1  -8   36.12    3.40
  -6   1   8   34.35    3.33
  -6   1   8   31.77    3.00
  -6   1   8   46.20    9.95
   5  -1  -8    2.55    1.66
  -5   1   8    2.12    1.16
  -5   1   8    1.84    1.52
  -5   1   8    2.30    1.35
  -5   1   8    0.22    2.16
  -5   1   8    1.05    6.10
   4  -1  -8  261.64   19.07
  -4   1   8  251.73   18.39
  -4   1   8  259.28   13.30
  -4   1   8  275.25   20.30
  -4   1   8  246.01   13.39
   4  -1  -8  199.39   29.99
  -4   1   8  274.05   25.88
  -4   1   8  283.43   29.81
   3  -1  -8  101.31    6.97
   3  -1  -8   96.13    7.98
   3  -1  -8  101.30    7.12
  -3   1   8  113.17    9.86
  -3   1   8  102.12    5.85
  -3   1   8  102.38    6.31
  -3   1   8   90.73    8.71
  -3   1   8   99.59   10.58
   2  -1  -8   29.90    2.71
   2  -1  -8   30.58    2.35
   2  -1  -8   30.86    2.73
  -2   1   8   34.85    2.11
  -2   1   8   31.11    2.72
   2  -1  -8   20.63    4.67
  -2   1   8   23.53    4.01
  -2   1   8   18.61    4.54
   1  -1  -8  712.66   59.08
   1  -1  -8  711.24   69.97
   1  -1  -8  666.67   55.35
   1  -1  -8  731.05   54.41
  -1   1   8  656.32   38.66
  -1   1   8  792.39   82.77
  -1   1   8  665.40   56.41
   1  -1  -8  729.98   70.93
   1  -1  -8  653.74   55.06
  -1   1   8  719.53   88.37
  -1   1   8  731.62   88.02
   0  -1  -8   31.94    3.05
   0  -1  -8   32.04    2.08
   0  -1  -8   36.54    3.11
   0  -1  -8   30.92    3.77
   0  -1  -8   37.38    3.21
   0  -1  -8   28.96    3.46
   0   1   8   32.90    1.81
   0   1   8   34.84    2.06
   0   1   8   31.80    2.49
   0   1   8   32.63    2.03
   0  -1  -8   15.50    4.87
   0  -1  -8   14.81    5.03
   0   1   8   24.52    5.14
  -1  -1  -8    0.12    0.37
  -1  -1  -8   -0.08    0.35
  -1  -1  -8    0.06    0.24
  -1  -1  -8    0.36    0.33
  -1  -1  -8    0.02    0.20
  -1  -1  -8    0.32    0.34
   1   1   8    0.43    0.20
   1   1   8    0.63    0.34
   1   1   8    0.26    0.27
   1   1   8   -0.03    0.26
  -1  -1  -8    0.98    1.78
  -1  -1  -8    2.58    1.79
   1   1   8    1.79    1.40
   1   1   8   -0.16    1.20
  -2  -1  -8  305.09   33.89
  -2  -1  -8  275.77   23.09
  -2  -1  -8  285.91   32.60
  -2  -1  -8  284.43   16.90
  -2  -1  -8  290.66   34.99
   2   1   8  293.90   30.83
   2   1   8  285.18   25.94
   2   1   8  255.87   17.10
   2   1   8  284.78   17.02
   2   1   8  249.80   20.21
  -2  -1  -8  312.72   25.24
  -2  -1  -8  318.43   33.29
   2   1   8  310.39   26.42
   2   1   8  314.23   31.09
  -3  -1  -8   14.72    2.57
  -3  -1  -8   18.64    1.78
  -3  -1  -8   19.00    2.29
  -3  -1  -8   22.52    1.54
   3   1   8   18.86    1.85
   3   1   8   21.00    1.68
   3   1   8   19.39    1.71
   3   1   8   20.04    1.97
  -3  -1  -8   23.92    7.39
   3   1   8   15.92    5.52
   3   1   8   21.87    6.93
  -4  -1  -8    4.93    1.53
  -4  -1  -8    8.63    1.05
  -4  -1  -8    7.49    0.78
   4   1   8    6.57    1.46
   4   1   8    7.01    1.32
   4   1   8    7.29    1.91
   4   1   8    7.32    1.64
  -4  -1  -8    7.77    7.03
  -4  -1  -8    2.91    7.89
   4   1   8    1.44    6.83
  -5  -1  -8  133.24    6.42
   5   1   8  124.65    9.40
   5   1   8  137.34   10.58
  -5  -1  -8  119.10   15.71
  -5  -1  -8  153.57   18.39
   5   1   8  127.67   16.78
  -6  -1  -8   12.54    1.86
   6   1   8    9.28    1.79
   6   1   8    9.74    2.17
  -6  -1  -8    7.96   10.98
  -7  -1  -8   13.41    2.83
  -7  -1  -8   18.10    2.66
   7   1   8   20.98    3.35
  -7  -1  -8   -0.81   16.93
  -8  -1  -8   24.62    3.94
  -8  -1  -8   23.16    3.79
   8   1   8   19.34    3.66
  -8  -1  -8    9.45   21.10
   7  -2  -8   29.27    4.10
  -7   2   8   32.19    4.54
  -7   2   8   27.94    3.83
  -7   2   8   54.40   14.16
   6  -2  -8    3.85    2.36
  -6   2   8    5.64    2.41
  -6   2   8    2.35    2.33
  -6   2   8   16.57    8.00
   5  -2  -8    0.66    1.34
  -5   2   8    1.33    1.76
  -5   2   8   -0.66    1.01
  -5   2   8    3.02    5.50
   4  -2  -8   33.49    2.94
  -4   2   8   36.49    2.77
  -4   2   8   31.83    2.76
  -4   2   8   32.67    3.10
  -4   2   8   18.14    5.65
  -4   2   8   31.33    9.21
   3  -2  -8    0.80    1.47
   3  -2  -8    1.17    1.13
  -3   2   8    1.36    1.06
  -3   2   8    3.03    0.98
  -3   2   8   -1.31    1.31
   3  -2  -8    3.09    7.34
  -3   2   8    7.11    5.96
  -3   2   8    1.48    3.34
   2  -2  -8   48.35    3.86
   2  -2  -8   48.45    4.03
  -2   2   8   52.91    3.50
  -2   2   8   46.86    4.55
  -2   2   8   51.32    2.91
   2  -2  -8   31.09    6.44
  -2   2   8   41.33    5.52
  -2   2   8   44.41    6.19
   1  -2  -8   17.71    1.44
   1  -2  -8   21.44    2.00
   1  -2  -8   21.10    1.91
  -1   2   8   20.68    1.51
  -1   2   8   18.14    1.69
  -1   2   8   20.95    2.19
   1  -2  -8    4.40    5.53
  -1   2   8   13.22    3.83
  -1   2   8   21.38    4.54
   0  -2  -8    6.97    0.75
   0  -2  -8    6.30    1.26
   0  -2  -8    5.66    1.10
   0  -2  -8    7.98    1.54
   0  -2  -8    6.53    1.67
   0   2   8    8.42    0.68
   0   2   8    8.38    3.42
   0   2   8    9.35    1.21
   0   2   8    7.72    1.17
   0  -2  -8    5.95    5.72
   0  -2  -8    0.43    4.40
   0   2   8   10.86    3.74
   0   2   8    5.09    2.90
  -1  -2  -8   53.22    4.87
  -1  -2  -8   47.11    3.54
  -1  -2  -8   49.88    3.01
  -1  -2  -8   46.08    3.61
  -1  -2  -8   47.80    3.32
   1   2   8   50.27    2.82
   1   2   8   43.56    3.91
   1   2   8   50.31    3.00
   1   2   8   51.90    2.70
  -1  -2  -8   27.48    7.87
  -1  -2  -8   50.41    8.35
   1   2   8   43.91    5.73
   1   2   8   40.12    5.36
  -2  -2  -8  302.06   25.69
  -2  -2  -8  273.82   15.99
  -2  -2  -8  318.53   40.02
   2   2   8  287.04   15.25
   2   2   8  258.66   22.35
   2   2   8  290.06   22.11
   2   2   8  294.71   13.79
  -2  -2  -8  349.40   35.02
  -2  -2  -8  315.95   38.79
   2   2   8  328.51   34.76
   2   2   8  315.16   28.42
  -3  -2  -8    8.86    1.59
  -3  -2  -8   14.42    1.45
  -3  -2  -8   10.09    1.54
  -3  -2  -8   12.19    1.45
   3   2   8   12.05    1.30
   3   2   8   14.70    1.33
   3   2   8   12.43    1.40
   3   2   8   12.72    1.31
  -3  -2  -8   17.96    8.77
  -3  -2  -8    1.37    5.73
   3   2   8   13.82    6.19
   3   2   8   11.47    5.17
  -4  -2  -8  217.38   16.05
  -4  -2  -8  206.62   15.97
   4   2   8  198.56   10.58
   4   2   8  186.50   14.00
   4   2   8  196.33   13.11
   4   2   8  190.09   11.55
   4   2   8  196.35   15.11
  -4  -2  -8  238.74   19.14
  -4  -2  -8  235.22   25.31
   4   2   8  206.48   18.00
   4   2   8  236.00   20.18
  -5  -2  -8  146.29    9.95
  -5  -2  -8  147.85    8.49
   5   2   8  143.88    9.54
   5   2   8  148.88    8.95
   5   2   8  142.69    8.75
  -5  -2  -8  140.52   16.00
   5   2   8  134.48   14.98
  -6  -2  -8   39.60    2.77
   6   2   8   31.73    2.75
   6   2   8   35.11    2.96
   6   2   8   33.59    3.09
  -6  -2  -8   32.78   11.41
  -7  -2  -8    2.71    1.60
   7   2   8    0.39    2.13
  -7  -2  -8   17.47   19.49
  -8  -2  -8   53.97    4.05
  -8  -2  -8   49.13    4.73
   8   2   8   49.00    4.94
  -8  -2  -8   51.67   26.49
   6  -3  -8   19.82    3.26
  -6   3   8   14.11    3.28
  -6   3   8   12.34   10.39
   5  -3  -8   56.30    4.25
  -5   3   8   61.60    4.81
  -5   3   8   59.68    9.23
   4  -3  -8   69.56    5.01
  -4   3   8   66.21    6.66
  -4   3   8   61.57    5.64
  -4   3   8   62.93    5.60
  -4   3   8   69.80   11.34
  -4   3   8   61.23    8.21
   3  -3  -8   -0.23    1.16
  -3   3   8   -1.05    1.38
  -3   3   8    2.13    1.22
  -3   3   8    1.00    1.25
  -3   3   8   -1.57    5.43
  -3   3   8   -3.97    3.97
   2  -3  -8  161.04    8.44
   2  -3  -8  177.98    9.97
   2  -3  -8  176.73   15.70
   2  -3  -8  193.54   15.15
  -2   3   8  209.61   13.28
  -2   3   8  200.64   13.01
  -2   3   8  184.79   11.41
   2  -3  -8  159.74   21.44
  -2   3   8  189.19   17.28
  -2   3   8  173.87   14.33
   1  -3  -8   53.09    4.41
   1  -3  -8   43.32    2.98
   1  -3  -8   46.17    2.73
  -1   3   8   54.42    3.13
   1  -3  -8   40.83   10.39
  -1   3   8   44.01    6.38
  -1   3   8   45.37    6.10
   0  -3  -8  152.77    9.60
   0  -3  -8  176.79   12.94
   0  -3  -8  163.59    9.31
   0   3   8  163.41    9.98
   0   3   8  174.54    8.49
   0  -3  -8  105.52   22.59
   0   3   8  154.24   16.87
   0   3   8  144.62   17.26
  -1  -3  -8    2.37    0.91
  -1  -3  -8    2.19    1.46
   1   3   8    2.92    1.02
   1   3   8    3.12    0.76
   1   3   8    2.69    1.16
  -1  -3  -8   -4.90    4.90
   1   3   8    1.83    3.17
   1   3   8    6.98    3.53
  -2  -3  -8    7.45    1.24
  -2  -3  -8    7.64    1.52
  -2  -3  -8    7.45    1.32
   2   3   8    5.38    1.29
   2   3   8    5.55    1.13
   2   3   8    6.14    1.35
   2   3   8    8.44    1.19
  -2  -3  -8    6.85    6.36
   2   3   8   10.02    4.79
  -3  -3  -8   89.50    8.52
  -3  -3  -8   93.40    6.30
   3   3   8   85.88    5.81
   3   3   8   88.88    5.28
   3   3   8   90.48    4.90
   3   3   8   87.79    4.98
   3   3   8   93.89    5.91
  -3  -3  -8  104.80   15.05
  -3  -3  -8   73.01   12.29
   3   3   8  115.95   11.16
   3   3   8   79.89    8.64
  -4  -3  -8    6.03    1.73
  -4  -3  -8    6.91    1.16
  -4  -3  -8    8.88    1.44
   4   3   8    7.11    1.32
   4   3   8    7.22    1.40
   4   3   8    5.34    1.15
   4   3   8    6.09    1.15
   4   3   8    6.37    1.44
  -4  -3  -8   11.84    9.37
   4   3   8   10.18    6.99
   4   3   8    8.18    6.25
  -5  -3  -8   -0.53    1.08
  -5  -3  -8    1.27    0.97
   5   3   8    1.16    1.31
   5   3   8   -0.13    1.30
   5   3   8    0.26    0.67
   5   3   8   -1.14    1.14
  -5  -3  -8   -9.74    9.74
   5   3   8   -8.04    8.04
  -6  -3  -8   58.78    3.91
  -6  -3  -8   56.56    4.30
   6   3   8   57.45    3.95
   6   3   8   52.24    3.81
   6   3   8   52.22    3.72
  -6  -3  -8   60.62   16.17
   6   3   8   44.81   14.15
  -7  -3  -8    0.62    0.49
   7   3   8   -0.61    0.61
   7   3   8    0.24    0.64
   7   3   8   -0.18    0.60
  -7  -3  -8   -0.98    6.21
  -8  -3  -8   -0.28    0.55
   8   3   8   -0.65    0.74
  -8  -3  -8    3.18    7.14
   6  -4  -8   -0.53    1.91
  -6   4   8    0.19    2.40
   5  -4  -8   26.90    3.03
  -5   4   8   20.94    3.62
  -5   4   8   21.31   10.30
   4  -4  -8    1.56    1.81
  -4   4   8   -0.81    1.48
  -4   4   8    1.07    1.84
  -4   4   8   -0.97    1.67
  -4   4   8    2.50    6.45
  -4   4   8   -7.61    7.61
   3  -4  -8    1.59    1.72
  -3   4   8    5.57    2.20
  -3   4   8   -0.01    1.77
  -3   4   8   -1.99    1.99
  -3   4   8    8.53    7.95
  -3   4   8   -3.45    5.86
   2  -4  -8  153.47   11.63
   2  -4  -8  147.77    8.40
  -2   4   8  155.03   12.54
  -2   4   8  153.95   10.77
  -2   4   8  167.93   14.22
  -2   4   8  144.82   18.86
  -2   4   8  136.02   11.10
   1  -4  -8    3.87    0.91
   1  -4  -8    2.51    1.21
   1  -4  -8    2.05    1.62
  -1   4   8    7.07    1.50
   1  -4  -8    2.78    8.74
  -1   4   8   -2.39    4.28
  -1   4   8   10.79    4.90
   0  -4  -8    2.22    0.95
   0  -4  -8    3.01    0.63
   0  -4  -8    2.59    1.54
   0  -4  -8    0.03    1.22
   0  -4  -8    2.69    1.16
   0   4   8    2.49    1.55
   0   4   8    4.83    1.43
   0  -4  -8   -9.17    9.17
   0   4   8    2.13    4.86
   0   4   8    0.21    4.65
  -1  -4  -8   34.48    2.87
  -1  -4  -8   40.64    3.72
  -1  -4  -8   42.38    4.03
   1   4   8   42.57    3.19
   1   4   8   46.05    3.19
   1   4   8   32.44    6.83
   1   4   8   40.11    6.93
  -2  -4  -8  138.52    8.18
  -2  -4  -8  120.24    8.30
  -2  -4  -8  132.84    8.31
   2   4   8  127.76    7.91
   2   4   8  128.18    7.47
   2   4   8  120.55   11.17
  -2  -4  -8  126.75   17.31
   2   4   8  144.52   12.93
   2   4   8  117.23   13.06
  -3  -4  -8   11.15    1.67
  -3  -4  -8   12.58    1.57
   3   4   8   12.05    1.84
   3   4   8   14.22    1.55
   3   4   8   11.34    1.78
  -3  -4  -8    6.67    9.00
   3   4   8   13.18    6.04
   3   4   8   16.33    7.91
  -4  -4  -8  129.59   13.70
  -4  -4  -8  118.13    7.53
  -4  -4  -8  109.97    8.61
   4   4   8  132.12    6.27
   4   4   8  128.85    6.87
   4   4   8  111.19    6.43
   4   4   8  115.91    6.35
   4   4   8  129.26    7.09
   4   4   8  126.78    9.11
  -4  -4  -8  120.35   16.00
   4   4   8  147.23   18.51
   4   4   8  126.46   12.79
  -5  -4  -8   24.42    2.55
  -5  -4  -8   26.98    2.59
   5   4   8   24.50    2.28
   5   4   8   20.47    2.15
   5   4   8   23.09    2.41
  -5  -4  -8   19.01   12.57
  -6  -4  -8    8.50    1.66
  -6  -4  -8    6.76    1.74
   6   4   8    8.18    2.17
   6   4   8    4.27    2.19
   6   4   8    6.92    2.10
  -6  -4  -8   13.31   16.12
   6   4   8    1.22   13.18
  -7  -4  -8   -0.65    1.39
   7   4   8   -0.07    1.99
   7   4   8   -1.08    2.17
   7   4   8   -0.29    1.90
  -8  -4  -8   27.05    3.30
   8   4   8   15.10    3.74
   5  -5  -8   -1.46    2.30
  -5   5   8    0.39    2.71
   4  -5  -8   10.33    2.41
  -4   5   8    6.27    2.53
  -4   5   8    7.34    5.24
   3  -5  -8    2.99    2.00
  -3   5   8    7.29    2.45
  -3   5   8    4.03    2.84
  -3   5   8   -1.56    2.36
  -3   5   8    4.68    5.61
  -3   5   8   -5.46    6.74
   2  -5  -8   25.59    2.50
  -2   5   8   22.83    3.18
  -2   5   8   21.72    2.81
  -2   5   8   33.53    7.94
  -2   5   8   22.23    6.19
   1  -5  -8   22.55    2.74
   1  -5  -8   22.77    2.32
   1  -5  -8   18.78    1.94
  -1   5   8   27.97    2.95
  -1   5   8   26.41    3.21
  -1   5   8   22.98    6.60
  -1   5   8   31.08    6.94
   0  -5  -8    9.59    1.95
   0  -5  -8    9.26    1.74
   0   5   8    7.50    2.35
   0   5   8    5.90    1.93
   0   5   8    1.70    5.18
   0   5   8    2.49    6.59
  -1  -5  -8    7.89    2.13
  -1  -5  -8    4.67    1.99
  -1  -5  -8    3.06    1.82
   1   5   8   10.46    1.77
   1   5   8    5.92    2.06
   1   5   8    8.87    6.00
   1   5   8    9.54    5.53
  -2  -5  -8   -0.84    1.11
  -2  -5  -8   -1.06    1.09
   2   5   8   -0.55    1.09
   2   5   8   -0.89    1.03
   2   5   8   -1.08    4.56
   2   5   8   -1.17    4.13
  -3  -5  -8  204.56   12.60
  -3  -5  -8  225.03   15.29
   3   5   8  220.98   14.37
   3   5   8  222.94   13.96
   3   5   8  223.06   21.18
   3   5   8  232.11   22.32
   3   5   8  238.20   18.26
  -4  -5  -8    6.16    1.66
   4   5   8    4.73    1.81
   4   5   8    4.87    1.87
   4   5   8    4.64    1.78
   4   5   8   -4.20    4.20
  -5  -5  -8   26.72    2.88
  -5  -5  -8   30.45    3.09
   5   5   8   27.33    3.04
   5   5   8   30.08    3.12
   5   5   8   27.63    3.01
   5   5   8   16.41   11.13
  -6  -5  -8    1.89    1.90
  -6  -5  -8    4.99    1.99
   6   5   8    5.50    2.47
   6   5   8    1.59    2.08
   6   5   8    1.89    1.93
   6   5   8   -9.19   13.61
  -7  -5  -8    1.98    1.79
  -7  -5  -8    0.59    1.71
   7   5   8    1.33    2.62
   7   5   8   -0.10    2.20
   7   5   8   -1.42    2.34
  -8  -5  -8   -1.08    1.08
   8   5   8    0.53    1.47
   3  -6  -8   62.85    5.49
   3  -6  -8   60.42    6.99
  -3   6   8   49.96    5.93
   2  -6  -8   28.09    3.25
   2  -6  -8   28.87    3.62
  -2   6   8   22.47    4.09
  -2   6   8   25.83    3.80
  -2   6   8    7.76    3.81
  -2   6   8    8.07    3.47
   1  -6  -8   57.79    6.24
   1  -6  -8   51.08    4.20
  -1   6   8   57.87    5.61
  -1   6   8   56.32    5.12
  -1   6   8   30.41    5.80
   0  -6  -8    3.78    1.86
   0  -6  -8    3.54    2.06
   0   6   8    6.82    2.69
   0   6   8    8.02    2.43
   0   6   8    1.47    5.38
   0   6   8   -6.30    6.30
  -1  -6  -8    0.71    1.44
  -1  -6  -8    1.36    1.48
   1   6   8    2.62    1.49
   1   6   8   -0.14    1.29
   1   6   8   -1.67    3.98
   1   6   8    8.45    5.18
  -2  -6  -8  123.27    7.38
  -2  -6  -8  129.04    9.75
   2   6   8  126.45   10.38
   2   6   8  125.50    9.78
   2   6   8   18.98    7.37
  -3  -6  -8    8.75    2.25
  -3  -6  -8    4.06    2.22
   3   6   8    7.05    2.38
   3   6   8   12.44    2.85
  -4  -6  -8   16.46    2.54
  -4  -6  -8   10.15    2.58
   4   6   8   16.24    2.66
   4   6   8   17.92    3.30
   4   6   8   17.19   10.57
  -5  -6  -8   19.34    3.01
  -5  -6  -8   14.82    3.02
   5   6   8   18.86    3.03
   5   6   8   14.53    3.01
   5   6   8   18.50    3.10
   5   6   8    7.87   12.61
  -6  -6  -8    2.57    2.33
  -6  -6  -8    2.27    1.96
   6   6   8    2.34    2.32
   6   6   8    1.12    2.38
   6   6   8    4.72   14.85
  -7  -6  -8    0.97    2.62
  -7  -6  -8    1.57    3.14
   7   6   8    3.92    2.92
   7   6   8   -2.81    2.81
   7   6   8    0.68    3.80
   7   6   8  -18.75   21.12
   2  -7  -8    5.23    3.11
   2  -7  -8   -2.17    2.37
  -2   7   8    2.40    4.32
   1  -7  -8   23.20    3.01
   1  -7  -8   21.81    3.99
  -1   7   8   26.19    3.85
  -1   7   8   24.00    3.77
   0  -7  -8   11.53    2.96
   0  -7  -8    8.70    2.55
   0   7   8    9.92    3.09
   0   7   8    8.62    3.65
   0   7   8   11.33    8.42
   0   7   8    2.80    8.93
  -1  -7  -8    6.94    2.77
   1   7   8    4.59    3.26
   1   7   8    2.40    2.89
   1   7   8    8.35   10.08
  -2  -7  -8   26.56    3.31
   2   7   8   22.18    3.44
   2   7   8   23.03    3.69
   2   7   8   27.50   11.55
  -3  -7  -8  239.53   15.62
   3   7   8  230.26   21.31
   3   7   8  244.48   17.90
   3   7   8  292.79   26.20
  -4  -7  -8    0.17    0.69
   4   7   8   -0.21    0.88
   4   7   8    0.10    0.86
   4   7   8    0.23    3.62
  -5  -7  -8    9.30    3.00
   5   7   8    6.36    3.58
   5   7   8   13.41    3.33
   5   7   8   18.02   18.19
  -6  -7  -8    6.11    3.02
  -6  -7  -8    9.24    3.35
   6   7   8    7.86    3.96
   6   7   8    3.86    3.40
   6   7   8   22.73   18.66
  -7  -7  -8    5.20    3.38
  -7  -7  -8    1.48    3.58
   7   7   8    0.02    4.06
   0  -8  -8   -1.86    2.94
   0   8   8    2.78    3.03
   0   8   8   -3.56    4.18
   0   8   8   -6.11    6.11
  -1  -8  -8    5.28    3.00
   1   8   8    5.68    3.76
   1   8   8    3.21    3.83
   1   8   8    8.70   11.86
  -2  -8  -8   -0.81    2.86
   2   8   8    1.73    3.83
   2   8   8   -2.28    3.56
   2   8   8   -0.87   14.46
  -3  -8  -8   48.65    5.07
   3   8   8   46.70    5.24
   3   8   8   48.78    6.39
   3   8   8   32.18   14.78
  -4  -8  -8    1.07    2.95
   4   8   8   -4.05    4.05
   4   8   8    2.74    4.03
   4   8   8   -4.62   16.47
  -5  -8  -8    1.18    1.91
  -5  -8  -8    2.16    2.18
   5   8   8    2.46    2.63
   5   8   8   -1.20    2.38
   5   8   8   -4.23   11.61
   5   8  -9   -0.84    3.96
   5   8  -9    3.36    3.85
   4   8  -9    0.64    1.90
   4   8  -9    1.01    1.91
  -4  -8   9    1.72    1.60
   4   8  -9   -8.40    9.15
   3   8  -9   -2.31    2.31
   3   8  -9   -2.00    2.14
  -3  -8   9   -0.19    1.58
   3   8  -9   -7.85    7.85
   2   8  -9    0.93    1.52
   2   8  -9    2.69    1.56
  -2  -8   9   -1.20    1.20
  -2  -8   9    0.18    1.22
   2   8  -9    0.11    5.22
   1   8  -9   12.06    4.44
   1   8  -9   17.27    4.43
  -1  -8   9   18.81    4.13
  -1  -8   9   16.44    3.91
   1   8  -9    8.49   14.44
   0   8  -9    6.77    3.65
   0   8  -9    4.70    4.30
   0   8  -9   -5.58   12.41
   6   7  -9    9.98    4.43
   6   7  -9    7.48    4.37
  -6  -7   9    9.85    3.31
   6   7  -9    6.86   21.08
   5   7  -9    6.77    3.63
   5   7  -9    4.73    3.79
  -5  -7   9    6.92    3.03
   5   7  -9    9.99   16.97
   4   7  -9   15.13    3.95
   4   7  -9   12.26    3.78
  -4  -7   9   16.43    2.99
   4   7  -9   21.22   14.50
   3   7  -9   38.59    4.55
   3   7  -9   39.44    4.73
   3   7  -9   24.84   12.84
   2   7  -9   -1.49    1.49
   2   7  -9    1.52    1.75
  -2  -7   9   -1.06    1.06
  -2  -7   9   -0.83    1.39
   2   7  -9   -3.02    6.61
   1   7  -9    2.59    2.66
   1   7  -9    1.71    2.64
  -1  -7   9    0.87    1.98
  -1  -7   9   -0.40    1.94
   1   7  -9   -2.87    9.74
   0   7  -9    0.14    3.43
   0   7  -9    3.21    3.54
   0  -7   9    5.90    2.32
   0  -7   9    4.91    2.88
   0   7  -9   21.51   11.25
  -1   7  -9    8.09    3.51
  -1   7  -9    8.02    3.86
   1  -7   9    4.51    3.04
  -1   7  -9    0.44   12.72
  -2   7  -9    0.41    3.43
  -2   7  -9    1.44    2.58
   2  -7   9    1.69    2.81
  -2   7  -9  -11.66   11.66
   7   6  -9    2.33    4.30
  -7  -6   9    2.04    3.15
   6   6  -9    9.19    4.47
  -6  -6   9   13.84    3.15
   6   6  -9   -9.56   18.44
   5   6  -9   -1.16    2.97
  -5  -6   9    1.19    2.01
   5   6  -9    2.98   12.70
   4   6  -9   47.48    4.23
   4   6  -9   39.75    4.71
  -4  -6   9   50.27    3.96
   4   6  -9   14.68    9.96
   3   6  -9    0.84    2.85
   3   6  -9    4.82    2.85
  -3  -6   9    3.07    1.66
   3   6  -9    7.12   10.02
   2   6  -9    3.20    2.54
   2   6  -9   -1.25    2.09
  -2  -6   9    2.51    1.81
   2   6  -9    3.28    9.54
   1   6  -9   44.67    4.74
   1   6  -9   50.15    4.92
  -1  -6   9   54.18    4.36
  -1  -6   9   59.23    4.01
   1   6  -9   49.80    9.91
   0   6  -9  105.14    9.37
   0   6  -9   94.37    8.16
   0  -6   9  115.05    7.55
   0  -6   9  118.45   10.09
   0   6  -9  100.77   12.60
  -1   6  -9   -0.24    2.55
  -1   6  -9    1.81    2.17
   1  -6   9    1.59    1.48
  -1   6  -9   -8.06    8.06
  -2   6  -9   36.34    5.31
  -2   6  -9   33.66    4.75
   2  -6   9   46.19    4.03
  -3   6  -9   11.65    4.36
   3  -6   9   18.89    2.94
  -3   6  -9   27.46   12.75
   7   5  -9    2.23    3.80
  -7  -5   9    9.07    2.78
  -7  -5   9   15.76    2.87
   6   5  -9   46.53    5.88
  -6  -5   9   54.89    4.49
  -6  -5   9   57.02    5.01
  -6  -5   9   58.22    4.48
   6   5  -9   31.27   18.27
   5   5  -9   20.95    3.79
  -5  -5   9   21.83    2.49
  -5  -5   9   20.60    2.46
  -5  -5   9   24.58    2.93
   5   5  -9   42.67   15.13
   4   5  -9   15.30    1.85
   4   5  -9   16.15    2.85
  -4  -5   9   14.38    1.93
   4   5  -9    4.19    9.98
   3   5  -9   25.95    3.21
   3   5  -9   27.04    2.23
   3   5  -9   29.01    3.28
  -3  -5   9   25.68    2.60
   3   5  -9   16.64    8.53
   2   5  -9   23.66    2.91
   2   5  -9   25.29    3.04
   2   5  -9   20.28    1.98
  -2  -5   9   25.56    2.24
   2   5  -9   14.17    6.42
   1   5  -9    5.58    1.84
   1   5  -9    3.27    2.11
  -1  -5   9    5.08    1.50
  -1  -5   9    7.81    1.32
   1   5  -9   14.13   12.02
   1   5  -9    0.53    6.19
   0   5  -9   -0.09    0.85
   0   5  -9    0.34    0.76
   0  -5   9    0.89    0.55
   0  -5   9   -0.28    0.61
   0   5  -9   -1.53    4.03
   0   5  -9   -1.64    2.61
  -1   5  -9    2.33    2.70
  -1   5  -9    3.33    2.72
   1  -5   9    3.06    1.44
   1  -5   9    2.14    1.45
  -1   5  -9    1.10   11.80
  -1   5  -9    7.26    7.27
  -2   5  -9    0.35    1.99
  -2   5  -9   -0.75    1.82
   2  -5   9   -0.25    0.87
  -2   5  -9    0.55    6.06
  -3   5  -9   -0.58    1.19
   3  -5   9    0.71    0.68
  -3   5  -9    3.05    4.98
  -4   5  -9    2.06    3.76
   4  -5   9    2.55    2.96
  -4   5  -9   -1.67   11.72
   8   4  -9   -1.96    3.73
  -8  -4   9   -0.23    2.77
  -8  -4   9   -2.07    2.84
  -8  -4   9    0.78    3.39
   7   4  -9   51.86    5.74
   7   4  -9   43.58    7.10
  -7  -4   9   53.02    4.34
  -7  -4   9   47.07    5.19
  -7  -4   9   50.00    5.02
   6   4  -9   40.48    4.05
   6   4  -9   30.67    3.02
  -6  -4   9   33.57    3.48
  -6  -4   9   30.54    3.05
  -6  -4   9   29.30    3.59
  -6  -4   9   11.78   12.51
   5   4  -9    0.37    1.73
   5   4  -9    0.21    1.42
  -5  -4   9    0.24    1.26
  -5  -4   9   -0.59    1.28
  -5  -4   9    0.97    1.28
   5   4  -9    5.31    9.44
  -5  -4   9    1.93    7.46
   4   4  -9   61.50    4.91
   4   4  -9   56.58    4.46
  -4  -4   9   66.02    4.79
  -4  -4   9   63.50    5.24
  -4  -4   9   60.59    4.39
   4   4  -9   18.67    9.58
   4   4  -9   45.04   10.70
  -4  -4   9   34.57   10.57
   3   4  -9   91.14    5.96
   3   4  -9   85.30    4.72
   3   4  -9   81.48    7.03
  -3  -4   9   86.41    5.63
  -3  -4   9   94.68    5.87
  -3  -4   9   84.57    5.86
  -3  -4   9   83.83    5.63
   3   4  -9   53.71   15.73
   3   4  -9   61.21    7.95
  -3  -4   9   51.57    8.55
   2   4  -9    5.84    1.48
   2   4  -9    6.46    1.81
  -2  -4   9    4.47    1.54
  -2  -4   9    4.69    1.24
  -2  -4   9    4.16    0.48
   2   4  -9   -1.28   11.09
   2   4  -9    3.33    5.47
  -2  -4   9   -4.48    5.43
   1   4  -9  244.63   12.67
   1   4  -9  220.84   21.49
   1   4  -9  217.52   18.72
  -1  -4   9  246.02   17.17
  -1  -4   9  237.44   15.68
  -1  -4   9  206.00   14.12
   1   4  -9  184.32   19.35
   1   4  -9  232.60   26.24
  -1  -4   9  203.12   21.15
   0   4  -9  196.87   16.97
   0   4  -9  194.99   22.71
   0  -4   9  204.62   12.52
   0  -4   9  206.93   13.95
   0   4  -9  170.81   19.97
   0   4  -9  187.95   16.09
   0  -4   9  164.45   15.28
  -1   4  -9    5.72    1.86
  -1   4  -9    2.44    2.36
   1  -4   9    7.19    1.28
   1  -4   9    5.35    1.55
  -1   4  -9   -1.34   10.26
  -1   4  -9   -4.58    7.32
  -2   4  -9    5.30    2.68
  -2   4  -9    2.60    1.05
  -2   4  -9    2.64    2.10
   2  -4   9    2.74    1.05
   2  -4   9    2.90    1.29
  -2   4  -9    5.48    9.78
  -2   4  -9    8.60    7.45
  -3   4  -9   71.87    7.26
   3  -4   9   77.40    5.64
  -3   4  -9   83.37   14.69
  -4   4  -9   -4.02    4.02
   4  -4   9    2.21    2.10
  -4   4  -9    9.99   12.45
  -5   4  -9    2.72    4.12
   5  -4   9    4.18    2.80
   5  -4   9    2.96    2.74
  -5   4  -9   10.56   12.89
   8   3  -9    2.74    3.50
   8   3  -9    6.93    3.39
  -8  -3   9   10.46    3.37
  -8  -3   9   10.16    3.79
  -8  -3   9    4.58    3.25
  -8  -3   9  -20.54   20.54
   7   3  -9   -1.08    2.16
   7   3  -9   -2.78    2.78
  -7  -3   9    2.62    2.73
  -7  -3   9    0.05    1.90
  -7  -3   9   -0.18    2.21
  -7  -3   9  -12.10   13.11
   6   3  -9    8.71    1.91
   6   3  -9    8.58    2.72
  -6  -3   9    5.20    1.81
  -6  -3   9    4.75    1.88
  -6  -3   9    5.21    2.17
  -6  -3   9    5.08    1.55
  -6  -3   9   -4.73   11.21
   5   3  -9   20.90    2.96
   5   3  -9   18.13    2.15
  -5  -3   9   18.29    2.09
  -5  -3   9   19.61    2.70
  -5  -3   9   22.13    1.87
   5   3  -9  -13.23   13.23
  -5  -3   9   12.17    9.75
   4   3  -9   17.56    2.80
   4   3  -9   17.77    1.97
  -4  -3   9   17.07    2.01
  -4  -3   9   17.19    1.90
  -4  -3   9   19.51    1.74
   4   3  -9    2.32    8.94
   4   3  -9    3.71    9.00
  -4  -3   9   10.77    8.21
  -4  -3   9   -6.54    6.54
   3   3  -9   11.12    1.68
   3   3  -9   18.52    1.90
   3   3  -9   20.72    2.54
  -3  -3   9   15.27    1.41
  -3  -3   9   19.41    2.27
  -3  -3   9   12.84    2.19
  -3  -3   9   16.74    1.40
  -3  -3   9   14.68    1.58
   3   3  -9   13.75   11.37
   3   3  -9    5.99    5.38
  -3  -3   9    4.71    4.82
  -3  -3   9   23.66   10.71
   2   3  -9  205.46   11.76
   2   3  -9  204.90   13.29
   2   3  -9  204.42   21.83
   2   3  -9  212.06   20.71
  -2  -3   9  208.27   14.07
  -2  -3   9  209.63   13.74
  -2  -3   9  222.71   15.74
   2   3  -9  190.55   17.59
   2   3  -9  168.66   15.47
  -2  -3   9  184.36   21.87
   1   3  -9   13.69    1.46
   1   3  -9   16.05    1.94
   1   3  -9   16.33    2.17
  -1  -3   9   13.17    1.22
  -1  -3   9   13.16    1.68
  -1  -3   9   12.44    1.54
   1   3  -9    4.64    3.69
   1   3  -9    8.43    6.58
  -1  -3   9    0.91    3.68
   0   3  -9    8.77    1.28
   0   3  -9    7.40    1.33
   0   3  -9   12.51    1.91
   0   3  -9    8.30    1.86
   0  -3   9    8.72    1.16
   0  -3   9    6.33    1.06
   0   3  -9   -4.71    6.37
   0   3  -9    9.85    5.26
   0  -3   9   10.43    5.48
  -1   3  -9  172.62   17.36
  -1   3  -9  163.39   16.30
  -1   3  -9  175.97    9.65
   1  -3   9  169.57   10.38
   1  -3   9  160.69   14.40
  -1   3  -9  143.96   13.79
  -1   3  -9  133.78   12.79
   1  -3   9  113.36   11.98
  -2   3  -9    1.59    2.25
  -2   3  -9    1.04    0.76
  -2   3  -9    4.92    2.32
  -2   3  -9    3.47    0.79
  -2   3  -9    2.96    0.81
   2  -3   9    2.40    1.03
  -2   3  -9   11.62    8.39
  -2   3  -9    3.81    6.19
  -3   3  -9  138.43   13.74
  -3   3  -9  141.08    9.03
  -3   3  -9  127.84    9.37
  -3   3  -9  136.27    9.82
   3  -3   9  139.55    8.98
  -3   3  -9  164.25   15.23
  -3   3  -9  145.87   17.01
  -4   3  -9    3.26    1.58
  -4   3  -9    1.28    1.53
  -4   3  -9    1.22    2.73
   4  -3   9    6.64    1.76
   4  -3   9    4.22    1.95
  -4   3  -9    0.56   10.22
  -5   3  -9    7.89    4.22
  -5   3  -9    1.86    2.51
  -5   3  -9    3.03    3.52
   5  -3   9    3.31    2.07
   5  -3   9    3.20    2.50
  -5   3  -9  -13.34   13.34
  -6   3  -9   -2.94    4.97
   6  -3   9    6.48    3.09
  -6   3  -9    5.65   16.09
   8   2  -9    6.51    3.35
   8   2  -9    2.98    3.58
  -8  -2   9    4.38    3.18
  -8  -2   9    7.17    2.72
  -8  -2   9    2.26    3.40
  -8  -2   9   18.35   17.97
   7   2  -9    1.92    1.59
   7   2  -9   -0.82    1.68
  -7  -2   9    0.94    1.77
  -7  -2   9   -0.02    1.43
  -7  -2   9   -0.74    1.45
  -7  -2   9   -8.43    8.43
   6   2  -9   94.61    6.68
   6   2  -9   97.11    6.77
  -6  -2   9   96.25    9.58
  -6  -2   9   95.82    6.53
  -6  -2   9   96.09    7.83
  -6  -2   9   88.87   12.24
   5   2  -9    0.37    1.92
   5   2  -9    2.59    1.43
  -5  -2   9   -1.30    1.30
  -5  -2   9    0.60    0.90
  -5  -2   9    1.31    1.24
  -5  -2   9    0.25    1.39
   5   2  -9    9.32    8.07
  -5  -2   9    1.50    5.39
   4   2  -9    3.13    1.19
   4   2  -9   -1.76    1.76
  -4  -2   9    1.18    1.04
  -4  -2   9    1.77    1.27
  -4  -2   9    2.93    1.00
  -4  -2   9    0.09    1.25
  -4  -2   9    2.23    1.32
   4   2  -9    2.59    7.21
  -4  -2   9    2.62    5.01
  -4  -2   9   -9.43    9.43
   3   2  -9   10.92    1.86
   3   2  -9   17.81    2.31
   3   2  -9   13.57    2.15
   3   2  -9   16.41    1.80
  -3  -2   9   17.54    2.03
  -3  -2   9   16.56    1.74
  -3  -2   9   15.44    1.49
  -3  -2   9   16.90    1.90
   3   2  -9   15.33    9.33
   3   2  -9    5.12    5.94
  -3  -2   9   12.13    4.45
  -3  -2   9   23.05    8.88
   2   2  -9   22.66    2.08
   2   2  -9   18.55    1.92
   2   2  -9   21.94    2.73
   2   2  -9   21.28    2.05
  -2  -2   9   20.39    2.16
  -2  -2   9   23.17    1.88
  -2  -2   9   20.35    1.95
   2   2  -9   23.61    7.74
   2   2  -9   15.43    5.06
  -2  -2   9    7.68    4.51
  -2  -2   9   17.50    6.19
   1   2  -9    0.22    0.44
   1   2  -9    0.74    0.29
   1   2  -9    0.85    0.33
   1   2  -9   -0.63    0.63
   1   2  -9   -0.18    0.64
   1   2  -9    1.05    0.60
  -1  -2   9   -0.01    0.48
  -1  -2   9    0.48    0.28
  -1  -2   9    0.01    0.39
   1   2  -9    0.81    3.25
   1   2  -9    0.12    1.68
  -1  -2   9    2.41    2.89
  -1  -2   9   -0.46    1.61
   0   2  -9   52.87    4.68
   0   2  -9   53.51    3.72
   0   2  -9   49.09    3.49
   0   2  -9   47.53    4.24
   0   2  -9   49.24    3.02
   0   2  -9   52.82    5.30
   0  -2   9   50.78    3.58
   0  -2   9   49.57    4.05
   0  -2   9   46.63    3.26
   0   2  -9   41.14    7.42
   0   2  -9   43.81    6.04
   0  -2   9   41.24    8.18
   0  -2   9   33.53    5.98
  -1   2  -9   58.15    6.14
  -1   2  -9   61.80    5.45
  -1   2  -9   52.66    3.45
  -1   2  -9   58.42    3.38
  -1   2  -9   65.09    5.44
  -1   2  -9   48.37    3.57
   1  -2   9   54.24    5.13
   1  -2   9   55.52    3.81
  -1   2  -9   55.05    7.83
  -1   2  -9   50.72    7.29
   1  -2   9   39.26    6.48
  -2   2  -9  133.31    9.41
  -2   2  -9  125.24   12.93
  -2   2  -9  125.28    6.60
  -2   2  -9  136.99    9.34
  -2   2  -9  128.05   10.73
   2  -2   9  108.78    9.63
   2  -2   9  131.10    9.13
  -2   2  -9   90.70   11.52
  -2   2  -9  115.12   14.13
   2  -2   9   97.68   12.03
  -3   2  -9  649.75   48.53
  -3   2  -9  666.62   71.53
  -3   2  -9  656.84   56.52
  -3   2  -9  672.82   54.41
   3  -2   9  655.22   42.36
   3  -2   9  645.24   47.19
  -3   2  -9  699.59   39.11
  -3   2  -9  735.02   55.24
   3  -2   9  691.15   69.35
  -4   2  -9    6.12    2.72
  -4   2  -9   10.42    1.65
  -4   2  -9    6.39    1.63
   4  -2   9    5.08    1.54
   4  -2   9    5.57    1.56
  -4   2  -9   13.47   17.21
  -4   2  -9   -3.26    9.34
  -5   2  -9    1.00    2.80
  -5   2  -9    3.03    1.77
  -5   2  -9    2.54    1.97
   5  -2   9   -0.51    1.91
   5  -2   9    1.43    1.98
  -5   2  -9    6.19   12.40
  -6   2  -9    5.46    2.43
  -6   2  -9   -2.61    3.48
  -6   2  -9    4.70    2.60
   6  -2   9    4.19    2.56
  -6   2  -9   -0.98   16.00
  -7   2  -9   47.93   20.78
   8   1  -9   16.02    3.89
   8   1  -9   18.36    3.72
  -8  -1   9   11.71    3.52
  -8  -1   9   17.34    3.24
  -8  -1   9    4.91   15.41
   7   1  -9   43.92    4.71
   7   1  -9   43.31    3.99
  -7  -1   9   36.03    3.86
  -7  -1   9   34.96    3.74
  -7  -1   9   25.39   10.45
   6   1  -9    7.75    2.01
   6   1  -9    6.06    2.62
  -6  -1   9    3.72    2.06
  -6  -1   9    2.75    1.98
  -6  -1   9    3.73    2.05
  -6  -1   9   -2.05    8.09
   5   1  -9   39.58    3.56
   5   1  -9   37.05    3.18
  -5  -1   9   36.04    2.62
  -5  -1   9   40.03    4.22
  -5  -1   9   41.66    3.40
  -5  -1   9   41.36    3.18
  -5  -1   9   42.92    9.10
   4   1  -9   43.11    3.49
   4   1  -9   45.67    3.94
  -4  -1   9   44.01    3.41
  -4  -1   9   42.03    2.78
  -4  -1   9   42.75    3.79
  -4  -1   9   40.09    2.64
  -4  -1   9   44.38    4.45
   4   1  -9   24.29    7.55
  -4  -1   9   38.25    6.55
  -4  -1   9   46.49   10.09
   3   1  -9  184.91   14.32
   3   1  -9  170.16   13.31
   3   1  -9  158.77   12.47
  -3  -1   9  181.77   12.06
  -3  -1   9  186.49   15.21
  -3  -1   9  178.82   17.82
  -3  -1   9  181.58   10.22
  -3  -1   9  167.12    8.50
   3   1  -9  137.06   11.56
  -3  -1   9  173.50   17.25
  -3  -1   9  173.49   19.06
   2   1  -9  402.97   42.84
   2   1  -9  428.45   39.57
   2   1  -9  424.66   32.91
   2   1  -9  392.52   31.11
  -2  -1   9  386.63   33.95
  -2  -1   9  445.69   35.02
  -2  -1   9  403.41   24.51
  -2  -1   9  389.60   23.25
   2   1  -9  388.94   39.97
   2   1  -9  363.82   33.64
  -2  -1   9  388.94   58.88
  -2  -1   9  396.09   40.60
   1   1  -9   -0.44    0.84
   1   1  -9    0.54    0.80
   1   1  -9   -0.44    0.44
   1   1  -9    0.59    0.39
   1   1  -9   -0.66    0.76
  -1  -1   9   -0.15    0.27
  -1  -1   9    0.39    0.28
  -1  -1   9    0.12    0.46
  -1  -1   9    0.83    0.58
  -1  -1   9   -0.06    0.61
  -1  -1   9    0.66    0.84
   1   1  -9    1.85    4.13
   1   1  -9    0.18    2.50
  -1  -1   9   -3.26    3.26
  -1  -1   9    0.28    1.99
   0   1  -9  134.58   12.18
   0   1  -9  111.30   12.47
   0   1  -9  149.34   13.09
   0   1  -9  153.01   12.92
   0   1  -9  122.78    9.67
   0   1  -9  122.08    7.62
   0  -1   9  115.18   10.29
   0  -1   9  123.63    7.93
   0  -1   9  106.52    8.81
   0  -1   9  136.39    8.53
   0  -1   9  124.40   11.43
   0   1  -9  107.65   11.00
   0   1  -9  124.12   16.94
   0  -1   9  105.33   16.34
   0  -1   9  143.14   21.36
  -1   1  -9  553.69   57.80
  -1   1  -9  570.71   47.79
  -1   1  -9  511.23   26.62
  -1   1  -9  458.15   34.17
  -1   1  -9  466.44   24.68
  -1   1  -9  560.41   48.47
   1  -1   9  412.63   34.94
   1  -1   9  524.38   35.95
   1  -1   9  501.25   31.51
  -1   1  -9  510.76   49.60
  -1   1  -9  443.56   40.30
   1  -1   9  545.77   74.33
   1  -1   9  479.10   59.05
  -2   1  -9   55.26    3.66
  -2   1  -9   61.50    5.86
  -2   1  -9   58.72    3.05
  -2   1  -9   60.05    5.95
  -2   1  -9   60.32    5.15
   2  -1   9   63.66    4.50
   2  -1   9   54.65    4.38
  -2   1  -9   52.57    8.66
  -2   1  -9   42.87    8.11
   2  -1   9   35.41    7.46
  -3   1  -9    6.02    1.73
  -3   1  -9    7.15    2.01
  -3   1  -9    9.85    1.11
   3  -1   9    8.58    1.42
   3  -1   9    9.43    1.31
  -3   1  -9    1.49    6.19
  -3   1  -9    2.04    6.07
   3  -1   9   10.35    6.86
  -4   1  -9  223.54   16.81
  -4   1  -9  198.03   17.02
  -4   1  -9  227.42   16.31
   4  -1   9  198.85   14.93
   4  -1   9  207.70   15.03
  -4   1  -9  213.36   17.69
  -4   1  -9  214.91   24.92
  -5   1  -9   -0.17    0.42
  -5   1  -9    0.13    0.41
  -5   1  -9    0.05    0.66
   5  -1   9   -0.44    0.44
   5  -1   9   -0.38    0.38
  -5   1  -9    1.74    2.97
  -6   1  -9    3.30    2.07
  -6   1  -9    1.33    1.94
   6  -1   9    2.94    1.80
   6  -1   9   -0.46    2.07
  -6   1  -9    5.77   13.65
  -7   1  -9   11.85    3.28
  -7   1  -9    9.32    3.22
   7  -1   9   10.60    3.73
  -7   1  -9   14.01   17.42
   7   0  -9   -1.04    2.21
   7   0  -9    0.96    2.09
  -7   0   9    0.72    2.24
  -7   0   9    1.24   10.69
   6   0  -9    0.90    1.10
   6   0  -9   -0.28    0.95
  -6   0   9   -0.17    0.98
  -6   0   9    0.61    0.89
  -6   0   9   -0.78    4.39
   5   0  -9   23.46    2.80
   5   0  -9   22.66    2.50
  -5   0   9   18.91    2.04
  -5   0   9   19.22    1.74
  -5   0   9   18.83    1.58
  -5   0   9   17.85    2.08
  -5   0   9   28.24    7.09
   4   0  -9    6.09    1.67
   4   0  -9    6.38    1.64
  -4   0   9    5.30    1.08
  -4   0   9    4.65    0.57
  -4   0   9    6.20    1.41
  -4   0   9    5.06    1.06
   4   0  -9    1.94    7.51
  -4   0   9   -1.69    8.60
  -4   0   9   -0.39    4.38
   3   0  -9   -0.74    0.74
   3   0  -9   -0.69    0.69
  -3   0   9   -0.03    0.52
  -3   0   9    0.04    0.54
  -3   0   9   -0.30    0.45
   3   0  -9    0.86    3.57
  -3   0   9   -0.41    2.12
  -3   0   9    0.45    3.89
   2   0  -9   -0.13    0.67
   2   0  -9   -0.10    0.73
   2   0  -9    0.37    0.67
   2   0  -9    0.49    0.61
  -2   0   9   -0.20    0.20
  -2   0   9    0.24    0.13
  -2   0   9    0.56    0.50
  -2   0   9   -0.36    0.36
   2   0  -9   -3.40    3.40
   2   0  -9   -0.89    2.29
  -2   0   9    0.38    1.47
  -2   0   9    1.12    2.41
   1   0  -9   34.40    2.81
   1   0  -9   25.01    2.65
   1   0  -9   19.85    3.01
   1   0  -9   33.48    2.91
   1   0  -9   25.07    3.40
  -1   0   9   27.06    1.98
  -1   0   9   27.22    1.83
  -1   0   9   25.60    1.99
  -1   0   9   26.68    1.44
   1   0  -9   25.92    6.79
   1   0  -9   10.56    4.14
  -1   0   9   18.00    5.37
  -1   0   9   15.49    3.83
   0   0  -9    0.63    0.79
   0   0  -9   -0.21    0.49
   0   0  -9   -0.83    0.83
   0   0  -9   -0.19    0.81
   0   0  -9    1.54    0.83
   0   0  -9   -0.56    0.56
   0   0   9    0.14    0.35
   0   0   9   -0.39    0.67
   0   0   9    0.94    0.83
   0   0   9    0.79    0.48
   0   0  -9   -1.03    3.73
   0   0  -9   -1.28    2.91
   0   0   9    2.50    3.81
   0   0   9    0.33    2.53
  -1   0  -9  289.86   22.85
  -1   0  -9  283.95   32.17
  -1   0  -9  279.09   20.36
  -1   0  -9  263.07   14.10
  -1   0  -9  283.09   28.65
   1   0   9  248.41   13.48
   1   0   9  246.59   24.30
   1   0   9  277.68   16.54
  -1   0  -9  280.07   24.59
  -1   0  -9  246.56   21.95
   1   0   9  304.39   36.28
   1   0   9  270.60   36.72
  -2   0  -9    9.13    1.56
  -2   0  -9    8.37    1.45
  -2   0  -9    9.02    1.73
  -2   0  -9    9.17    0.92
  -2   0  -9    9.18    1.55
  -2   0  -9   10.10    1.37
   2   0   9   10.64    1.44
   2   0   9   10.74    1.65
   2   0   9   11.33    1.22
  -2   0  -9    0.42    6.47
  -2   0  -9   11.75    5.46
   2   0   9    9.46    4.73
   2   0   9   12.47    6.94
  -3   0  -9  186.76   10.53
  -3   0  -9  168.89   10.05
  -3   0  -9  164.77   11.35
  -3   0  -9  161.16   15.13
  -3   0  -9  190.98   23.68
   3   0   9  171.31   11.93
   3   0   9  166.09   11.50
  -3   0  -9  166.82   15.40
  -3   0  -9  144.22   18.93
   3   0   9  157.22   16.57
  -4   0  -9   63.75    3.52
  -4   0  -9   51.62    5.74
   4   0   9   64.67    4.70
   4   0   9   56.13    4.82
  -4   0  -9   42.38   11.00
  -4   0  -9   58.85    9.94
   4   0   9   51.32   11.27
  -5   0  -9   25.65    2.48
  -5   0  -9   23.14    3.19
   5   0   9   25.18    2.76
   5   0   9   26.67    2.68
  -5   0  -9   19.82   11.64
  -6   0  -9    0.67    1.38
  -6   0  -9   -1.58    1.58
   6   0   9   -0.61    1.53
   6   0   9   -0.42    1.82
  -6   0  -9    8.21   10.46
  -7   0  -9   59.85    6.03
  -7   0  -9   64.58    6.57
   7   0   9   56.77    5.27
  -7   0  -9   66.54   19.49
   7  -1  -9   13.72    3.01
  -7   1   9   14.20    3.24
  -7   1   9   15.52    2.97
  -7   1   9   14.72   12.62
   6  -1  -9    1.32    2.16
  -6   1   9    2.06    2.16
  -6   1   9    4.65    2.46
  -6   1   9    1.69    9.15
   5  -1  -9   31.59    3.21
  -5   1   9   28.91    2.98
  -5   1   9   26.50    2.42
  -5   1   9   29.12    8.30
   4  -1  -9   47.68    3.50
   4  -1  -9   39.68    3.53
  -4   1   9   40.39    2.57
  -4   1   9   42.75    2.85
  -4   1   9   42.52    3.42
  -4   1   9   34.90    7.44
  -4   1   9   47.57   10.11
   3  -1  -9  327.04   23.07
   3  -1  -9  313.93   24.82
  -3   1   9  335.83   18.91
  -3   1   9  305.10   23.06
  -3   1   9  325.23   17.63
   3  -1  -9  219.21   21.64
  -3   1   9  279.96   24.14
   2  -1  -9   86.22    6.81
   2  -1  -9   87.92    6.33
   2  -1  -9   81.44    6.29
  -2   1   9   84.88    7.78
  -2   1   9   81.12    4.74
   2  -1  -9   49.80    6.69
  -2   1   9   77.37    7.49
  -2   1   9   62.97    7.95
   1  -1  -9    1.03    0.81
   1  -1  -9    2.76    0.93
   1  -1  -9    2.52    0.94
   1  -1  -9    1.37    1.16
   1  -1  -9    0.05    0.97
  -1   1   9    0.81    0.62
  -1   1   9    0.88    0.64
   1  -1  -9   -3.94    3.94
   1  -1  -9    1.30    6.05
  -1   1   9    0.70    2.51
  -1   1   9    4.15    4.17
   0  -1  -9   71.68    6.13
   0  -1  -9   64.64    7.56
   0  -1  -9   74.75    6.26
   0  -1  -9   71.34    4.00
   0  -1  -9   77.18    5.96
   0  -1  -9   63.87    6.56
   0  -1  -9   77.61    6.21
   0   1   9   65.97    3.64
   0   1   9   64.53    3.50
   0   1   9   67.00    3.79
   0  -1  -9   77.25    9.12
   0  -1  -9   52.84    7.69
   0   1   9   83.68    9.80
   0   1   9   62.98    8.14
  -1  -1  -9   46.01    3.08
  -1  -1  -9   49.32    4.73
  -1  -1  -9   50.39    3.68
  -1  -1  -9   50.85    4.90
  -1  -1  -9   49.24    5.18
   1   1   9   49.34    3.05
   1   1   9   39.42    3.54
   1   1   9   49.01    3.04
  -1  -1  -9   45.70    7.48
  -1  -1  -9   37.90    6.11
   1   1   9   52.14    8.34
   1   1   9   53.69    6.42
  -2  -1  -9  137.99   12.27
  -2  -1  -9  110.64   15.85
  -2  -1  -9  149.05   16.76
  -2  -1  -9  150.49   11.91
  -2  -1  -9  144.42    8.87
   2   1   9  150.23    9.37
   2   1   9  139.66    9.06
   2   1   9  162.78   12.96
   2   1   9  146.24   10.30
  -2  -1  -9  155.33   16.07
  -2  -1  -9  146.39   17.53
   2   1   9  165.44   15.98
   2   1   9  145.88   18.95
  -3  -1  -9   12.69    1.95
  -3  -1  -9   18.13    1.65
  -3  -1  -9   16.29    1.52
  -3  -1  -9   10.52    2.05
   3   1   9   16.48    1.65
   3   1   9   14.24    1.87
   3   1   9   19.50    1.75
   3   1   9   15.29    1.90
  -3  -1  -9   23.42    7.76
  -3  -1  -9    6.26    6.06
   3   1   9   20.94    8.04
  -4  -1  -9   69.83    4.83
  -4  -1  -9   64.13    5.35
  -4  -1  -9   71.79    4.53
  -4  -1  -9   63.47    7.81
   4   1   9   69.00    5.23
   4   1   9   74.55    5.22
  -4  -1  -9   90.27   14.18
  -4  -1  -9   60.06   11.22
   4   1   9   57.23   10.40
  -5  -1  -9  336.33   16.48
   5   1   9  312.38   23.08
   5   1   9  317.81   25.91
  -5  -1  -9  341.71   41.69
   5   1   9  325.08   42.09
  -6  -1  -9    3.33    1.49
   6   1   9    5.76    1.90
   6   1   9    5.45    1.74
  -6  -1  -9   -4.40   12.93
  -7  -1  -9   -0.85    0.97
  -7  -1  -9    0.37    0.98
   7   1   9   -1.02    1.02
  -7  -1  -9    5.13    7.83
  -8  -1  -9   -0.91    2.47
  -8  -1  -9   -0.39    2.64
   8   1   9    0.65    2.65
  -8  -1  -9  -13.19   17.26
   7  -2  -9    3.80    2.97
  -7   2   9    1.04    3.13
  -7   2   9    7.63   15.18
   6  -2  -9   -0.52    0.77
  -6   2   9    1.78    0.91
  -6   2   9    1.45    4.14
   5  -2  -9   -2.16    2.17
  -5   2   9    4.30    1.91
  -5   2   9   12.36    8.30
   4  -2  -9   42.07    3.72
  -4   2   9   46.62    3.38
  -4   2   9   40.23    3.66
  -4   2   9   42.14    3.59
  -4   2   9   38.08    7.73
  -4   2   9   62.55   10.53
   3  -2  -9   90.01    6.71
   3  -2  -9   73.01    5.41
  -3   2   9   84.51    4.83
  -3   2   9   93.13    5.25
  -3   2   9   78.56    5.80
  -3   2   9   67.14    7.79
  -3   2   9   80.09   10.11
   2  -2  -9   73.30    6.27
   2  -2  -9   63.00    4.46
   2  -2  -9   71.34    6.51
  -2   2   9   68.72    5.17
  -2   2   9   72.25    4.37
  -2   2   9   76.43    4.77
   2  -2  -9   43.83    8.31
  -2   2   9   63.08    8.02
  -2   2   9   64.57    6.85
   1  -2  -9   57.23    4.02
   1  -2  -9   60.65    5.26
  -1   2   9   62.05    3.58
  -1   2   9   60.24    4.03
   1  -2  -9   34.64    6.74
  -1   2   9   56.19    7.61
  -1   2   9   38.56    7.51
   0  -2  -9  156.43    9.80
   0  -2  -9  158.24   12.45
   0  -2  -9  164.90   14.35
   0   2   9  176.45    8.09
   0   2   9  149.99    9.30
   0   2   9  144.29    7.69
   0  -2  -9  133.86   15.09
   0   2   9  149.46   15.95
   0   2   9  159.95   16.78
  -1  -2  -9  215.70   13.56
  -1  -2  -9  229.82   22.62
  -1  -2  -9  214.05   15.06
  -1  -2  -9  223.09   14.50
   1   2   9  200.41   11.75
   1   2   9  203.21   12.21
   1   2   9  237.27   12.63
  -1  -2  -9  190.17   26.78
  -1  -2  -9  214.52   20.04
   1   2   9  235.46   30.46
   1   2   9  224.86   28.95
  -2  -2  -9   53.60    3.58
  -2  -2  -9   53.67    5.01
  -2  -2  -9   47.10    3.60
   2   2   9   57.37    3.28
   2   2   9   48.37    3.78
   2   2   9   49.37    2.93
  -2  -2  -9   47.31    9.69
  -2  -2  -9   43.12    7.99
   2   2   9   52.92    8.24
   2   2   9   38.57    6.21
  -3  -2  -9  108.71   10.02
  -3  -2  -9  110.26    7.81
  -3  -2  -9   95.17   10.79
  -3  -2  -9   96.29   13.75
   3   2   9  109.91    8.00
   3   2   9  104.80    7.39
   3   2   9  109.97    5.92
   3   2   9  110.36    6.03
  -3  -2  -9  111.09   12.72
  -3  -2  -9   82.84   13.54
   3   2   9   93.53   12.54
   3   2   9  119.51   13.05
  -4  -2  -9    3.84    1.60
  -4  -2  -9    4.47    0.96
  -4  -2  -9    3.31    1.11
   4   2   9    2.69    1.29
   4   2   9    1.63    1.26
   4   2   9    3.33    1.17
   4   2   9    3.02    1.56
  -4  -2  -9   -4.23    9.43
  -4  -2  -9    4.43   10.34
   4   2   9    0.31    6.55
   4   2   9   -6.48    8.35
  -5  -2  -9    5.72    1.07
  -5  -2  -9    3.70    1.42
   5   2   9    3.17    1.57
   5   2   9    6.08    1.74
   5   2   9    3.85    1.40
  -5  -2  -9   -1.65   10.89
   5   2   9   11.53   10.92
  -6  -2  -9   10.41    1.92
   6   2   9    8.61    1.86
   6   2   9    9.98    2.19
   6   2   9    5.32    2.08
  -6  -2  -9   -0.09   13.62
  -7  -2  -9   56.22    4.31
   7   2   9   54.83    4.88
  -7  -2  -9   50.52   21.35
  -8  -2  -9   28.93    3.69
  -8  -2  -9   27.50    3.61
   8   2   9   32.26    4.72
  -8  -2  -9   23.92   28.29
   6  -3  -9    4.13    2.77
  -6   3   9   -2.11    2.57
  -6   3   9   17.47   11.96
   5  -3  -9   -0.53    1.32
  -5   3   9   -0.39    1.26
  -5   3   9    2.07    6.01
   4  -3  -9   20.51    2.55
  -4   3   9   18.05    2.39
  -4   3   9   15.88    2.19
  -4   3   9   16.97    2.76
  -4   3   9   28.86   12.06
  -4   3   9   14.50    6.35
   3  -3  -9   37.13    3.27
  -3   3   9   29.59    2.73
  -3   3   9   34.42    3.24
  -3   3   9   34.35    3.13
  -3   3   9   29.23    6.12
  -3   3   9   21.67    8.28
   2  -3  -9   10.72    1.89
   2  -3  -9    6.16    2.02
  -2   3   9    7.36    1.45
  -2   3   9   11.72    1.72
  -2   3   9    9.65    1.81
  -2   3   9   10.63    6.38
  -2   3   9   14.46    6.22
   1  -3  -9   -0.12    0.35
   1  -3  -9    0.04    0.30
   1  -3  -9    1.35    0.94
   1  -3  -9    0.84    0.36
   1  -3  -9   -0.39    0.49
  -1   3   9    1.17    1.06
  -1   3   9   -0.78    0.78
   1  -3  -9    7.01    6.96
  -1   3   9    5.23    3.55
  -1   3   9   -1.39    3.08
   0  -3  -9  180.42   11.17
   0  -3  -9  179.08   10.41
   0  -3  -9  180.31   13.48
   0   3   9  188.87   11.12
   0   3   9  191.54   10.54
   0  -3  -9  186.36   23.37
   0   3   9  176.83   24.78
   0   3   9  186.68   16.69
  -1  -3  -9  298.86   26.96
  -1  -3  -9  288.77   16.14
   1   3   9  292.11   15.75
   1   3   9  294.88   16.59
   1   3   9  254.98   15.93
  -1  -3  -9  293.77   34.00
   1   3   9  298.67   26.85
   1   3   9  279.54   31.60
  -2  -3  -9  212.19   18.97
  -2  -3  -9  203.61   12.91
  -2  -3  -9  218.16   13.86
   2   3   9  206.59   10.26
   2   3   9  203.15   11.66
   2   3   9  223.09   12.10
  -2  -3  -9  162.84   33.10
   2   3   9  186.39   21.75
   2   3   9  223.89   21.76
  -3  -3  -9   59.57    5.75
  -3  -3  -9   69.28    4.30
   3   3   9   65.50    3.73
   3   3   9   62.07    3.91
   3   3   9   58.77    3.85
   3   3   9   60.81    3.75
  -3  -3  -9   44.83   11.43
   3   3   9   56.66    9.05
  -4  -3  -9   97.78    8.90
  -4  -3  -9  103.65    7.00
  -4  -3  -9  112.34    9.94
   4   3   9  106.65    5.84
   4   3   9  106.93    5.83
   4   3   9   95.90    6.21
   4   3   9  112.63    5.84
   4   3   9   92.78    6.23
  -4  -3  -9   88.40   17.33
   4   3   9   89.41   11.99
   4   3   9  123.31   14.34
  -5  -3  -9   24.92    2.85
  -5  -3  -9   26.00    2.92
   5   3   9   30.22    2.53
   5   3   9   28.46    2.66
   5   3   9   32.56    2.64
  -5  -3  -9   25.52   13.70
   5   3   9   37.85   12.45
  -6  -3  -9   14.06    1.99
  -6  -3  -9   12.89    1.98
   6   3   9   14.51    2.25
   6   3   9   19.49    2.62
   6   3   9   13.65    2.51
  -6  -3  -9    1.14   13.92
  -7  -3  -9    1.30    0.75
   7   3   9    0.40    0.96
   7   3   9   -0.11    0.99
   7   3   9   -0.84    0.84
  -7  -3  -9    5.03    7.95
  -8  -3  -9   14.04    2.86
   8   3   9    7.84    3.55
  -8  -3  -9    1.55   21.13
   5  -4  -9   71.34    6.82
  -5   4   9   68.26    5.05
  -5   4   9   87.99   13.55
   4  -4  -9   84.14    6.03
  -4   4   9   68.69    5.02
  -4   4   9   69.14    6.74
  -4   4   9   78.25    8.08
  -4   4   9  104.11   11.97
   3  -4  -9    4.74    1.87
  -3   4   9    6.28    2.24
  -3   4   9    3.97    2.48
  -3   4   9    3.65    2.34
  -3   4   9    8.94    9.75
  -3   4   9   -0.41    7.25
   2  -4  -9  185.10   13.08
  -2   4   9  190.30   17.83
  -2   4   9  200.49   14.78
  -2   4   9  174.33   13.03
  -2   4   9  192.14   22.74
   1  -4  -9    8.40    1.12
   1  -4  -9    9.89    1.00
   1  -4  -9   13.03    2.06
  -1   4   9    9.96    1.83
  -1   4   9   14.25    2.08
  -1   4   9    6.04    6.15
  -1   4   9   13.40    6.10
   0  -4  -9    1.19    1.15
   0  -4  -9    0.23    1.17
   0  -4  -9    2.08    1.06
   0  -4  -9    4.19    1.67
   0   4   9    2.96    1.69
   0   4   9    5.74    1.60
   0  -4  -9   10.34   13.32
   0   4   9    0.86    5.52
   0   4   9    5.47    5.18
  -1  -4  -9   97.85    6.73
  -1  -4  -9  115.58    8.08
  -1  -4  -9  118.30    8.99
   1   4   9  111.31    6.34
   1   4   9  111.66    7.38
  -1  -4  -9  100.87   18.34
   1   4   9  107.42   14.19
   1   4   9  118.77   11.61
  -2  -4  -9   11.20    2.06
  -2  -4  -9    7.89    1.70
  -2  -4  -9   10.84    1.81
   2   4   9   11.91    1.80
   2   4   9   11.30    1.50
   2   4   9   10.56    1.46
  -2  -4  -9    1.93   10.09
   2   4   9    9.12    6.70
   2   4   9   17.35    6.74
  -3  -4  -9   37.27    3.05
  -3  -4  -9   35.57    3.35
   3   4   9   30.70    2.56
   3   4   9   37.92    2.97
   3   4   9   35.36    2.81
  -3  -4  -9   29.50   11.28
   3   4   9   20.73    7.31
   3   4   9   31.85   10.64
  -4  -4  -9   16.09    2.06
  -4  -4  -9   10.36    2.03
  -4  -4  -9   16.17    1.80
   4   4   9   15.63    1.96
   4   4   9   18.70    2.12
   4   4   9   13.50    2.16
   4   4   9   11.74    1.27
   4   4   9   16.08    1.22
  -4  -4  -9    4.75   11.68
   4   4   9   14.55    9.25
   4   4   9   17.40    8.44
  -5  -4  -9    5.16    1.98
  -5  -4  -9    5.02    1.71
   5   4   9    4.43    1.86
   5   4   9    4.76    1.56
   5   4   9    5.08    1.76
   5   4   9  -10.48   10.48
  -6  -4  -9    0.71    1.08
  -6  -4  -9    1.43    1.10
   6   4   9   -0.57    1.32
   6   4   9    0.86    1.34
   6   4   9   -0.36    1.38
   6   4   9   -5.73    9.32
  -7  -4  -9   34.77    3.87
   7   4   9   44.32    3.71
   7   4   9   30.55    3.78
   7   4   9   35.36    3.40
  -8  -4  -9   12.92    2.86
   8   4   9   17.62    3.59
   4  -5  -9    2.63    2.47
  -4   5   9   -2.38    3.00
  -4   5   9   12.81    8.73
   3  -5  -9    8.60    2.32
  -3   5   9    9.14    3.23
  -3   5   9    9.42    3.02
  -3   5   9    4.28    8.91
  -3   5   9   14.40    9.81
   2  -5  -9    8.13    2.34
  -2   5   9    9.76    2.65
  -2   5   9   10.01    3.03
  -2   5   9   -1.30    6.61
  -2   5   9   14.71    9.62
   1  -5  -9   -0.40    1.41
  -1   5   9   -1.78    1.78
  -1   5   9    0.90    1.71
  -1   5   9   -0.08    5.81
  -1   5   9    1.04    5.24
   0  -5  -9    2.32    1.84
   0  -5  -9    5.69    2.05
   0   5   9    5.75    2.08
   0   5   9    3.16    2.13
   0   5   9    8.12    7.02
   0   5   9    3.46    7.26
  -1  -5  -9   31.96    3.16
  -1  -5  -9   40.64    3.82
   1   5   9   34.67    3.33
   1   5   9   35.09    3.32
   1   5   9   36.11    7.79
   1   5   9   37.69    7.90
  -2  -5  -9  417.38   26.20
   2   5   9  392.46   28.58
   2   5   9  388.08   27.82
   2   5   9  373.25   29.61
   2   5   9  384.33   37.14
  -3  -5  -9   15.88    2.32
  -3  -5  -9   12.78    2.20
   3   5   9   16.37    2.40
   3   5   9   17.71    2.52
   3   5   9   14.69    2.24
   3   5   9    3.96    8.88
  -4  -5  -9   89.16    5.41
  -4  -5  -9   71.53    5.24
   4   5   9   86.75    6.63
   4   5   9   88.74    5.92
   4   5   9   90.91    6.22
   4   5   9   74.68   12.61
  -5  -5  -9   -0.14    1.01
  -5  -5  -9    1.19    1.69
  -5  -5  -9    0.36    1.62
   5   5   9   -0.59    1.99
   5   5   9   -0.28    1.69
   5   5   9   -1.02    2.02
  -6  -5  -9    2.46    2.16
  -6  -5  -9    6.91    2.30
   6   5   9    4.13    2.66
   6   5   9    4.33    2.32
   6   5   9    8.34    2.73
   6   5   9    5.35   16.44
   7   5   9    0.41    1.66
   7   5   9   -1.41    1.41
   7   5   9    1.04    2.11
  -8  -5  -9   -2.23    2.23
   8   5   9   -2.96    2.96
   3  -6  -9   -0.49    2.63
   3  -6  -9   -1.01    2.77
  -3   6   9    1.57    2.25
  -3   6   9   -3.25    3.51
   2  -6  -9   10.17    2.55
   2  -6  -9   12.45    2.67
  -2   6   9    8.98    3.69
  -2   6   9   12.44    3.42
  -2   6   9   14.65    8.52
  -2   6   9    3.58    7.02
   1  -6  -9   -0.08    0.57
   1  -6  -9    0.22    0.68
  -1   6   9    0.06    0.66
  -1   6   9   -0.81    0.81
  -1   6   9    1.08    2.28
  -1   6   9   -1.80    2.09
   0  -6  -9   19.30    2.75
   0  -6  -9   22.52    3.11
   0   6   9   19.61    3.30
   0   6   9   14.14    3.09
   0   6   9    7.51    8.80
   0   6   9   19.55    8.38
  -1  -6  -9    2.45    2.28
  -1  -6  -9   -0.04    2.29
   1   6   9    5.97    2.69
   1   6   9    1.49    2.39
   1   6   9    4.20    8.58
  -2  -6  -9  188.16   12.11
   2   6   9  178.79   15.33
   2   6   9  186.47   16.48
   2   6   9  189.62   20.08
  -3  -6  -9    5.52    2.25
  -3  -6  -9    0.03    2.07
   3   6   9    9.22    2.78
   3   6   9    2.55    2.12
   3   6   9   -2.26    6.64
  -4  -6  -9    0.34    1.84
   4   6   9   -0.31    1.82
   4   6   9   -0.10    2.15
   4   6   9    1.87    2.32
   4   6   9    1.20    9.09
  -5  -6  -9    3.80    2.37
  -5  -6  -9    1.76    2.06
   5   6   9    1.96    2.27
   5   6   9   -0.39    2.56
   5   6   9   -0.68    1.70
   5   6   9    3.50   12.53
  -6  -6  -9    0.93    1.29
  -6  -6  -9   -1.24    1.24
   6   6   9    1.59    1.40
   6   6   9    0.19    1.37
   6   6   9   -0.09    1.66
   6   6   9   -5.01    9.10
  -7  -6  -9    0.03    2.63
  -7  -6  -9   -4.84    4.84
   7   6   9    3.11    3.26
   7   6   9    2.80    3.10
   7   6   9    4.30    3.66
   7   6   9  -40.63   40.73
   2  -7  -9   -0.18    2.31
   2  -7  -9    1.63    2.09
  -2   7   9    2.58    2.93
  -2   7   9    0.84    1.50
   1  -7  -9   -0.10    1.89
   1  -7  -9    1.55    1.75
  -1   7   9   -1.55    2.96
  -1   7   9   -1.20    2.44
   0  -7  -9    0.54    0.69
   0  -7  -9   -0.77    0.77
   0   7   9   -0.43    0.95
   0   7   9    1.28    0.87
   0   7   9    0.39    2.96
  -1  -7  -9   32.62    5.59
  -1  -7  -9   48.12    4.43
   1   7   9   40.42    5.00
   1   7   9   41.77    4.40
   1   7   9   45.65   12.76
   2   7   9   15.72    3.86
   2   7   9   15.01    3.41
   2   7   9   12.81   12.70
  -3  -7  -9  118.83    9.41
   3   7   9  106.10   10.18
   3   7   9  117.06    8.31
   3   7   9  120.91   18.17
  -4  -7  -9   45.42    4.43
   4   7   9   44.97    5.26
   4   7   9   38.19    4.76
   4   7   9   42.36   14.80
  -5  -7  -9   -1.67    2.90
  -5  -7  -9    5.72    3.76
   5   7   9    1.45    3.54
   5   7   9   -0.46    3.23
   5   7   9   16.38   16.26
  -6  -7  -9   73.41    6.65
  -6  -7  -9   67.60    5.97
   6   7   9   63.80    6.71
   6   7   9   71.00    6.42
   6   7   9   78.97   26.24
   0  -8  -9   23.20    4.62
   0   8   9   17.79    5.00
   0   8   9   13.56    6.84
  -1  -8  -9    9.21    3.78
   1   8   9    2.43    4.14
   1   8   9   11.62    4.30
   1   8   9   -2.29   14.98
  -2  -8  -9   30.86    4.12
   2   8   9   19.15    4.37
   2   8   9   21.76    5.03
   2   8   9   35.83   15.37
  -3  -8  -9    1.48    3.15
   3   8   9   -4.20    4.20
   3   8   9    6.24    3.93
   3   8   9   -5.42   17.08
  -4  -8  -9    1.03    1.69
   4   8   9    2.51    1.79
   4   8   9   -1.02    2.03
   4   8   9   -7.91    7.91
  -5  -8  -9   -0.57    1.13
  -5  -8  -9   -1.01    1.01
   5   8   9   -0.54    1.13
   5   8   9   -0.48    1.13
   4   8 -10    0.65    1.92
   4   8 -10    0.46    1.88
   3   8 -10    1.87    3.86
   3   8 -10    4.18    4.03
  -3  -8  10   -2.97    2.97
  -3  -8  10    5.73    3.73
   3   8 -10    9.18   15.75
   2   8 -10   14.81    3.92
   2   8 -10    9.06    4.61
  -2  -8  10   15.87    3.41
  -2  -8  10    8.43    3.36
   2   8 -10   14.59   19.08
   1   8 -10   14.23    4.16
   1   8 -10   -3.24    4.18
  -1  -8  10    7.69    3.90
   1   8 -10   -0.88   16.41
   6   7 -10   -1.29    4.67
   6   7 -10   -0.13    4.61
  -6  -7  10    3.33    3.12
   6   7 -10   -0.24   23.82
   5   7 -10    3.35    3.98
   5   7 -10    9.71    4.25
  -5  -7  10    9.30    3.56
   5   7 -10   11.05   19.66
   4   7 -10   16.11    4.04
   4   7 -10   20.48    4.03
  -4  -7  10   22.55    3.77
   4   7 -10   27.06   14.78
   3   7 -10    2.52    2.84
   3   7 -10    2.43    3.45
  -3  -7  10    6.92    2.65
   3   7 -10    1.42   10.68
   2   7 -10   -2.32    2.32
   2   7 -10   -1.42    2.72
  -2  -7  10    2.32    2.21
  -2  -7  10   -0.06    2.06
   2   7 -10   -4.74   10.34
   1   7 -10    5.71    3.26
   1   7 -10   12.98    3.40
  -1  -7  10    6.25    2.73
   1   7 -10   -2.18   12.47
   0   7 -10    8.65    3.74
   0   7 -10    8.10    4.15
   0  -7  10   14.88    3.00
   0   7 -10    7.28   12.38
  -1   7 -10    0.84    3.09
  -1   7 -10   -2.23    2.97
   1  -7  10    2.40    1.94
  -1   7 -10    3.32   10.01
   7   6 -10    3.53    4.27
  -7  -6  10    0.49    2.99
   6   6 -10    3.73    4.18
  -6  -6  10    5.93    2.58
   6   6 -10   -0.66   21.25
   5   6 -10   14.07    3.78
   5   6 -10   13.69    3.99
  -5  -6  10   14.39    3.08
   5   6 -10    4.07   15.38
   4   6 -10   10.43    3.20
  -4  -6  10    9.70    2.57
   4   6 -10   -2.35   13.48
   3   6 -10    4.17    2.92
   3   6 -10   -1.12    3.01
  -3  -6  10    4.54    1.98
   3   6 -10    5.43   11.33
   2   6 -10   76.50    7.11
   2   6 -10   73.70    6.24
  -2  -6  10   83.66    5.15
  -2  -6  10   80.72    6.98
   2   6 -10   80.00   12.39
   1   6 -10   25.58    3.62
   1   6 -10   32.98    3.97
  -1  -6  10   30.84    3.29
  -1  -6  10   40.62    3.40
   1   6 -10   33.07    9.92
   0   6 -10    3.54    2.88
   0   6 -10    1.10    2.75
   0  -6  10    1.50    2.19
   0  -6  10    5.66    1.71
   0   6 -10   -0.07    8.00
  -1   6 -10   14.10    3.97
  -1   6 -10   12.51    3.85
   1  -6  10   20.74    2.98
  -1   6 -10   13.71   11.26
  -2   6 -10    4.98    4.13
  -2   6 -10    9.40    4.49
   2  -6  10   11.60    2.58
  -2   6 -10   37.48   17.58
  -3   6 -10    0.62    4.22
   3  -6  10    1.81    2.97
  -3   6 -10    8.86   15.54
   7   5 -10    1.78    3.43
  -7  -5  10    1.56    2.45
   6   5 -10   -0.65    1.30
  -6  -5  10    0.07    0.74
   5   5 -10   71.49    6.24
  -5  -5  10   76.50    6.40
   5   5 -10   56.39   14.12
   4   5 -10   19.71    3.29
   4   5 -10   25.20    2.66
  -4  -5  10   27.48    3.09
   4   5 -10   10.18    8.44
   3   5 -10   16.88    2.88
   3   5 -10   14.03    2.83
   3   5 -10   22.30    2.27
  -3  -5  10   17.54    2.58
   3   5 -10   18.46    9.79
   2   5 -10   21.64    2.87
   2   5 -10   17.62    2.05
   2   5 -10   19.86    2.90
  -2  -5  10   15.58    2.33
  -2  -5  10   22.73    2.15
   2   5 -10    5.68    9.34
   1   5 -10    0.80    1.62
   1   5 -10    0.07    1.77
  -1  -5  10    0.29    0.96
  -1  -5  10    1.24    1.30
   1   5 -10   -0.78    6.29
   0   5 -10   27.56    3.85
   0   5 -10   37.47    3.90
   0  -5  10   36.46    3.15
   0  -5  10   32.62    3.12
   0   5 -10   29.29    7.98
  -1   5 -10   -1.85    1.85
  -1   5 -10   -1.34    2.28
   1  -5  10    0.87    1.23
   1  -5  10    0.72    1.12
  -1   5 -10   -1.51    7.55
  -2   5 -10   36.34    4.66
  -2   5 -10   30.53    4.97
   2  -5  10   40.07    3.35
  -2   5 -10   50.86   12.89
  -3   5 -10   -0.08    2.17
   3  -5  10   -0.93    1.35
  -3   5 -10   -5.79    9.18
  -4   5 -10    0.10    2.08
   4  -5  10   -1.26    1.41
  -4   5 -10    1.95    6.74
   7   4 -10   64.38    6.47
  -7  -4  10   58.62    5.71
  -7  -4  10   55.45    5.41
  -7  -4  10   56.89    5.39
   6   4 -10    4.27    2.58
   6   4 -10    1.97    2.27
  -6  -4  10    3.79    1.84
  -6  -4  10    3.83    2.29
  -6  -4  10    2.50    2.11
   5   4 -10    5.09    2.00
   5   4 -10    1.53    2.58
  -5  -4  10    5.45    1.52
  -5  -4  10    1.64    1.64
  -5  -4  10    4.28    1.58
   5   4 -10   -1.28   13.25
   4   4 -10   15.76    2.60
   4   4 -10   13.09    1.89
  -4  -4  10   12.75    2.06
  -4  -4  10   12.17    1.44
  -4  -4  10   12.65    1.59
   4   4 -10    2.69   10.86
  -4  -4  10    2.70    9.75
   3   4 -10   13.01    1.62
   3   4 -10   12.60    2.52
   3   4 -10   13.51    1.35
  -3  -4  10   10.91    1.26
  -3  -4  10   13.98    1.89
  -3  -4  10   11.57    1.12
   3   4 -10   17.55    9.67
  -3  -4  10    7.97    9.19
   2   4 -10    0.51    0.42
   2   4 -10    0.50    0.58
   2   4 -10   -0.65    0.65
  -2  -4  10   -0.00    0.39
  -2  -4  10   -0.65    0.65
  -2  -4  10    0.43    0.37
   2   4 -10   -0.64    3.44
   2   4 -10    1.02    2.60
  -2  -4  10    1.68    2.78
   1   4 -10   17.44    2.58
   1   4 -10   13.92    1.61
   1   4 -10   13.93    2.61
  -1  -4  10   14.80    1.79
  -1  -4  10   15.76    1.78
   1   4 -10   15.84    5.92
   1   4 -10    4.92   10.74
   0   4 -10    9.81    2.51
   0   4 -10    6.28    2.30
   0  -4  10    4.12    1.32
   0  -4  10    7.56    1.29
   0   4 -10   14.25    9.89
   0   4 -10   -1.49    6.78
  -1   4 -10   21.04    2.79
  -1   4 -10   17.83    3.10
   1  -4  10   19.31    2.06
  -1   4 -10   26.00   11.82
  -1   4 -10    5.70    8.28
  -2   4 -10  134.19    9.62
  -2   4 -10  134.06   12.85
   2  -4  10  138.28    8.79
  -2   4 -10  123.06   16.74
  -3   4 -10   -0.04    0.83
  -3   4 -10    0.36    1.10
   3  -4  10    0.10    0.63
  -3   4 -10    6.40    4.82
  -4   4 -10    2.65    3.85
   4  -4  10   -1.11    2.36
  -4   4 -10   -1.84   14.88
  -5   4 -10   23.28    5.12
   5  -4  10   21.41    3.97
  -5   4 -10   -2.57   15.17
   8   3 -10   16.95    4.73
   8   3 -10   18.64    4.09
  -8  -3  10   15.49    3.59
  -8  -3  10   13.94    3.62
  -8  -3  10    7.14   23.21
   7   3 -10    8.19    3.12
   7   3 -10    5.43    2.72
  -7  -3  10   10.58    2.70
  -7  -3  10    6.40    2.76
  -7  -3  10    7.00    3.14
  -7  -3  10   10.56   16.40
   6   3 -10    0.02    2.01
   6   3 -10    1.45    1.58
  -6  -3  10   -0.55    1.30
  -6  -3  10    1.62    1.32
  -6  -3  10   -0.13    1.54
  -6  -3  10    3.12    8.82
   5   3 -10   34.09    3.00
   5   3 -10   29.17    3.59
  -5  -3  10   31.46    2.69
  -5  -3  10   33.70    2.92
  -5  -3  10   34.31    3.48
   5   3 -10   15.68   11.46
  -5  -3  10   29.00   10.95
   4   3 -10   43.87    4.52
   4   3 -10   52.18    4.05
  -4  -3  10   43.48    3.80
  -4  -3  10   45.54    3.53
  -4  -3  10   43.85    3.28
   4   3 -10   20.71    7.75
  -4  -3  10   26.68    7.69
   3   3 -10  238.45   18.31
   3   3 -10  237.85   19.03
  -3  -3  10  236.49   13.02
  -3  -3  10  223.81   12.87
  -3  -3  10  241.67   19.48
   3   3 -10  196.35   14.89
  -3  -3  10  187.91   19.92
   2   3 -10   17.96    1.48
   2   3 -10   16.19    1.70
   2   3 -10   17.10    2.19
   2   3 -10   18.93    2.58
  -2  -3  10   15.35    1.67
  -2  -3  10   14.81    1.27
  -2  -3  10   20.11    1.74
   2   3 -10    8.24   10.76
   2   3 -10   -1.79    6.00
  -2  -3  10    9.25    6.43
   1   3 -10   94.81    8.85
   1   3 -10  103.47    6.67
   1   3 -10  103.69    8.61
  -1  -3  10  106.67    7.87
  -1  -3  10  100.73    6.33
   1   3 -10   68.88   10.21
   1   3 -10   76.46   10.03
  -1  -3  10   62.49    7.87
   0   3 -10  293.42   24.90
   0   3 -10  334.33   25.03
   0   3 -10  387.90   27.61
   0   3 -10  323.26   28.56
   0  -3  10  326.85   30.56
   0  -3  10  337.86   25.86
   0   3 -10  326.98   21.59
   0   3 -10  290.65   27.40
   0  -3  10  323.81   19.30
  -1   3 -10    4.60    2.03
  -1   3 -10    5.22    2.16
  -1   3 -10    2.57    1.24
  -1   3 -10    3.52    1.24
   1  -3  10    2.93    0.96
   1  -3  10    3.54    1.37
  -1   3 -10   -4.85    8.58
  -1   3 -10    4.52    6.15
   1  -3  10   -0.45    7.11
  -2   3 -10    7.28    2.06
  -2   3 -10    7.18    0.86
  -2   3 -10    5.07    2.40
  -2   3 -10    6.09    0.86
  -2   3 -10    5.58    1.08
   2  -3  10    3.86    0.97
   2  -3  10    7.65    1.37
  -2   3 -10   -2.46    9.32
  -2   3 -10    4.84    7.22
  -3   3 -10   66.18    4.39
  -3   3 -10   73.30    8.48
  -3   3 -10   75.74    5.15
  -3   3 -10   88.55    6.72
   3  -3  10   82.14    4.87
  -3   3 -10  110.60   13.72
  -4   3 -10    5.72    3.12
   4  -3  10    4.29    1.84
   4  -3  10   -0.38    2.05
  -4   3 -10    9.20   12.02
  -5   3 -10    6.46    4.23
   5  -3  10    3.07    2.10
   5  -3  10    1.50    2.70
  -5   3 -10    4.55   13.74
  -6   3 -10    5.58    5.44
   6  -3  10    9.54    3.20
  -6   3 -10   18.35   19.80
   8   2 -10    7.11    3.02
   8   2 -10    2.59    2.86
  -8  -2  10   -0.22    2.62
  -8  -2  10    3.39    2.18
  -8  -2  10    3.30   12.37
   7   2 -10   20.45    3.47
   7   2 -10   20.67    3.35
  -7  -2  10   16.19    3.05
  -7  -2  10   18.07    2.62
  -7  -2  10   13.98    3.66
  -7  -2  10    6.04   12.27
   6   2 -10    1.44    1.79
   6   2 -10    0.28    1.86
  -6  -2  10   -1.68    1.68
  -6  -2  10    1.18    1.62
  -6  -2  10    2.43    2.06
  -6  -2  10   -0.99    9.18
   5   2 -10    6.41    2.05
   5   2 -10    9.29    2.60
  -5  -2  10    6.72    1.44
  -5  -2  10    7.97    1.67
  -5  -2  10    7.33    1.56
  -5  -2  10    5.89    1.93
  -5  -2  10   -1.79    7.44
   4   2 -10   21.65    2.38
   4   2 -10   26.91    2.79
  -4  -2  10   22.11    2.02
  -4  -2  10   21.14    2.10
  -4  -2  10   21.77    2.01
  -4  -2  10   21.22    2.61
  -4  -2  10   22.13    2.06
   4   2 -10    7.75    7.74
  -4  -2  10   12.58    6.26
  -4  -2  10   -2.34   13.35
   3   2 -10   60.92    5.55
   3   2 -10   52.97    4.62
   3   2 -10   54.03    4.48
   3   2 -10   61.50    4.70
  -3  -2  10   62.09    3.92
  -3  -2  10   59.83    3.53
  -3  -2  10   57.91    3.67
  -3  -2  10   57.26    5.32
  -3  -2  10   64.39    4.25
   3   2 -10   32.82    7.14
  -3  -2  10   36.38    6.82
   2   2 -10   46.87    3.80
   2   2 -10   43.56    3.65
   2   2 -10   35.38    3.34
   2   2 -10   38.75    3.68
  -2  -2  10   40.28    2.77
  -2  -2  10   44.38    3.71
  -2  -2  10   42.67    2.60
   2   2 -10   36.03    9.95
   2   2 -10   20.35    6.04
  -2  -2  10   32.22    6.06
   1   2 -10   25.02    2.83
   1   2 -10   28.85    2.13
   1   2 -10   31.85    2.62
   1   2 -10   26.32    2.84
   1   2 -10   25.48    2.13
  -1  -2  10   27.60    2.79
  -1  -2  10   27.29    2.01
   1   2 -10   20.33    8.66
   1   2 -10   16.00    5.07
  -1  -2  10   10.68    4.55
  -1  -2  10   22.86    8.31
   0   2 -10  112.69    8.00
   0   2 -10   92.89    9.24
   0   2 -10  110.97    9.96
   0   2 -10  113.18    8.91
   0   2 -10  121.95   10.52
   0   2 -10  110.26    8.66
   0  -2  10   99.35    8.09
   0  -2  10  110.49    7.32
   0   2 -10   94.94   12.23
   0   2 -10   81.61    8.97
   0  -2  10   79.32   13.11
  -1   2 -10   64.07    3.58
  -1   2 -10   72.03    6.22
  -1   2 -10   68.93    5.77
  -1   2 -10   74.30    6.43
  -1   2 -10   61.29    4.62
  -1   2 -10   67.48    3.79
   1  -2  10   59.73    5.97
   1  -2  10   65.47    4.78
  -1   2 -10   61.93   10.01
  -1   2 -10   45.09    7.28
   1  -2  10   41.28    6.81
  -2   2 -10  106.15    9.83
  -2   2 -10  100.30    5.96
  -2   2 -10  116.69   11.28
  -2   2 -10  119.45    8.31
  -2   2 -10  126.50    8.43
   2  -2  10   99.75    7.46
   2  -2  10   97.84    7.39
  -2   2 -10   94.59    9.69
  -2   2 -10   90.65   10.05
   2  -2  10   64.99    9.78
  -3   2 -10   60.35    5.81
  -3   2 -10   64.17    5.76
  -3   2 -10   63.03    5.50
  -3   2 -10   67.78    7.87
   3  -2  10   63.87    4.60
   3  -2  10   64.62    4.77
  -4   2 -10   -0.00    0.45
  -4   2 -10    0.28    0.44
  -4   2 -10    0.96    0.82
   4  -2  10    0.22    0.54
   4  -2  10   -0.47    0.47
  -4   2 -10    3.10    3.16
  -5   2 -10    5.45    3.31
  -5   2 -10    9.69    2.23
  -5   2 -10    4.46    2.01
   5  -2  10    6.62    2.40
   5  -2  10    2.80    1.89
  -5   2 -10   27.62   14.34
  -6   2 -10   32.71    4.63
  -6   2 -10   35.37    5.89
  -6   2 -10   35.72    4.61
   6  -2  10   36.77    3.99
  -6   2 -10   19.95   15.11
   7   1 -10   -0.33    2.12
   7   1 -10   -1.98    2.23
  -7  -1  10   -1.28    1.73
  -7  -1  10   -0.39    2.10
  -7  -1  10   10.71    9.27
   6   1 -10   29.54    3.64
   6   1 -10   26.11    2.95
  -6  -1  10   26.81    3.00
  -6  -1  10   27.38    2.90
  -6  -1  10   27.63   11.15
   5   1 -10   85.36    6.96
   5   1 -10   84.97    6.26
  -5  -1  10   79.85    5.33
  -5  -1  10   81.88    8.77
  -5  -1  10   76.67    4.62
  -5  -1  10   73.50    5.13
  -5  -1  10   73.29    9.86
   4   1 -10  282.92   21.03
   4   1 -10  283.83   20.73
  -4  -1  10  297.68   29.62
  -4  -1  10  283.29   18.07
  -4  -1  10  257.61   16.15
  -4  -1  10  262.28   17.95
   4   1 -10  217.23   18.50
  -4  -1  10  244.70   25.98
   3   1 -10   26.18    2.50
   3   1 -10   29.00    2.99
  -3  -1  10   25.74    1.47
  -3  -1  10   26.62    2.81
  -3  -1  10   24.42    1.85
  -3  -1  10   22.71    1.57
  -3  -1  10   23.11    2.10
   3   1 -10   10.66    7.48
  -3  -1  10   19.28    6.21
  -3  -1  10   30.19    8.04
   2   1 -10  127.53   12.73
   2   1 -10  137.72   10.10
   2   1 -10  133.04    9.16
   2   1 -10  138.70   11.48
  -2  -1  10  133.51   12.91
  -2  -1  10  141.64   11.85
  -2  -1  10  136.84    8.75
  -2  -1  10  132.54    7.56
   2   1 -10  109.17   13.31
   2   1 -10   92.38   11.74
  -2  -1  10  101.22   13.85
  -2  -1  10  116.07   11.05
   1   1 -10  110.34    7.85
   1   1 -10  123.25   10.34
   1   1 -10  122.83   11.29
   1   1 -10  119.76   12.06
   1   1 -10  105.02    8.35
  -1  -1  10  121.50    6.65
  -1  -1  10  120.25   11.40
  -1  -1  10  119.17    7.47
   1   1 -10  108.41   11.90
   1   1 -10   93.01   12.19
  -1  -1  10  104.88   14.65
  -1  -1  10  132.32   14.55
   0   1 -10   85.80    8.23
   0   1 -10  104.33    9.42
   0   1 -10   88.62    6.24
   0   1 -10  105.70   10.45
   0   1 -10  108.81    9.99
   0   1 -10  114.81    9.10
   0  -1  10  104.83    6.74
   0  -1  10  100.06   10.90
   0  -1  10   85.43    8.31
   0  -1  10  109.65    5.90
   0   1 -10   89.11   11.96
   0   1 -10   69.72    8.45
   0  -1  10   81.27    9.87
   0  -1  10   93.99   13.28
  -1   1 -10    0.80    0.45
  -1   1 -10   -0.72    0.79
  -1   1 -10    0.72    0.70
  -1   1 -10    0.23    0.20
  -1   1 -10    0.62    0.43
  -1   1 -10   -0.05    0.52
  -1   1 -10    0.93    0.53
   1  -1  10    1.25    0.37
   1  -1  10    0.64    0.33
  -1   1 -10    0.63    2.59
  -1   1 -10    2.52    2.83
   1  -1  10   -1.53    2.59
   1  -1  10   -2.39    2.39
  -2   1 -10   48.55    4.69
  -2   1 -10   41.39    4.01
  -2   1 -10   56.33    2.93
  -2   1 -10   48.18    4.94
  -2   1 -10   51.78    3.28
   2  -1  10   46.60    3.63
   2  -1  10   51.00    3.14
  -2   1 -10   27.01    7.19
   2  -1  10   16.08    5.58
  -3   1 -10   42.12    2.61
  -3   1 -10   45.34    4.28
  -3   1 -10   50.77    3.29
  -3   1 -10   42.80    4.10
   3  -1  10   46.41    3.69
   3  -1  10   45.32    3.49
  -3   1 -10   34.36    9.59
  -3   1 -10   33.72    9.50
   3  -1  10   16.12    9.44
  -4   1 -10  174.93   13.82
  -4   1 -10  205.00   15.50
   4  -1  10  185.69   15.91
   4  -1  10  195.95   11.94
  -4   1 -10  193.86   21.09
  -5   1 -10    7.00    1.82
  -5   1 -10   10.85    2.11
  -5   1 -10    3.15    2.87
   5  -1  10    6.03    1.87
   5  -1  10   10.44    2.08
  -5   1 -10   24.12   13.27
  -6   1 -10   -0.06    0.50
  -6   1 -10   -0.49    0.57
  -6   1 -10   -0.24    0.57
   6  -1  10   -0.43    0.65
   6  -1  10   -0.10    0.63
  -6   1 -10   -2.77    4.48
  -7   1 -10   -0.05    2.65
  -7   1 -10   -1.17    2.39
   7  -1  10   -2.86    2.86
  -7   1 -10    4.85   17.92
   7   0 -10    4.23    3.22
   7   0 -10    8.26    3.14
  -7   0  10    2.19    2.96
  -7   0  10    6.15    3.16
  -7   0  10    6.88   13.90
   6   0 -10   21.86    2.85
   6   0 -10   23.20    3.24
  -6   0  10   19.56    2.47
  -6   0  10   17.85    2.79
  -6   0  10   11.81    9.65
   5   0 -10   61.91    5.10
   5   0 -10   59.76    4.16
  -5   0  10   52.88    3.77
  -5   0  10   56.57    4.43
  -5   0  10   56.71    4.64
  -5   0  10   58.91    3.61
  -5   0  10   50.82    9.63
   4   0 -10    0.50    1.02
   4   0 -10    1.58    0.90
  -4   0  10   -0.47    0.89
  -4   0  10   -0.49    0.75
  -4   0  10    0.09    0.70
  -4   0  10   -0.42    6.79
  -4   0  10    5.19    4.34
   3   0 -10  198.09   16.29
   3   0 -10  194.40   16.44
  -3   0  10  193.27   11.36
  -3   0  10  205.34   15.58
   3   0 -10  141.47   16.18
  -3   0  10  172.83   19.36
   2   0 -10   25.37    2.39
   2   0 -10   20.32    2.24
   2   0 -10   27.03    2.39
  -2   0  10   21.03    1.64
  -2   0  10   22.98    2.34
  -2   0  10   22.09    1.18
  -2   0  10   24.04    1.26
   2   0 -10   16.45    7.21
  -2   0  10   14.85    4.21
  -2   0  10   16.90    6.39
   1   0 -10   46.22    3.99
   1   0 -10   40.65    2.93
   1   0 -10   46.42    4.01
   1   0 -10   40.33    3.40
  -1   0  10   44.14    3.02
  -1   0  10   47.98    2.64
  -1   0  10   38.60    2.33
   1   0 -10   31.83    9.55
   1   0 -10   31.27    7.47
  -1   0  10   37.22    6.92
  -1   0  10   35.98    6.33
   0   0 -10   46.22    3.79
   0   0 -10   39.49    2.61
   0   0 -10   45.64    3.83
   0   0 -10   44.53    3.53
   0   0 -10   37.18    3.25
   0   0 -10   43.68    4.92
   0   0  10   39.65    2.45
   0   0  10   42.36    3.42
   0   0  10   42.62    2.69
   0   0 -10   31.17    8.22
   0   0 -10   21.84    5.07
   0   0  10   38.59    5.80
   0   0  10   37.18    7.13
  -1   0 -10   21.57    2.65
  -1   0 -10   22.08    2.27
  -1   0 -10   19.67    2.05
  -1   0 -10   18.41    1.79
  -1   0 -10   23.44    2.44
  -1   0 -10   20.63    2.43
   1   0  10   23.09    2.01
   1   0  10   18.67    2.13
   1   0  10   22.31    1.70
  -1   0 -10   19.32    6.01
  -1   0 -10    9.67    6.70
   1   0  10   13.07    4.84
   1   0  10    9.17    5.51
  -2   0 -10    3.59    1.59
  -2   0 -10    1.67    1.13
  -2   0 -10    1.73    1.69
  -2   0 -10    2.51    1.04
   2   0  10    1.31    1.00
   2   0  10    0.91    0.99
   2   0  10    4.05    1.40
   2   0  10    2.99    1.49
  -2   0 -10   -2.37    7.37
  -2   0 -10    1.30    6.04
   2   0  10    2.04    6.88
   2   0  10   -0.72    4.26
  -3   0 -10   11.02    1.20
  -3   0 -10    7.83    2.04
  -3   0 -10   11.54    1.86
  -3   0 -10   11.93    1.23
   3   0  10   10.85    1.63
   3   0  10   11.28    1.42
  -3   0 -10   10.18    6.84
  -3   0 -10   -3.70    8.94
   3   0  10    2.35    7.20
  -4   0 -10   22.02    3.27
  -4   0 -10   32.51    2.09
   4   0  10   24.66    2.71
   4   0  10   27.18    2.75
  -4   0 -10   14.95    9.93
  -4   0 -10   25.17   12.09
   4   0  10   -3.67   11.33
  -5   0 -10   42.78    3.15
  -5   0 -10   32.05    3.57
   5   0  10   38.13    3.02
   5   0  10   29.41    3.57
  -5   0 -10   50.31   11.73
  -6   0 -10   19.44    2.71
  -6   0 -10   18.69    2.96
   6   0  10   12.99    2.46
   6   0  10   18.62    2.85
  -6   0 -10    9.10   17.65
  -7   0 -10   -2.08    2.08
  -7   0 -10    0.68    1.97
   7   0  10    1.23    2.17
  -7   0 -10   12.12   13.57
   7  -1 -10    0.13    3.57
   7  -1 -10    2.29    2.98
  -7   1  10    2.53    3.00
  -7   1  10    2.28    2.45
  -7   1  10   10.25   12.99
   6  -1 -10   -0.10    2.25
   6  -1 -10    2.87    2.47
  -6   1  10    0.85    2.39
  -6   1  10    2.12    2.20
  -6   1  10   -1.16   10.00
   5  -1 -10   13.91    2.44
   5  -1 -10   11.16    2.43
  -5   1  10    7.84    1.88
  -5   1  10   17.51    7.23
   4  -1 -10    4.42    1.52
   4  -1 -10    1.86    1.60
  -4   1  10    4.20    1.38
  -4   1  10    6.44    1.63
  -4   1  10    3.80    1.24
  -4   1  10   11.67    7.00
  -4   1  10   10.92   20.83
   3  -1 -10    1.23    0.90
   3  -1 -10   -0.95    0.95
  -3   1  10   -0.73    0.74
  -3   1  10   -0.72    0.72
  -3   1  10    0.16    0.68
   3  -1 -10   -5.82    5.82
  -3   1  10   -0.83    5.19
  -3   1  10   -3.55    3.55
   2  -1 -10    8.26    1.16
   2  -1 -10    8.07    1.47
  -2   1  10    6.79    1.34
  -2   1  10    8.96    1.25
   2  -1 -10    1.85    6.45
  -2   1  10    3.08    3.87
  -2   1  10    9.79    5.65
   1  -1 -10  237.98   19.52
   1  -1 -10  247.85   18.82
  -1   1  10  232.16   12.69
   1  -1 -10  160.37   15.37
  -1   1  10  221.46   29.45
  -1   1  10  226.62   19.14
   0  -1 -10  185.44   15.90
   0  -1 -10  187.56   14.05
   0  -1 -10  184.66   14.77
   0  -1 -10  172.69    9.44
   0   1  10  176.05    9.08
   0   1  10  169.77    9.37
   0   1  10  163.59    8.93
   0  -1 -10  138.59   15.72
   0  -1 -10  165.28   19.66
   0   1  10  168.18   19.62
   0   1  10  180.49   17.95
  -1  -1 -10  149.83   13.12
  -1  -1 -10  138.51   12.76
  -1  -1 -10  155.80    8.49
  -1  -1 -10  145.19   10.56
  -1  -1 -10  139.65   14.60
  -1  -1 -10  144.01   14.31
   1   1  10  129.22    9.47
   1   1  10  136.23    7.79
   1   1  10  152.27    8.99
  -1  -1 -10  133.51   13.71
  -1  -1 -10  112.90   13.78
   1   1  10  171.94   19.22
   1   1  10  109.60   17.22
  -2  -1 -10  107.18    7.67
  -2  -1 -10  110.82   10.00
  -2  -1 -10  107.48    7.59
  -2  -1 -10  116.30   12.84
  -2  -1 -10  112.37    6.69
   2   1  10  111.74    7.31
   2   1  10  115.64    7.24
   2   1  10  108.74    7.85
  -2  -1 -10  103.24   13.26
  -2  -1 -10   95.53   12.61
   2   1  10  100.46   16.18
   2   1  10  117.87   14.77
  -3  -1 -10   75.12    9.16
  -3  -1 -10   83.44    6.39
  -3  -1 -10   67.66    5.06
  -3  -1 -10   75.87    6.05
  -3  -1 -10   86.11    5.01
   3   1  10   81.83    6.10
   3   1  10   80.48    5.38
   3   1  10   66.48    5.40
   3   1  10   72.22    5.75
  -3  -1 -10   82.39   11.53
  -3  -1 -10   55.21   10.78
   3   1  10   66.23   10.30
   3   1  10   58.82   10.89
  -4  -1 -10   56.42    3.94
  -4  -1 -10   51.52    3.72
  -4  -1 -10   44.43    4.81
  -4  -1 -10   50.03    3.14
   4   1  10   50.69    3.95
   4   1  10   60.75    4.69
  -4  -1 -10   41.05   10.73
  -4  -1 -10   58.25   13.69
   4   1  10   49.12   11.73
  -5  -1 -10    4.58    1.37
   5   1  10    7.00    1.72
   5   1  10    4.90    1.70
  -5  -1 -10    4.28   10.85
  -6  -1 -10   12.34    2.13
   6   1  10    8.45    2.30
   6   1  10    7.95    2.35
  -6  -1 -10   11.26   17.82
  -7  -1 -10   25.86    3.24
   7   1  10   23.09    3.49
  -7  -1 -10   13.48   21.57
  -8  -1 -10   -3.42    3.42
  -8  -1 -10   45.67   28.94
   6  -2 -10   86.53    7.45
  -6   2  10   68.52    6.18
  -6   2  10   89.57   14.27
   5  -2 -10   29.65    3.45
  -5   2  10   27.77    3.06
  -5   2  10   22.77    9.41
   4  -2 -10    1.04    1.28
   4  -2 -10    2.70    1.40
  -4   2  10   -1.36    1.36
  -4   2  10   -0.36    1.37
  -4   2  10    0.65    1.36
  -4   2  10    0.79    5.85
   3  -2 -10  455.88   35.64
   3  -2 -10  473.77   34.99
  -3   2  10  470.32   27.50
  -3   2  10  508.49   31.85
  -3   2  10  393.55   30.57
  -3   2  10  457.97   45.44
   2  -2 -10   68.68    4.83
   2  -2 -10   70.29    6.47
  -2   2  10   68.91    4.98
  -2   2  10   74.56    4.60
  -2   2  10   74.86    5.04
   2  -2 -10   37.56    8.88
  -2   2  10   63.65    7.75
  -2   2  10   65.37    8.92
   1  -2 -10   17.69    2.21
   1  -2 -10   15.64    1.66
  -1   2  10   16.94    1.77
  -1   2  10   15.01    1.63
   1  -2 -10    5.08    6.95
  -1   2  10    9.53    4.79
  -1   2  10   11.79    5.76
   0  -2 -10   14.14    1.20
   0  -2 -10   19.40    2.25
   0  -2 -10   13.66    1.57
   0   2  10   17.91    1.58
   0   2  10   14.98    1.10
   0  -2 -10   -5.23    7.56
   0   2  10    2.63    4.56
  -1  -2 -10    0.29    0.30
  -1  -2 -10    0.41    0.41
  -1  -2 -10    0.21    0.28
  -1  -2 -10   -0.10    0.31
   1   2  10   -0.12    0.23
   1   2  10    0.01    0.19
   1   2  10   -0.21    0.30
  -1  -2 -10   -1.70    1.92
   1   2  10   -1.05    1.05
   1   2  10    0.32    1.79
  -2  -2 -10   -0.25    0.89
  -2  -2 -10    2.24    1.10
  -2  -2 -10    1.52    0.83
  -2  -2 -10   -0.13    0.97
   2   2  10    1.73    0.74
   2   2  10    0.09    0.63
   2   2  10   -0.75    0.85
  -2  -2 -10   -3.58    8.14
  -2  -2 -10    6.67    6.05
   2   2  10    3.34    3.45
   2   2  10   -1.62    5.16
  -3  -2 -10    0.38    0.70
  -3  -2 -10    0.85    0.49
  -3  -2 -10   -0.11    0.58
  -3  -2 -10    0.23    0.65
   3   2  10    0.48    0.55
   3   2  10    0.09    0.54
   3   2  10    0.85    0.55
   3   2  10    0.99    0.63
  -3  -2 -10   -1.59    3.93
   3   2  10   -0.73    4.21
   3   2  10    1.57    3.26
  -4  -2 -10    8.11    2.01
  -4  -2 -10    6.95    1.40
  -4  -2 -10    8.80    1.27
   4   2  10    8.27    1.55
   4   2  10    9.11    1.80
   4   2  10    8.47    1.98
   4   2  10   10.78    1.66
  -4  -2 -10    4.83   11.61
   4   2  10    3.60    7.87
  -5  -2 -10    8.94    1.55
  -5  -2 -10    7.04    1.19
   5   2  10    9.91    1.73
   5   2  10    9.16    1.88
   5   2  10    6.04    1.67
  -5  -2 -10   16.50   13.09
   5   2  10    2.92   11.21
  -6  -2 -10   34.55    3.08
   6   2  10   36.55    3.43
   6   2  10   29.09    3.27
   6   2  10   27.28    3.17
  -6  -2 -10   35.28   18.11
  -7  -2 -10    0.52    1.64
   7   2  10    0.42    1.95
  -7  -2 -10   11.51   19.11
  -8  -2 -10   46.45    4.89
   8   2  10   38.44    4.60
  -8  -2 -10   17.35   30.87
   6  -3 -10   -0.15    0.78
  -6   3  10   -0.58    0.68
  -6   3  10   -0.53    3.54
   5  -3 -10   -0.65    0.65
  -5   3  10   -0.54    0.77
  -5   3  10   -0.07    2.64
   4  -3 -10   15.24    2.56
  -4   3  10    9.58    2.69
  -4   3  10   12.87    2.33
  -4   3  10   15.17    8.57
   3  -3 -10    1.22    1.12
   3  -3 -10    3.37    1.51
  -3   3  10    0.02    1.68
  -3   3  10    1.12    1.61
  -3   3  10   -0.75    1.37
  -3   3  10   -2.22    5.60
  -3   3  10    3.10    8.88
   2  -3 -10    1.68    1.24
   2  -3 -10    4.00    1.59
  -2   3  10    5.70    1.54
  -2   3  10    3.20    1.32
  -2   3  10    7.78    1.73
  -2   3  10    5.79    6.17
  -2   3  10    7.29    6.50
   1  -3 -10    5.10    1.01
   1  -3 -10    3.45    0.30
   1  -3 -10    6.18    1.65
   1  -3 -10    3.72    0.34
  -1   3  10    5.81    1.63
  -1   3  10    4.76    1.31
   1  -3 -10   -7.12    9.73
  -1   3  10    2.35    4.98
  -1   3  10    2.83    5.76
   0  -3 -10   48.22    3.86
   0  -3 -10   40.62    3.11
   0  -3 -10   45.75    2.95
   0   3  10   50.09    3.46
   0   3  10   53.30    3.34
   0  -3 -10   32.95   10.52
   0   3  10   33.80    6.48
   0   3  10   38.22    8.49
  -1  -3 -10  328.64   25.70
  -1  -3 -10  321.78   19.10
   1   3  10  308.02   17.03
   1   3  10  331.70   19.57
   1   3  10  323.42   20.52
  -1  -3 -10  349.96   32.09
   1   3  10  349.93   32.58
   1   3  10  358.79   37.80
  -2  -3 -10  225.15   13.74
  -2  -3 -10  199.64   20.69
  -2  -3 -10  189.34   11.54
   2   3  10  208.53   11.22
   2   3  10  182.90   11.05
   2   3  10  211.27   11.77
  -2  -3 -10  169.95   23.44
   2   3  10  196.63   22.92
   2   3  10  183.09   21.85
  -3  -3 -10  185.18   10.11
  -3  -3 -10  170.54   15.31
   3   3  10  180.57   11.11
   3   3  10  174.71   10.17
   3   3  10  153.04   10.30
   3   3  10  188.36    9.44
  -3  -3 -10  163.47   20.41
   3   3  10  202.76   20.17
   3   3  10  190.45   20.42
  -4  -3 -10    3.68    1.17
  -4  -3 -10    1.47    1.38
  -4  -3 -10    3.26    1.30
   4   3  10    0.90    1.11
   4   3  10    2.09    1.17
   4   3  10    0.31    1.16
   4   3  10    1.59    1.23
   4   3  10    0.80    1.03
  -4  -3 -10    5.58   10.41
   4   3  10    1.66    7.21
  -5  -3 -10    0.90    0.60
  -5  -3 -10   -0.62    0.62
   5   3  10    0.38    0.69
   5   3  10    0.73    0.72
   5   3  10   -0.44    0.65
  -5  -3 -10    0.24    5.90
   5   3  10   -4.50    5.39
  -6  -3 -10    4.38    1.72
   6   3  10    2.51    1.97
   6   3  10    5.44    1.96
   6   3  10    2.23    2.29
  -6  -3 -10   10.93   16.46
  -7  -3 -10    2.25    1.91
   7   3  10    1.78    2.47
   7   3  10    0.36    2.35
   7   3  10    1.18    2.30
  -7  -3 -10   26.25   22.42
  -8  -3 -10    5.92    2.97
   8   3  10    7.18    3.42
   5  -4 -10   -1.05    2.29
  -5   4  10    1.03    2.00
  -5   4  10   -5.78   11.37
   4  -4 -10   19.25    3.18
  -4   4  10   17.16    3.19
  -4   4  10   23.54   11.44
   3  -4 -10   84.46    5.83
  -3   4  10   79.30    5.30
  -3   4  10   85.38    6.83
  -3   4  10   84.40    7.85
  -3   4  10  114.32   12.34
   2  -4 -10   -0.64    0.89
   2  -4 -10    0.97    1.40
  -2   4  10   -0.97    1.43
  -2   4  10   -1.03    1.35
  -2   4  10    3.77    5.45
  -2   4  10    3.22    4.89
   1  -4 -10   -0.74    1.32
   1  -4 -10   -0.20    0.87
  -1   4  10   -0.61    1.38
  -1   4  10   -0.30    1.46
  -1   4  10    2.65    5.46
  -1   4  10   -2.32    5.07
   0  -4 -10    5.61    1.50
   0  -4 -10    8.30    2.17
   0   4  10    3.09    6.53
   0   4  10   15.57    7.74
  -1  -4 -10  590.42   36.97
  -1  -4 -10  497.38   30.97
  -1  -4 -10  529.82   31.64
   1   4  10  534.34   34.90
   1   4  10  534.36   32.72
   1   4  10  561.91   78.69
   1   4  10  507.19   38.20
  -2  -4 -10   49.44    3.48
  -2  -4 -10   46.09    3.83
   2   4  10   47.11    3.57
   2   4  10   45.70    3.43
   2   4  10   45.11    3.55
   2   4  10   49.91    9.70
   2   4  10   35.33    8.80
  -3  -4 -10    1.84    1.04
  -3  -4 -10   -0.85    0.85
   3   4  10    0.35    0.77
   3   4  10    1.29    0.74
   3   4  10   -0.74    0.79
   3   4  10    3.52    4.15
   3   4  10   -4.87    4.87
  -4  -4 -10    1.20    0.47
  -4  -4 -10   -0.43    0.59
  -4  -4 -10    0.03    0.46
   4   4  10    0.31    0.50
   4   4  10   -0.15    0.53
   4   4  10   -0.24    0.42
   4   4  10    0.28    2.87
  -5  -4 -10   -0.14    0.53
  -5  -4 -10   -0.53    0.60
  -5  -4 -10   -0.34    0.77
   5   4  10   -0.62    0.62
   5   4  10    0.19    0.67
   5   4  10    1.04    0.71
   5   4  10    5.77    4.84
  -6  -4 -10    0.21    0.89
  -6  -4 -10    0.78    0.98
   6   4  10    0.45    0.95
   6   4  10   -0.32    1.13
   6   4  10    1.65    0.99
  -7  -4 -10    3.87    2.22
   7   4  10    3.20    3.08
   7   4  10    4.15    2.65
   7   4  10    1.35    2.91
  -8  -4 -10    8.42    3.15
   8   4  10    2.29    3.09
   4  -5 -10   18.10    3.18
  -4   5  10   23.33    3.80
  -4   5  10   22.06   11.18
   3  -5 -10   -0.31    0.72
  -3   5  10   -0.49    0.80
  -3   5  10    0.68    0.96
  -3   5  10    0.12    2.60
   2  -5 -10    2.96    2.12
  -2   5  10   -0.62    2.99
  -2   5  10   -2.59    2.59
  -2   5  10    5.67    9.70
  -2   5  10    4.70   10.15
   1  -5 -10   -0.94    0.94
  -1   5  10   -0.03    1.07
  -1   5  10    0.15    1.08
  -1   5  10    2.31    3.01
  -1   5  10    5.73    3.65
   0  -5 -10   71.13    5.25
   0  -5 -10   57.24    5.01
   0   5  10   68.73    5.62
   0   5  10   62.73    5.19
   0   5  10   60.74   10.00
   0   5  10   54.75   10.21
  -1  -5 -10    0.76    2.63
  -1  -5 -10    0.20    2.10
   1   5  10    1.18    1.89
   1   5  10    6.79    2.31
   1   5  10   13.50    8.24
  -2  -5 -10  236.97   13.50
  -2  -5 -10  199.70   14.92
   2   5  10  235.64   16.08
   2   5  10  228.52   15.88
   2   5  10  221.18   23.54
  -3  -5 -10   36.74    3.37
  -3  -5 -10   46.74    3.61
   3   5  10   40.44    3.62
   3   5  10   39.61    3.44
   3   5  10   38.74    3.63
   3   5  10   27.18    9.74
  -4  -5 -10   -0.87    1.73
  -4  -5 -10    1.47    1.59
   4   5  10   -1.48    1.48
   4   5  10   -1.02    1.80
   4   5  10   -1.43    1.55
   4   5  10    0.32    9.43
  -5  -5 -10   78.62    6.25
  -5  -5 -10   80.45    5.85
  -5  -5 -10   68.31    5.36
   5   5  10   83.32    6.62
   5   5  10   71.48    5.10
   5   5  10   73.35    5.72
   5   5  10   10.43    8.70
  -6  -5 -10    2.93    2.48
   6   5  10    3.82    3.08
   6   5  10    8.02    2.97
   6   5  10    2.67    2.56
   6   5  10   11.04   17.52
  -7  -5 -10   36.07    4.45
   7   5  10   37.84    4.28
   7   5  10   31.80    3.97
   7   5  10   34.69    4.31
   3  -6 -10   16.90    3.15
   3  -6 -10    8.71    3.57
  -3   6  10    8.43    3.59
  -3   6  10    2.29    7.04
   2  -6 -10   37.65    4.23
   2  -6 -10   33.88    4.09
  -2   6  10   42.06    4.88
  -2   6  10   35.01    4.90
  -2   6  10   41.79    9.96
   1  -6 -10   17.98    2.99
   1  -6 -10   15.29    3.23
  -1   6  10   24.18    4.43
  -1   6  10   19.12    3.79
  -1   6  10   16.23    9.74
   0  -6 -10    9.40    2.67
   0  -6 -10    6.58    2.33
   0   6  10    8.13    2.75
   0   6  10    6.32    2.75
   0   6  10   -1.26    8.27
  -1  -6 -10  101.43    7.82
  -1  -6 -10   82.50    7.88
   1   6  10   86.32    7.85
   1   6  10   90.19    8.36
   1   6  10   87.50   14.17
  -2  -6 -10   10.55    2.69
  -2  -6 -10   10.50    2.97
   2   6  10   14.70    2.80
   2   6  10   11.99    2.81
   2   6  10    3.41    9.68
  -3  -6 -10    0.57    2.23
  -3  -6 -10    2.76    2.67
   3   6  10   -1.80    2.14
   3   6  10   -1.52    2.74
   3   6  10    9.19   10.64
  -4  -6 -10    3.53    3.11
  -4  -6 -10    6.55    2.44
   4   6  10    6.24    2.29
   4   6  10    3.28    2.07
   4   6  10    8.96    2.81
   4   6  10   -0.76    6.93
  -5  -6 -10   25.59    3.32
  -5  -6 -10   26.34    3.60
   5   6  10   24.65    4.14
   5   6  10   29.44    3.74
   5   6  10   29.42    3.36
   5   6  10   16.55   15.49
  -6  -6 -10   -1.98    1.98
  -6  -6 -10    3.40    2.67
   6   6  10    1.17    2.45
   6   6  10    0.78    2.93
   6   6  10    1.91    2.03
   6   6  10    1.35   15.95
  -7  -6 -10    0.84    2.76
   7   6  10    1.22    3.25
   7   6  10    0.27    2.33
   7   6  10    0.00    2.76
   1  -7 -10   -2.52    2.77
   1  -7 -10    0.46    2.25
  -1   7  10   -2.01    3.57
  -1   7  10   -1.89    2.75
  -1   7  10   -0.69    8.62
   0  -7 -10   -2.73    2.73
   0  -7 -10    1.81    3.41
   0   7  10    1.42    3.55
   0   7  10    5.11    3.37
  -1  -7 -10    1.46    2.55
   1   7  10    1.00    3.02
   1   7  10    0.51    2.85
  -2  -7 -10    2.89    2.72
   2   7  10    3.28    3.42
   2   7  10    1.40    3.30
  -3  -7 -10    0.04    2.79
   3   7  10    2.33    2.89
   3   7  10   -2.91    3.45
   3   7  10   -3.68   14.71
  -4  -7 -10   -1.71    2.12
   4   7  10   -2.62    2.62
   4   7  10   -0.90    2.54
   4   7  10   15.21   13.36
  -5  -7 -10    1.74    3.29
  -5  -7 -10    0.85    3.63
   5   7  10   -0.28    3.63
   5   7  10    1.82    2.96
   5   7  10   11.60   20.16
  -6  -7 -10   13.64    4.61
  -6  -7 -10   16.93    4.46
   6   7  10   16.00    4.82
   6   7  10   17.72    4.08
   6   7  10   11.78    3.66
   6   7  10  -22.91   25.63
  -1  -8 -10   57.86    6.54
   1   8  10   37.03    6.71
   1   8  10   43.78    6.66
   1   8  10   43.86   15.85
  -2  -8 -10    4.45    3.52
   2   8  10    0.12    4.07
   2   8  10    4.92    3.81
   2   8  10   15.18   17.78
  -3  -8 -10    3.44    2.48
   3   8  10   -2.78    2.78
   3   8  10    1.18    2.48
   3   8  10    6.10   11.53
  -4  -8 -10   -2.28    2.76
   4   8  10   -1.61    3.11
   4   8  10   -3.35    3.35
   4   8  10    3.53   16.15
   5   7 -11    3.47    4.80
   5   7 -11    0.66    4.28
  -5  -7  11    7.47    3.61
   5   7 -11  -17.70   18.19
   4   7 -11    0.01    3.10
   4   7 -11   -2.24    2.56
  -4  -7  11   -0.81    2.18
   4   7 -11    1.85   14.77
   3   7 -11   12.73    4.66
   3   7 -11   16.21    4.10
  -3  -7  11   14.00    2.93
  -3  -7  11   22.87    3.19
   3   7 -11   16.92   12.65
   2   7 -11    9.67    3.31
   2   7 -11    4.44    3.56
  -2  -7  11    5.89    2.71
   2   7 -11   11.17   14.18
   1   7 -11    7.57    3.88
   1   7 -11    4.78    3.62
  -1  -7  11   14.03    2.65
  -1  -7  11    7.25    3.03
   1   7 -11    8.68   14.95
   0   7 -11   -3.99    3.99
   0   7 -11    4.56    3.83
   0  -7  11    1.36    2.59
   0   7 -11   11.83   13.76
  -1   7 -11    8.69    4.50
  -1   7 -11   10.63    4.50
  -1   7 -11   20.31   14.37
   6   6 -11   -1.16    1.59
  -6  -6  11   -0.96    1.16
   6   6 -11   -5.11    5.11
   5   6 -11    3.64    3.14
   5   6 -11    1.40    3.38
  -5  -6  11    3.57    2.36
   5   6 -11    0.21   15.35
   4   6 -11    5.49    2.69
   4   6 -11    7.16    3.55
  -4  -6  11    3.33    2.51
   4   6 -11   12.92   13.14
   3   6 -11    4.73    2.62
   3   6 -11    2.90    2.66
  -3  -6  11    4.69    2.04
   3   6 -11   -8.78   10.84
   2   6 -11    9.08    2.90
   2   6 -11    9.32    3.14
  -2  -6  11   17.20    2.65
  -2  -6  11   16.60    2.39
   2   6 -11    7.57   12.06
   1   6 -11   12.74    2.85
   1   6 -11   22.50    3.55
  -1  -6  11   19.91    2.81
  -1  -6  11   15.87    2.95
   1   6 -11    6.54   12.50
   0   6 -11   13.95    3.47
   0   6 -11   11.14    3.48
   0  -6  11    8.24    2.46
   0   6 -11   11.40   13.38
  -1   6 -11   42.25    5.45
  -1   6 -11   40.84    5.67
   1  -6  11   47.21    3.98
  -1   6 -11   34.18   13.61
  -2   6 -11    9.10    4.16
  -2   6 -11   10.68    4.68
   2  -6  11    4.92    2.81
  -2   6 -11   15.18   16.58
  -3   6 -11   -4.69    5.16
   7   5 -11    0.96    1.31
  -7  -5  11    0.70    1.00
   6   5 -11   12.37    4.05
  -6  -5  11   13.51    3.02
   5   5 -11   11.30    3.70
  -5  -5  11    8.39    2.52
   5   5 -11    8.70   12.27
   4   5 -11    4.84    3.11
   4   5 -11    6.04    3.20
   4   5 -11    7.54    2.11
  -4  -5  11    8.70    2.20
   4   5 -11   10.12   13.67
   3   5 -11   56.10    5.53
   3   5 -11   57.66    5.49
   3   5 -11   66.38    4.65
  -3  -5  11   59.25    5.67
   3   5 -11   33.45   10.04
   2   5 -11   30.20    2.73
   2   5 -11   22.13    3.14
   2   5 -11   27.19    3.36
  -2  -5  11   30.81    2.64
  -2  -5  11   22.05    2.76
   2   5 -11   13.53   10.78
   1   5 -11   18.06    2.91
   1   5 -11   20.18    3.19
  -1  -5  11   21.64    2.55
  -1  -5  11   22.72    2.29
   1   5 -11   19.33    9.23
   0   5 -11   35.56    4.01
   0   5 -11   34.24    4.40
   0  -5  11   39.66    3.66
   0  -5  11   41.36    3.33
   0   5 -11   28.75    9.44
  -1   5 -11   19.69    3.59
  -1   5 -11   16.71    3.34
   1  -5  11   20.46    2.38
  -1   5 -11   11.02   11.23
  -2   5 -11   28.49    4.05
  -2   5 -11   29.73    4.78
   2  -5  11   33.73    3.27
  -2   5 -11    9.07   14.54
  -3   5 -11    0.55    1.07
  -3   5 -11    1.45    1.95
   3  -5  11    0.49    1.00
  -3   5 -11    7.63    7.43
  -4   5 -11   -0.12    1.66
   4  -5  11   -0.56    1.06
  -4   5 -11   -3.58    5.97
   7   4 -11    3.57    3.45
  -7  -4  11    5.88    2.83
  -7  -4  11    6.65    3.49
  -7  -4  11    4.01    2.52
   6   4 -11    1.34    1.83
   6   4 -11   -2.40    2.40
  -6  -4  11   -1.48    1.94
  -6  -4  11   -0.31    1.56
  -6  -4  11    1.19    1.80
   5   4 -11    8.06    2.56
   5   4 -11   10.16    3.13
  -5  -4  11    6.11    1.73
  -5  -4  11   10.49    2.42
  -5  -4  11   10.03    1.91
   5   4 -11   -3.14   14.54
   4   4 -11   65.16    5.06
   4   4 -11   63.65    5.41
  -4  -4  11   61.77    5.64
   4   4 -11   38.09    9.70
   3   4 -11   16.35    2.70
   3   4 -11   21.59    2.18
   3   4 -11   19.83    3.05
  -3  -4  11   22.60    2.76
   3   4 -11    5.72    8.25
   2   4 -11   12.25    2.63
   2   4 -11   14.01    2.02
   2   4 -11    8.16    2.26
  -2  -4  11   10.37    1.66
  -2  -4  11   10.53    1.86
   2   4 -11   11.77    9.52
   1   4 -11   16.70    2.48
   1   4 -11   19.40    2.91
   1   4 -11   22.65    2.29
  -1  -4  11   18.93    2.38
  -1  -4  11   23.66    2.30
   1   4 -11    7.83    6.71
   0   4 -11   23.40    2.82
   0   4 -11   26.20    2.49
   0   4 -11   24.29    3.74
   0  -4  11   25.50    2.76
   0  -4  11   30.55    2.65
   0   4 -11   18.70    9.02
  -1   4 -11    1.59    1.37
  -1   4 -11    0.16    1.62
   1  -4  11   -0.65    0.67
   1  -4  11   -0.68    0.73
  -1   4 -11   -0.67    5.44
  -2   4 -11  115.70   11.25
  -2   4 -11  115.28    9.02
   2  -4  11  131.18    7.58
  -2   4 -11  130.55   16.61
  -3   4 -11    1.23    2.05
  -3   4 -11    3.08    2.17
   3  -4  11    0.60    1.21
  -3   4 -11   -1.24    8.14
  -4   4 -11    6.18    4.35
   4  -4  11   10.93    2.80
   4  -4  11   16.03    3.02
  -4   4 -11   15.28   18.94
  -5   4 -11    8.09    5.06
   5  -4  11   13.66    3.36
   5  -4  11    8.82    3.07
  -5   4 -11    2.77   18.25
   7   3 -11   10.02    2.91
   7   3 -11    4.83    3.79
  -7  -3  11    3.36    3.53
  -7  -3  11    9.93    2.85
  -7  -3  11    2.62    2.42
  -7  -3  11   -1.54   14.29
   6   3 -11   12.55    3.35
   6   3 -11   11.03    2.57
  -6  -3  11    9.19    2.24
  -6  -3  11   15.50    3.33
  -6  -3  11   11.70    2.44
  -6  -3  11   -4.58   11.35
   5   3 -11    8.41    2.40
   5   3 -11   13.40    2.31
  -5  -3  11   10.18    2.00
  -5  -3  11    8.63    2.38
  -5  -3  11   11.67    1.74
  -5  -3  11   12.13    1.69
  -5  -3  11    2.63    9.82
   4   3 -11    0.06    0.54
   4   3 -11   -0.61    0.61
  -4  -3  11    0.39    0.36
  -4  -3  11    0.16    0.32
  -4  -3  11    0.75    0.40
   4   3 -11    3.75    2.98
  -4  -3  11   -0.53    2.47
   3   3 -11   91.94    7.07
   3   3 -11   93.54    7.74
   3   3 -11   68.34    6.46
  -3  -3  11   91.37    7.04
  -3  -3  11   90.45    5.09
   3   3 -11   70.13   11.27
  -3  -3  11   74.47   11.91
   2   3 -11   66.88    5.85
   2   3 -11   71.12    5.20
   2   3 -11   74.16    6.08
   2   3 -11   53.15    4.65
  -2  -3  11   75.68    6.17
  -2  -3  11   71.30    4.58
   2   3 -11   51.12    7.46
  -2  -3  11   49.83    7.69
   1   3 -11   23.78    2.75
   1   3 -11   23.99    2.45
   1   3 -11   27.70    2.97
  -1  -3  11   22.22    1.81
  -1  -3  11   22.25    2.19
   1   3 -11   18.41   10.53
   1   3 -11   18.11    6.66
  -1  -3  11   17.06    6.24
   0   3 -11   54.49    5.27
   0   3 -11   62.01    4.81
   0   3 -11   62.50    5.15
   0  -3  11   42.70    4.49
   0  -3  11   55.89    3.80
   0   3 -11   43.46    8.26
   0   3 -11   32.76   11.35
   0  -3  11   35.55    8.61
  -1   3 -11  165.16   13.37
  -1   3 -11  147.63   12.86
  -1   3 -11  173.09   10.01
   1  -3  11  142.73   16.07
   1  -3  11  155.41   10.49
  -1   3 -11  139.58   15.42
  -1   3 -11  129.26   16.24
  -2   3 -11   24.79    2.05
  -2   3 -11   30.41    3.60
  -2   3 -11   27.58    2.05
  -2   3 -11   29.17    3.70
   2  -3  11   31.38    2.83
   2  -3  11   21.65    2.51
  -2   3 -11   20.87    7.89
  -3   3 -11  148.44   16.54
  -3   3 -11  173.53   13.39
   3  -3  11  157.65   10.58
   3  -3  11  163.94   10.73
  -3   3 -11  174.48   18.25
  -4   3 -11   -2.79    2.93
   4  -3  11   -0.65    1.61
   4  -3  11   -1.75    1.75
  -4   3 -11   -4.87   12.18
  -5   3 -11   22.16    5.32
   5  -3  11   16.19    3.00
   5  -3  11   16.48    2.69
  -5   3 -11   13.57   17.63
  -6   3 -11   -0.23    1.56
   7   2 -11   20.06    3.54
   7   2 -11   14.16    3.79
  -7  -2  11   12.47    2.75
  -7  -2  11   13.16    2.86
  -7  -2  11   15.43    3.98
  -7  -2  11   19.15   16.39
   6   2 -11   32.93    3.17
   6   2 -11   32.87    4.18
  -6  -2  11   31.55    3.49
  -6  -2  11   33.95    3.28
  -6  -2  11   41.59    4.38
  -6  -2  11   44.89   15.20
   5   2 -11   17.94    2.95
   5   2 -11   14.42    2.50
  -5  -2  11   18.75    2.00
  -5  -2  11   15.72    2.76
  -5  -2  11   15.92    2.11
  -5  -2  11   15.88    2.29
  -5  -2  11   14.04    9.96
   4   2 -11  126.13    9.10
   4   2 -11  126.16    9.25
  -4  -2  11  119.18    7.30
  -4  -2  11  118.35    8.17
  -4  -2  11  119.70    7.68
  -4  -2  11  138.95   12.30
   4   2 -11   66.81   11.76
  -4  -2  11  104.56   12.55
   3   2 -11   28.21    2.78
   3   2 -11   23.90    2.90
  -3  -2  11   19.59    2.13
  -3  -2  11   27.55    2.20
  -3  -2  11   26.12    3.01
  -3  -2  11   24.77    1.80
  -3  -2  11   20.66    1.78
   3   2 -11   16.80    9.63
  -3  -2  11   10.49    8.45
  -3  -2  11   10.85    5.94
   2   2 -11   10.10    1.60
   2   2 -11   11.16    2.00
   2   2 -11   12.21    1.71
   2   2 -11   10.56    1.94
  -2  -2  11   10.64    1.25
  -2  -2  11   11.99    1.48
  -2  -2  11    9.73    1.11
  -2  -2  11   10.61    1.03
   2   2 -11    6.87   11.76
   2   2 -11    0.12    6.45
  -2  -2  11   10.55    5.68
  -2  -2  11   11.94    4.55
   1   2 -11  101.03    7.60
   1   2 -11  117.72   10.71
   1   2 -11  101.25    9.54
   1   2 -11  109.16    7.83
   1   2 -11  107.60   10.17
  -1  -2  11  101.30    6.53
  -1  -2  11  105.23    9.75
  -1  -2  11  113.64    7.17
   1   2 -11  104.49   12.61
   1   2 -11   54.37    8.37
  -1  -2  11   84.11    9.32
   0   2 -11   37.25    3.47
   0   2 -11   35.46    3.57
   0   2 -11   32.57    2.82
   0   2 -11   32.51    4.19
   0   2 -11   38.87    2.36
   0  -2  11   37.86    2.58
   0  -2  11   30.49    3.50
   0  -2  11   35.04    2.47
   0   2 -11   26.35    8.14
   0   2 -11   25.07    5.59
   0  -2  11   21.02    4.97
  -1   2 -11   32.63    1.83
  -1   2 -11   31.83    3.53
  -1   2 -11   32.35    2.85
  -1   2 -11   36.13    3.72
  -1   2 -11   26.18    1.80
  -1   2 -11   31.85    3.23
   1  -2  11   33.97    2.51
   1  -2  11   25.86    2.93
   1  -2  11   33.15    2.87
  -1   2 -11    9.32    6.71
   1  -2  11    8.69    6.54
  -2   2 -11    2.36    1.48
  -2   2 -11    0.85    0.95
  -2   2 -11    2.41    0.86
  -2   2 -11    0.19    2.33
  -2   2 -11    1.09    2.25
   2  -2  11    2.66    1.36
   2  -2  11    2.37    1.14
  -2   2 -11   -4.77    8.87
  -2   2 -11    7.41    7.04
   2  -2  11    5.29   16.29
  -3   2 -11   41.65    3.84
  -3   2 -11   41.12    4.91
  -3   2 -11   39.06    3.52
  -3   2 -11   42.65    4.33
   3  -2  11   36.70    3.09
   3  -2  11   44.41    3.18
  -3   2 -11   32.94    8.85
  -4   2 -11   44.53    4.37
  -4   2 -11   54.18    4.39
  -4   2 -11   47.65    4.52
   4  -2  11   48.08    3.96
   4  -2  11   46.06    3.61
  -4   2 -11   27.05   14.25
  -5   2 -11   20.76    4.38
  -5   2 -11   20.87    3.48
  -5   2 -11   14.03    2.50
   5  -2  11   17.29    2.69
   5  -2  11   23.19    3.16
  -5   2 -11   19.36   17.02
  -6   2 -11    7.51    5.02
   6  -2  11    9.07    3.13
  -6   2 -11   15.51   15.91
   7   1 -11   -1.34    2.14
   7   1 -11    4.00    2.40
  -7  -1  11    2.14    2.20
  -7  -1  11   -0.14    2.19
  -7  -1  11  -11.78   11.78
   6   1 -11    0.07    2.65
   6   1 -11    1.49    2.66
  -6  -1  11    2.47    1.84
  -6  -1  11    3.29    2.30
  -6  -1  11   -2.11   10.95
   5   1 -11   -0.28    0.47
  -5  -1  11    0.13    0.41
  -5  -1  11   -0.33    0.47
  -5  -1  11   -0.35    0.41
  -5  -1  11    0.65    0.45
  -5  -1  11   -0.34    2.53
   4   1 -11   12.57    2.12
   4   1 -11    9.83    2.25
  -4  -1  11    9.42    2.35
  -4  -1  11    7.90    1.71
  -4  -1  11   11.38    1.40
  -4  -1  11    7.85    1.65
  -4  -1  11   15.46    8.06
   3   1 -11    7.82    1.64
   3   1 -11    4.98    1.81
  -3  -1  11    4.08    1.04
  -3  -1  11    3.91    0.90
  -3  -1  11    4.89    0.64
  -3  -1  11    4.36    1.16
  -3  -1  11    2.85    1.43
   3   1 -11    0.68    6.76
  -3  -1  11   -8.70   10.15
  -3  -1  11    7.07    5.18
   2   1 -11   81.66    7.12
   2   1 -11   65.51    6.69
   2   1 -11   67.22    6.25
   2   1 -11   77.76    6.75
  -2  -1  11   77.26    5.14
  -2  -1  11   82.37    7.29
  -2  -1  11   79.48    4.60
  -2  -1  11   78.23    4.68
   2   1 -11   51.08    9.25
  -2  -1  11   58.50   10.76
  -2  -1  11   69.29    9.31
   1   1 -11   38.14    3.71
   1   1 -11   36.34    2.83
   1   1 -11   37.43    2.73
   1   1 -11   32.85    3.66
   1   1 -11   36.16    3.26
  -1  -1  11   42.22    3.90
  -1  -1  11   39.41    2.83
  -1  -1  11   36.36    2.42
   1   1 -11   51.63   10.66
  -1  -1  11   49.66    8.98
   0   1 -11    3.44    0.94
   0   1 -11    4.02    1.15
   0   1 -11    4.60    1.40
   0   1 -11    3.82    1.62
   0   1 -11    3.47    1.37
   0   1 -11    4.54    1.62
   0  -1  11    4.02    0.91
   0  -1  11    3.72    0.72
   0   1 -11    4.65    4.96
   0   1 -11    8.76    7.82
   0  -1  11    1.98    3.42
   0  -1  11    4.32    7.23
  -1   1 -11  286.90   21.81
  -1   1 -11  277.26   23.72
  -1   1 -11  279.24   19.26
  -1   1 -11  288.51   31.25
   1  -1  11  262.11   19.57
   1  -1  11  285.37   19.17
  -1   1 -11  214.60   14.88
   1  -1  11  216.28   21.88
  -2   1 -11   44.68    4.67
  -2   1 -11   49.61    2.50
  -2   1 -11   44.54    4.96
  -2   1 -11   42.99    3.23
  -2   1 -11   40.16    3.87
   2  -1  11   49.79    3.30
   2  -1  11   46.69    3.69
  -2   1 -11   51.41   11.54
  -2   1 -11   34.22    7.65
   2  -1  11   25.97    7.52
  -3   1 -11    0.74    2.84
  -3   1 -11    1.89    0.72
  -3   1 -11    1.57    1.01
  -3   1 -11    3.21    2.38
   3  -1  11    0.64    1.28
   3  -1  11    1.34    1.17
  -3   1 -11    5.86   11.04
  -3   1 -11  -11.96   11.96
   3  -1  11   -6.86   14.82
  -4   1 -11  216.47   18.08
  -4   1 -11  184.68   12.84
   4  -1  11  212.07   13.47
   4  -1  11  207.03   14.45
  -4   1 -11  207.20   24.86
  -5   1 -11   50.48    4.46
  -5   1 -11   32.37    4.61
   5  -1  11   38.60    3.73
   5  -1  11   36.25    3.51
  -5   1 -11   25.29   15.98
  -6   1 -11   19.00    2.93
  -6   1 -11   20.84    3.34
  -6   1 -11    9.84    4.22
   6  -1  11   16.80    3.02
   6  -1  11   11.56    2.62
  -6   1 -11   22.22   19.93
  -7   1 -11    0.42    1.53
   7  -1  11    1.59    1.06
  -7   1 -11   -6.86    6.86
   7   0 -11   20.78    3.58
   7   0 -11   21.80    3.43
  -7   0  11   15.23    3.51
  -7   0  11   13.74    3.05
  -7   0  11   13.64   14.45
   6   0 -11    5.96    2.97
   6   0 -11    9.52    2.81
  -6   0  11    5.17    2.30
  -6   0  11    4.40    2.10
  -6   0  11   -3.40   11.36
   5   0 -11   10.20    2.33
   5   0 -11   11.71    2.52
  -5   0  11   14.04    1.81
  -5   0  11   13.78    2.40
  -5   0  11   13.40    2.19
  -5   0  11    9.91    2.14
  -5   0  11   13.05    7.04
   4   0 -11  346.52   22.80
   4   0 -11  341.84   27.95
  -4   0  11  319.72   20.23
  -4   0  11  314.97   19.46
  -4   0  11  352.30   29.49
   3   0 -11    6.67    1.74
   3   0 -11    4.96    1.99
  -3   0  11    6.69    1.41
  -3   0  11    5.75    1.37
   3   0 -11    8.34    8.00
  -3   0  11   -4.63    4.63
  -3   0  11    5.00    9.11
   2   0 -11   34.18    3.02
   2   0 -11   35.68    2.98
  -2   0  11   28.63    2.89
  -2   0  11   28.02    1.49
  -2   0  11   27.81    2.25
  -2   0  11   29.33    1.48
   2   0 -11    8.12    7.22
  -2   0  11   25.19    4.82
  -2   0  11   28.40    7.36
   1   0 -11    2.51    1.32
   1   0 -11   -0.02    1.58
   1   0 -11    0.17    1.45
   1   0 -11    1.77    1.61
  -1   0  11    1.19    0.94
  -1   0  11    1.42    0.48
   1   0 -11    5.23    8.78
   1   0 -11   14.00    5.92
  -1   0  11   -0.31    3.89
  -1   0  11    4.16    5.54
   0   0 -11   16.29    2.06
   0   0 -11   12.98    1.86
   0   0 -11   13.59    1.76
   0   0 -11   15.58    1.88
   0   0  11   13.77    1.53
   0   0  11   15.55    1.28
   0   0  11   14.85    1.92
   0   0 -11    8.88    7.48
   0   0 -11    4.47    5.98
   0   0  11    2.53    4.62
   0   0  11   11.34    6.56
  -1   0 -11    8.57    1.66
  -1   0 -11    4.25    1.63
  -1   0 -11    4.91    1.33
  -1   0 -11    3.70    1.23
  -1   0 -11    6.91    1.23
  -1   0 -11    5.89    1.69
   1   0  11    5.95    1.12
   1   0  11    4.61    1.36
  -1   0 -11   -0.29    7.17
  -1   0 -11    6.89    5.59
   1   0  11   -2.30    3.70
   1   0  11    9.86    6.60
  -2   0 -11    2.34    0.74
  -2   0 -11    0.37    1.64
  -2   0 -11    0.13    1.54
  -2   0 -11    2.62    1.15
  -2   0 -11    3.94    1.26
   2   0  11    1.56    0.94
   2   0  11    4.09    0.92
  -2   0 -11    8.96    9.26
  -2   0 -11    3.14    6.66
   2   0  11    2.27    7.80
   2   0  11   -3.14    5.08
  -3   0 -11    4.89    1.52
  -3   0 -11    5.08    0.93
  -3   0 -11    9.27    2.11
  -3   0 -11    3.74    1.80
  -3   0 -11    4.02    1.00
   3   0  11    4.75    1.41
  -3   0 -11   -0.79    9.92
  -3   0 -11    5.08    8.24
   3   0  11   -6.45    6.45
  -4   0 -11    7.54    1.40
  -4   0 -11    4.45    2.42
   4   0  11    4.58    1.43
   4   0  11    3.16    1.67
  -4   0 -11   13.99   13.02
  -5   0 -11   18.41    2.10
  -5   0 -11   15.54    3.17
   5   0  11   16.01    2.33
   5   0  11   18.15    2.35
  -5   0 -11    5.13   13.87
  -6   0 -11    3.35    2.38
  -6   0 -11    4.36    2.16
   6   0  11   -0.08    2.10
   6   0  11    2.67    2.21
  -6   0 -11   26.68   17.77
  -7   0 -11   46.45    4.87
  -7   0 -11   48.61    5.36
   7   0  11   38.98    4.94
  -7   0 -11   24.19   20.81
   7  -1 -11    4.53    3.34
   7  -1 -11    5.51    3.17
  -7   1  11    1.17    3.62
  -7   1  11    6.81    9.42
   6  -1 -11    4.31    2.96
   6  -1 -11    4.76    2.53
  -6   1  11    4.52    2.60
  -6   1  11    0.96   10.91
   5  -1 -11    2.58    2.51
   5  -1 -11    0.29    2.06
  -5   1  11    0.15    1.72
  -5   1  11   -2.86    9.69
   4  -1 -11   -0.16    0.67
   4  -1 -11    0.30    0.54
  -4   1  11   -0.61    0.61
  -4   1  11    0.46    0.46
  -4   1  11    0.17    0.53
  -4   1  11    1.16    2.46
   3  -1 -11   21.66    2.55
   3  -1 -11   16.51    2.28
  -3   1  11   19.19    2.06
  -3   1  11   17.53    1.85
  -3   1  11   28.53    8.46
   2  -1 -11   -0.60    1.35
   2  -1 -11    3.20    1.53
  -2   1  11    4.30    1.18
  -2   1  11   -0.33    1.15
   2  -1 -11    4.24    9.79
  -2   1  11    1.55    4.92
  -2   1  11    7.68    8.33
   1  -1 -11   -0.62    0.62
   1  -1 -11   -0.23    0.64
  -1   1  11    0.23    0.41
  -1   1  11    0.35    0.17
   1  -1 -11   -0.99    2.49
  -1   1  11   -0.74    1.99
  -1   1  11    1.28    2.49
   0  -1 -11   -0.31    1.04
   0  -1 -11   -0.95    0.95
   0  -1 -11    0.72    0.61
   0  -1 -11    0.99    0.93
   0   1  11    0.52    0.50
   0   1  11   -0.16    0.83
   0   1  11    0.45    0.93
   0  -1 -11   -0.06    5.97
   0  -1 -11    3.37    6.57
   0   1  11    1.05    4.06
   0   1  11   -0.77    4.03
  -1  -1 -11  231.32   14.84
  -1  -1 -11  250.87   27.04
  -1  -1 -11  241.01   18.49
  -1  -1 -11  225.48   18.78
  -1  -1 -11  229.32   12.41
   1   1  11  235.10   14.11
   1   1  11  228.59   12.60
   1   1  11  224.15   15.00
  -1  -1 -11  225.57   26.11
  -1  -1 -11  199.58   18.54
   1   1  11  215.12   29.87
  -2  -1 -11   51.26    3.69
  -2  -1 -11   50.04    5.99
  -2  -1 -11   44.85    3.32
  -2  -1 -11   44.96    3.73
  -2  -1 -11   44.79    4.17
   2   1  11   42.41    3.47
   2   1  11   48.05    3.22
   2   1  11   55.19    3.91
  -2  -1 -11   33.79    8.85
  -2  -1 -11   33.83   10.47
   2   1  11   57.46   10.38
   2   1  11   19.67    6.85
  -3  -1 -11    6.18    1.59
  -3  -1 -11    0.76    1.49
  -3  -1 -11    0.56    1.15
  -3  -1 -11    3.45    1.94
  -3  -1 -11    4.07    0.96
   3   1  11    2.57    1.32
   3   1  11    2.05    1.91
   3   1  11    3.85    1.37
   3   1  11    3.28    2.08
  -3  -1 -11    3.90    9.86
  -3  -1 -11    3.85   11.04
   3   1  11   -6.16    8.08
  -4  -1 -11    6.67    1.96
  -4  -1 -11    8.23    2.37
  -4  -1 -11    9.04    1.09
  -4  -1 -11    8.53    1.58
  -4  -1 -11    8.66    1.43
   4   1  11    7.27    1.57
   4   1  11   10.17    1.63
  -4  -1 -11    2.07    7.75
  -4  -1 -11    2.53   11.53
   4   1  11   -2.80   11.63
  -5  -1 -11   78.13    8.46
  -5  -1 -11  110.65    7.39
   5   1  11  103.94    7.82
   5   1  11   96.23    8.88
  -5  -1 -11   75.55   18.00
  -6  -1 -11   36.42    3.35
   6   1  11   32.22    3.66
   6   1  11   29.34    3.42
  -6  -1 -11   31.85   16.87
  -7  -1 -11   -2.68    2.68
   7   1  11    0.66    2.92
  -7  -1 -11   21.20   21.49
   6  -2 -11   14.51    3.62
  -6   2  11   14.21    3.73
  -6   2  11   29.81   15.35
   5  -2 -11   72.13    6.07
   5  -2 -11   65.99    5.74
  -5   2  11   65.78    5.67
  -5   2  11   73.12   11.83
   4  -2 -11   81.51    5.79
   4  -2 -11   84.52    6.79
  -4   2  11   90.05    5.34
  -4   2  11   78.04    5.36
  -4   2  11   87.40    6.18
  -4   2  11   96.36   10.29
   3  -2 -11    7.57    1.54
   3  -2 -11    7.87    1.95
  -3   2  11    8.85    1.84
  -3   2  11    8.22    1.52
  -3   2  11    4.91    1.66
  -3   2  11    3.24    7.01
   2  -2 -11   -0.10    0.65
   2  -2 -11   -0.42    0.82
  -2   2  11    0.42    0.74
  -2   2  11    1.19    0.71
  -2   2  11    0.01    0.62
  -2   2  11   -1.86    2.79
  -2   2  11    4.14    3.99
   1  -2 -11   63.59    4.96
   1  -2 -11   69.16    6.16
  -1   2  11   72.43    4.73
  -1   2  11   73.43    4.54
   1  -2 -11   39.81    9.34
  -1   2  11   58.60    8.19
  -1   2  11   59.37    8.37
   0  -2 -11  728.47   62.77
   0   2  11  695.22   41.17
   0   2  11  660.20   31.49
   0  -2 -11  716.76   60.95
   0   2  11  766.73   97.55
   0   2  11  758.65   51.73
  -1  -2 -11   13.56    1.67
  -1  -2 -11   11.74    1.59
  -1  -2 -11   17.46    2.24
  -1  -2 -11   12.78    1.54
   1   2  11   12.65    1.44
   1   2  11   15.63    1.43
   1   2  11   15.03    1.33
  -1  -2 -11    1.60    8.10
   1   2  11    7.50    6.01
   1   2  11   14.56    7.35
  -2  -2 -11    2.69    1.18
  -2  -2 -11    0.46    1.28
  -2  -2 -11    0.45    1.12
  -2  -2 -11    1.46    1.04
   2   2  11    0.71    0.92
   2   2  11    0.47    0.69
   2   2  11    2.12    0.91
  -2  -2 -11    9.44    8.24
   2   2  11    6.75    5.74
   2   2  11    2.43    4.83
  -3  -2 -11    3.84    1.72
  -3  -2 -11    1.82    1.51
  -3  -2 -11    2.75    1.74
   3   2  11    2.68    1.46
   3   2  11    0.14    1.09
   3   2  11    2.35    1.26
  -3  -2 -11   -2.99   11.42
   3   2  11   11.68   10.43
   3   2  11    0.15    7.94
  -4  -2 -11    2.29    1.27
  -4  -2 -11    5.05    1.49
  -4  -2 -11    4.21    1.91
  -4  -2 -11    2.02    2.06
   4   2  11    2.96    1.44
   4   2  11    2.24    1.59
  -4  -2 -11   -0.04   12.96
   4   2  11    0.35    9.67
  -5  -2 -11    0.88    1.30
  -5  -2 -11    1.44    1.39
   5   2  11    1.42    1.53
   5   2  11    4.96    1.63
   5   2  11    5.79    1.78
  -5  -2 -11  -12.31   14.13
  -6  -2 -11    2.56    1.31
   6   2  11    1.52    1.53
   6   2  11    1.04    1.40
   6   2  11   -1.63    1.63
  -6  -2 -11    3.09   12.54
  -7  -2 -11   12.88    2.70
   7   2  11   15.39    4.37
   7   2  11   11.46    3.69
   7   2  11    9.90    2.91
  -7  -2 -11   22.51   22.74
   5  -3 -11    9.59    2.55
   5  -3 -11    9.46    3.21
  -5   3  11    9.71    3.04
  -5   3  11    3.17   12.23
   4  -3 -11   -1.33    1.33
   4  -3 -11    1.71    1.34
  -4   3  11    0.57    1.59
  -4   3  11   -1.25    1.49
  -4   3  11   -0.48    2.03
  -4   3  11   -4.76    6.69
   3  -3 -11    3.83    1.77
   3  -3 -11    2.20    1.35
  -3   3  11    0.24    1.56
  -3   3  11    1.50    1.67
  -3   3  11    0.00    1.65
  -3   3  11   -4.13    5.50
   2  -3 -11   -0.38    1.72
   2  -3 -11   -1.18    1.18
  -2   3  11    0.92    1.57
  -2   3  11    0.90    1.50
  -2   3  11   -2.00    8.80
  -2   3  11   -4.01    6.74
   1  -3 -11   21.36    2.05
   1  -3 -11   26.74    2.66
  -1   3  11   25.53    2.69
  -1   3  11   24.51    2.27
  -1   3  11   10.52    7.48
  -1   3  11   26.49    7.14
   0  -3 -11    3.61    2.16
   0  -3 -11    3.30    1.26
   0   3  11    2.39    1.42
   0   3  11    4.21    1.53
   0   3  11    1.63    5.90
   0   3  11   -4.92    7.71
  -1  -3 -11  353.98   18.09
  -1  -3 -11  375.75   21.70
  -1  -3 -11  422.29   31.16
  -1  -3 -11  349.35   18.80
   1   3  11  376.07   21.87
   1   3  11  430.91   24.35
   1   3  11  384.08   25.14
  -1  -3 -11  409.02   40.02
   1   3  11  420.13   30.05
   1   3  11  437.80   47.27
  -2  -3 -11   39.70    3.45
  -2  -3 -11   48.49    3.41
  -2  -3 -11   34.80    3.29
   2   3  11   48.90    3.26
   2   3  11   42.55    3.46
   2   3  11   41.04    2.82
  -2  -3 -11   21.78   10.00
   2   3  11   40.17    8.62
   2   3  11   39.51    9.77
  -3  -3 -11   11.30    2.16
   3   3  11   12.20    1.24
   3   3  11   14.17    1.79
   3   3  11   14.49    2.08
  -3  -3 -11   14.68   13.49
   3   3  11   12.95   10.82
   3   3  11    8.33    7.09
  -4  -3 -11    3.81    1.53
  -4  -3 -11    1.28    1.74
  -4  -3 -11    0.53    1.40
   4   3  11    2.08    1.47
   4   3  11    1.49    1.47
   4   3  11    3.43    1.71
  -4  -3 -11    4.57   15.34
   4   3  11  -10.27   10.27
  -5  -3 -11   33.53    2.75
  -5  -3 -11   31.17    3.73
   5   3  11   31.93    3.27
   5   3  11   27.08    2.81
   5   3  11   34.49    2.98
  -5  -3 -11   -4.44   16.49
   5   3  11   35.26   14.09
  -6  -3 -11   40.22    4.42
   6   3  11   46.40    4.18
   6   3  11   37.52    3.65
   6   3  11   36.81    4.06
  -6  -3 -11   34.05   20.53
  -7  -3 -11   18.71    3.10
   7   3  11   17.70    3.69
   7   3  11   16.09    3.33
   5  -4 -11    3.83    2.38
  -5   4  11    3.76    2.66
  -5   4  11   -4.70   13.24
   4  -4 -11   42.99    3.77
  -4   4  11   37.22    4.01
  -4   4  11   49.18   13.30
   3  -4 -11   16.74    2.59
  -3   4  11   14.36    2.84
  -3   4  11   14.76    2.55
  -3   4  11   10.53    3.00
  -3   4  11    7.66    9.53
   2  -4 -11    2.54    1.93
  -2   4  11    1.02    2.07
  -2   4  11    2.82    2.18
  -2   4  11    9.28    8.50
   1  -4 -11   57.61    5.34
  -1   4  11   70.26    5.07
  -1   4  11   64.90    5.51
  -1   4  11   33.94    9.36
   0  -4 -11   39.74    3.75
   0   4  11   44.58    3.65
   0   4  11   49.20    3.50
   0   4  11   37.50    9.63
   0   4  11   16.62    8.70
  -1  -4 -11   86.50    6.40
   1   4  11   99.97    6.69
   1   4  11   87.78    6.71
   1   4  11   46.64   10.02
  -2  -4 -11   21.88    2.60
  -2  -4 -11   14.75    2.54
   2   4  11   18.98    2.47
   2   4  11   11.56    2.01
   2   4  11   17.37    1.96
   2   4  11    9.94    8.34
  -3  -4 -11   47.19    3.51
  -3  -4 -11   40.45    3.82
   3   4  11   44.59    3.61
   3   4  11   45.10    3.44
   3   4  11   43.41    3.83
   3   4  11   43.62   10.21
  -4  -4 -11   15.83    2.43
  -4  -4 -11   19.16    2.68
  -4  -4 -11   17.85    2.29
   4   4  11   13.58    2.34
   4   4  11   17.15    2.17
   4   4  11   16.86    2.49
   4   4  11   19.98   10.73
  -5  -4 -11    0.05    1.97
  -5  -4 -11   -0.14    1.98
  -5  -4 -11    2.74    2.29
   5   4  11    0.57    1.76
   5   4  11   -1.41    1.92
   5   4  11    2.75    2.21
   5   4  11   -6.07   14.33
  -6  -4 -11    0.51    1.99
   6   4  11    1.27    2.40
   6   4  11    0.27    2.35
  -7  -4 -11    2.51    2.63
   7   4  11    3.34    2.93
   7   4  11    4.28    3.01
   7   4  11    5.77    2.92
   4  -5 -11    6.99    3.01
  -4   5  11    0.07    2.05
  -4   5  11   -8.75   11.52
   3  -5 -11   14.59    3.00
  -3   5  11   11.67    3.67
  -3   5  11    8.45    3.53
  -3   5  11   17.90   11.15
   2  -5 -11    7.59    2.18
  -2   5  11   12.86    3.49
  -2   5  11    6.79    2.86
  -2   5  11   12.27   10.10
   1  -5 -11    0.06    2.27
  -1   5  11    4.24    2.86
  -1   5  11    6.77    2.61
  -1   5  11    5.62   10.47
   0  -5 -11    0.48    1.58
   0  -5 -11   -1.68    1.68
   0   5  11    3.97    1.76
   0   5  11   -0.01    1.82
   0   5  11   -1.28    7.60
  -1  -5 -11   13.78    2.69
  -1  -5 -11   17.54    2.73
   1   5  11   10.22    2.34
   1   5  11   12.81    2.73
   1   5  11   14.21    8.66
  -2  -5 -11   54.81    4.98
   2   5  11   62.29    4.89
   2   5  11   57.90    4.85
   2   5  11   61.18   11.92
  -3  -5 -11   14.94    2.78
  -3  -5 -11   24.75    3.54
   3   5  11   16.60    2.58
   3   5  11   19.91    2.62
   3   5  11   20.43    2.97
   3   5  11   17.21   10.01
  -4  -5 -11    0.60    1.66
  -4  -5 -11    1.29    1.61
   4   5  11    0.19    1.23
   4   5  11   -0.73    1.35
   4   5  11    1.41    1.56
   4   5  11   -5.03    8.63
  -5  -5 -11  106.67    6.68
  -5  -5 -11  111.01    7.28
  -5  -5 -11   89.62    6.90
   5   5  11   93.37    6.87
   5   5  11   94.79    7.63
   5   5  11   97.49    6.85
   5   5  11  114.43   18.77
  -6  -5 -11   31.09    4.13
  -6  -5 -11   29.99    4.05
   6   5  11   27.63    3.66
   6   5  11   31.17    3.62
   6   5  11   29.89    3.89
   6   5  11   15.93   19.89
  -7  -5 -11    6.18    3.13
   7   5  11    4.93    3.11
   7   5  11   -3.49    3.71
   7   5  11    4.39    3.05
   3  -6 -11    0.95    1.68
   2  -6 -11   -0.23    1.79
   2  -6 -11   -1.80    1.80
  -2   6  11    1.68    2.75
  -2   6  11   -2.16    2.53
  -2   6  11   -1.39    7.74
   1  -6 -11   40.79    3.60
   1  -6 -11   43.85    4.65
  -1   6  11   45.60    4.73
  -1   6  11   47.32    6.46
  -1   6  11   55.58   13.62
   0  -6 -11  107.29    7.88
   0  -6 -11  127.95    8.72
   0   6  11  113.80   11.79
   0   6  11  117.73    9.75
   0   6  11  116.24   19.60
  -1  -6 -11    5.21    2.66
  -1  -6 -11   -0.63    2.42
   1   6  11    1.25    2.55
   1   6  11   -0.51    2.55
   1   6  11   -2.03    8.60
  -2  -6 -11    9.37    2.96
  -2  -6 -11    6.41    2.52
   2   6  11    3.79    2.45
   2   6  11    4.31    2.66
   2   6  11   -9.42   10.93
  -3  -6 -11   13.05    3.24
  -3  -6 -11   14.62    3.05
   3   6  11   12.87    2.96
   3   6  11    6.18    3.01
   3   6  11   21.42   15.18
  -4  -6 -11   -1.45    4.51
  -4  -6 -11    5.92    2.61
   4   6  11    1.63    2.65
   4   6  11    2.90    2.85
   4   6  11    7.92    2.41
   4   6  11    1.95   13.60
  -5  -6 -11   15.53    3.61
  -5  -6 -11    8.35    3.42
   5   6  11    8.77    2.60
   5   6  11    8.62    3.44
   5   6  11    6.61    3.18
   5   6  11    5.03   18.29
  -6  -6 -11    0.22    2.80
  -6  -6 -11    1.15    2.73
   6   6  11    0.62    2.64
   6   6  11    1.09    2.56
   6   6  11   -1.01    3.02
   6   6  11   12.01   17.85
   1  -7 -11    4.21    3.07
   1  -7 -11    8.06    4.01
  -1   7  11    7.44    4.76
  -1   7  11    0.63    4.16
  -1   7  11    0.95    6.72
   0  -7 -11    4.04    2.64
   0  -7 -11   -2.83    2.83
   0   7  11    0.73    2.80
   0   7  11    4.91    3.71
   0   7  11    6.75    8.40
  -1  -7 -11    5.97    3.20
  -1  -7 -11   -1.38    5.59
   1   7  11    7.08    3.29
   1   7  11   -4.05    4.05
   1   7  11    4.74   11.13
  -2  -7 -11    7.04    3.31
   2   7  11    6.80    3.75
   2   7  11    0.84    3.08
   2   7  11    1.75    7.49
  -3  -7 -11   -0.52    0.96
   3   7  11    1.40    1.08
   3   7  11    2.39    1.13
  -4  -7 -11    3.00    2.56
   4   7  11   -2.66    2.66
   4   7  11   -1.72    2.95
   4   7  11  -16.60   17.08
  -5  -7 -11    5.83    4.69
  -5  -7 -11    4.42    3.73
   5   7  11    2.04    3.48
   5   7  11    5.89    4.72
   5   7  11   42.82   30.13
   5   7 -12   -0.91    2.92
   4   7 -12   14.53    5.03
   4   7 -12   16.96    4.23
  -4  -7  12   18.18    3.65
   4   7 -12   11.51   15.36
   3   7 -12    1.15    3.90
   3   7 -12    5.47    4.00
  -3  -7  12   11.99    3.52
  -3  -7  12    7.48    3.65
   3   7 -12   11.39   13.94
   2   7 -12    3.31    4.40
   2   7 -12    6.31    4.04
  -2  -7  12   10.48    3.81
  -2  -7  12    6.51    2.86
   2   7 -12    7.19   13.94
   1   7 -12   18.17    4.82
   1   7 -12   21.00    4.81
  -1  -7  12   25.75    3.59
  -1  -7  12   18.96    3.85
   1   7 -12   -9.28   15.76
   0   7 -12   17.84    4.84
   0   7 -12   16.09    4.43
   0   7 -12    9.16   16.27
   6   6 -12   10.21    4.20
  -6  -6  12   16.65    4.35
   5   6 -12   22.16    4.74
   5   6 -12   22.77    4.84
   5   6 -12   19.73   18.59
   4   6 -12    1.49    2.36
   4   6 -12   -2.00    2.59
  -4  -6  12    0.50    1.69
   4   6 -12   -9.55    9.55
   3   6 -12   20.72    3.74
   3   6 -12   23.72    4.05
  -3  -6  12   28.46    3.48
  -3  -6  12   33.07    3.37
   3   6 -12   34.93   16.25
   2   6 -12   22.91    4.10
   2   6 -12   31.97    3.88
  -2  -6  12   32.02    3.77
  -2  -6  12   34.01    3.67
   2   6 -12   31.27   13.57
   1   6 -12    0.84    3.15
   1   6 -12   -1.04    2.59
  -1  -6  12    0.51    2.15
  -1  -6  12    0.81    2.27
   1   6 -12    5.03   13.16
   0   6 -12    4.06    2.69
   0   6 -12    2.55    3.14
   0  -6  12    3.95    2.40
   0   6 -12   -0.55   12.22
  -1   6 -12   27.91    4.64
  -1   6 -12   25.23    4.39
  -1   6 -12   18.11   14.79
  -2   6 -12    1.64    1.18
  -2   6 -12   -0.11    1.23
   2  -6  12   -0.75    0.75
  -2   6 -12   -3.20    5.05
   6   5 -12   -0.93    3.07
  -6  -5  12    0.20    2.47
   5   5 -12    3.32    3.14
  -5  -5  12    5.64    2.50
   5   5 -12   -2.32   13.03
   4   5 -12   92.11   11.83
   4   5 -12   90.22    7.94
   4   5 -12   84.38    8.07
  -4  -5  12   99.32    8.35
   4   5 -12   59.19   14.86
   3   5 -12   20.78    2.83
   3   5 -12   19.07    3.52
   3   5 -12   15.22    3.66
  -3  -5  12   22.42    2.51
  -3  -5  12   17.71    2.57
   3   5 -12    4.42   10.11
   2   5 -12   -0.67    1.44
   2   5 -12   -1.37    1.60
   2   5 -12   -2.03    2.24
  -2  -5  12    1.56    1.50
  -2  -5  12    0.79    1.60
   2   5 -12   -2.43    8.71
   1   5 -12  119.79   10.11
   1   5 -12  125.10   10.64
  -1  -5  12  155.50   13.04
  -1  -5  12  154.75   10.09
   1   5 -12  138.26   14.20
   0   5 -12   67.04    7.37
   0   5 -12   59.14    5.73
   0  -5  12   62.06    6.09
   0  -5  12   78.92    5.18
   0   5 -12   53.09   11.46
  -1   5 -12    7.68    3.27
  -1   5 -12    5.94    3.41
   1  -5  12    5.94    1.89
  -1   5 -12    0.30   11.47
  -2   5 -12   48.83    6.09
  -2   5 -12   48.30    5.63
   2  -5  12   59.28    5.17
  -2   5 -12   68.13   17.51
  -3   5 -12    1.70    4.42
  -3   5 -12    0.34    2.56
   3  -5  12    1.35    2.88
  -3   5 -12   -2.73   18.79
   7   4 -12    3.29    3.87
  -7  -4  12    5.03    3.76
   6   4 -12   18.91    3.63
   6   4 -12   19.76    5.11
  -6  -4  12   21.77    3.95
   5   4 -12   12.12    2.90
   5   4 -12   12.49    3.59
  -5  -4  12    7.12    2.51
   5   4 -12    4.20   21.13
   4   4 -12    1.68    2.28
   4   4 -12    1.02    1.78
  -4  -4  12    1.15    1.45
   4   4 -12    8.11   11.65
   3   4 -12   47.05    3.92
   3   4 -12   44.05    4.39
   3   4 -12   40.55    3.90
  -3  -4  12   49.63    3.27
  -3  -4  12   36.38    3.74
   3   4 -12   27.66   10.98
   2   4 -12   26.89    3.54
   2   4 -12   28.49    3.68
   2   4 -12   31.08    3.20
  -2  -4  12   33.80    2.77
  -2  -4  12   29.40    3.15
   2   4 -12   28.75   10.02
   1   4 -12   15.68    2.91
   1   4 -12   19.14    2.52
   1   4 -12   18.59    2.27
  -1  -4  12   18.85    1.94
  -1  -4  12   17.85    2.44
   1   4 -12   12.63    9.53
   0   4 -12   -0.61    2.07
   0   4 -12    5.02    1.82
   0   4 -12   -2.63    2.63
   0  -4  12    2.07    1.57
   0  -4  12    1.77    1.34
   0   4 -12    0.28   10.19
  -1   4 -12    9.20    2.82
  -1   4 -12    2.92    2.30
   1  -4  12    4.40    1.34
   1  -4  12    3.94    1.48
  -1   4 -12   -2.00    9.46
  -2   4 -12   10.85    3.59
  -2   4 -12    7.89    3.42
   2  -4  12   10.81    1.81
  -2   4 -12    5.44   12.74
  -3   4 -12   13.82    4.45
  -3   4 -12   11.53    3.98
   3  -4  12   13.74    2.62
  -3   4 -12   13.19   16.73
  -4   4 -12    5.80    4.76
   4  -4  12    6.35    2.87
   4  -4  12    8.51    2.54
  -4   4 -12    2.56   18.86
   7   3 -12    2.79    3.87
   7   3 -12    6.47    3.65
  -7  -3  12    4.48    3.51
  -7  -3  12    3.83    3.04
  -7  -3  12    3.40    2.75
  -7  -3  12  -19.17   19.17
   6   3 -12    4.19    2.53
   6   3 -12    2.94    3.12
  -6  -3  12    1.93    2.10
  -6  -3  12    1.50    2.17
  -6  -3  12    2.83    2.46
  -6  -3  12   13.37   15.60
   5   3 -12   38.74    3.99
   5   3 -12   34.55    4.55
  -5  -3  12   32.66    3.17
  -5  -3  12   33.94    3.21
  -5  -3  12   41.87    3.20
  -5  -3  12   43.56    4.37
  -5  -3  12   34.86   13.50
   4   3 -12    1.35    1.99
   4   3 -12    2.38    1.79
  -4  -3  12    0.80    1.29
  -4  -3  12   -0.24    1.08
  -4  -3  12    0.68    1.19
  -4  -3  12    1.97    1.30
   4   3 -12    0.95    8.93
  -4  -3  12   -1.58    7.06
   3   3 -12    1.41    0.97
   3   3 -12   -0.27    0.88
  -3  -3  12    0.21    0.85
  -3  -3  12   -0.43    0.46
  -3  -3  12   -0.18    0.53
   3   3 -12   -4.04    4.58
  -3  -3  12    1.97    4.40
   2   3 -12    3.19    1.12
   2   3 -12    7.89    2.43
   2   3 -12    5.88    1.58
   2   3 -12    6.06    2.09
  -2  -3  12    4.86    1.22
  -2  -3  12    3.88    1.52
   2   3 -12    4.47    8.22
  -2  -3  12   -3.73    7.05
   1   3 -12    2.45    2.03
   1   3 -12    3.03    1.47
   1   3 -12    4.07    2.05
  -1  -3  12    2.85    1.14
  -1  -3  12    3.40    1.29
   1   3 -12    4.16    8.63
   1   3 -12   -9.21   13.56
  -1  -3  12   -0.73    8.95
   0   3 -12   93.19    6.43
   0   3 -12   95.25    8.65
   0   3 -12   98.03    7.90
   0  -3  12   96.65    6.53
   0  -3  12   90.14    9.03
   0   3 -12   59.32   12.69
   0   3 -12   71.73    8.48
  -1   3 -12   26.81    4.08
  -1   3 -12   30.69    3.58
  -1   3 -12   22.82    2.87
   1  -3  12   23.84    2.34
   1  -3  12   24.98    2.20
  -1   3 -12   19.49   10.49
  -2   3 -12    2.13    2.46
  -2   3 -12    7.42    2.83
   2  -3  12    2.15    1.45
   2  -3  12    3.75    1.53
  -2   3 -12   -0.72    9.44
  -3   3 -12  158.96   11.46
  -3   3 -12  169.31   13.97
   3  -3  12  163.93   12.49
   3  -3  12  181.82   10.83
  -3   3 -12  184.66   17.54
  -4   3 -12   54.51    7.52
   4  -3  12   63.09    5.08
   4  -3  12   57.04    5.28
  -4   3 -12   71.08   18.69
  -5   3 -12   11.09    5.09
   5  -3  12   11.07    2.80
   5  -3  12   11.42    2.67
  -5   3 -12  -10.05   17.90
   7   2 -12   -0.09    1.00
   7   2 -12    0.32    1.16
  -7  -2  12   -0.98    0.98
  -7  -2  12   -0.03    0.87
  -7  -2  12    1.37    0.97
  -7  -2  12    3.66    4.28
   6   2 -12   41.06    4.69
   6   2 -12   35.61    4.62
  -6  -2  12   40.02    4.89
  -6  -2  12   31.36    3.68
  -6  -2  12   41.02    3.96
  -6  -2  12   13.05   11.13
   5   2 -12  121.83    8.47
   5   2 -12  116.18    8.91
  -5  -2  12  111.16    6.89
  -5  -2  12  118.88    6.74
  -5  -2  12  114.28   11.79
  -5  -2  12  112.15    8.75
  -5  -2  12  108.08   14.67
   4   2 -12   16.90    2.55
   4   2 -12   15.35    2.42
  -4  -2  12   14.19    1.85
  -4  -2  12   11.94    2.17
  -4  -2  12   11.93    1.88
   4   2 -12   -2.84   11.34
  -4  -2  12   19.42   10.50
   3   2 -12   65.80    5.33
   3   2 -12   69.63    5.82
  -3  -2  12   56.63    4.23
  -3  -2  12   72.06    4.72
  -3  -2  12   70.50    7.01
  -3  -2  12   69.52    3.91
   3   2 -12   43.63    9.57
  -3  -2  12   44.06    8.54
   2   2 -12   35.53    3.90
   2   2 -12   31.96    2.97
  -2  -2  12   29.44    2.65
  -2  -2  12   29.89    2.95
  -2  -2  12   34.02    2.40
   2   2 -12   -4.66    7.28
   2   2 -12    5.64    7.65
  -2  -2  12   14.72    7.59
   1   2 -12    0.35    0.73
   1   2 -12   -0.09    0.74
   1   2 -12    2.50    0.98
   1   2 -12    0.11    1.26
   1   2 -12    0.65    1.28
  -1  -2  12    0.92    0.55
  -1  -2  12    0.23    0.82
  -1  -2  12    0.44    0.86
   1   2 -12   -2.53    6.43
   1   2 -12    1.26    6.16
  -1  -2  12    3.84    5.92
   0   2 -12    6.94    1.17
   0   2 -12    8.40    2.16
   0   2 -12    9.63    2.23
   0   2 -12    7.40    1.13
   0   2 -12    9.06    1.81
   0  -2  12    8.26    1.16
   0  -2  12    7.25    1.46
   0  -2  12    9.95    1.42
   0   2 -12    3.19    9.30
   0   2 -12    3.89    6.22
   0  -2  12    1.04    6.34
  -1   2 -12   55.15    2.93
  -1   2 -12   40.19    2.58
  -1   2 -12   51.13    5.49
  -1   2 -12   41.07    2.95
  -1   2 -12   50.34    4.95
  -1   2 -12   47.52    4.76
   1  -2  12   52.03    3.61
   1  -2  12   52.15    3.84
  -1   2 -12   40.56   12.78
  -1   2 -12   32.11    8.89
   1  -2  12   29.07    8.38
  -2   2 -12   29.67    3.18
  -2   2 -12   27.58    2.40
  -2   2 -12   33.08    3.96
  -2   2 -12   26.93    3.77
   2  -2  12   26.30    2.57
   2  -2  12   25.19    2.49
  -2   2 -12   13.88    7.78
  -3   2 -12    1.43    1.16
  -3   2 -12    1.11    2.70
  -3   2 -12   -0.16    1.16
  -3   2 -12   -1.68    2.91
   3  -2  12    3.19    1.82
   3  -2  12   -0.22    1.29
  -3   2 -12  -11.73   11.73
  -4   2 -12    6.27    3.16
   4  -2  12    5.10    1.82
   4  -2  12    1.99    1.62
  -4   2 -12   -0.54   13.40
  -5   2 -12    0.37    1.10
   5  -2  12    0.07    0.63
   5  -2  12    0.14    0.65
  -5   2 -12    1.58    5.14
  -6   2 -12    1.95    5.61
   6  -2  12    5.50    2.99
  -6   2 -12   20.74   21.00
   7   1 -12    3.62    3.15
   7   1 -12    9.91    3.13
  -7  -1  12    3.77    2.98
  -7  -1  12    5.59    3.08
  -7  -1  12   -6.26   17.79
   6   1 -12   -0.33    2.86
   6   1 -12    2.57    2.63
  -6  -1  12    1.22    2.46
  -6  -1  12    0.67    2.50
  -6  -1  12   -1.62   13.26
   5   1 -12    9.75    2.58
   5   1 -12    6.98    2.27
  -5  -1  12    5.81    1.86
  -5  -1  12    8.06    1.94
  -5  -1  12    3.17    1.97
  -5  -1  12    7.86    9.34
   4   1 -12   13.79    2.43
   4   1 -12   15.16    2.41
  -4  -1  12   16.95    2.14
  -4  -1  12   16.07    1.95
  -4  -1  12    7.48    6.42
   3   1 -12   18.97    2.31
   3   1 -12   22.26    2.52
  -3  -1  12   20.79    2.88
  -3  -1  12   14.20    1.77
  -3  -1  12   18.84    1.29
  -3  -1  12   18.61    1.77
   3   1 -12   14.12   11.40
  -3  -1  12    2.22    6.73
  -3  -1  12    4.45    9.72
   2   1 -12    4.86    1.88
   2   1 -12    1.46    1.94
   2   1 -12    5.53    1.93
  -2  -1  12    2.44    0.63
  -2  -1  12    3.44    1.05
  -2  -1  12    4.02    1.11
  -2  -1  12    1.86    1.23
   2   1 -12    8.06    9.23
  -2  -1  12    0.07    6.35
  -2  -1  12    3.20    6.26
   1   1 -12    9.30    1.83
   1   1 -12   12.97    2.13
   1   1 -12   14.16    2.09
   1   1 -12   14.97    1.82
   1   1 -12   18.61    2.22
  -1  -1  12   13.46    1.55
  -1  -1  12   15.10    1.19
   1   1 -12    3.72    9.55
   1   1 -12    3.91    7.12
  -1  -1  12    4.73    5.52
  -1  -1  12   21.01   10.05
   0   1 -12  252.48   19.77
   0   1 -12  251.72   21.51
   0   1 -12  256.92   22.30
   0  -1  12  248.40   17.83
   0  -1  12  257.30   16.33
   0   1 -12  182.24   18.23
   0  -1  12  214.97   20.80
  -1   1 -12    9.29    2.24
  -1   1 -12    8.58    1.44
  -1   1 -12    9.02    1.82
  -1   1 -12    8.09    1.84
  -1   1 -12    8.08    2.19
   1  -1  12    9.23    1.63
   1  -1  12    9.74    1.24
  -1   1 -12   -1.23    7.64
  -1   1 -12   24.04   12.14
   1  -1  12    6.82    5.67
  -2   1 -12    6.96    2.47
  -2   1 -12    7.75    1.60
  -2   1 -12    8.72    1.85
  -2   1 -12    6.89    2.53
  -2   1 -12    8.92    1.03
   2  -1  12    8.25    1.64
   2  -1  12   10.80    1.55
  -2   1 -12   11.83   11.25
  -2   1 -12    1.78    7.83
   2  -1  12   -2.72    7.86
  -3   1 -12   65.16    4.08
  -3   1 -12   48.68    5.22
  -3   1 -12   55.04    5.13
   3  -1  12   61.31    4.58
   3  -1  12   52.96    4.73
  -3   1 -12   51.83   11.01
  -4   1 -12   77.25    6.68
  -4   1 -12   63.22    5.47
   4  -1  12   58.63    6.10
   4  -1  12   76.67    4.79
  -4   1 -12   65.75   14.11
  -5   1 -12   14.26    2.41
  -5   1 -12   10.37    3.93
   5  -1  12    9.72    2.11
   5  -1  12    8.01    2.29
  -5   1 -12   19.32   16.32
  -6   1 -12   20.10    4.38
  -6   1 -12    9.50    4.89
   6  -1  12    8.68    3.06
  -6   1 -12   16.66   21.50
   7   0 -12   20.11    4.42
  -7   0  12   14.28    3.31
  -7   0  12   21.54    4.03
  -7   0  12   29.85   17.84
   6   0 -12   34.43    4.45
  -6   0  12   38.21    4.12
  -6   0  12   38.72   14.41
   5   0 -12   36.12    3.75
   5   0 -12   43.79    3.72
  -5   0  12   28.66    3.26
  -5   0  12   42.08   11.47
   4   0 -12  116.29    8.95
   4   0 -12  100.45    8.23
  -4   0  12  105.49    7.21
  -4   0  12  102.38    6.49
  -4   0  12  105.21   10.75
   3   0 -12   73.24    6.14
   3   0 -12   74.98    5.58
  -3   0  12   74.72    4.70
  -3   0  12   64.38    4.88
  -3   0  12   51.58    8.01
   2   0 -12  140.66   10.66
   2   0 -12  134.44   10.42
  -2   0  12  130.71    8.09
  -2   0  12  130.31   10.02
  -2   0  12  130.56    6.02
   2   0 -12   84.50   10.91
  -2   0  12  102.34   11.15
  -2   0  12  102.75   12.88
   1   0 -12   89.59    7.46
   1   0 -12   79.65    7.62
  -1   0  12   84.35    4.47
  -1   0  12   81.14    6.02
   1   0 -12   58.27    8.89
  -1   0  12   82.07   11.61
  -1   0  12   62.93    9.57
   0   0 -12    0.28    1.39
   0   0 -12    2.22    1.17
   0   0 -12    1.01    1.64
   0   0 -12    2.41    1.41
   0   0 -12    1.76    0.99
   0   0  12    4.43    0.80
   0   0  12    2.72    0.97
   0   0 -12   15.71    7.05
   0   0  12    1.49    4.30
   0   0  12    2.54    8.44
  -1   0 -12   22.62    2.65
  -1   0 -12   30.36    3.02
  -1   0 -12   19.28    2.31
  -1   0 -12   22.90    2.53
  -1   0 -12   20.15    2.97
  -1   0 -12   19.90    2.20
   1   0  12   24.24    1.75
   1   0  12   23.97    2.33
  -1   0 -12   12.09    9.31
  -1   0 -12   13.40    7.27
   1   0  12   14.90    7.48
   1   0  12   12.65    6.47
  -2   0 -12   33.61    3.47
  -2   0 -12   42.47    4.46
  -2   0 -12   32.95    3.16
  -2   0 -12   37.69    3.76
  -2   0 -12   42.65    2.99
   2   0  12   39.69    2.75
   2   0  12   41.13    3.24
  -2   0 -12   12.46    7.80
  -2   0 -12   18.28    8.52
   2   0  12   37.01    9.33
  -3   0 -12   20.99    2.08
  -3   0 -12   22.01    2.88
  -3   0 -12   19.23    2.67
  -3   0 -12   23.96    2.07
  -3   0 -12   22.31    2.97
   3   0  12   23.02    2.50
   3   0  12   25.75    2.23
  -3   0 -12   34.36   15.84
  -3   0 -12   21.40   10.18
   3   0  12    1.71    8.14
  -4   0 -12   50.92    4.73
   4   0  12   47.06    3.83
   4   0  12   52.71    3.91
  -4   0 -12   59.23   15.42
  -5   0 -12    1.11    1.57
  -5   0 -12    4.76    3.64
   5   0  12    3.01    2.06
   5   0  12    0.90    2.17
  -5   0 -12   10.71   14.63
  -6   0 -12    4.26    2.46
  -6   0 -12    1.48    2.42
   6   0  12    0.30    2.69
   6   0  12    2.10    2.62
  -6   0 -12   -6.55   18.96
  -7   0 -12    1.56    3.09
  -7   0 -12    4.36    3.28
   7   0  12    4.37    3.04
  -7   0 -12  -24.89   24.89
   6  -1 -12    0.48    2.66
   6  -1 -12   -2.06    2.22
  -6   1  12    6.73    2.48
  -6   1  12    1.28   10.65
   5  -1 -12    2.29    1.80
   5  -1 -12    1.85    1.35
  -5   1  12   -1.23    1.25
  -5   1  12   -0.73    5.69
   4  -1 -12    7.39    2.10
   4  -1 -12    8.71    2.03
  -4   1  12   10.52    1.90
  -4   1  12    9.42    2.02
  -4   1  12    5.92    2.08
  -4   1  12   13.05    8.09
   3  -1 -12    0.58    0.48
   3  -1 -12   -0.34    0.55
  -3   1  12   -0.42    0.42
  -3   1  12    0.17    0.42
  -3   1  12    2.35    2.28
   2  -1 -12   29.00    3.18
   2  -1 -12   26.58    2.93
  -2   1  12   31.22    2.46
  -2   1  12   28.13    2.65
  -2   1  12   26.59    8.51
  -2   1  12   20.03    6.60
   1  -1 -12    6.13    1.94
   1  -1 -12    1.71    1.54
  -1   1  12    6.18    1.24
  -1   1  12    2.74    0.48
   1  -1 -12    5.93    8.89
  -1   1  12    8.53    5.92
  -1   1  12    6.98    7.35
   0  -1 -12  362.64   26.70
   0  -1 -12  454.61   39.45
   0   1  12  449.90   24.54
   0   1  12  502.54   32.01
   0  -1 -12  390.54   27.09
   0   1  12  443.17   32.34
   0   1  12  418.24   38.75
  -1  -1 -12   -1.14    1.14
  -1  -1 -12    0.82    0.71
  -1  -1 -12    0.84    0.95
  -1  -1 -12   -0.07    1.00
   1   1  12   -0.02    0.47
   1   1  12    1.36    1.03
   1   1  12    0.37    0.68
  -1  -1 -12   -1.69    5.48
   1   1  12    0.76    4.20
   1   1  12    5.41    5.30
  -2  -1 -12   30.53    3.90
  -2  -1 -12   26.62    2.66
  -2  -1 -12   26.87    2.78
   2   1  12   27.94    2.66
   2   1  12   23.71    2.30
   2   1  12   28.43    2.36
  -2  -1 -12   27.24    9.98
   2   1  12   20.31    7.14
  -3  -1 -12   -0.44    1.40
  -3  -1 -12   -1.23    1.62
  -3  -1 -12   -0.52    0.84
  -3  -1 -12    0.22    0.84
   3   1  12   -0.15    0.93
   3   1  12    0.36    0.96
  -3  -1 -12    4.27    9.53
  -3  -1 -12   -6.91   10.64
   3   1  12    8.20    7.96
  -4  -1 -12   33.74    3.82
  -4  -1 -12   38.84    5.04
  -4  -1 -12   37.94    2.70
  -4  -1 -12   45.12    3.71
   4   1  12   34.94    3.76
   4   1  12   40.02    3.70
  -4  -1 -12   25.22   13.95
   4   1  12   38.62   14.32
  -5  -1 -12   49.82    5.26
  -5  -1 -12   56.42    4.45
   5   1  12   42.01    4.98
   5   1  12   58.55    4.80
  -5  -1 -12   74.73   17.01
  -6  -1 -12    7.61    1.99
   6   1  12    3.45    2.78
   6   1  12    2.62    2.50
  -6  -1 -12    2.68   17.41
  -7  -1 -12   54.23    5.75
   7   1  12   49.10    5.25
  -7  -1 -12   36.85   27.12
   6  -2 -12    0.51    1.13
   6  -2 -12   -0.82    0.83
  -6   2  12   -0.53    0.85
  -6   2  12   -4.40    4.40
   5  -2 -12   -0.64    2.24
   5  -2 -12    0.85    2.37
  -5   2  12    2.53    2.14
  -5   2  12    0.31   11.33
   4  -2 -12    4.74    2.48
   4  -2 -12    2.28    1.92
  -4   2  12    2.68    1.81
  -4   2  12    2.54    2.33
  -4   2  12    0.16    1.98
  -4   2  12   -6.91    9.11
   3  -2 -12    0.89    1.24
  -3   2  12    0.31    1.31
  -3   2  12    4.63    1.48
  -3   2  12    0.74    1.42
  -3   2  12   -5.65    5.65
   2  -2 -12   52.86    4.52
   2  -2 -12   66.94    5.53
  -2   2  12   65.86    4.60
  -2   2  12   67.96    4.92
   1  -2 -12   48.06    4.05
   1  -2 -12   56.12    5.30
  -1   2  12   60.74    3.69
  -1   2  12   55.46    4.51
  -1   2  12   49.82    8.20
  -1   2  12   28.03    9.21
   0  -2 -12  370.06   29.52
   0  -2 -12  330.97   17.00
   0   2  12  384.92   24.70
   0   2  12  312.64   15.71
   0  -2 -12  328.42   28.38
   0   2  12  370.00   26.88
   0   2  12  344.10   30.60
  -1  -2 -12  207.34   11.87
  -1  -2 -12  217.43   10.83
  -1  -2 -12  207.16   13.28
  -1  -2 -12  222.02   17.75
   1   2  12  196.32   11.13
   1   2  12  186.69   11.02
   1   2  12  210.40   13.53
  -1  -2 -12  189.52   17.16
   1   2  12  218.95   21.05
   1   2  12  230.11   20.41
  -2  -2 -12   66.06    4.52
  -2  -2 -12   73.04    7.35
  -2  -2 -12   65.78    4.26
   2   2  12   70.25    3.85
   2   2  12   63.17    4.11
   2   2  12   75.37    5.13
  -2  -2 -12   44.61   12.20
   2   2  12   68.69   11.42
   2   2  12   52.27    8.83
  -3  -2 -12    0.81    1.48
  -3  -2 -12   -1.79    1.79
  -3  -2 -12    3.99    1.98
   3   2  12   -0.33    1.53
   3   2  12    1.42    1.32
   3   2  12   -1.59    1.64
  -3  -2 -12   -0.41   13.54
   3   2  12   -9.22   10.29
  -4  -2 -12   16.18    1.86
  -4  -2 -12   16.26    2.08
  -4  -2 -12   14.43    2.64
  -4  -2 -12   11.70    2.46
   4   2  12   13.82    2.10
   4   2  12   16.96    1.85
  -4  -2 -12   13.72   15.51
   4   2  12    7.23   12.11
  -5  -2 -12   45.32    4.24
   5   2  12   48.86    4.27
   5   2  12   45.62    4.61
  -5  -2 -12   35.90   17.94
  -6  -2 -12   23.51    3.11
   6   2  12   20.28    3.17
   6   2  12   25.68    3.29
   6   2  12   20.61    3.53
  -6  -2 -12   26.82   21.65
  -7  -2 -12   -0.82    1.07
   7   2  12    0.90    1.53
   7   2  12    0.60    2.62
   7   2  12    2.79    2.12
  -7  -2 -12    0.54   13.17
   5  -3 -12   31.78    4.18
   5  -3 -12   40.96    4.54
  -5   3  12   33.57    3.86
  -5   3  12   48.55   14.36
   4  -3 -12   27.12    3.23
   4  -3 -12   26.70    3.12
  -4   3  12   19.71    3.12
  -4   3  12   15.49    9.88
   3  -3 -12    9.42    2.07
   3  -3 -12   11.52    2.46
  -3   3  12    7.29    2.31
  -3   3  12    9.17    2.61
  -3   3  12    5.83    1.86
  -3   3  12    2.22    9.22
   2  -3 -12   22.53    3.00
   2  -3 -12   20.86    2.42
  -2   3  12   28.24    2.83
  -2   3  12   24.82    2.86
  -2   3  12   29.15    8.62
   1  -3 -12    1.36    1.64
   1  -3 -12   -1.38    1.38
  -1   3  12    2.40    1.73
  -1   3  12    1.52    1.55
  -1   3  12   11.94    7.02
   0  -3 -12   -0.58    1.40
   0  -3 -12    0.80    1.35
   0  -3 -12    4.46    2.16
   0   3  12    0.83    1.32
   0   3  12    1.26    1.65
   0   3  12    0.68    6.77
   0   3  12    7.25    8.97
  -1  -3 -12   38.24    3.17
  -1  -3 -12   36.59    3.54
  -1  -3 -12   52.95    4.82
   1   3  12   46.87    4.06
   1   3  12   45.59    2.76
   1   3  12   43.16    3.16
   1   3  12   40.67    9.43
   1   3  12   63.84   12.19
  -2  -3 -12    4.55    2.10
   2   3  12    7.26    1.39
   2   3  12    7.12    1.58
   2   3  12    6.21    1.62
  -2  -3 -12   -3.76   13.27
   2   3  12    2.60    8.05
  -3  -3 -12    0.93    1.57
  -3  -3 -12    1.17    1.61
   3   3  12    1.06    1.23
   3   3  12   -1.04    1.22
   3   3  12    0.97    1.40
  -3  -3 -12   -4.38   11.82
   3   3  12   -1.42    7.32
  -4  -3 -12  180.86   16.03
  -4  -3 -12  208.27   15.50
  -4  -3 -12  210.56   12.75
   4   3  12  207.37   16.67
   4   3  12  193.98   14.56
   4   3  12  204.67   11.99
  -4  -3 -12  155.10   21.63
   4   3  12  207.67   25.87
  -5  -3 -12   16.48    2.31
  -5  -3 -12    9.21    2.15
   5   3  12   14.07    2.31
   5   3  12   14.27    2.94
   5   3  12   13.80    2.30
   5   3  12   -8.76   15.32
  -6  -3 -12   17.46    2.72
   6   3  12   21.17    2.99
   6   3  12   15.81    3.47
   6   3  12   16.68    2.87
  -7  -3 -12  116.14   10.60
   7   3  12  120.15    9.66
   7   3  12  107.14    9.89
   7   3  12  140.84   10.96
   4  -4 -12    2.20    2.21
  -4   4  12    0.16    2.54
  -4   4  12   -0.12   10.21
   3  -4 -12   21.05    3.41
  -3   4  12   15.52    3.11
  -3   4  12   16.41    3.70
  -3   4  12   32.96   12.63
   2  -4 -12   71.50    5.75
  -2   4  12   77.83    6.66
  -2   4  12   71.02    6.33
  -2   4  12   71.92   11.78
   1  -4 -12   52.52    4.45
  -1   4  12   63.97    5.26
  -1   4  12   56.49    4.84
  -1   4  12   62.23   11.65
   0  -4 -12   76.16    6.30
   0   4  12   89.68    6.89
   0   4  12   82.23    6.51
   0   4  12  109.41   12.57
  -1  -4 -12    4.86    2.25
   1   4  12    3.53    1.74
   1   4  12    6.62    9.00
  -2  -4 -12   84.21    5.60
  -2  -4 -12   73.23    5.47
   2   4  12   59.89    4.83
   2   4  12   65.74    5.58
   2   4  12   73.34    5.11
   2   4  12   63.26   12.82
  -3  -4 -12   -0.75    0.75
  -3  -4 -12    0.60    0.68
   3   4  12   -0.38    0.64
   3   4  12    0.56    0.59
   3   4  12    0.82    0.57
   3   4  12   -1.76    3.70
  -4  -4 -12   20.03    2.67
  -4  -4 -12   26.39    3.22
  -4  -4 -12   18.55    3.35
   4   4  12   23.06    2.77
   4   4  12   17.54    2.83
   4   4  12   17.45    2.76
   4   4  12   25.49   13.86
  -5  -4 -12   38.53    3.81
  -5  -4 -12   35.35    3.80
  -5  -4 -12   37.52    3.41
   5   4  12   34.35    3.47
   5   4  12   40.29    3.95
   5   4  12   37.19    3.39
   5   4  12   12.27   17.06
  -6  -4 -12   10.23    2.79
   6   4  12   11.68    2.46
   6   4  12   11.06    3.24
   6   4  12    6.44    3.17
  -7  -4 -12    0.39    2.22
   7   4  12    5.03    2.79
   7   4  12    2.28    2.74
   7   4  12    2.68    2.60
   3  -5 -12   33.27    3.99
  -3   5  12   31.73    4.89
  -3   5  12   31.68    5.34
  -3   5  12   43.27   12.69
   2  -5 -12    2.04    1.96
  -2   5  12    3.26    2.52
  -2   5  12    1.22    2.73
  -2   5  12    6.98    9.42
   1  -5 -12   13.48    2.89
  -1   5  12   13.29    3.11
  -1   5  12   12.30    3.21
  -1   5  12   17.44   11.46
   0  -5 -12    3.54    2.69
   0   5  12    8.08    2.52
   0   5  12    1.48    2.64
   0   5  12  -10.88   10.88
  -1  -5 -12    2.13    2.59
  -1  -5 -12   -0.13    2.41
   1   5  12    6.90    1.94
   1   5  12    0.02    2.15
   1   5  12    3.06   13.32
  -2  -5 -12    2.45    2.45
  -2  -5 -12    5.53    2.71
   2   5  12    3.38    2.12
   2   5  12    2.74    2.04
   2   5  12  -10.32   12.26
  -3  -5 -12    0.36    2.67
  -3  -5 -12    5.98    2.34
   3   5  12    2.38    1.88
   3   5  12    3.60    2.19
   3   5  12    2.97    2.17
   3   5  12  -11.71   11.71
  -4  -5 -12    2.14    2.38
  -4  -5 -12    3.07    2.52
   4   5  12    0.98    2.33
   4   5  12    1.25    1.77
   4   5  12    0.11    1.98
   4   5  12   18.03   14.36
  -5  -5 -12    2.32    2.20
  -5  -5 -12   -2.65    2.65
  -5  -5 -12   -0.99    2.49
   5   5  12    1.98    2.29
   5   5  12    1.89    1.96
   5   5  12   -0.12    2.26
   5   5  12   -3.51   14.95
  -6  -5 -12    7.66    2.86
   6   5  12    5.20    2.78
   6   5  12    1.59    3.22
   6   5  12    3.85    3.32
   2  -6 -12    4.48    3.48
   2  -6 -12    2.66    3.48
  -2   6  12   -0.83    4.43
  -2   6  12    7.55   16.38
   1  -6 -12    3.25    2.33
   1  -6 -12    5.75    3.54
  -1   6  12    0.94    3.73
  -1   6  12   -1.90    3.15
  -1   6  12  -13.13   13.94
   0  -6 -12   16.50    3.49
   0  -6 -12    9.48    3.11
   0   6  12   14.88    4.08
   0   6  12   14.56    3.39
   0   6  12   14.27   14.12
  -1  -6 -12   39.90    5.02
   1   6  12   36.68    4.61
   1   6  12   36.95    4.15
   1   6  12   38.84   14.12
  -2  -6 -12   -0.17    2.91
  -2  -6 -12    5.54    3.23
   2   6  12    5.00    3.06
   2   6  12    4.47    2.42
   2   6  12    8.00   14.98
  -3  -6 -12    3.60    3.35
  -3  -6 -12    9.21    3.15
   3   6  12    8.92    3.15
   3   6  12    8.03    3.32
   3   6  12   23.59   15.46
  -4  -6 -12   -0.27    1.37
   4   6  12    1.01    1.28
   4   6  12   -1.12    1.21
   4   6  12   -0.68    0.98
   4   6  12    1.42    6.74
  -5  -6 -12   35.07    4.96
  -5  -6 -12   32.94    4.37
   5   6  12   22.79    4.52
   5   6  12   18.79    3.58
   5   6  12   28.48    3.56
  -6  -6 -12   54.86    5.07
  -6  -6 -12   45.07    5.97
   6   6  12   46.78    5.42
   6   6  12   43.29    5.69
   6   6  12   40.33    5.10
   6   6  12   26.88   22.08
   0  -7 -12   10.18    3.91
   0  -7 -12   17.31    4.19
   0   7  12    9.75    4.67
   0   7  12   13.89    5.10
   0   7  12  -13.17   14.88
  -1  -7 -12   -0.07    1.54
  -1  -7 -12    0.27    1.19
   1   7  12    0.16    1.55
   1   7  12   -1.33    1.73
   1   7  12   -4.27    6.38
  -2  -7 -12   -0.31    1.11
   2   7  12   -0.98    0.98
   2   7  12   -0.63    1.21
   2   7  12    4.29    5.54
  -3  -7 -12    5.42    3.29
   3   7  12   -2.26    3.09
   3   7  12   -3.75    3.75
   3   7  12    1.91    8.88
  -4  -7 -12   -0.73    0.97
   4   7  12   -0.43    1.16
   4   7  12    0.53    1.07
   4   7  12    5.46    5.61
  -5  -7 -12    3.78    2.68
   3   7 -13   -1.62    1.62
   3   7 -13    0.54    1.49
  -3  -7  13    0.26    1.37
  -3  -7  13   -0.75    1.36
   3   7 -13   -2.73    7.65
   2   7 -13   19.29    4.87
   2   7 -13   14.88    4.16
  -2  -7  13   25.47    4.16
   2   7 -13   24.51   21.36
   1   7 -13    2.81    3.94
   1   7 -13    4.04    4.03
  -1  -7  13    4.77    3.21
   1   7 -13    9.17   17.02
   5   6 -13   13.29    5.07
   5   6 -13   15.18    5.16
  -5  -6  13   19.06    3.99
   5   6 -13   -7.97   19.72
   4   6 -13   35.35    5.27
   4   6 -13   42.44    5.34
  -4  -6  13   41.54    4.85
   4   6 -13   22.02   15.45
   3   6 -13    2.95    3.78
   3   6 -13    7.06    3.68
  -3  -6  13   14.27    3.25
  -3  -6  13   12.36    3.21
   3   6 -13   12.33   18.04
   2   6 -13   12.93    2.96
   2   6 -13   11.87    3.32
  -2  -6  13   22.77    3.31
  -2  -6  13   16.57    3.15
   2   6 -13   15.05   13.50
   1   6 -13   -2.99    2.99
   1   6 -13    1.06    2.84
  -1  -6  13    2.10    2.51
  -1  -6  13    0.76    2.26
   1   6 -13   -8.19   13.55
   0   6 -13    1.84    3.32
   0   6 -13    2.32    3.16
   0  -6  13    3.75    2.00
   0   6 -13  -11.79   11.79
  -1   6 -13   24.52    4.55
  -1   6 -13   22.76    4.99
  -1   6 -13    6.92   15.37
   6   5 -13    5.57    3.13
  -6  -5  13    3.07    2.41
   5   5 -13    0.28    1.01
  -5  -5  13   -0.19    0.82
   4   5 -13    4.08    3.28
   4   5 -13   -0.26    3.01
  -4  -5  13   -0.50    1.77
  -4  -5  13   -1.53    1.70
   4   5 -13    2.13   14.21
   3   5 -13    1.32    1.01
   3   5 -13    0.35    0.81
   3   5 -13   -0.26    0.67
  -3  -5  13   -0.22    0.64
  -3  -5  13    0.65    0.67
   3   5 -13    7.35    3.97
   2   5 -13   13.02    2.44
   2   5 -13   11.88    3.32
   2   5 -13    6.14    2.74
  -2  -5  13   11.28    2.66
  -2  -5  13   18.33    2.53
   2   5 -13   14.08   11.46
   1   5 -13    1.93    2.74
   1   5 -13   11.73    3.25
   1   5 -13    4.23    2.24
  -1  -5  13   11.43    2.40
  -1  -5  13    7.38    2.24
   1   5 -13    3.64   11.90
   0   5 -13    4.68    3.16
   0   5 -13    1.05    3.15
   0  -5  13    6.83    2.07
   0  -5  13    6.91    2.19
   0   5 -13   19.86   11.69
  -1   5 -13    6.66    3.84
  -1   5 -13   14.56    3.76
   1  -5  13    9.52    2.67
  -1   5 -13   -0.95   11.67
  -2   5 -13   97.18   10.17
  -2   5 -13   94.90    9.29
   2  -5  13  103.25    7.64
  -2   5 -13   98.30   20.43
  -3   5 -13   10.64    5.15
  -3   5 -13    5.08    4.44
   3  -5  13   17.17    4.01
  -3   5 -13   34.62   23.34
   6   4 -13    7.37    4.24
  -6  -4  13   14.97    3.67
   5   4 -13   29.31    4.40
   5   4 -13   26.12    4.45
  -5  -4  13   33.53    3.75
  -5  -4  13   40.11    3.63
   4   4 -13   54.80    4.93
   4   4 -13   47.16    5.01
  -4  -4  13   60.54    4.15
  -4  -4  13   49.06    4.97
   4   4 -13   37.74   12.57
   3   4 -13   14.51    3.31
   3   4 -13   14.96    2.55
  -3  -4  13   16.11    2.18
  -3  -4  13   16.44    2.63
   3   4 -13    4.80   14.36
   2   4 -13   18.02    3.17
   2   4 -13   16.19    2.74
   2   4 -13   13.59    2.42
  -2  -4  13   12.47    1.84
  -2  -4  13   13.70    2.34
   2   4 -13    8.38   11.01
   1   4 -13    0.94    1.86
   1   4 -13    0.61    2.05
   1   4 -13    5.56    2.15
  -1  -4  13    2.56    1.54
  -1  -4  13    2.30    1.58
   1   4 -13    7.67    9.68
   0   4 -13    4.45    2.09
   0   4 -13    2.72    2.72
   0   4 -13   -0.09    2.70
   0  -4  13    5.55    1.55
   0  -4  13    3.90    1.65
   0   4 -13   -6.35    8.75
  -1   4 -13    5.46    2.93
  -1   4 -13   11.17    3.22
   1  -4  13    9.16    2.22
  -1   4 -13    1.74   11.34
  -2   4 -13    5.06    3.33
  -2   4 -13    9.49    3.60
   2  -4  13    9.11    2.49
  -2   4 -13   12.58   13.91
  -3   4 -13    0.45    1.54
  -3   4 -13   -0.20    1.54
   3  -4  13   -0.63    0.81
   3  -4  13   -0.51    0.89
  -3   4 -13   -6.17    6.17
  -4   4 -13   -1.77    1.77
   4  -4  13   -0.94    0.94
   4  -4  13    0.57    0.84
  -4   4 -13    9.84    8.42
   7   3 -13    0.06    1.15
   7   3 -13    0.06    1.43
   6   3 -13   16.65    3.72
   6   3 -13   12.43    3.11
  -6  -3  13   10.06    3.21
  -6  -3  13    8.23    4.56
  -6  -3  13   13.46    3.18
   5   3 -13    7.78    2.75
   5   3 -13    8.43    3.45
  -5  -3  13   12.14    2.83
  -5  -3  13   13.87    2.48
  -5  -3  13    9.85    2.14
  -5  -3  13    7.86    1.93
  -5  -3  13   -1.13   12.72
   4   3 -13    6.80    2.44
   4   3 -13    1.72    2.80
  -4  -3  13    1.94    1.60
  -4  -3  13    3.39    1.23
  -4  -3  13   -0.42    2.02
   4   3 -13    4.35   14.01
  -4  -3  13   -2.87   12.05
   3   3 -13   -0.31    0.86
   3   3 -13    0.18    0.71
  -3  -3  13    0.21    0.42
  -3  -3  13    0.49    0.51
  -3  -3  13    0.61    0.60
   3   3 -13    1.45    3.52
  -3  -3  13    0.02    2.87
   2   3 -13    1.55    1.52
   2   3 -13    3.66    2.06
   2   3 -13    1.07    1.82
  -2  -3  13    3.18    1.04
  -2  -3  13    3.33    1.32
  -2  -3  13   -0.01    1.46
   2   3 -13   -2.60    7.96
   1   3 -13   58.12    4.99
   1   3 -13   57.62    5.30
   1   3 -13   57.95    5.99
  -1  -3  13   59.70    3.96
  -1  -3  13   59.13    6.05
   1   3 -13   32.41    9.98
   0   3 -13    3.47    2.09
   0   3 -13    4.31    1.66
   0   3 -13    3.13    2.37
   0  -3  13    3.79    1.24
   0   3 -13    1.94    6.73
  -1   3 -13   -0.41    2.65
  -1   3 -13   -0.23    1.78
  -1   3 -13    3.02    2.50
   1  -3  13    0.64    1.42
   1  -3  13    2.40    1.85
   1  -3  13    2.17    1.18
  -1   3 -13   -1.44   10.26
  -2   3 -13    4.39    3.10
  -2   3 -13    1.57    3.57
   2  -3  13    5.50    1.83
   2  -3  13    4.90    1.89
  -2   3 -13   15.85   11.77
  -3   3 -13   -0.61    3.06
  -3   3 -13    1.82    2.77
   3  -3  13    0.16    1.56
   3  -3  13   -0.76    1.62
  -3   3 -13    9.50   12.98
  -4   3 -13    1.51    1.21
   4  -3  13   -0.56    0.61
   4  -3  13   -0.09    0.65
  -4   3 -13    8.42    6.60
  -5   3 -13   21.74    6.31
   5  -3  13   24.35    3.97
   5  -3  13   16.48    3.39
  -5   3 -13   29.55   20.83
   7   2 -13   17.80    4.04
   7   2 -13   11.14    3.82
  -7  -2  13   17.98    3.84
  -7  -2  13   14.65    3.15
  -7  -2  13    5.71   17.63
   6   2 -13   18.87    3.83
   6   2 -13    9.47    3.10
  -6  -2  13   13.48    2.64
  -6  -2  13   12.43    3.46
  -6  -2  13   16.78    2.91
  -6  -2  13   11.52   16.69
   5   2 -13   86.24    7.27
   5   2 -13   92.82    7.55
  -5  -2  13   89.31    6.23
  -5  -2  13   87.41    6.69
  -5  -2  13   95.72    8.93
  -5  -2  13   85.51   15.33
   4   2 -13   48.56    5.27
   4   2 -13   65.10    5.21
  -4  -2  13   58.43    5.63
  -4  -2  13   52.99    4.16
  -4  -2  13   64.71    4.52
  -4  -2  13   42.19   10.00
   3   2 -13   38.32    4.05
   3   2 -13   36.96    3.80
  -3  -2  13   32.13    3.52
  -3  -2  13   33.85    2.90
  -3  -2  13   33.91    2.43
  -3  -2  13   25.47    2.49
   3   2 -13   10.26    9.61
  -3  -2  13   18.47    8.61
   2   2 -13   21.67    3.03
   2   2 -13   28.42    3.93
   2   2 -13   28.29    2.92
  -2  -2  13   33.79    2.13
  -2  -2  13   29.37    2.46
  -2  -2  13   32.39    3.24
   2   2 -13   20.15    8.47
  -2  -2  13   19.67    7.51
   1   2 -13   10.14    2.11
   1   2 -13    8.61    2.33
   1   2 -13    6.49    2.25
   1   2 -13    7.70    1.58
  -1  -2  13   12.60    1.40
  -1  -2  13   10.42    1.83
  -1  -2  13   10.73    1.74
   1   2 -13    5.81    9.04
  -1  -2  13    8.88    7.82
   0   2 -13   92.09    8.46
   0   2 -13   87.31    6.43
   0   2 -13   85.45    8.49
   0  -2  13   92.03    5.81
   0  -2  13   92.92    6.55
   0  -2  13   82.93    7.16
   0   2 -13   61.96   10.31
   0  -2  13   40.41   10.13
  -1   2 -13   54.18    5.80
  -1   2 -13   54.48    5.38
  -1   2 -13   51.33    5.06
  -1   2 -13   60.08    3.33
   1  -2  13   51.51    3.95
   1  -2  13   56.94    4.02
  -1   2 -13   29.95   10.48
  -2   2 -13   -1.58    2.89
  -2   2 -13    3.55    2.20
  -2   2 -13    2.68    2.76
   2  -2  13    1.23    1.64
   2  -2  13    3.90    1.45
  -2   2 -13    8.35   12.26
  -3   2 -13   80.94    6.42
  -3   2 -13   76.22    7.65
   3  -2  13   81.65    5.37
   3  -2  13   71.35    6.34
  -3   2 -13   65.56   13.09
  -4   2 -13    7.14    3.58
   4  -2  13    1.67    2.25
   4  -2  13    3.43    2.09
  -4   2 -13  -13.76   17.06
  -5   2 -13   -1.60    2.27
   5  -2  13   -0.62    1.17
   5  -2  13    1.31    1.16
  -5   2 -13    0.07   10.64
   7   1 -13    2.04    3.46
   6   1 -13   18.26    3.87
   6   1 -13   18.32    3.47
  -6  -1  13   19.25    3.26
  -6  -1  13   -3.95   12.52
   5   1 -13   20.20    2.90
   5   1 -13   17.63    3.00
  -5  -1  13   15.73    2.26
  -5  -1  13   16.81    3.93
  -5  -1  13   10.17   11.33
   4   1 -13   13.50    2.48
   4   1 -13   22.11    2.58
  -4  -1  13   19.95    2.28
  -4  -1  13   20.24    2.51
  -4  -1  13   13.02    8.30
   3   1 -13  104.94    8.47
   3   1 -13  100.44    7.67
  -3  -1  13  105.51    5.22
  -3  -1  13   98.20    6.06
  -3  -1  13   89.13    6.14
  -3  -1  13  101.61   12.61
   2   1 -13   12.60    2.56
   2   1 -13   12.72    2.48
  -2  -1  13   17.38    1.94
  -2  -1  13   17.12    1.26
   2   1 -13    2.31    9.04
  -2  -1  13    9.61    6.19
   1   1 -13  127.39   10.73
   1   1 -13  104.46    8.58
   1   1 -13  114.77   10.57
  -1  -1  13  117.80    8.16
  -1  -1  13  116.53    7.05
   1   1 -13   68.35    9.66
  -1  -1  13   86.09    9.83
   0   1 -13    2.03    1.98
   0   1 -13    0.65    1.60
   0   1 -13    5.58    1.74
   0   1 -13    2.32    2.10
   0   1 -13    2.57    1.56
   0  -1  13    3.36    1.34
   0  -1  13    4.89    0.99
   0   1 -13   -8.82    8.82
   0  -1  13   -4.20    8.09
  -1   1 -13   15.09    2.58
  -1   1 -13   16.26    2.40
  -1   1 -13   13.96    2.64
   1  -1  13   16.83    1.94
   1  -1  13   17.85    1.72
  -1   1 -13   19.78   11.15
  -1   1 -13    6.34    9.52
   1  -1  13    7.76    6.52
  -2   1 -13    0.90    1.89
  -2   1 -13    1.26    0.77
  -2   1 -13    0.20    1.33
  -2   1 -13   -1.78    1.78
   2  -1  13    0.75    1.00
   2  -1  13   -0.35    1.23
  -2   1 -13    3.63    7.27
  -3   1 -13   19.20    3.50
  -3   1 -13   24.55    2.89
  -3   1 -13   27.92    2.19
  -3   1 -13   18.19    3.59
   3  -1  13   25.74    2.55
   3  -1  13   21.25    2.48
  -3   1 -13   27.30   14.30
  -4   1 -13    1.86    2.33
  -4   1 -13   -0.05    1.28
   4  -1  13    0.38    1.40
   4  -1  13   -0.28    1.25
  -4   1 -13    5.10   11.92
  -5   1 -13   11.93    4.22
   5  -1  13   18.67    3.09
   5  -1  13   13.13    2.95
  -5   1 -13   20.81   20.20
  -6   1 -13   16.56    5.51
   6  -1  13   16.34    3.67
   6  -1  13   16.89    3.48
  -6   1 -13   19.94   25.20
   6   0 -13   -2.35    3.11
   6   0 -13    4.29    3.14
  -6   0  13    3.38    2.93
  -6   0  13    5.63   12.56
   5   0 -13   13.75    3.14
   5   0 -13   13.79    3.13
  -5   0  13   10.27    2.39
  -5   0  13   23.37    9.59
   4   0 -13    0.77    1.91
   4   0 -13   -1.32    1.68
  -4   0  13   -1.40    1.40
  -4   0  13    1.72    1.59
  -4   0  13   -5.88    6.29
   3   0 -13   69.00    5.36
   3   0 -13   63.87    5.69
  -3   0  13   63.13    4.85
  -3   0  13   68.09    4.68
  -3   0  13   56.95    9.31
   2   0 -13    7.36    1.78
   2   0 -13    1.33    1.89
  -2   0  13    4.05    1.40
   2   0 -13    9.30   11.13
  -2   0  13    5.29    6.80
  -2   0  13    1.83    6.48
   1   0 -13  685.43   56.22
   1   0 -13  564.86   47.28
  -1   0  13  622.55   32.83
  -1   0  13  670.96   44.01
   1   0 -13  526.51   35.57
  -1   0  13  629.94   52.39
   0   0 -13  176.55   12.28
   0   0 -13  183.88   15.78
   0   0 -13  163.11   12.70
   0   0  13  173.86   13.72
   0   0  13  171.09    9.38
   0   0 -13  135.00   13.94
   0   0  13  130.25   14.25
  -1   0 -13   31.70    3.38
  -1   0 -13   32.05    3.31
  -1   0 -13   33.85    3.69
   1   0  13   37.65    2.44
   1   0  13   33.07    3.08
  -1   0 -13   20.81   10.60
   1   0  13   14.83    7.90
  -2   0 -13   -0.73    1.83
  -2   0 -13    0.41    1.24
  -2   0 -13    0.36    0.76
  -2   0 -13    0.05    1.34
   2   0  13   -0.33    0.67
   2   0  13   -0.06    0.99
  -2   0 -13   -7.61    7.61
   2   0  13   -1.18    6.33
  -3   0 -13   16.44    3.24
  -3   0 -13   22.31    2.17
  -3   0 -13   19.25    3.05
  -3   0 -13   18.02    3.14
   3   0  13   22.44    2.14
   3   0  13   21.56    2.58
  -3   0 -13   -4.38   11.06
  -4   0 -13   39.53    4.31
  -4   0 -13   51.37    3.89
   4   0  13   48.89    3.90
   4   0  13   38.46    3.78
  -4   0 -13   19.86   13.20
  -5   0 -13    5.62    1.92
  -5   0 -13    1.02    3.17
   5   0  13    6.76    2.37
   5   0  13    3.30    2.19
  -5   0 -13    8.16   17.05
  -6   0 -13    0.06    0.88
  -6   0 -13   -0.41    0.70
   6   0  13    0.54    0.76
   6   0  13    0.21    0.69
  -6   0 -13   -4.61    6.63
   6  -1 -13   43.06    4.74
   6  -1 -13   43.31    5.49
  -6   1  13   39.95    3.94
  -6   1  13   48.99   13.43
   5  -1 -13   12.39    2.99
   5  -1 -13    9.61    2.73
  -5   1  13    9.53    2.27
  -5   1  13   13.84    9.55
   4  -1 -13   -0.36    1.99
   4  -1 -13   -0.52    1.73
  -4   1  13   -1.09    1.47
  -4   1  13   -0.55    1.67
  -4   1  13    0.37    1.43
  -4   1  13   -2.12    6.96
   3  -1 -13   45.41    4.24
   3  -1 -13   41.19    4.00
  -3   1  13   45.77    3.66
  -3   1  13   38.58    3.41
  -3   1  13   32.58    8.13
   2  -1 -13    7.57    2.30
   2  -1 -13    7.99    2.05
  -2   1  13    7.96    1.68
  -2   1  13   -0.38    5.64
   1  -1 -13    1.84    1.68
   1  -1 -13    0.78    1.75
  -1   1  13    5.86    1.53
  -1   1  13    2.91    0.51
   1  -1 -13  -10.52   10.52
  -1   1  13   -6.27    8.69
  -1   1  13    5.46    5.55
   0  -1 -13   65.05    4.80
   0  -1 -13   63.46    5.39
   0  -1 -13   73.13    6.02
   0   1  13   70.33    5.20
   0   1  13   63.13    3.62
   0  -1 -13   38.79   10.62
   0   1  13   52.80    7.97
  -1  -1 -13    0.88    1.59
  -1  -1 -13   -1.20    1.48
  -1  -1 -13    0.43    1.34
  -1  -1 -13   -1.88    1.88
   1   1  13   -1.14    1.14
   1   1  13    3.08    0.91
   1   1  13    1.89    1.53
  -1  -1 -13   -8.03    8.03
   1   1  13    3.55    6.80
   1   1  13    0.15    6.09
  -2  -1 -13   24.23    2.79
  -2  -1 -13   21.97    2.70
  -2  -1 -13   25.18    2.71
   2   1  13   28.99    2.72
   2   1  13   27.40    2.10
  -2  -1 -13    4.42   11.19
   2   1  13   15.61    9.22
  -3  -1 -13   69.01    7.35
  -3  -1 -13   62.38    4.87
  -3  -1 -13   74.85    6.25
   3   1  13   73.71    6.13
   3   1  13   72.28    5.25
  -3  -1 -13   55.18   13.18
   3   1  13   36.89   10.97
  -4  -1 -13    0.95    2.30
  -4  -1 -13    3.87    1.82
  -4  -1 -13    5.77    2.68
   4   1  13    0.82    2.06
   4   1  13    2.06    1.59
  -4  -1 -13   12.95   16.42
  -5  -1 -13    6.28    3.20
  -5  -1 -13   12.38    2.22
   5   1  13   15.32    2.56
   5   1  13   13.37    2.80
  -5  -1 -13   19.77   18.93
  -6  -1 -13  116.33   10.45
   6   1  13   93.23    8.69
   6   1  13  105.78    8.66
  -6  -1 -13   89.56   25.18
  -7  -1 -13    1.95    2.76
   7   1  13    5.13    3.51
  -7  -1 -13  -19.16   24.30
   5  -2 -13    2.18    2.42
   5  -2 -13   -0.04    2.73
  -5   2  13    0.09    2.48
  -5   2  13   -1.49   11.87
   4  -2 -13   10.63    2.31
   4  -2 -13   12.87    3.11
  -4   2  13    9.11    2.44
  -4   2  13   11.41    2.61
  -4   2  13   13.57    2.45
  -4   2  13   19.64   12.04
   3  -2 -13   42.79    3.62
   3  -2 -13   42.06    4.21
  -3   2  13   49.32    4.12
  -3   2  13   44.66    3.75
  -3   2  13   47.91    4.18
  -3   2  13   44.32    8.51
   2  -2 -13    8.60    2.13
   2  -2 -13    9.92    2.00
  -2   2  13   12.31    1.92
  -2   2  13   10.23    2.18
  -2   2  13   -3.43    6.51
   1  -2 -13   26.32    3.39
   1  -2 -13   23.92    2.57
  -1   2  13   25.90    2.73
  -1   2  13   33.35    2.81
  -1   2  13   21.87    7.75
   0  -2 -13    1.62    1.89
   0  -2 -13   -0.65    1.37
   0  -2 -13    0.72    1.30
   0   2  13    2.38    0.68
   0   2  13    0.83    1.31
   0   2  13   -2.18    5.32
   0   2  13   -1.06    6.36
  -1  -2 -13   56.44    4.08
  -1  -2 -13   54.66    4.18
  -1  -2 -13   68.95    5.83
   1   2  13   64.41    4.71
   1   2  13   65.67    3.52
   1   2  13   72.81   11.69
   1   2  13   63.39    9.70
  -2  -2 -13    5.85    1.92
  -2  -2 -13    7.24    1.84
  -2  -2 -13    7.14    2.05
   2   2  13    3.84    1.47
   2   2  13    5.76    1.29
   2   2  13    7.14    1.52
  -2  -2 -13   -7.36   12.20
   2   2  13    0.94    7.71
  -3  -2 -13   76.97    7.38
   3   2  13   78.05    5.45
   3   2  13   83.85    7.29
  -3  -2 -13   44.05   14.14
   3   2  13   49.73   11.60
  -4  -2 -13   44.34    5.10
  -4  -2 -13   45.23    3.74
  -4  -2 -13   48.53    3.65
   4   2  13   49.97    3.75
   4   2  13   45.45    4.61
  -4  -2 -13   22.27   18.73
   4   2  13   21.71   13.75
  -5  -2 -13    3.43    2.09
   5   2  13    2.04    2.23
   5   2  13    3.92    2.42
  -5  -2 -13   -7.11   21.36
  -6  -2 -13    9.38    2.29
   6   2  13   10.28    3.28
   6   2  13    9.96    3.09
   6   2  13   12.12    2.83
  -6  -2 -13   -2.31   22.58
  -7  -2 -13    2.45    2.84
   7   2  13    5.70    3.65
  -7  -2 -13  -28.70   28.70
   5  -3 -13    7.71    3.41
  -5   3  13    6.84    2.87
  -5   3  13    1.38   14.22
   4  -3 -13    3.29    1.91
  -4   3  13   -0.60    1.36
  -4   3  13   -2.46    6.91
   3  -3 -13   35.13    5.57
   3  -3 -13   50.46    4.91
  -3   3  13   46.32    4.46
  -3   3  13   46.37    4.60
  -3   3  13   56.11   13.10
   2  -3 -13   37.81    3.62
   2  -3 -13   31.73    4.35
  -2   3  13   41.02    3.67
  -2   3  13   36.18    4.17
  -2   3  13   37.09   10.17
   1  -3 -13   -0.60    2.40
  -1   3  13    3.27    1.60
  -1   3  13    5.38    2.01
  -1   3  13    8.37    7.44
   0  -3 -13    0.76    2.04
   0   3  13   -0.06    2.01
   0   3  13    1.34    1.64
   0   3  13   -2.81    7.63
  -1  -3 -13  158.60   11.63
   1   3  13  174.72   12.65
   1   3  13  143.59    8.74
   1   3  13  181.93   13.99
   1   3  13  149.92   16.38
  -2  -3 -13   57.72    6.07
   2   3  13   60.19    5.03
   2   3  13   52.41    3.64
   2   3  13   56.53    4.88
   2   3  13   34.81   10.39
  -3  -3 -13    4.95    2.36
   3   3  13    7.20    2.06
   3   3  13    9.08    1.87
   3   3  13    5.82    1.83
   3   3  13    5.97   10.97
  -4  -3 -13    4.68    2.19
  -4  -3 -13    1.90    2.29
  -4  -3 -13    2.53    2.77
   4   3  13    3.92    1.93
   4   3  13    1.81    2.02
   4   3  13    3.87    2.05
   4   3  13   18.35   12.65
  -5  -3 -13    8.07    2.74
  -5  -3 -13    9.25    2.37
   5   3  13   14.36    2.82
   5   3  13   13.23    2.96
   5   3  13   13.78    2.55
  -6  -3 -13    0.91    2.48
   6   3  13   -0.36    2.95
   6   3  13   -0.02    2.70
   6   3  13    3.64    2.66
  -7  -3 -13   18.53    3.91
   7   3  13   18.61    4.22
   7   3  13   18.11    3.72
   7   3  13   26.49    5.14
   4  -4 -13   -0.93    2.20
  -4   4  13    3.50    2.45
  -4   4  13    2.88   12.98
   3  -4 -13    5.36    3.06
  -3   4  13    4.07    3.24
  -3   4  13    7.90    3.03
  -3   4  13   -1.95   13.54
   2  -4 -13   -0.64    0.64
  -2   4  13   -0.23    0.76
  -2   4  13    1.22    0.84
  -2   4  13   -1.48    3.52
   1  -4 -13   81.06    6.59
  -1   4  13   91.99    7.31
  -1   4  13   95.97    7.99
  -1   4  13   81.19   13.38
   0  -4 -13   30.47    3.39
   0   4  13   41.58    3.82
   0   4  13   32.68    3.40
   0   4  13   34.90   10.57
  -1  -4 -13    1.28    2.59
   1   4  13   -1.09    1.99
   1   4  13    1.16    2.06
   1   4  13   -1.18   11.76
  -2  -4 -13    2.40    1.88
  -2  -4 -13    0.28    1.96
   2   4  13    0.14    1.53
   2   4  13    1.97    1.26
   2   4  13   -0.04    1.55
   2   4  13    4.92   10.23
  -3  -4 -13    5.54    2.61
  -3  -4 -13    4.56    2.58
   3   4  13    8.05    2.31
   3   4  13    7.94    1.86
   3   4  13    5.52    2.05
   3   4  13   24.59   14.91
  -4  -4 -13  121.87    8.04
  -4  -4 -13  102.79    6.96
  -4  -4 -13   93.98    8.69
   4   4  13   98.30    9.05
   4   4  13  106.53    8.49
   4   4  13  115.50    7.82
   4   4  13  107.71   18.77
  -5  -4 -13   31.86    3.90
  -5  -4 -13   28.73    4.12
  -5  -4 -13   33.69    3.85
   5   4  13   28.05    3.86
   5   4  13   27.38    3.52
   5   4  13   32.88    3.39
   5   4  13   31.39   17.65
  -6  -4 -13   20.25    3.45
   6   4  13   22.30    3.70
   6   4  13   15.64    3.86
   6   4  13   21.92    3.47
   3  -5 -13   34.16    4.67
  -3   5  13   21.64   14.79
   2  -5 -13   65.65    5.26
  -2   5  13   58.93    6.95
  -2   5  13   60.79    7.16
  -2   5  13   80.84   16.12
   1  -5 -13    4.61    2.92
  -1   5  13    0.50    3.18
  -1   5  13    8.59    2.95
  -1   5  13   -2.72   13.11
   0  -5 -13   14.74    2.97
   0   5  13   11.31    2.90
   0   5  13    9.14    3.17
   0   5  13   14.06   13.60
  -1  -5 -13    0.54    2.10
  -1  -5 -13    3.11    2.37
   1   5  13   -1.33    1.72
   1   5  13    0.08    1.89
   1   5  13  -10.08   12.44
  -2  -5 -13    5.22    2.76
  -2  -5 -13    8.94    3.19
   2   5  13    8.29    2.48
   2   5  13    6.53    3.04
   2   5  13   11.95   15.05
  -3  -5 -13    1.00    3.34
  -3  -5 -13    4.35    2.87
   3   5  13    3.74    2.45
   3   5  13    1.78    2.57
   3   5  13    3.29    2.06
   3   5  13  -16.94   17.84
  -4  -5 -13    1.64    2.67
  -4  -5 -13    0.69    3.08
   4   5  13    2.51    2.75
   4   5  13   -2.77    2.77
   4   5  13    2.64    2.12
   4   5  13  -17.37   17.37
  -5  -5 -13    4.11    3.50
  -5  -5 -13    8.06    3.62
  -5  -5 -13    6.54    2.73
   5   5  13    0.09    3.16
   5   5  13    4.98    2.43
   5   5  13    4.13    2.77
   5   5  13    8.03   20.48
  -6  -5 -13   -2.61    3.11
   6   5  13   -2.31    3.21
   6   5  13   -3.29    3.29
   6   5  13    1.41    3.04
   1  -6 -13    5.94    3.34
   1  -6 -13    4.07    3.32
  -1   6  13   -2.30    4.03
  -1   6  13    2.72    3.76
  -1   6  13   -5.45   16.81
   0  -6 -13   15.55    3.88
   0   6  13    5.59    3.61
   0   6  13   10.07    3.50
   0   6  13   18.00   17.61
  -1  -6 -13    7.06    3.40
  -1  -6 -13    5.13    2.97
   1   6  13    3.57    2.79
   1   6  13    2.91    3.02
   1   6  13    9.70   15.63
  -2  -6 -13   -0.02    0.85
  -2  -6 -13   -0.89    0.89
   2   6  13   -0.88    0.88
   2   6  13   -0.88    0.89
   2   6  13    7.04    4.14
  -3  -6 -13   46.16    4.39
  -3  -6 -13   32.79    4.70
   3   6  13   37.73    5.22
   3   6  13   35.44    4.92
   3   6  13   46.39   19.50
  -4  -6 -13   20.38    6.55
  -4  -6 -13   28.20    4.81
   4   6  13   24.08    3.65
   4   6  13   14.81    4.06
   4   6  13   15.03    3.95
   4   6  13   22.17   23.51
  -5  -6 -13    5.74    4.13
  -5  -6 -13    3.83    3.36
   5   6  13    3.98    3.84
   5   6  13    2.48    3.05
   5   6  13    4.65    3.28
   5   6  13    4.41   18.59
   1   7  13    1.61    4.66
   1   7  13    6.41    4.16
   1   7  13  -10.10   19.02
  -2  -7 -13   18.11    4.55
   2   7  13    7.78    4.95
   2   7  13   10.66    3.94
   2   7  13   -5.23   20.50
  -3  -7 -13    3.57    4.44
   3   7  13   -3.41    4.27
   3   7  13    1.36    3.79
   3   7  13  -16.43   16.43
   4   6 -14   -0.92    3.39
   4   6 -14   -3.16    3.91
  -4  -6  14    0.46    2.51
  -4  -6  14   -0.00    2.62
   4   6 -14  -10.86   14.11
   3   6 -14   12.93    3.63
   3   6 -14   11.44    4.13
  -3  -6  14   15.23    4.20
  -3  -6  14   21.23    3.69
   3   6 -14   -4.06   15.99
   2   6 -14    7.17    2.74
   2   6 -14    5.29    3.02
  -2  -6  14    1.18    2.61
  -2  -6  14    6.26    2.49
   2   6 -14   -0.22   14.37
   1   6 -14    0.70    2.94
   1   6 -14    2.51    3.61
  -1  -6  14    2.82    2.71
  -1  -6  14    4.74    2.04
   1   6 -14  -10.72   14.33
   0   6 -14    0.43    4.10
   0   6 -14   -0.39    3.65
   0  -6  14    0.73    2.46
   0   6 -14    1.97   14.96
  -1   6 -14    8.70    3.93
  -1   6 -14    7.06    4.93
   5   5 -14    6.14    4.01
   5   5 -14    0.80    4.06
  -5  -5  14    3.52    2.65
   4   5 -14    3.43    3.71
   4   5 -14    6.42    3.33
  -4  -5  14    6.07    2.99
  -4  -5  14   -0.77    3.23
   4   5 -14   -1.09   16.56
   3   5 -14    5.93    5.05
   3   5 -14    4.86    3.07
   3   5 -14   -0.12    3.55
  -3  -5  14    6.11    2.75
  -3  -5  14    5.18    2.09
   3   5 -14    6.12   13.68
   2   5 -14   19.34    3.34
   2   5 -14   18.17    3.25
   2   5 -14   25.40    3.62
  -2  -5  14   27.16    3.19
  -2  -5  14   23.47    3.47
   2   5 -14   14.79   13.76
   1   5 -14    3.55    3.05
   1   5 -14    8.54    2.75
   1   5 -14    4.81    2.79
  -1  -5  14    4.37    2.26
  -1  -5  14   10.15    2.28
   1   5 -14    1.22   11.77
   0   5 -14    8.77    3.41
   0   5 -14   10.95    3.57
   0  -5  14   13.48    2.54
   0   5 -14    6.96   13.28
  -1   5 -14    1.98    2.76
  -1   5 -14    0.20    2.87
  -1   5 -14   11.41   12.19
  -2   5 -14   15.49    4.50
  -2   5 -14    4.40    4.08
   2  -5  14    7.32    2.75
  -2   5 -14   -5.28   19.04
   6   4 -14   40.32    5.76
  -6  -4  14   50.13    5.76
   5   4 -14    5.94    3.89
   5   4 -14    9.79    3.53
  -5  -4  14    4.10    3.24
  -5  -4  14   11.97    2.81
   4   4 -14   -0.30    0.94
   4   4 -14   -0.05    0.81
   4   4 -14    0.40    0.76
  -4  -4  14    0.17    0.64
  -4  -4  14   -0.66    0.66
  -4  -4  14    0.68    0.54
   4   4 -14    0.67    4.58
   3   4 -14   -0.42    0.94
   3   4 -14    0.07    0.73
   3   4 -14   -0.33    0.81
  -3  -4  14   -0.30    0.49
  -3  -4  14    0.03    0.63
   3   4 -14    1.85    4.68
   2   4 -14   11.46    2.91
   2   4 -14   14.30    2.76
   2   4 -14    9.94    3.30
  -2  -4  14   11.34    2.19
  -2  -4  14   12.17    2.44
   2   4 -14   -7.30   12.24
   1   4 -14   13.76    2.78
   1   4 -14    7.45    2.82
   1   4 -14    8.55    2.66
  -1  -4  14   10.93    2.06
  -1  -4  14    8.51    2.48
   1   4 -14    8.91    9.12
   0   4 -14   -1.62    2.18
   0   4 -14    3.06    2.22
   0   4 -14    0.98    1.80
   0  -4  14    0.16    1.33
   0  -4  14    1.83    1.52
   0   4 -14    5.41    8.21
  -1   4 -14   14.43    3.57
  -1   4 -14   12.73    3.59
  -1   4 -14    7.68   15.16
  -2   4 -14   34.02    4.66
  -2   4 -14   35.45    5.74
   2  -4  14   44.30    4.28
   2  -4  14   36.36    3.98
  -2   4 -14   42.97   14.19
  -3   4 -14    5.02    4.59
  -3   4 -14   -4.35    4.35
   3  -4  14   -2.45    2.45
   3  -4  14    2.20    2.97
  -3   4 -14   -3.80   20.78
   6   3 -14    1.63    2.38
   6   3 -14   -2.54    2.54
  -6  -3  14    2.02    2.46
   5   3 -14   22.57    4.11
   5   3 -14   16.48    3.47
  -5  -3  14   22.80    2.92
  -5  -3  14   19.79    3.26
   4   3 -14   17.81    3.08
   4   3 -14   16.35    3.65
  -4  -3  14   17.83    2.42
  -4  -3  14   18.05    3.16
   3   3 -14   16.97    3.09
   3   3 -14   21.05    3.50
   3   3 -14   15.17    3.28
  -3  -3  14   18.31    2.12
  -3  -3  14   19.74    2.92
  -3  -3  14   17.54    2.53
   3   3 -14    9.03   12.74
   2   3 -14    3.62    2.58
   2   3 -14    7.22    2.19
   2   3 -14   10.97    2.81
  -2  -3  14    7.32    1.34
  -2  -3  14    7.16    1.71
  -2  -3  14    8.71    2.13
   2   3 -14  -12.69   12.69
   1   3 -14   15.07    3.16
   1   3 -14   17.11    2.77
   1   3 -14   18.41    2.81
  -1  -3  14   18.99    2.34
  -1  -3  14   15.87    2.39
  -1  -3  14   22.72    2.11
   1   3 -14    5.44    9.13
   0   3 -14    0.42    1.22
   0   3 -14    0.31    1.29
   0   3 -14    1.73    1.48
   0  -3  14    0.10    0.69
   0  -3  14    0.50    0.93
   0  -3  14   -0.86    1.15
   0   3 -14    2.87    6.53
  -1   3 -14    0.79    1.74
  -1   3 -14   -1.31    2.35
  -1   3 -14    1.67    2.19
   1  -3  14    0.14    1.29
   1  -3  14    0.41    1.72
   1  -3  14    0.96    2.24
  -1   3 -14    8.57   10.24
  -2   3 -14   -0.94    3.41
  -2   3 -14   -0.27    3.06
   2  -3  14    2.70    1.93
   2  -3  14    2.43    1.85
  -2   3 -14  -11.22   12.09
  -3   3 -14    6.95    3.96
  -3   3 -14    3.48    3.95
   3  -3  14    7.29    2.40
   3  -3  14    8.78    2.56
  -3   3 -14  -16.37   16.73
  -4   3 -14   18.84    5.36
   4  -3  14   26.31    3.48
   4  -3  14   20.68    3.33
  -4   3 -14   41.54   25.97
   6   2 -14   -0.01    3.23
   6   2 -14   -0.98    2.96
  -6  -2  14    6.62    2.92
  -6  -2  14    0.07    2.01
  -6  -2  14   17.19   18.94
   5   2 -14    9.66    3.33
   5   2 -14   10.45    3.59
  -5  -2  14   12.09    2.79
  -5  -2  14   10.39    2.97
  -5  -2  14    8.98    2.44
  -5  -2  14   -0.81   12.80
   4   2 -14    3.04    2.69
   4   2 -14    2.32    2.61
  -4  -2  14    5.09    1.59
  -4  -2  14    3.26    1.73
  -4  -2  14    3.93    2.48
  -4  -2  14   -9.19    9.19
   3   2 -14    5.76    2.31
   3   2 -14    8.76    2.56
  -3  -2  14    1.68    2.21
  -3  -2  14    5.28    1.76
  -3  -2  14    5.28    1.38
  -3  -2  14    5.06    1.23
   3   2 -14    1.44   11.14
  -3  -2  14    4.39    9.61
   2   2 -14  220.69   17.45
   2   2 -14  199.33   17.53
   2   2 -14  200.75   15.60
  -2  -2  14  225.09   20.67
  -2  -2  14  245.66   12.89
  -2  -2  14  236.77   15.64
   2   2 -14  148.86   18.46
  -2  -2  14  202.20   23.41
   1   2 -14   62.82    5.67
   1   2 -14   67.65    5.49
   1   2 -14   63.78    6.53
  -1  -2  14   64.85    5.95
  -1  -2  14   64.67    4.80
  -1  -2  14   64.50    4.18
   1   2 -14   34.06    9.95
  -1  -2  14   44.32    9.32
   0   2 -14    6.37    2.36
   0   2 -14    6.51    2.47
   0   2 -14    8.78    1.96
   0  -2  14   11.01    2.00
   0  -2  14    9.09    1.32
   0   2 -14   -0.10    9.14
  -1   2 -14   19.15    3.21
  -1   2 -14   16.11    3.60
  -1   2 -14   18.58    2.90
   1  -2  14   21.59    2.39
   1  -2  14   18.71    2.19
  -1   2 -14    2.74   11.33
  -2   2 -14  106.24   10.07
  -2   2 -14  128.47   13.76
  -2   2 -14  107.04    8.29
   2  -2  14  118.32    9.15
   2  -2  14  113.44    7.69
  -2   2 -14   78.04   12.43
  -3   2 -14    0.98    3.43
  -3   2 -14    0.93    3.54
   3  -2  14    1.30    1.80
   3  -2  14    2.45    1.93
  -3   2 -14    2.89   15.44
  -4   2 -14    4.93    3.94
   4  -2  14    5.17    2.47
   4  -2  14    1.38    2.12
  -4   2 -14   14.61   19.64
  -5   2 -14   -1.50    5.06
   5  -2  14    4.43    2.61
   5  -2  14    2.62    2.75
  -5   2 -14   40.65   24.14
   6   1 -14    7.69    3.37
   6   1 -14    8.64    3.11
  -6  -1  14    6.09    2.63
  -6  -1  14   17.91   18.09
   5   1 -14    2.72    2.50
   5   1 -14    7.84    2.92
  -5  -1  14    1.05    2.19
  -5  -1  14   13.52   13.84
   4   1 -14   63.61    6.87
   4   1 -14   76.10    5.81
  -4  -1  14   65.84    4.40
  -4  -1  14   73.89    4.98
  -4  -1  14   54.06   12.78
   3   1 -14    0.86    2.13
   3   1 -14    0.84    2.24
  -3  -1  14    3.88    1.46
  -3  -1  14    3.57    1.68
  -3  -1  14    1.98   10.22
   2   1 -14   15.50    3.07
   2   1 -14   17.15    2.59
  -2  -1  14   18.90    1.51
  -2  -1  14   17.21    2.14
   2   1 -14   10.92    9.93
  -2  -1  14    4.48    9.95
   1   1 -14   58.99    5.28
   1   1 -14   63.09    5.19
   1   1 -14   58.81    4.96
  -1  -1  14   61.96    3.99
  -1  -1  14   64.35    4.57
   1   1 -14   41.98   10.84
  -1  -1  14   45.28    9.96
   0   1 -14    6.22    2.35
   0   1 -14    6.26    2.23
   0   1 -14    2.94    1.95
   0  -1  14    1.99    1.49
   0  -1  14    4.09    1.20
   0   1 -14    7.53   10.65
   0  -1  14   -9.80    9.80
  -1   1 -14   14.90    2.87
  -1   1 -14   16.40    1.46
  -1   1 -14   18.47    2.39
  -1   1 -14   12.67    2.63
   1  -1  14   12.36    2.07
   1  -1  14   18.79    1.89
  -1   1 -14   11.89   10.72
   1  -1  14   15.77    8.18
  -2   1 -14   50.61    4.73
  -2   1 -14   57.06    3.91
  -2   1 -14   50.75    4.90
  -2   1 -14   51.69    5.82
   2  -1  14   53.70    4.73
   2  -1  14   56.61    3.80
  -2   1 -14   37.17   12.04
  -3   1 -14    3.06    3.43
  -3   1 -14    3.89    2.14
  -3   1 -14    4.49    1.50
  -3   1 -14    3.41    3.28
   3  -1  14   -0.01    1.62
   3  -1  14    2.15    1.55
  -3   1 -14    5.29   14.32
  -4   1 -14   45.17    5.15
   4  -1  14   42.45    3.68
   4  -1  14   37.14    4.14
  -4   1 -14   19.24   17.93
  -5   1 -14   62.33    8.57
   5  -1  14   61.63    6.02
   5  -1  14   78.98    6.28
  -5   1 -14   53.54   20.91
  -6   1 -14    5.59    6.02
   6   0 -14    2.53    2.34
   6   0 -14   -0.32    2.29
  -6   0  14   -2.13    2.32
  -6   0  14    4.89    9.54
   5   0 -14    0.22    1.85
   5   0 -14    2.83    1.89
  -5   0  14    0.28    1.13
  -5   0  14    0.41    6.63
   4   0 -14   20.40    3.06
   4   0 -14   27.92    3.31
  -4   0  14   22.86    2.50
  -4   0  14   22.39    2.69
  -4   0  14   12.17    9.64
   3   0 -14    1.53    1.85
   3   0 -14    0.12    2.01
  -3   0  14   -1.34    1.41
  -3   0  14    1.77    1.39
  -3   0  14    7.69    6.96
   2   0 -14   72.14    7.44
   2   0 -14   63.95    5.53
  -2   0  14   71.96    5.38
  -2   0  14   58.41    8.71
   1   0 -14   14.81    2.77
   1   0 -14   19.94    2.61
   1   0 -14   24.94    2.95
  -1   0  14   21.01    1.47
  -1   0  14   19.87    2.29
   1   0 -14    9.70    9.00
  -1   0  14   16.04    8.87
   0   0 -14   16.79    2.43
   0   0 -14   11.59    2.25
   0   0  14   11.60    1.88
   0   0  14   15.09    1.48
   0   0 -14    8.38   11.60
   0   0  14    6.15    7.71
  -1   0 -14   34.78    4.17
  -1   0 -14   43.99    4.22
  -1   0 -14   46.38    5.06
   1   0  14   48.47    3.08
   1   0  14   49.46    3.88
  -1   0 -14   30.46   11.99
   1   0  14   20.69    9.60
  -2   0 -14   48.36    3.62
  -2   0 -14   46.21    5.25
  -2   0 -14   45.10    4.59
  -2   0 -14   44.14    4.20
   2   0  14   46.53    4.30
   2   0  14   51.50    3.52
  -2   0 -14   34.55   13.82
   2   0  14   11.05   10.63
  -3   0 -14   15.60    3.58
  -3   0 -14   12.75    2.71
  -3   0 -14   17.64    1.80
  -3   0 -14   12.64    3.57
   3   0  14   12.94    2.28
   3   0  14   11.85    2.06
  -3   0 -14    4.26   16.05
  -4   0 -14    6.68    4.27
  -4   0 -14   13.55    1.96
   4   0  14   12.99    2.32
   4   0  14    9.41    2.45
  -4   0 -14  -17.88   17.88
  -5   0 -14   64.10    6.72
  -5   0 -14   92.53    8.03
   5   0  14   66.77    6.49
   5   0  14   82.68    6.59
  -5   0 -14   70.08   20.12
  -6   0 -14    1.99    3.95
   6   0  14    4.70    3.32
   6   0  14   11.38    3.37
  -6   0 -14   16.16   29.72
   6  -1 -14    3.31    2.91
   5  -1 -14   10.62    3.07
   5  -1 -14    5.33    3.15
  -5   1  14    9.74    2.28
  -5   1  14   14.68   14.28
   4  -1 -14   47.28    4.54
   4  -1 -14   53.95    5.17
  -4   1  14   47.45    4.76
  -4   1  14   49.25    4.48
  -4   1  14   47.97    3.91
  -4   1  14   63.58   13.82
   3  -1 -14   10.76    2.35
   3  -1 -14    1.96    2.16
  -3   1  14    5.29    2.10
  -3   1  14    5.37    2.10
  -3   1  14    7.32   10.20
   2  -1 -14    3.19    1.92
   2  -1 -14    5.29    2.02
  -2   1  14    2.82    1.73
  -2   1  14    0.88    7.08
   1  -1 -14   11.98    2.70
   1  -1 -14    8.06    2.38
   1  -1 -14    7.93    2.32
  -1   1  14   13.05    1.88
  -1   1  14    0.89    6.74
   0  -1 -14  166.58   13.65
   0  -1 -14  130.94   10.44
   0  -1 -14  146.90   10.29
   0   1  14  152.73    8.08
   0   1  14  153.40   10.53
   0  -1 -14  102.81   15.87
   0   1  14  132.61   16.24
  -1  -1 -14   34.13    3.29
  -1  -1 -14   36.73    3.87
  -1  -1 -14   38.98    4.29
   1   1  14   32.85    3.12
   1   1  14   42.24    2.79
  -1  -1 -14   10.72   11.34
   1   1  14   21.21    8.83
  -2  -1 -14    9.77    2.83
  -2  -1 -14   14.13    2.52
  -2  -1 -14    9.16    2.22
   2   1  14   14.50    1.78
   2   1  14   12.83    2.11
  -2  -1 -14    6.88   13.40
   2   1  14   22.83    9.46
  -3  -1 -14   18.43    3.11
  -3  -1 -14   20.82    2.25
  -3  -1 -14   17.83    2.99
   3   1  14   24.61    2.21
   3   1  14   21.37    2.70
  -3  -1 -14   23.50   15.48
   3   1  14    1.59   10.03
  -4  -1 -14    4.79    2.72
  -4  -1 -14    7.84    3.31
  -4  -1 -14    9.26    1.76
   4   1  14    7.68    2.02
  -4  -1 -14  -16.35   16.35
  -5  -1 -14   -0.34    1.25
  -5  -1 -14   -1.69    2.41
   5   1  14   -1.02    1.86
   5   1  14   -0.72    1.57
  -5  -1 -14  -10.33   13.17
  -6  -1 -14   35.29    4.22
   6   1  14   26.87    4.18
   6   1  14   35.24    4.47
  -6  -1 -14   24.51   25.62
   5  -2 -14   -0.29    0.82
   5  -2 -14    0.58    0.94
  -5   2  14   -0.36    0.65
  -5   2  14    5.16    4.16
   4  -2 -14   -0.33    1.15
  -4   2  14   -0.77    0.96
  -4   2  14    1.77    4.85
   3  -2 -14   -2.24    2.29
   3  -2 -14    4.28    2.23
  -3   2  14    2.04    2.15
  -3   2  14   -0.20    1.66
  -3   2  14    2.35    2.40
  -3   2  14   12.83    9.60
   2  -2 -14   44.68    4.32
   2  -2 -14   55.73    4.72
  -2   2  14   58.77    5.09
  -2   2  14   55.06    4.47
  -2   2  14   53.17   10.02
   1  -2 -14    1.89    2.03
   1  -2 -14    4.33    2.74
  -1   2  14   -1.04    1.52
  -1   2  14    4.68    1.82
  -1   2  14   -3.87    7.77
   0  -2 -14    2.92    1.75
   0  -2 -14    3.16    1.76
   0  -2 -14    5.76    2.29
   0   2  14    4.40    0.95
   0   2  14    7.10    1.76
   0   2  14    9.59    7.01
  -1  -2 -14   12.74    2.23
  -1  -2 -14    5.22    2.14
  -1  -2 -14    6.53    2.21
   1   2  14    8.99    1.37
   1   2  14   12.16    1.91
   1   2  14   22.90    9.34
  -2  -2 -14    7.84    3.80
  -2  -2 -14   15.74    2.75
   2   2  14   13.29    2.16
   2   2  14   19.32    1.97
   2   2  14   -4.91    9.56
  -3  -2 -14   29.45    2.94
  -3  -2 -14   43.74    3.50
  -3  -2 -14   31.84    3.76
   3   2  14   33.85    3.54
   3   2  14   40.83    3.40
  -3  -2 -14   11.40   19.28
   3   2  14    2.77   12.88
  -4  -2 -14    2.11    2.39
  -4  -2 -14    1.95    2.84
  -4  -2 -14    2.16    1.58
   4   2  14    2.40    1.55
   4   2  14    2.04    1.93
  -4  -2 -14    4.78   19.36
  -5  -2 -14   44.10    4.92
   5   2  14   53.91    5.07
   5   2  14   45.21    4.49
  -5  -2 -14   32.10   39.76
  -6  -2 -14   15.82    2.95
   6   2  14   19.65    3.33
   6   2  14    9.42    3.97
   6   2  14   17.23    3.53
   4  -3 -14   93.21    9.31
  -4   3  14   91.94    6.78
  -4   3  14   94.68   17.14
   3  -3 -14   50.44    5.16
  -3   3  14   46.45    4.71
  -3   3  14   42.40    4.99
  -3   3  14   41.86   13.90
   2  -3 -14    2.09    1.39
  -2   3  14    0.17    1.30
  -2   3  14   -1.28    1.45
  -2   3  14    1.79    6.51
   1  -3 -14   42.47    3.81
  -1   3  14   34.78    3.80
  -1   3  14   30.15    3.50
  -1   3  14   21.75   10.34
   0  -3 -14    1.43    2.54
   0   3  14    4.79    1.63
   0   3  14    5.04    2.04
   0   3  14    6.91    9.73
  -1  -3 -14   18.21    3.05
   1   3  14   12.48    2.34
   1   3  14   11.81    2.07
   1   3  14   15.31    1.73
   1   3  14   13.78   10.47
  -2  -3 -14    1.56    2.31
   2   3  14    4.33    1.84
   2   3  14    1.02    1.62
   2   3  14    7.35    1.58
   2   3  14   -1.09    9.01
  -3  -3 -14   22.76    3.22
  -3  -3 -14   15.22    2.92
   3   3  14   18.60    2.25
   3   3  14   19.39    2.84
   3   3  14   33.63   13.19
  -4  -3 -14   10.24    3.12
  -4  -3 -14    8.43    2.59
  -4  -3 -14    6.70    2.52
   4   3  14    5.14    2.40
   4   3  14    1.44    1.84
   4   3  14    2.92    2.22
   4   3  14   24.21   16.67
  -5  -3 -14    0.94    0.94
  -5  -3 -14   -1.33    1.33
   5   3  14    0.03    0.98
   5   3  14    0.30    0.89
   5   3  14    0.46    1.17
  -6  -3 -14   -0.31    0.69
   6   3  14    1.28    0.85
   6   3  14    0.84    0.83
   6   3  14    0.06    0.99
   3  -4 -14    2.02    2.90
  -3   4  14    1.59    3.52
  -3   4  14    8.95    3.39
  -3   4  14   19.60   13.43
   2  -4 -14    0.63    1.59
  -2   4  14   -1.85    1.85
  -2   4  14   -0.84    1.84
  -2   4  14   -3.88    8.47
   1  -4 -14    2.17    1.63
  -1   4  14    1.72    1.35
  -1   4  14    2.36    1.38
  -1   4  14   -0.90    6.94
   0  -4 -14    0.71    2.76
   0   4  14    2.59    2.28
   0   4  14    4.57    2.47
   0   4  14   -7.52    9.80
  -1  -4 -14   -0.40    1.17
   1   4  14    1.63    1.03
   1   4  14    0.30    0.97
   1   4  14   -1.64    5.90
  -2  -4 -14   27.93    3.74
  -2  -4 -14   32.69    3.50
   2   4  14   25.81    3.62
   2   4  14   24.38    3.08
   2   4  14   22.56    2.32
   2   4  14   29.32   15.93
  -3  -4 -14   27.38    3.63
   3   4  14   30.72    3.17
   3   4  14   23.37    3.35
   3   4  14   32.06    3.42
   3   4  14   27.46   16.41
  -4  -4 -14    1.91    2.54
  -4  -4 -14   -1.20    2.38
  -4  -4 -14    0.32    2.71
   4   4  14   -0.46    2.55
   4   4  14    0.79    2.01
   4   4  14    1.56    2.09
   4   4  14    7.76   16.23
  -5  -4 -14   69.42    7.19
  -5  -4 -14   79.84    7.08
   5   4  14   80.31    8.49
   5   4  14   82.57    6.38
   5   4  14   78.37    7.98
   5   4  14   80.81   41.36
  -6  -4 -14    4.71    3.09
   6   4  14    2.20    3.45
   6   4  14    1.47    3.60
   6   4  14    5.18    2.95
   2  -5 -14    4.54    3.77
  -2   5  14    7.90    4.39
  -2   5  14   10.76    4.28
  -2   5  14   -5.84   15.87
   1  -5 -14   22.29    3.52
  -1   5  14   30.87    4.77
  -1   5  14   28.57    4.61
  -1   5  14   34.70   15.16
   0  -5 -14   23.28    4.15
   0   5  14   21.24    3.79
   0   5  14   23.56    3.63
   0   5  14   33.77   16.71
  -1  -5 -14    6.39    2.82
  -1  -5 -14    4.98    3.35
   1   5  14    5.23    2.75
   1   5  14    5.06    2.58
   1   5  14  -12.56   15.29
  -2  -5 -14   -0.20    0.90
  -2  -5 -14    0.63    0.78
   2   5  14    0.67    0.74
   2   5  14   -0.15    0.61
   2   5  14   -1.52    4.56
  -3  -5 -14   11.96    3.97
  -3  -5 -14    6.53    3.19
   3   5  14    9.55    2.61
   3   5  14    8.88    2.86
   3   5  14    7.45    2.99
   3   5  14  -18.07   20.25
  -4  -5 -14    7.23    3.65
  -4  -5 -14    5.26    3.06
   4   5  14    8.61    2.97
   4   5  14    7.32    2.45
   4   5  14    3.51    2.64
   4   5  14    2.87   18.98
  -5  -5 -14    9.15    3.32
  -5  -5 -14    3.68    4.07
  -5  -5 -14    5.83    3.95
   5   5  14    4.25    3.60
   5   5  14    6.76    3.67
   5   5  14   11.94    2.90
   5   5  14   -8.76   25.16
   1  -6 -14    1.68    1.50
   0  -6 -14    9.78    4.72
   0  -6 -14   23.73    4.37
   0   6  14   15.43    4.63
   0   6  14   18.80    4.74
   0   6  14   24.94   19.26
  -1  -6 -14    3.31    2.98
  -1  -6 -14    1.31    2.48
   1   6  14   -2.92    2.92
   1   6  14   -2.01    2.67
   1   6  14   17.61   16.97
  -2  -6 -14    5.79    3.35
  -2  -6 -14    1.37    3.58
   2   6  14    5.47    3.49
   2   6  14   -2.62    3.36
   2   6  14   -2.81   19.36
  -3  -6 -14    6.99    3.66
  -3  -6 -14   11.65    4.19
   3   6  14    7.18    3.65
   3   6  14    7.98    3.29
   3   6  14   14.28   20.77
  -4  -6 -14    7.54    3.59
   4   6  14    2.46    3.60
   4   6  14   10.99    3.50
   4   6  14   -1.50    3.07
   4   6  14   -5.72   22.54
   3   6 -15   -1.70    3.93
   3   6 -15    4.61    4.00
  -3  -6  15   10.80    3.31
  -3  -6  15    7.80    3.74
   2   6 -15    3.96    3.65
   2   6 -15    6.64    4.22
  -2  -6  15    2.05    3.61
  -2  -6  15    2.79    3.50
   2   6 -15   10.94   18.83
   1   6 -15    2.48    3.50
   1   6 -15   -2.29    3.06
  -1  -6  15    2.41    2.70
   1   6 -15   -9.03   16.07
   0   6 -15   10.94    4.87
   5   5 -15    8.97    5.59
   5   5 -15    6.35    4.39
   4   5 -15    0.14    3.53
   4   5 -15    3.57    2.90
  -4  -5  15    4.02    2.68
   4   5 -15   -2.09   15.40
   3   5 -15   11.71    3.83
   3   5 -15    6.54    3.64
  -3  -5  15   13.65    2.84
  -3  -5  15   14.72    3.31
   3   5 -15   12.51   20.37
   2   5 -15   -1.26    2.97
   2   5 -15    2.16    3.65
   2   5 -15    3.51    2.66
  -2  -5  15   -2.68    2.68
  -2  -5  15   -1.28    2.64
   2   5 -15  -16.91   18.56
   1   5 -15    0.10    0.74
   1   5 -15   -0.23    0.90
   1   5 -15    0.60    0.85
  -1  -5  15    0.35    0.64
  -1  -5  15    0.07    0.67
   1   5 -15    1.54    3.51
   0   5 -15   -2.20    2.20
   0   5 -15   -0.54    2.23
   0  -5  15    0.24    1.54
   0   5 -15    0.60    9.60
  -1   5 -15    4.83    3.54
  -1   5 -15    3.74    3.81
   1  -5  15   -0.28    2.18
  -1   5 -15   13.51   15.31
  -2   5 -15   -0.69    2.04
  -2   5 -15    3.02    2.23
  -2   5 -15   -0.38    9.33
   5   4 -15    0.04    3.23
   5   4 -15   -0.82    4.85
  -5  -4  15    2.64    3.13
  -5  -4  15    1.20    2.64
   4   4 -15    5.67    3.87
   4   4 -15   10.08    3.20
   4   4 -15    7.84    3.31
  -4  -4  15   12.42    3.42
  -4  -4  15   11.77    3.02
   3   4 -15   76.16    7.98
   3   4 -15   73.39    6.81
   3   4 -15   88.03    7.99
  -3  -4  15  103.17    5.98
  -3  -4  15  104.70    7.72
  -3  -4  15   86.28    8.84
   3   4 -15   66.20   15.62
   2   4 -15    7.49    3.36
   2   4 -15    4.07    2.51
   2   4 -15    4.83    2.89
  -2  -4  15    3.73    2.43
  -2  -4  15    2.86    1.98
  -2  -4  15    8.05    2.64
   2   4 -15   -2.27   13.53
   1   4 -15    6.64    3.09
   1   4 -15    3.36    2.63
   1   4 -15    7.26    2.89
  -1  -4  15    5.74    2.20
  -1  -4  15   10.19    2.38
  -1  -4  15    9.03    1.97
   1   4 -15   -5.50   13.23
   0   4 -15   37.04    4.66
   0   4 -15   52.11    5.22
   0   4 -15   36.31    4.20
   0  -4  15   42.16    6.81
   0  -4  15   48.37    3.79
   0  -4  15   50.73    4.45
   0   4 -15    5.97   13.85
  -1   4 -15   20.32    3.64
  -1   4 -15   18.59    4.36
   1  -4  15   25.23    3.51
   1  -4  15   25.72    3.04
  -1   4 -15   33.69   17.21
  -2   4 -15    7.87    4.36
  -2   4 -15   -1.12    4.12
   2  -4  15    4.71    2.40
   2  -4  15    0.89    2.78
  -2   4 -15   -2.81   18.58
  -3   4 -15    5.75    5.66
  -3   4 -15    2.45    5.69
   3  -4  15   10.62    2.98
   3  -4  15   10.88    3.32
  -3   4 -15   20.79   19.82
   6   3 -15   11.87    4.64
   6   3 -15    8.35    4.36
   5   3 -15   11.05    3.82
   5   3 -15   11.14    3.77
  -5  -3  15    5.84    3.53
  -5  -3  15    8.46    3.39
   4   3 -15   11.75    3.29
   4   3 -15   18.35    3.31
  -4  -3  15   12.55    2.88
  -4  -3  15   17.13    2.77
   3   3 -15   27.65    4.18
   3   3 -15   24.41    3.70
   3   3 -15   30.51    4.08
  -3  -3  15   27.73    2.97
  -3  -3  15   27.61    3.48
  -3  -3  15   26.14    2.85
   3   3 -15    1.28   14.09
   2   3 -15   15.54    3.10
   2   3 -15   18.80    2.95
   2   3 -15   11.86    3.21
  -2  -3  15   17.28    2.27
  -2  -3  15   14.11    2.66
  -2  -3  15   14.71    1.83
   2   3 -15    3.83   12.88
   1   3 -15    8.35    2.70
   1   3 -15   10.31    2.54
  -1  -3  15   11.93    1.83
  -1  -3  15   10.28    2.10
  -1  -3  15   10.07    2.26
   1   3 -15    6.93   13.25
   0   3 -15    8.61    3.05
   0   3 -15    9.91    3.27
   0   3 -15   12.44    2.90
   0  -3  15   11.58    1.84
   0  -3  15   12.78    2.23
   0  -3  15   10.50    2.37
   0   3 -15   -1.62   12.43
  -1   3 -15   38.39    5.17
  -1   3 -15   49.32    5.28
   1  -3  15   48.50    3.92
   1  -3  15   50.97    4.21
  -1   3 -15    8.76   13.25
  -2   3 -15    2.65    3.75
  -2   3 -15   -0.08    3.62
   2  -3  15   -0.26    2.47
   2  -3  15    1.73    2.15
  -2   3 -15    0.86   16.64
  -3   3 -15    2.42    4.75
  -3   3 -15   -0.20    4.48
   3  -3  15    8.61    2.43
   3  -3  15    6.45    2.63
  -3   3 -15   -7.72   21.45
  -4   3 -15   18.86    5.26
   4  -3  15   11.09    3.37
   4  -3  15   16.02    2.99
  -4   3 -15   -6.09   29.11
   6   2 -15    7.34    3.90
   6   2 -15    0.08    3.89
  -6  -2  15    5.63   16.94
   5   2 -15   20.99    4.00
   5   2 -15   14.64    4.00
  -5  -2  15    3.09   14.43
   4   2 -15    6.50    2.81
   4   2 -15   -0.09    3.14
  -4  -2  15    2.99    2.08
  -4  -2  15    6.31    1.96
  -4  -2  15    1.40   12.30
   3   2 -15   36.28    4.02
   3   2 -15   27.54    4.24
  -3  -2  15   37.10    3.46
  -3  -2  15   30.45    4.13
  -3  -2  15   19.49   11.52
   2   2 -15   91.88    7.06
   2   2 -15   84.24    7.50
   2   2 -15   96.11    8.16
  -2  -2  15   97.46    5.85
  -2  -2  15  100.34    6.65
  -2  -2  15   83.49    9.98
   2   2 -15   41.90   12.28
  -2  -2  15   56.55   10.98
   1   2 -15   20.02    3.21
   1   2 -15   21.53    3.34
   1   2 -15   29.23    3.44
  -1  -2  15   27.19    2.20
  -1  -2  15   28.60    2.71
   1   2 -15   11.32   10.08
   0   2 -15   27.66    3.51
   0   2 -15   32.72    4.12
   0   2 -15   30.06    3.63
   0  -2  15   33.15    2.68
   0  -2  15   33.09    3.20
   0   2 -15    6.42   12.94
  -1   2 -15   63.40    6.27
  -1   2 -15   64.36    7.03
  -1   2 -15   59.88    5.14
   1  -2  15   72.80    5.29
   1  -2  15   65.97    4.67
  -1   2 -15    9.21   13.54
  -2   2 -15   14.27    3.15
  -2   2 -15   10.51    4.01
  -2   2 -15    6.11    3.63
   2  -2  15   14.36    2.41
   2  -2  15   10.53    2.22
  -2   2 -15    6.75   15.78
  -3   2 -15   43.92    5.00
  -3   2 -15   38.89    5.60
   3  -2  15   34.84    3.96
   3  -2  15   38.15    3.82
  -3   2 -15   11.89   17.57
  -4   2 -15   56.24    6.46
   4  -2  15   55.42    7.04
   4  -2  15   66.95    5.15
  -4   2 -15   52.23   22.45
  -5   2 -15    5.62    6.42
  -5   2 -15    5.65   27.17
   6   1 -15   12.33    4.19
   6   1 -15   18.03    4.05
  -6  -1  15   12.81    3.67
  -6  -1  15  -13.93   18.62
   5   1 -15   34.01    4.60
   5   1 -15   27.27    4.14
  -5  -1  15   23.63    3.27
  -5  -1  15   12.33   17.16
   4   1 -15    0.31    0.89
   4   1 -15   -0.00    0.82
  -4  -1  15   -0.55    0.60
  -4  -1  15    0.39    0.53
  -4  -1  15   -0.30    3.42
   3   1 -15   14.01    3.01
   3   1 -15   13.13    3.12
  -3  -1  15   12.69    2.51
  -3  -1  15   11.70    1.86
  -3  -1  15   -0.87   10.38
   2   1 -15   24.40    3.66
   2   1 -15   22.04    3.49
   2   1 -15   28.00    3.34
  -2  -1  15   24.80    2.51
  -2  -1  15   31.66   10.24
   1   1 -15  149.45   11.90
   1   1 -15  128.48   11.28
   1   1 -15  127.75    9.55
  -1  -1  15  140.49    8.36
  -1  -1  15  138.12    9.43
   1   1 -15   69.31   12.14
  -1  -1  15  103.47   13.43
   0   1 -15   -1.59    2.19
   0   1 -15    1.02    2.14
   0   1 -15   -0.62    2.47
   0  -1  15    2.61    1.25
   0  -1  15    2.61    1.63
   0   1 -15    6.54   12.88
   0  -1  15    7.57   12.24
  -1   1 -15   85.32    5.95
  -1   1 -15   79.07    7.08
  -1   1 -15   85.56    8.06
  -1   1 -15   77.92    6.83
   1  -1  15   85.15    6.31
   1  -1  15   84.23    5.65
  -1   1 -15   56.10   11.42
  -2   1 -15   -1.46    2.15
  -2   1 -15   -1.94    2.97
  -2   1 -15   -3.49    3.49
   2  -1  15    0.25    1.56
   2  -1  15    3.91    1.83
  -2   1 -15   -6.86   14.51
  -3   1 -15    5.34    2.47
  -3   1 -15    5.78    3.69
  -3   1 -15   -0.41    3.75
   3  -1  15    6.33    1.79
   3  -1  15    3.95    2.18
  -3   1 -15    9.65   16.26
  -4   1 -15    7.58    4.51
   4  -1  15    4.09    2.68
  -4   1 -15   16.73   20.80
  -5   1 -15   25.81    6.32
   5  -1  15   18.20    3.62
   5  -1  15   17.02    3.45
  -5   1 -15   14.46   26.67
   5   0 -15    1.86    1.90
   5   0 -15    0.76    2.05
  -5   0  15   -1.79    1.79
  -5   0  15   -4.89    8.61
   4   0 -15    4.83    2.77
   4   0 -15    6.81    2.76
  -4   0  15    2.73    2.35
  -4   0  15   -0.55    2.03
  -4   0  15    6.19   12.15
   3   0 -15   33.98    3.91
   3   0 -15   25.03    3.76
  -3   0  15   33.11    3.51
  -3   0  15   23.09    2.42
  -3   0  15   39.44   12.52
   2   0 -15   -1.50    1.50
   2   0 -15    0.70    1.72
  -2   0  15    1.35    1.10
  -2   0  15    1.05    6.04
   1   0 -15    4.33    2.50
   1   0 -15    3.61    2.13
   1   0 -15    3.98    2.21
  -1   0  15    6.91    1.74
  -1   0  15   14.56    7.91
   0   0 -15   48.82    4.44
   0   0 -15   41.82    4.27
   0   0 -15   50.42    5.20
   0   0  15   52.91    3.35
   0   0  15   52.38    3.88
   0   0 -15   16.84   13.92
   0   0  15   26.30    9.99
  -1   0 -15   18.46    3.00
  -1   0 -15   19.34    2.99
  -1   0 -15   19.89    3.11
   1   0  15   16.11    1.72
   1   0  15   18.68    2.35
  -1   0 -15  -13.11   14.50
   1   0  15   17.20    8.34
  -2   0 -15    1.05    0.93
  -2   0 -15   -0.35    1.02
  -2   0 -15   -0.29    0.49
  -2   0 -15   -0.93    1.17
   2   0  15    0.34    0.60
   2   0  15   -0.03    0.74
  -2   0 -15    3.80    5.84
  -3   0 -15   16.11    4.00
  -3   0 -15   18.19    2.23
  -3   0 -15   14.36    3.95
  -3   0 -15   20.78    3.40
   3   0  15   12.31    2.67
   3   0  15   17.72    2.37
  -3   0 -15    1.18   17.89
  -4   0 -15   67.26    5.36
  -4   0 -15   50.93    5.41
   4   0  15   58.36    5.26
   4   0  15   55.37    5.50
  -4   0 -15   28.25   19.10
  -5   0 -15   -4.47    4.88
   5   0  15   15.98    3.25
   5   0  15    7.49    2.99
  -5   0 -15  -23.87   23.87
   5  -1 -15   25.81    4.01
   5  -1 -15   27.96    4.31
  -5   1  15   23.95    3.36
  -5   1  15   14.44   16.81
   4  -1 -15    1.30    2.48
   4  -1 -15   -1.14    2.21
  -4   1  15   -0.93    2.16
  -4   1  15    3.42    2.41
  -4   1  15   -1.09    2.09
  -4   1  15  -11.30   11.30
   3  -1 -15   21.29    3.28
   3  -1 -15   18.56    3.14
  -3   1  15   27.54    3.10
  -3   1  15   16.49   13.08
   2  -1 -15   37.32    3.74
   2  -1 -15   45.65    4.69
  -2   1  15   44.34    3.80
  -2   1  15   30.55    9.68
   1  -1 -15    9.11    2.51
   1  -1 -15   13.00    3.22
   1  -1 -15   10.42    2.35
  -1   1  15   11.12    1.96
  -1   1  15   -7.24    9.71
   0  -1 -15   35.82    3.47
   0  -1 -15   22.06    2.78
   0  -1 -15   26.26    3.21
   0   1  15   28.43    2.78
   0   1  15   32.09    2.08
   0   1  15   21.92    9.92
  -1  -1 -15   91.72    9.40
  -1  -1 -15   79.74    5.92
  -1  -1 -15   74.43    6.19
   1   1  15   92.74    7.61
   1   1  15   93.42    5.49
   1   1  15   67.29   11.29
  -2  -1 -15   19.52    3.60
  -2  -1 -15   28.11    3.15
   2   1  15   29.23    2.42
   2   1  15   28.08    3.16
  -2  -1 -15   -8.54   16.42
   2   1  15    7.67   11.86
  -3  -1 -15    8.30    1.92
  -3  -1 -15    5.72    3.04
  -3  -1 -15    0.09    2.09
  -3  -1 -15    5.75    2.62
   3   1  15    5.87    1.75
   3   1  15    3.69    2.02
  -3  -1 -15    9.24   19.33
  -4  -1 -15    0.51    0.83
  -4  -1 -15    0.26    0.49
   4   1  15   -0.53    0.53
   4   1  15    1.06    0.64
  -4  -1 -15    4.06    5.84
  -5  -1 -15    4.69    2.61
   5   1  15    2.02    2.83
   5   1  15   -0.44    3.20
  -5  -1 -15  -25.17   25.17
  -6  -1 -15   22.62    4.13
   6   1  15   16.64    3.86
   6   1  15   17.44    4.05
  -6  -1 -15   10.80   30.20
   4  -2 -15    7.40    3.08
  -4   2  15    5.89    2.28
  -4   2  15    1.00   10.62
   3  -2 -15    0.28    1.23
   3  -2 -15   -0.16    0.72
  -3   2  15    0.43    0.67
  -3   2  15   -0.59    0.59
  -3   2  15    0.67    3.34
   2  -2 -15   12.03    3.10
   2  -2 -15    5.68    3.80
  -2   2  15   11.92    2.75
  -2   2  15   12.09    2.43
  -2   2  15   13.19   10.77
   1  -2 -15    5.20    2.60
  -1   2  15    3.83    1.90
  -1   2  15    4.39    1.92
  -1   2  15   23.64   10.53
   0  -2 -15    3.48    2.70
   0   2  15    1.33    1.48
   0   2  15    9.85    8.87
  -1  -2 -15   29.03    3.91
   1   2  15   28.35    3.79
   1   2  15   25.95    2.18
   1   2  15   11.73   12.87
  -2  -2 -15   32.90    3.95
   2   2  15   27.46    2.83
   2   2  15   30.74    2.70
   2   2  15   10.36   11.37
  -3  -2 -15   24.68    4.05
  -3  -2 -15   28.67    3.08
   3   2  15   29.99    3.38
   3   2  15   25.23    2.86
   3   2  15   20.58   15.29
  -4  -2 -15  127.98   10.77
  -4  -2 -15  149.72   11.79
   4   2  15  143.15   13.58
   4   2  15  159.81   11.56
  -5  -2 -15    0.73    1.63
   5   2  15    1.66    1.70
   5   2  15   -0.72    1.68
  -6  -2 -15    2.45    2.76
   6   2  15    0.52    3.03
   6   2  15    0.27    2.39
   6   2  15    3.56    3.53
   4  -3 -15    2.23    2.60
  -4   3  15    7.85   10.73
   3  -3 -15   31.23    4.25
  -3   3  15   32.98    4.55
  -3   3  15   41.27    4.45
  -3   3  15   23.17   13.45
   2  -3 -15   53.90    5.30
  -2   3  15   52.87    5.51
  -2   3  15   49.03    5.11
  -2   3  15   56.08   15.77
   1  -3 -15    6.03    3.23
  -1   3  15    1.11    2.16
  -1   3  15    5.49    2.53
  -1   3  15   17.72   10.96
   0  -3 -15    4.17    2.98
   0   3  15    0.97    2.09
   0   3  15    1.65    2.15
   0   3  15   -1.53   11.84
  -1  -3 -15   16.83    2.86
   1   3  15   10.45    2.43
   1   3  15   13.60    2.32
   1   3  15    5.96   10.61
  -2  -3 -15   81.45    8.26
   2   3  15   73.05    4.85
   2   3  15   75.27    6.65
   2   3  15   69.29    7.51
   2   3  15   57.62   12.67
  -3  -3 -15    5.63    2.86
  -3  -3 -15    6.87    2.89
   3   3  15    9.55    2.64
   3   3  15   10.66    1.99
   3   3  15    8.01    2.36
   3   3  15    8.14   16.15
  -4  -3 -15    7.51    3.70
  -4  -3 -15    8.54    2.60
  -4  -3 -15   14.21    3.36
   4   3  15    8.65    3.16
   4   3  15   11.46    2.35
   4   3  15    3.78    2.72
   4   3  15   -4.47   20.18
  -5  -3 -15   30.23    4.49
  -5  -3 -15   30.42    4.91
   5   3  15   36.71    4.96
   5   3  15   39.92    4.30
   5   3  15   31.86    3.89
  -6  -3 -15    5.59    3.33
   6   3  15   -2.91    4.18
   6   3  15    1.99    4.02
   6   3  15    4.24    3.21
   3  -4 -15   12.58    3.75
  -3   4  15    6.40    4.16
  -3   4  15   -2.87    4.20
  -3   4  15   -1.71   16.63
   2  -4 -15    0.21    1.23
  -2   4  15    0.13    1.47
  -2   4  15   -0.89    1.35
  -2   4  15    6.52    7.38
   1  -4 -15    0.26    2.54
  -1   4  15    2.77    2.76
  -1   4  15    1.55    2.03
  -1   4  15    4.40   10.38
   0  -4 -15    1.16    1.56
   0   4  15    1.05    1.24
   0   4  15   -0.42    1.22
   0   4  15    8.34    7.44
  -1  -4 -15    0.48    2.59
   1   4  15    2.01    2.36
   1   4  15    1.25    2.46
   1   4  15   -0.02   11.64
  -2  -4 -15    8.21    2.84
  -2  -4 -15    8.93    3.10
   2   4  15    4.05    2.20
   2   4  15    7.13    2.50
   2   4  15   12.90   14.15
  -3  -4 -15    9.03    3.33
  -3  -4 -15    6.71    3.29
   3   4  15    7.88    2.34
   3   4  15    3.25    2.60
   3   4  15    0.53    2.84
   3   4  15   -1.57   16.86
  -4  -4 -15   20.57    4.46
  -4  -4 -15   27.54    4.00
   4   4  15   26.93    4.29
   4   4  15   28.44    3.32
   4   4  15   20.33    3.59
   4   4  15   10.87   22.06
  -5  -4 -15   11.79    4.06
  -5  -4 -15   10.53    4.35
   5   4  15   15.31    3.48
   5   4  15   11.78    3.98
   5   4  15    5.13    3.97
   2  -5 -15    8.76    4.19
   1  -5 -15    1.32    2.47
  -1   5  15   -0.08    2.69
  -1   5  15   -1.24    2.64
  -1   5  15   -5.43   11.43
   0  -5 -15   -0.72    3.17
   0   5  15    6.46    3.51
   0   5  15    5.95    2.93
   0   5  15  -16.39   16.39
  -1  -5 -15   14.84    3.64
  -1  -5 -15   10.16    3.46
   1   5  15    6.04    2.91
   1   5  15    6.17    3.15
   1   5  15    3.17   18.01
  -2  -5 -15   21.94    4.37
   2   5  15   30.52    4.15
   2   5  15   29.26    4.70
   2   5  15   33.51   19.89
  -3  -5 -15   28.77    5.10
  -3  -5 -15   17.40    3.95
   3   5  15   25.05    4.16
   3   5  15   22.79    3.72
   3   5  15   46.27   21.71
  -4  -5 -15    7.12    4.23
  -4  -5 -15    3.82    3.77
   4   5  15    1.77    3.22
   4   5  15    1.59    3.14
   4   5  15    4.15    3.11
   4   5  15    3.69   20.32
  -5  -5 -15   25.20    4.38
  -5  -5 -15   19.60    5.32
   5   5  15   25.94    4.19
   5   5  15   24.57    4.93
   5   5  15   22.65    4.20
   5   5  15   -5.22   29.01
  -1  -6 -15   -0.13    4.40
  -1  -6 -15    3.17    4.58
   1   6  15    0.22    3.96
   1   6  15    3.87    4.48
   1   6  15   28.56   22.48
  -2  -6 -15    1.41    3.72
  -2  -6 -15    2.42    4.04
   2   6  15    0.53    3.11
   2   6  15    4.82    3.55
   2   6  15  -16.75   19.41
  -3  -6 -15    9.47    4.40
  -3  -6 -15   16.74    4.99
   3   6  15   12.10    3.81
   3   6  15    6.83    4.10
   3   6  15   21.15   26.48
   4   5 -16   23.08    5.33
   4   5 -16   37.19    6.10
   3   5 -16   -0.32    1.03
   3   5 -16   -0.81    1.15
  -3  -5  16    1.12    0.93
  -3  -5  16   -0.03    1.03
  -3  -5  16    0.53    0.99
   3   5 -16    6.99    7.54
   2   5 -16    3.71    4.31
   2   5 -16    0.53    3.21
  -2  -5  16    8.75    3.42
  -2  -5  16   10.90    3.07
   2   5 -16   -2.27   21.51
   1   5 -16    0.64    1.63
   1   5 -16    1.31    1.86
   1   5 -16   -0.02    1.69
  -1  -5  16    1.77    1.42
   1   5 -16   11.34    9.47
   0   5 -16   22.19    4.75
   0   5 -16   23.90    4.11
   0  -5  16   31.06    3.72
   0   5 -16    1.76   17.96
  -1   5 -16    1.18    3.43
  -1   5 -16    0.63    2.70
   5   4 -16    0.46    3.83
   4   4 -16    8.65    3.42
   4   4 -16    7.67    4.28
   4   4 -16    8.28    3.50
  -4  -4  16   10.18    3.84
  -4  -4  16   11.47    3.18
   3   4 -16   52.15    5.86
   3   4 -16   43.98    5.77
  -3  -4  16   54.64    5.08
  -3  -4  16   52.55    5.67
   3   4 -16   12.25   19.07
   2   4 -16   20.40    3.64
   2   4 -16   21.46    3.96
   2   4 -16   17.17    3.97
  -2  -4  16   20.90    3.35
  -2  -4  16   23.95    2.97
  -2  -4  16   26.52    3.33
   2   4 -16    4.23   15.73
   1   4 -16   16.48    3.96
   1   4 -16   11.68    3.26
   1   4 -16   12.84    3.50
  -1  -4  16   13.52    3.07
  -1  -4  16   22.88    3.70
  -1  -4  16   21.19    2.95
   1   4 -16    4.16   16.90
   0   4 -16    7.22    3.67
   0   4 -16   12.35    3.59
   0   4 -16    8.34    3.17
   0  -4  16   11.01    2.35
   0  -4  16   12.10    2.66
   0   4 -16   16.46   15.94
  -1   4 -16    3.82    4.36
  -1   4 -16    8.59    4.21
   1  -4  16    7.50    3.23
   1  -4  16   10.94    2.92
  -1   4 -16   -5.98   16.82
  -2   4 -16   12.64    5.02
  -2   4 -16   15.26    5.32
   2  -4  16   12.00    3.10
   2  -4  16   15.96    3.63
  -2   4 -16  -21.42   21.42
   5   3 -16   14.43    4.56
   5   3 -16    9.14    4.50
  -5  -3  16   11.60    3.41
   4   3 -16   17.73    3.65
   4   3 -16   10.27    4.06
  -4  -3  16   19.93    3.46
   3   3 -16    1.57    3.10
   3   3 -16    2.33    3.28
   3   3 -16    1.02    2.59
  -3  -3  16    3.36    2.50
  -3  -3  16    4.55    2.29
   2   3 -16   78.15    7.12
   2   3 -16   69.06    6.19
   2   3 -16   67.70    6.15
  -2  -3  16   80.77    5.36
  -2  -3  16   85.09    6.44
  -2  -3  16   69.11    7.40
   2   3 -16   49.93   18.57
   1   3 -16   -0.89    0.89
   1   3 -16   -0.09    0.72
   1   3 -16    0.04    0.87
  -1  -3  16    0.31    0.44
  -1  -3  16   -0.62    0.62
  -1  -3  16   -0.49    0.64
   1   3 -16   -1.22    4.21
   0   3 -16   59.32    6.49
   0   3 -16   52.72    5.47
   0   3 -16   50.28    5.87
   0  -3  16   69.29    5.83
   0  -3  16   64.39    4.93
   0   3 -16   23.04   15.07
  -1   3 -16   -2.91    2.93
  -1   3 -16    2.92    2.47
  -1   3 -16    0.46    2.13
   1  -3  16   -1.07    2.20
   1  -3  16    2.15    1.74
  -1   3 -16   -5.95   12.92
  -2   3 -16    3.34    4.52
  -2   3 -16   -4.04    4.04
   2  -3  16    5.14    2.44
   2  -3  16    3.68    2.48
  -2   3 -16   18.34   17.05
  -3   3 -16   -0.38    3.12
  -3   3 -16   -0.99    3.37
   3  -3  16   -1.81    1.81
   3  -3  16    1.38    2.05
  -3   3 -16  -11.05   16.09
   5   2 -16   -0.39    3.91
   5   2 -16    2.17    4.17
   4   2 -16    4.96    3.14
   4   2 -16   10.08    3.67
  -4  -2  16   17.81    2.91
   3   2 -16    0.08    0.86
   3   2 -16    1.67    0.82
   3   2 -16   -0.73    0.84
  -3  -2  16   -0.10    0.61
   2   2 -16   30.03    3.84
   2   2 -16   24.43    3.89
   2   2 -16   24.67    3.76
  -2  -2  16   30.99    3.53
   1   2 -16   -0.24    0.69
   1   2 -16    0.60    0.58
   1   2 -16    0.24    0.77
  -1  -2  16   -0.16    0.40
  -1  -2  16   -0.47    0.47
   1   2 -16    4.90    3.27
   0   2 -16    1.81    2.90
   0   2 -16    3.53    2.41
   0   2 -16   -0.86    2.97
   0  -2  16    0.35    2.30
   0  -2  16    3.71    1.76
   0   2 -16    5.17   15.29
  -1   2 -16    1.48    2.19
  -1   2 -16    1.16    1.45
  -1   2 -16   -1.88    2.22
   1  -2  16    1.27    1.50
   1  -2  16    0.68    1.13
  -1   2 -16   -9.91    9.91
  -2   2 -16    4.02    3.82
  -2   2 -16    7.52    3.61
  -2   2 -16    4.91    4.07
   2  -2  16    9.71    2.48
   2  -2  16   10.66    2.75
  -2   2 -16  -14.97   14.97
  -3   2 -16   12.16    5.14
  -3   2 -16   16.54    4.65
   3  -2  16   16.05    3.42
   3  -2  16   21.09    3.30
  -3   2 -16   11.37   19.62
  -4   2 -16    5.02    5.25
   4  -2  16    8.07    3.03
   4  -2  16    2.38    3.17
  -4   2 -16   41.86   28.73
   5   1 -16    0.72    3.13
   5   1 -16    2.53    3.26
  -5  -1  16    1.74    2.19
  -5  -1  16    6.18   12.17
   4   1 -16   16.55    4.05
   4   1 -16   14.93    3.73
  -4  -1  16   10.12    2.95
  -4  -1  16   27.63   13.51
   3   1 -16   48.48    5.05
   3   1 -16   60.40    5.56
  -3  -1  16   56.79    4.55
  -3  -1  16   50.48   13.77
   2   1 -16    7.54    2.53
   2   1 -16    4.84    2.77
   2   1 -16    4.66    3.04
  -2  -1  16    7.83    2.20
  -2  -1  16   -2.68   11.40
   1   1 -16   63.91    5.68
   1   1 -16   76.93    7.74
   1   1 -16   71.03    5.94
  -1  -1  16   79.31    4.99
  -1  -1  16   40.32   10.77
   0   1 -16  129.15   11.07
   0   1 -16  119.01   11.69
   0   1 -16  155.53   15.33
   0  -1  16  161.62   10.77
   0  -1  16  159.44    9.32
   0   1 -16   91.13   17.96
  -1   1 -16   24.02    3.49
  -1   1 -16   20.03    3.71
  -1   1 -16   19.50    3.60
   1  -1  16   23.02    2.72
   1  -1  16   26.83    2.36
  -1   1 -16    9.76   15.77
  -2   1 -16   10.85    4.04
  -2   1 -16    5.55    3.42
  -2   1 -16   11.14    2.92
   2  -1  16   10.29    2.14
   2  -1  16    9.95    2.13
  -2   1 -16    5.15   16.51
  -3   1 -16   -2.08    4.02
  -3   1 -16    3.56    4.16
  -3   1 -16    1.94    3.23
   3  -1  16    3.19    1.74
   3  -1  16    4.86    2.41
  -3   1 -16    8.78   21.40
  -4   1 -16    6.57    4.91
   4  -1  16   10.39    3.11
   4  -1  16    9.47    2.89
  -4   1 -16   34.32   24.43
  -5   1 -16   17.48    6.27
  -5   1 -16   -8.98   34.12
   5   0 -16    6.18    3.71
   5   0 -16    6.84    3.47
  -5   0  16    0.11    2.89
  -5   0  16    5.55   17.01
   4   0 -16    0.71    1.55
   4   0 -16    0.64    1.38
  -4   0  16   -0.98    0.98
  -4   0  16    2.19    1.14
  -4   0  16   -1.18    6.04
   3   0 -16   -0.35    2.72
   3   0 -16    2.69    3.18
  -3   0  16    1.79    2.19
  -3   0  16    3.23   10.13
   2   0 -16    7.12    2.78
   2   0 -16   15.31    3.48
   2   0 -16    8.69    2.91
  -2   0  16   15.01   13.58
   1   0 -16   -0.35    0.61
   1   0 -16   -0.55    0.62
   1   0 -16    0.82    0.82
  -1   0  16   -0.45    0.48
  -1   0  16   -2.51    3.24
   0   0 -16   17.38    2.98
   0   0 -16   13.49    2.76
   0   0 -16    9.20    2.68
   0   0  16   16.41    2.27
   0   0  16   15.49    1.65
   0   0  16   -9.04   12.16
  -1   0 -16   18.27    3.09
   1   0  16   15.54    2.55
   1   0  16   18.00    1.99
  -1   0 -16   -4.11   14.01
   1   0  16   11.70    9.83
  -2   0 -16   22.21    3.93
  -2   0 -16   16.63    3.89
  -2   0 -16   28.83    3.74
   2   0  16   23.82    2.62
   2   0  16   18.42    3.00
  -2   0 -16   37.89   18.68
  -3   0 -16   37.07    5.38
  -3   0 -16   40.80    5.11
  -3   0 -16   45.57    6.09
  -3   0 -16   27.77    5.05
   3   0  16   41.06    4.85
   3   0  16   45.64    3.90
  -3   0 -16   40.18   20.67
  -4   0 -16    3.05    1.86
  -4   0 -16    2.23    3.39
   4   0  16    0.67    2.14
   4   0  16    2.14    2.01
  -4   0 -16   16.39   19.47
  -5   0 -16    3.33    6.46
   5   0  16    6.99    3.10
   5   0  16    8.21    3.46
  -5   0 -16   -9.25   25.96
   4  -1 -16   51.64    6.69
   4  -1 -16   38.35    4.97
  -4   1  16   48.40    4.81
  -4   1  16   23.98   14.79
   3  -1 -16   16.55    3.50
   3  -1 -16   14.46    3.43
  -3   1  16   11.31    2.93
  -3   1  16    7.98   10.96
   2  -1 -16    0.73    1.15
   2  -1 -16    0.06    1.40
  -2   1  16   -0.93    0.93
  -2   1  16    5.69    4.82
   1  -1 -16    1.86    1.93
   1  -1 -16    1.16    1.96
   1  -1 -16    0.82    1.80
  -1   1  16   -0.24    1.61
  -1   1  16   -6.84    8.70
   0  -1 -16   38.80    4.04
   0  -1 -16   39.87    4.20
   0   1  16   57.34   12.98
  -1  -1 -16   43.13    4.68
  -1  -1 -16   57.63    6.77
  -1  -1 -16   41.61    5.13
   1   1  16   55.54    5.14
   1   1  16   59.07    3.84
   1   1  16   31.03   10.42
  -2  -1 -16   -0.87    1.06
  -2  -1 -16   -0.18    0.70
   2   1  16   -0.49    0.49
   2   1  16   -0.45    0.45
   2   1  16    4.17    3.49
  -3  -1 -16   31.07    4.19
  -3  -1 -16   29.93    3.16
   3   1  16   29.21    3.69
   3   1  16   32.43    3.22
  -4  -1 -16   25.99    3.29
  -4  -1 -16   22.51    4.47
   4   1  16   26.61    3.79
   4   1  16   27.06    3.36
  -5  -1 -16    3.89    4.04
   5   1  16    3.96    3.45
   5   1  16    4.35    3.54
   4  -2 -16   -0.30    1.78
  -4   2  16    0.31    0.89
  -4   2  16   -7.49    7.81
  -3   2  16    3.33    2.69
  -3   2  16    3.64    3.28
  -3   2  16    2.86   13.50
   2  -2 -16    1.77    3.53
  -2   2  16    0.91    2.60
  -2   2  16    3.01    2.37
  -2   2  16    2.05   13.27
   1  -2 -16   11.72    3.88
  -1   2  16    8.65    2.54
  -1   2  16   13.28    2.67
  -1   2  16   11.57   12.01
   0  -2 -16   -0.23    2.68
   0   2  16   -0.86    1.75
   0   2  16   10.58    8.52
  -1  -2 -16    2.65    2.80
   1   2  16    1.82    1.79
   1   2  16    5.37   11.38
  -2  -2 -16    1.94    2.24
   2   2  16    1.51    1.84
   2   2  16    0.07    1.30
   2   2  16   -3.53   10.71
  -3  -2 -16   16.37    3.37
  -3  -2 -16   13.87    2.73
  -3  -2 -16   16.52    3.20
   3   2  16   17.52    2.59
   3   2  16    9.94    2.64
   3   2  16   29.42   23.61
  -4  -2 -16   -0.13    2.87
  -4  -2 -16    2.16    4.11
   4   2  16    1.54    2.34
   4   2  16   -1.71    2.81
  -5  -2 -16    1.12    0.85
  -5  -2 -16    0.35    0.76
   5   2  16   -0.39    0.75
   5   2  16   -0.87    0.87
   3  -3 -16    1.93    2.51
  -3   3  16   -1.97    2.56
  -3   3  16   -0.38    2.71
  -3   3  16  -12.62   15.96
   2  -3 -16    4.95    3.93
  -2   3  16    1.48    2.84
  -2   3  16    2.26    3.42
  -2   3  16   -1.43   14.64
   1  -3 -16    1.03    3.29
  -1   3  16   -1.60    2.47
  -1   3  16    2.71    2.47
  -1   3  16    4.74   13.14
   0  -3 -16   14.16    3.61
   0   3  16   16.25    2.92
   0   3  16   13.19    2.76
   0   3  16   40.96   15.54
  -1  -3 -16   47.78    4.41
   1   3  16   37.29    4.29
   1   3  16   44.29    4.98
   1   3  16   37.58   15.02
  -2  -3 -16    5.22    3.19
   2   3  16   11.53    2.43
   2   3  16    5.75    2.42
   2   3  16    6.28   15.21
  -3  -3 -16   12.32    3.32
  -3  -3 -16   19.94    3.79
   3   3  16   13.94    3.02
   3   3  16   16.34    2.78
   3   3  16   12.80    3.00
   3   3  16    8.79   18.54
  -4  -3 -16   82.17    7.00
  -4  -3 -16   72.20    6.57
   4   3  16   56.99    6.92
   4   3  16   66.61    5.30
   4   3  16   62.52    7.22
  -5  -3 -16   -0.33    2.05
  -5  -3 -16   -1.89    2.25
   5   3  16    4.40    2.68
   5   3  16   -0.39    1.94
   5   3  16    0.14    2.12
   2  -4 -16   10.80    3.83
  -2   4  16    8.97    3.80
  -2   4  16    6.78    3.87
  -2   4  16   24.21   18.45
   1  -4 -16   47.52    7.48
  -1   4  16   55.59    6.30
  -1   4  16   69.60    6.81
  -1   4  16   36.05   19.11
   0  -4 -16    1.51    3.18
   0   4  16    1.58    2.62
   0   4  16   -2.33    2.92
   0   4  16    6.60   14.73
  -1  -4 -16    3.32    3.28
   1   4  16    1.12    2.49
   1   4  16    0.88    2.96
   1   4  16   -2.33   14.46
  -2  -4 -16   41.71    5.35
  -2  -4 -16   49.21    5.38
   2   4  16   33.01    4.72
   2   4  16   43.72    4.82
   2   4  16   29.08   18.24
  -3  -4 -16    0.05    1.14
  -3  -4 -16   -0.31    1.22
   3   4  16   -1.07    1.07
   3   4  16   -0.22    0.94
   3   4  16    6.81    7.93
  -4  -4 -16   -2.53    4.19
  -4  -4 -16    2.18    2.99
   4   4  16   -0.92    3.36
   4   4  16   -0.80    3.10
   4   4  16    4.79    2.70
   4   4  16   26.26   23.48
  -5  -4 -16    3.32    3.75
  -5  -4 -16    4.87    4.87
   5   4  16    0.72    4.64
   5   4  16    3.89    3.25
   5   4  16    3.02    3.70
   1  -5 -16   -1.55    1.77
   0  -5 -16   23.71    4.89
   0   5  16   31.64    5.10
   0   5  16   22.83    5.45
   0   5  16    3.75   21.70
  -1  -5 -16   35.20    5.54
   1   5  16   41.94    4.82
   1   5  16   37.82    6.31
   1   5  16   49.30   21.88
  -2  -5 -16    1.75    2.99
  -2  -5 -16   -0.09    3.08
   2   5  16    0.80    2.14
   2   5  16    3.58    2.64
   2   5  16    7.98   17.00
  -3  -5 -16   56.19    6.31
   3   5  16   51.22    6.41
   3   5  16   57.70    7.25
   3   5  16    8.91   25.13
  -4  -5 -16    7.14    4.86
  -4  -5 -16   14.65    4.38
   4   5  16    7.23    3.46
   4   5  16    8.79    4.22
   4   5  16   -0.58   27.68
   2   5 -17    8.49    4.29
   1   5 -17   32.87    6.15
   4   4 -17    4.54    2.93
   4   4 -17    2.38    3.80
   3   4 -17   26.93    5.22
   3   4 -17   42.86    5.34
   3   4 -17   27.31    4.57
  -3  -4  17   36.15    4.45
  -3  -4  17   32.09    4.57
   2   4 -17    3.35    3.48
   2   4 -17   -1.60    3.81
   2   4 -17    3.52    3.56
  -2  -4  17    5.47    2.82
  -2  -4  17    1.38    3.11
   2   4 -17   -4.47   22.71
   1   4 -17    0.19    2.46
   1   4 -17   -0.97    2.26
   1   4 -17    3.82    2.61
  -1  -4  17    1.17    2.03
  -1  -4  17    1.13    1.60
  -1  -4  17   -1.75    2.28
   1   4 -17   -2.78   13.79
   0   4 -17    6.17    3.63
   0   4 -17    8.15    3.70
   0   4 -17    3.99    3.89
   0  -4  17    3.03    2.70
   0  -4  17    2.64    3.24
   0   4 -17   19.32   17.55
  -1   4 -17   13.91    4.64
  -1   4 -17   12.85    4.87
   1  -4  17   25.63    4.58
   1  -4  17   13.87    3.43
  -1   4 -17    1.76   19.00
   4   3 -17    5.86    4.39
   4   3 -17    1.27    3.68
   4   3 -17    5.80    3.99
  -4  -3  17    1.80    3.61
  -4  -3  17    0.33    3.17
   3   3 -17    1.48    2.50
   3   3 -17    2.31    2.24
   3   3 -17   -0.91    2.60
  -3  -3  17    3.88    2.19
  -3  -3  17    1.99    1.86
   2   3 -17   55.55    6.84
   2   3 -17   76.35    7.70
   2   3 -17   54.99    5.48
  -2  -3  17   62.95    6.49
  -2  -3  17   70.97    5.89
   1   3 -17   36.88    4.70
   1   3 -17   22.77    4.58
   1   3 -17   29.66    3.85
  -1  -3  17   36.15    3.52
   1   3 -17   18.50   18.08
   0   3 -17    0.82    1.03
   0   3 -17    0.37    0.73
   0   3 -17    0.16    0.96
   0  -3  17   -0.67    0.67
   0  -3  17   -0.13    0.60
   0   3 -17    3.48    5.34
  -1   3 -17   -2.89    3.45
  -1   3 -17    2.34    3.05
  -1   3 -17   -0.60    2.44
   1  -3  17   -0.05    1.99
   1  -3  17    0.64    1.98
  -1   3 -17   15.86   14.46
  -2   3 -17    3.00    4.54
  -2   3 -17   11.59    4.88
   2  -3  17    4.51    3.13
   2  -3  17    3.43    2.57
  -2   3 -17  -13.39   21.18
   4   2 -17   -0.37    3.09
   4   2 -17    0.71    2.93
  -4  -2  17    1.15    2.08
   3   2 -17   -2.81    3.07
   3   2 -17   -2.60    3.08
   3   2 -17    0.52    3.55
  -3  -2  17    3.25    2.27
   2   2 -17    0.98    1.65
   2   2 -17   -1.43    1.43
   2   2 -17   -0.25    1.50
  -2  -2  17   -0.76    1.17
   1   2 -17    0.89    1.77
   1   2 -17   -1.59    1.59
   1   2 -17   -1.00    1.41
  -1  -2  17    0.21    1.37
   0   2 -17    1.48    2.94
   0   2 -17    9.05    3.05
   0  -2  17    6.92    2.22
   0  -2  17   11.01    2.60
   0   2 -17    4.13   16.88
  -1   2 -17    1.83    3.66
  -1   2 -17    3.80    2.89
  -1   2 -17   -2.55    3.71
   1  -2  17    0.71    2.09
   1  -2  17    0.60    2.14
  -1   2 -17   24.17   18.08
  -2   2 -17   13.44    5.06
  -2   2 -17   10.27    4.11
  -2   2 -17   14.08    3.50
   2  -2  17    9.36    2.91
   2  -2  17   13.89    2.88
  -2   2 -17  -12.29   19.59
  -3   2 -17   -0.44    5.69
  -3   2 -17   -2.19    4.82
   3  -2  17    3.95    3.50
   3  -2  17   -0.48    2.44
  -3   2 -17   32.44   26.85
   4   1 -17    0.34    3.72
   4   1 -17    0.27    3.51
  -4  -1  17    0.95    2.50
  -4  -1  17   -5.32   14.02
   3   1 -17    0.80    2.16
   3   1 -17   -2.19    2.19
   3   1 -17   -1.17    2.17
  -3  -1  17   -1.46    1.46
  -3  -1  17    1.92   10.98
   2   1 -17    3.50    2.34
   2   1 -17    3.17    2.31
   2   1 -17   -0.64    2.75
  -2  -1  17    2.19    1.92
  -2  -1  17    2.47   10.48
   1   1 -17    2.80    2.88
   1   1 -17    4.31    2.83
   1   1 -17   10.05    3.13
  -1  -1  17    9.67    2.66
   0   1 -17   -0.66    2.73
   0   1 -17   -0.29    2.39
   0   1 -17   -1.15    2.67
   0  -1  17    0.58    1.80
  -1   1 -17   12.12    3.17
  -1   1 -17    8.99    3.93
  -1   1 -17   10.21    3.38
   1  -1  17   10.50    2.23
   1  -1  17   16.31    2.50
  -1   1 -17  -10.43   16.77
  -2   1 -17   42.71    5.71
  -2   1 -17   39.21    5.20
  -2   1 -17   50.41    5.08
   2  -1  17   45.79    3.87
   2  -1  17   50.14    5.14
  -2   1 -17   18.44   19.17
  -3   1 -17   23.59    4.75
  -3   1 -17   22.93    4.26
  -3   1 -17   20.80    5.47
   3  -1  17   20.06    3.22
   3  -1  17   25.39    3.01
  -3   1 -17   11.40   20.09
  -4   1 -17   -4.55    4.55
   4  -1  17    3.03    2.69
   4  -1  17   -1.36    2.29
  -4   1 -17   -5.16   27.17
   4   0 -17    6.61    3.71
   4   0 -17   16.71    4.17
  -4   0  17    1.87    1.67
  -4   0  17    1.51   14.80
   3   0 -17   14.41    3.57
   3   0 -17   19.97    3.70
  -3   0  17   26.64    3.65
  -3   0  17   19.95   16.56
   2   0 -17   17.03    3.62
   2   0 -17    9.54    3.45
   2   0 -17    9.94    3.64
  -2   0  17   14.05    2.73
  -2   0  17    6.19   15.11
   1   0 -17   19.78    3.11
   1   0 -17   20.21    3.26
   1   0 -17   10.70    3.35
  -1   0  17   19.89    2.83
  -1   0  17   -2.97   13.34
   0   0 -17    2.99    2.33
   0   0 -17    0.55    2.71
   0   0 -17    2.13    2.59
   0   0  17    1.50    2.14
   0   0  17    7.36   11.06
  -1   0 -17    6.01    2.93
  -1   0 -17    2.90    3.50
  -1   0 -17    9.79    3.18
   1   0  17    8.93    1.74
   1   0  17    7.55    2.35
  -2   0 -17    1.75    2.67
  -2   0 -17   -1.01    3.60
  -2   0 -17    2.56    3.69
   2   0  17    2.23    1.92
   2   0  17    5.28    2.02
  -3   0 -17   16.57    4.29
  -3   0 -17   13.18    4.45
  -3   0 -17   17.60    4.20
   3   0  17   25.58    3.66
  -3   0 -17    5.75   19.91
  -4   0 -17    0.69    1.10
   4   0  17   -0.94    1.13
   4   0  17    0.25    1.40
  -4   0 -17   -7.53   13.59
   4  -1 -17   -4.11    4.11
  -4   1  17    3.47   14.22
   3  -1 -17    7.50    3.44
  -3   1  17   11.09    3.20
  -3   1  17    4.23    3.16
  -3   1  17    0.89   13.11
   2  -1 -17    0.54    2.63
   2  -1 -17   -1.99    4.26
  -2   1  17    0.20    2.12
  -2   1  17   -8.18   12.12
   1  -1 -17   11.08    3.27
  -1   1  17   13.37    3.05
  -1   1  17    4.09   11.45
   0  -1 -17   13.09    3.50
   0   1  17   12.97    3.01
   0   1  17   25.35   10.49
  -1  -1 -17   13.97    3.47
   1   1  17    6.80    2.55
   1   1  17   -4.71   13.03
  -2  -1 -17   36.62    5.08
   2   1  17   35.98    4.19
   2   1  17   36.03    3.57
  -3  -1 -17   14.33    4.18
  -3  -1 -17   18.15    2.91
   3   1  17   17.81    3.20
   3   1  17   24.71    3.10
  -4  -1 -17    9.58    4.49
   4   1  17   18.95    3.27
   4   1  17   13.89    3.72
   3  -2 -17   13.35    3.98
  -3   2  17   11.74    3.52
  -3   2  17    9.26    3.98
  -3   2  17    7.49   17.32
   2  -2 -17   15.60    3.72
  -2   2  17   19.93    3.23
  -2   2  17   19.55    4.19
  -2   2  17   20.43   12.06
   1  -2 -17   -0.18    3.19
  -1   2  17    0.94    2.44
  -1   2  17    1.65    2.14
  -1   2  17   -5.34   13.31
   0  -2 -17    5.66    2.57
   0   2  17    5.46    2.48
   0   2  17    2.91   13.06
  -1  -2 -17   43.49    5.65
   1   2  17   39.57    5.08
   1   2  17   47.26   16.12
  -2  -2 -17   -1.38    1.38
   2   2  17   -0.56    0.85
   2   2  17   -2.67    7.25
  -3  -2 -17    1.30    2.19
  -3  -2 -17    1.17    2.73
   3   2  17    1.01    1.92
   3   2  17   -0.52    1.65
  -4  -2 -17    8.34    3.10
  -4  -2 -17    4.88    4.00
   4   2  17    1.27    2.49
   4   2  17    4.42    3.09
   5   2  17   -3.80    3.82
   2  -3 -17    4.59    3.61
  -2   3  17    8.53    4.25
  -2   3  17    7.27    3.49
  -2   3  17   10.65   16.80
   1  -3 -17   18.62    4.94
  -1   3  17   29.34    4.36
  -1   3  17   18.30    3.77
  -1   3  17   17.48   14.73
   0  -3 -17    9.13    3.43
   0   3  17    4.39    2.95
   0   3  17    5.77    2.42
   0   3  17    3.38   16.51
  -1  -3 -17    8.88    3.49
   1   3  17    7.87    3.12
   1   3  17    3.26    2.51
   1   3  17   -5.16   16.37
  -2  -3 -17   54.73    5.55
   2   3  17   46.25    6.62
   2   3  17   47.37    6.44
   2   3  17   58.17   19.76
  -3  -3 -17   10.75    3.83
  -3  -3 -17   13.85    3.55
   3   3  17   14.67    3.20
   3   3  17   12.78    3.77
   3   3  17   24.42   24.92
  -4  -3 -17    1.43    3.37
  -4  -3 -17   -2.71    2.71
   4   3  17    1.40    3.25
   4   3  17   -0.34    2.94
   1  -4 -17   13.26    4.32
  -1   4  17   21.18    4.38
  -1   4  17   21.54    4.94
  -1   4  17   15.36   25.76
   0  -4 -17   37.57    5.94
   0   4  17   54.30    6.28
   0   4  17   41.16    6.38
   0   4  17   63.94   19.13
  -1  -4 -17    9.32    3.71
   1   4  17    6.73    3.12
   1   4  17    3.94    3.02
   1   4  17  -17.56   20.47
  -2  -4 -17    5.41    3.80
  -2  -4 -17   18.60    4.54
   2   4  17    8.67    3.31
   2   4  17    9.32    3.60
   2   4  17    6.29   23.83
  -3  -4 -17    1.68    3.50
  -3  -4 -17   -3.05    3.05
   3   4  17    2.02    2.69
   3   4  17    2.64    3.14
   3   4  17   29.58   21.69
  -4  -4 -17    7.40    4.18
  -4  -4 -17    5.16    3.96
   4   4  17    8.17    3.58
   4   4  17    3.81    4.22
  -1  -5 -17   -1.05    4.07
  -2  -5 -17   11.86    4.66
   2   5  17    8.01    4.14
   2   4 -18    4.93    4.05
   2   4 -18    5.19    3.72
   1   4 -18    0.12    3.52
   1   4 -18    4.96    4.63
   1   4 -18    2.14    4.00
   1   4 -18    7.74   21.44
   0   4 -18    7.09    4.25
   0   4 -18   -9.40   22.40
   3   3 -18    0.57    4.45
   3   3 -18    5.40    4.08
   3   3 -18   11.93    4.59
  -3  -3  18    0.68    3.18
   2   3 -18    3.76    3.64
   2   3 -18    0.52    4.13
   2   3 -18   -1.14    3.70
  -2  -3  18    2.77    2.58
   1   3 -18   17.20    4.16
   1   3 -18    9.33    4.07
   1   3 -18    9.61    3.86
  -1  -3  18   11.84    3.21
   1   3 -18   -2.18   25.72
   0   3 -18   14.92    3.88
   0   3 -18   15.98    4.55
   0   3 -18   22.99    4.52
   0  -3  18   23.39    4.28
   0  -3  18   23.13    3.39
   0   3 -18  -13.58   21.15
  -1   3 -18   35.61    5.66
  -1   3 -18   31.33    5.24
  -1   3 -18   32.37    5.78
   1  -3  18   37.75    4.15
   1  -3  18   43.74    4.17
  -1   3 -18   -7.08   20.30
   4   2 -18   10.50    4.64
   4   2 -18    0.47    4.52
   3   2 -18    1.01    1.13
   3   2 -18   -1.14    1.14
   3   2 -18   -0.16    0.77
  -3  -2  18   -0.17    0.75
   2   2 -18   13.20    4.06
   2   2 -18   15.07    4.08
   2   2 -18   20.28    3.86
  -2  -2  18   19.25    3.07
   1   2 -18    1.99    3.20
   1   2 -18    2.85    3.38
   1   2 -18    2.60    3.09
  -1  -2  18    1.82    2.57
   0   2 -18    6.55    3.70
   0   2 -18    6.05    3.75
   0   2 -18    8.81    3.76
   0  -2  18    8.18    2.74
  -1   2 -18   -0.97    3.15
  -1   2 -18   -0.61    2.35
  -1   2 -18    3.89    3.15
   1  -2  18   -1.97    1.97
   1  -2  18   -0.60    1.87
  -1   2 -18   -6.49   14.96
  -2   2 -18    0.84    3.55
  -2   2 -18    2.61    4.55
  -2   2 -18    1.19    4.20
   2  -2  18    4.14    2.75
   2  -2  18   -2.64    2.64
  -2   2 -18   15.56   21.38
   4   1 -18    2.64    3.52
   4   1 -18    7.29    4.24
   3   1 -18   -1.01    1.01
   3   1 -18    0.63    1.01
   3   1 -18    1.62    1.02
  -3  -1  18   -0.28    0.87
   2   1 -18    8.20    3.57
   2   1 -18    9.60    3.36
   2   1 -18   10.60    3.48
  -2  -1  18    9.69    2.71
   1   1 -18   -2.26    2.26
   1   1 -18    0.85    2.42
   1   1 -18   -0.91    2.28
  -1  -1  18   -1.93    1.93
   0   1 -18   27.86    4.46
   0   1 -18   17.84    4.03
   0  -1  18   28.41    3.52
  -1   1 -18   25.80    4.54
  -1   1 -18   17.37    4.55
   1  -1  18   30.19    5.04
   1  -1  18   26.22    3.52
  -2   1 -18    5.64    4.42
  -2   1 -18    2.63    3.63
  -2   1 -18    4.69    3.90
   2  -1  18    0.78    2.34
   2  -1  18    4.57    2.97
  -2   1 -18  -12.63   25.84
  -3   1 -18   -1.62    6.21
  -3   1 -18   17.96    4.96
  -3   1 -18   15.58    5.55
   3  -1  18   14.84    3.09
   3  -1  18   10.87    3.61
  -3   1 -18   10.22   23.36
   3   0 -18    3.19    3.51
   3   0 -18    6.16    3.11
  -3   0  18    2.46    2.92
  -3   0  18  -10.74   16.92
   2   0 -18   26.11    3.96
   2   0 -18   16.63    3.85
  -2   0  18   25.69    3.94
  -2   0  18   13.18   17.06
   1   0 -18   14.03    3.51
   1   0 -18   12.43    3.55
   1   0 -18   17.47    3.58
  -1   0  18   15.93    2.87
  -1   0  18    8.74   16.67
   0   0 -18    0.87    3.24
   0   0 -18    2.58    3.30
   0   0 -18    1.00    3.39
   0   0  18    5.19    2.50
  -1   0 -18   20.32    3.57
   1   0  18   15.74    3.02
  -2   0 -18   -2.75    2.75
   2   0  18    1.22    2.10
   2   0  18   -0.08    1.73
  -3   0 -18   -0.26    1.35
   3   0  18    0.21    0.87
   3   0  18    1.17    1.09
   3  -1 -18   -3.87    3.87
  -3   1  18    2.23    3.15
  -3   1  18   -0.09    3.73
  -3   1  18    5.93   18.85
   2  -1 -18    3.75    3.21
  -2   1  18    6.44    3.08
  -2   1  18   -2.06   14.64
   1  -1 -18    7.67    2.95
  -1   1  18    6.75    2.78
  -1   1  18   16.00   14.49
   0  -1 -18   18.29    3.72
   0   1  18    8.47    2.64
   0   1  18   14.40   15.43
  -1  -1 -18   53.84    5.75
   1   1  18   57.79    5.55
  -2  -1 -18    3.08    3.49
   2   1  18   11.50    3.25
  -3  -1 -18   23.22    5.06
   3   1  18   26.85    3.57
   3   1  18   28.55    4.51
  -4  -1 -18    5.23    4.64
   4   1  18    9.20    3.94
   4   1  18   10.52    3.32
   2  -2 -18   40.62    7.11
  -2   2  18   55.25    5.84
  -2   2  18   53.44    5.78
  -2   2  18   42.10   16.76
   1  -2 -18   18.10    3.70
  -1   2  18   17.28    3.72
  -1   2  18   19.63    3.49
  -1   2  18    4.89   14.97
   0  -2 -18    4.20    3.03
   0   2  18    1.27    2.47
   0   2  18   -8.29   15.05
  -1  -2 -18   47.88    6.31
   1   2  18   35.77    4.99
   1   2  18   33.15   16.84
  -2  -2 -18   19.41    4.62
   2   2  18   16.24    3.58
  -3  -2 -18    6.65    4.10
  -3  -2 -18   13.76    3.42
   3   2  18   12.11    3.31
  -4  -2 -18    1.64    2.43
  -4  -2 -18    0.51    3.55
   4   2  18   -1.89    2.42
   4   2  18   -2.72    3.04
   1  -3 -18    3.10    3.23
  -1   3  18   -1.80    3.04
  -1   3  18    1.91    2.86
  -1   3  18   21.71   16.99
   0  -3 -18   11.50    3.85
   0   3  18    6.19    3.59
   0   3  18    8.31    2.96
   0   3  18   14.41   19.46
  -1  -3 -18    4.96    3.02
   1   3  18    3.30    2.96
   1   3  18    0.85    3.28
   1   3  18   18.17   19.39
  -2  -3 -18    4.15    3.71
   2   3  18    3.54    3.63
   2   3  18    5.54    3.44
   2   3  18  -19.32   20.90
  -3  -3 -18    3.44    3.48
   3   3  18   -1.02    3.05
   3   3  18   -2.34    3.55
  -1  -4 -18    7.86    4.54
   1   4  18   16.12    4.30
   1   4  18   12.55    3.61
   1   4  18    6.15   11.12
  -2  -4 -18    1.85    5.07
   2   4  18    6.33    3.84
   2   4  18   -3.74    3.74
   2   4  18   -5.04   23.64
   1   3 -19   11.92    4.33
   2   2 -19    3.95    3.70
   2   2 -19    2.02    3.87
   2   2 -19    4.90    4.04
  -2  -2  19    1.17    3.21
   1   2 -19   -0.32    2.90
   1   2 -19    2.65    3.03
   1   2 -19    1.66    3.07
  -1  -2  19    2.96    2.47
   0   2 -19    9.34    4.85
   0   2 -19    6.41    4.15
   0   2 -19    8.31    4.81
   0  -2  19   11.30    2.93
  -1   2 -19    0.51    4.47
  -1   2 -19    2.47    5.01
  -1   2 -19    1.68    3.61
   1  -2  19    0.40    2.88
   3   1 -19   -2.23    4.09
   3   1 -19    3.73    4.65
   2   1 -19    3.79    3.59
   2   1 -19    4.03    4.03
   2   1 -19    6.53    3.57
  -2  -1  19    0.55    3.09
   1   1 -19    7.58    3.59
   1   1 -19    0.42    3.55
   1   1 -19   -2.45    3.18
  -1  -1  19    2.58    2.33
   0   1 -19   15.08    4.20
   0   1 -19   11.86    4.01
   0   1 -19    7.90    3.99
   0  -1  19   17.02    3.23
  -1   1 -19   -3.32    3.32
  -1   1 -19    3.05    2.99
  -1   1 -19    6.17    3.47
   1  -1  19   -0.67    2.37
  -2   1 -19   11.53    4.15
  -2   1 -19    3.13    6.81
   2  -1  19   14.73    3.79
   2   0 -19   18.75    3.99
  -2   0  19   20.80    4.14
  -2   0  19   25.65   25.18
   1   0 -19    0.05    1.00
  -1   0  19    0.65    0.78
   0   0 -19   85.79    8.97
   0   0  19   65.78    6.68
  -1   0 -19   28.45    5.19
   1   0  19   27.14    4.13
  -2   0 -19   -0.29    3.52
   2   0  19    2.85    2.91
   2  -1 -19    0.79    1.38
  -2   1  19   -1.18    1.18
   1  -1 -19    5.64    3.33
  -1   1  19    3.90    3.24
  -1   1  19    5.36   18.95
   0  -1 -19    5.50    3.83
   0   1  19   -0.30    2.56
  -1  -1 -19    4.96    3.97
   1   1  19    1.63    2.61
  -2  -1 -19    2.11    3.59
   2   1  19   -1.25    2.73
  -3  -1 -19    5.95    3.88
   1  -2 -19    3.24    3.75
  -1   2  19    3.30    4.09
  -1   2  19    7.35    4.04
  -1   2  19  -15.57   16.37
   0  -2 -19   17.55    4.07
   0   2  19   14.76    3.96
   0   2  19   17.21    3.67
   0   2  19    4.99   17.97
  -1  -2 -19    4.54    3.89
   1   2  19   -2.74    3.12
  -2  -2 -19    5.59    3.55
   2   2  19    0.95    3.08
  -1  -3 -19    2.06    1.73

;
_shelx_hkl_checksum    8549

