data_k03053_config-0
loop_
 _symmetry_equiv_pos_as_xyz
'x, y, z'
'-x, -y, -z'

_cell_length_a	8.6290(2)
_cell_length_b	10.4440(2)
_cell_length_c	10.7620(2)
_cell_angle_alpha	65.2230(8)
_cell_angle_beta	85.2370(7)
_cell_angle_gamma	82.8830(8)
loop_
 _atom_site_label
 _atom_site_type_symbol
 _atom_site_fract_x
 _atom_site_fract_y
 _atom_site_fract_z
 _atom_site_occupancy
 _atom_site_disorder_group
Si1	Si	0.07960(4)	0.33812(4)	0.30774(4)	1.0	.
C1	C	0.01462(14)	0.07795(13)	0.07804(12)	1.0	.
C2	C	0.13622(14)	0.07038(13)	-0.01610(13)	1.0	.
C3	C	0.27270(15)	0.14272(14)	-0.03793(14)	1.0	.
H3	H	0.2823	0.1973	0.0123	1.0	.
C4	C	0.38978(15)	0.13566(14)	-0.12897(14)	1.0	.
C5	C	0.37647(16)	0.05121(14)	-0.20178(14)	1.0	.
H5	H	0.4593	0.0429	-0.2627	1.0	.
C6	C	0.24731(15)	-0.01795(14)	-0.18598(13)	1.0	.
H6	H	0.2409	-0.0727	-0.2367	1.0	.
C7	C	0.12170(14)	-0.00906(13)	-0.09427(13)	1.0	.
C8	C	0.02956(15)	0.15884(14)	0.15506(13)	1.0	.
C9	C	0.04565(15)	0.22859(14)	0.21772(14)	1.0	.
C10	C	-0.09937(17)	0.34299(15)	0.41874(15)	1.0	.
H10	H	-0.0792	0.3998	0.4698	1.0	.
C11	C	-0.1325(2)	0.19466(19)	0.52558(18)	1.0	.
H11A	H	-0.2259	0.2026	0.5813	1.0	.
H11B	H	-0.0430	0.1517	0.5848	1.0	.
H11C	H	-0.1499	0.1351	0.4788	1.0	.
C12	C	-0.24348(17)	0.41784(19)	0.33260(18)	1.0	.
H12A	H	-0.2674	0.3641	0.2819	1.0	.
H12B	H	-0.2220	0.5136	0.2679	1.0	.
H12C	H	-0.3329	0.4236	0.3930	1.0	.
C13	C	0.10450(16)	0.52145(14)	0.17174(14)	1.0	.
H13	H	0.0123	0.5491	0.1122	1.0	.
C14	C	0.10000(16)	0.63263(14)	0.23118(14)	1.0	.
H14A	H	0.1847	0.6066	0.2952	1.0	.
H14B	H	-0.0007	0.6364	0.2795	1.0	.
H14C	H	0.1131	0.7258	0.1567	1.0	.
C15	C	0.24996(18)	0.52754(17)	0.07780(15)	1.0	.
H15A	H	0.2476	0.6213	0.0012	1.0	.
H15B	H	0.2510	0.4549	0.0424	1.0	.
H15C	H	0.3441	0.5102	0.1299	1.0	.
C16	C	0.25582(17)	0.24760(15)	0.41604(15)	1.0	.
H16	H	0.2184	0.1637	0.4956	1.0	.
C17	C	0.3885(2)	0.1882(2)	0.3452(2)	1.0	.
H17A	H	0.4328	0.2665	0.2680	1.0	.
H17B	H	0.3475	0.1256	0.3116	1.0	.
H17C	H	0.4701	0.1345	0.4108	1.0	.
C18	C	0.31751(18)	0.33909(16)	0.47742(16)	1.0	.
H18A	H	0.3984	0.2825	0.5426	1.0	.
H18B	H	0.2315	0.3730	0.5249	1.0	.
H18C	H	0.3621	0.4203	0.4040	1.0	.
C19	C	0.53088(17)	0.21584(16)	-0.15548(16)	1.0	.
H19A	H	0.5286	0.2912	-0.2485	1.0	.
H19B	H	0.6259	0.1509	-0.1460	1.0	.
H19C	H	0.5302	0.2577	-0.0892	1.0	.
