data_k15158_config-1
loop_
 _symmetry_equiv_pos_as_xyz
'x, y, z'
'-x, -y, -z'

_cell_length_a	9.3678(3)
_cell_length_b	10.3910(3)
_cell_length_c	10.4510(4)
_cell_angle_alpha	64.4912(18)
_cell_angle_beta	89.139(2)
_cell_angle_gamma	79.154(2)
loop_
 _atom_site_label
 _atom_site_type_symbol
 _atom_site_fract_x
 _atom_site_fract_y
 _atom_site_fract_z
 _atom_site_occupancy
 _atom_site_disorder_group
I1	I	-0.00431(2)	0.51904(2)	0.18334(2)	1.0	.
C1	C	0.5441(3)	0.4104(3)	0.4295(3)	1.0	.
C2	C	0.3971(3)	0.4842(3)	0.4126(3)	1.0	.
C3	C	0.2909(3)	0.4704(3)	0.3258(3)	1.0	.
H3	H	0.3189	0.4127	0.2761	1.0	.
C4	C	0.1497(3)	0.5393(3)	0.3136(3)	1.0	.
C5	C	0.1043(3)	0.6257(3)	0.3868(3)	1.0	.
H5	H	0.0048	0.6712	0.3790	1.0	.
C6	C	0.2034(3)	0.6431(3)	0.4680(3)	1.0	.
H6	H	0.1726	0.7029	0.5151	1.0	.
C7	C	0.3532(3)	0.5735(3)	0.4846(3)	1.0	.
C8	C	0.5853(3)	0.3180(3)	0.3605(3)	1.0	.
C9	C	0.6171(3)	0.2393(3)	0.3023(3)	1.0	.
Si1	Si	0.6544(6)	0.1292(3)	0.2043(4)	1.0	1
C10	C	0.8123(4)	0.1787(5)	0.0913(4)	1.0	1
H10	H	0.7930	0.2875	0.0421	1.0	1
C11	C	0.8198(6)	0.1276(6)	-0.0271(5)	1.0	1
H11A	H	0.9011	0.1591	-0.0847	1.0	1
H11B	H	0.7284	0.1701	-0.0874	1.0	1
H11C	H	0.8347	0.0212	0.0156	1.0	1
C12	C	0.9591(7)	0.1316(8)	0.1754(7)	1.0	1
H12A	H	0.9875	0.0252	0.2194	1.0	1
H12B	H	0.9517	0.1660	0.2495	1.0	1
H12C	H	1.0327	0.1734	0.1113	1.0	1
C13	C	0.6810(5)	-0.0634(4)	0.3462(4)	1.0	1
H13	H	0.5882	-0.0725	0.3949	1.0	1
C14	C	0.7018(6)	-0.1733(5)	0.2816(5)	1.0	1
H14A	H	0.7904	-0.1665	0.2300	1.0	1
H14B	H	0.6175	-0.1513	0.2159	1.0	1
H14C	H	0.7107	-0.2721	0.3578	1.0	1
C15	C	0.8025(8)	-0.1039(6)	0.4615(6)	1.0	1
H15A	H	0.8015	-0.2010	0.5374	1.0	1
H15B	H	0.7866	-0.0326	0.5009	1.0	1
H15C	H	0.8969	-0.1040	0.4200	1.0	1
C16	C	0.4846(5)	0.1771(5)	0.0864(5)	1.0	1
H16	H	0.5025	0.1190	0.0304	1.0	1
C17	C	0.4509(11)	0.3385(10)	-0.0206(11)	1.0	1
H17A	H	0.3688	0.3564	-0.0871	1.0	1
H17B	H	0.5368	0.3634	-0.0734	1.0	1
H17C	H	0.4257	0.3988	0.0304	1.0	1
C18	C	0.3496(5)	0.1388(6)	0.1688(7)	1.0	1
H18A	H	0.3331	0.1883	0.2306	1.0	1
H18B	H	0.3653	0.0333	0.2267	1.0	1
H18C	H	0.2643	0.1703	0.1015	1.0	1
