data_k06143_config-2
loop_
 _symmetry_equiv_pos_as_xyz
'x, y, z'
'-x, -y, -z'

_cell_length_a	8.9992(1)
_cell_length_b	10.4922(1)
_cell_length_c	11.2633(2)
_cell_angle_alpha	108.8144(7)
_cell_angle_beta	95.9468(6)
_cell_angle_gamma	92.1074(7)
loop_
 _atom_site_label
 _atom_site_type_symbol
 _atom_site_fract_x
 _atom_site_fract_y
 _atom_site_fract_z
 _atom_site_occupancy
 _atom_site_disorder_group
C1	C	0.5429(5)	0.9050(4)	0.5592(4)	1.0	.
C2	C	0.6365(5)	0.9356(4)	0.4776(4)	1.0	.
C3	C	0.7719(5)	0.8725(4)	0.4529(4)	1.0	.
C8'	C	0.811(4)	1.008(4)	0.308(4)	1.0	2
S7'	S	0.9327(8)	1.0267(7)	0.2004(6)	1.0	2
C6'	C	1.043(3)	0.904(3)	0.233(3)	1.0	2
I1'	I	1.2237(5)	0.8570(4)	0.1315(4)	1.0	2
C5'	C	0.999(2)	0.8572(19)	0.3182(18)	1.0	2
H5'	H	1.0516	0.7949	0.3483	1.0	2
C4'	C	0.861(4)	0.909(4)	0.363(4)	1.0	2
C9	C	0.6858(6)	1.0605(4)	0.3340(4)	1.0	.
C10	C	0.5927(5)	1.0327(4)	0.4171(4)	1.0	.
C11	C	0.5838(5)	0.8073(4)	0.6191(4)	1.0	.
C12	C	0.6166(5)	0.7266(5)	0.6713(4)	1.0	.
Si1'	Si	0.6796(12)	0.6317(12)	0.7842(10)	1.0	2
C13'	C	0.8786(14)	0.6673(18)	0.8618(15)	1.0	2
H13'	H	0.8893	0.7667	0.9083	1.0	2
C14'	C	0.909(3)	0.601(3)	0.964(2)	1.0	2
H14D	H	0.8854	0.5033	0.9269	1.0	2
H14E	H	0.8457	0.6380	1.0313	1.0	2
H14F	H	1.0145	0.6194	0.9997	1.0	2
C15'	C	0.996(2)	0.644(4)	0.773(2)	1.0	2
H15D	H	1.0952	0.6490	0.8204	1.0	2
H15E	H	0.9946	0.7123	0.7310	1.0	2
H15F	H	0.9758	0.5538	0.7090	1.0	2
C16'	C	0.5352(16)	0.6668(17)	0.8972(14)	1.0	2
H16'	H	0.5515	0.6037	0.9467	1.0	2
C17'	C	0.556(3)	0.807(3)	0.993(3)	1.0	2
H17D	H	0.6276	0.8626	0.9680	1.0	2
H17E	H	0.5934	0.8014	1.0763	1.0	2
H17F	H	0.4592	0.8476	0.9983	1.0	2
C18'	C	0.3738(16)	0.634(2)	0.835(2)	1.0	2
H18D	H	0.3069	0.6846	0.8936	1.0	2
H18E	H	0.3476	0.5374	0.8118	1.0	2
H18F	H	0.3631	0.6606	0.7583	1.0	2
C19'	C	0.640(2)	0.4597(13)	0.6653(13)	1.0	2
H19'	H	0.5357	0.4588	0.6246	1.0	2
C20'	C	0.634(3)	0.3476(17)	0.725(2)	1.0	2
H20D	H	0.6025	0.2609	0.6595	1.0	2
H20E	H	0.5625	0.3677	0.7876	1.0	2
H20F	H	0.7337	0.3426	0.7673	1.0	2
C21'	C	0.737(3)	0.428(3)	0.557(2)	1.0	2
H21D	H	0.8429	0.4421	0.5918	1.0	2
H21E	H	0.7154	0.4879	0.5073	1.0	2
H21F	H	0.7142	0.3339	0.5030	1.0	2
