data_x12556xs_config-2
loop_
 _symmetry_equiv_pos_as_xyz
'x, y, z'
'-x, y+1/2, -z+1/2'
'-x, -y, -z'
'x, -y-1/2, z-1/2'

_cell_length_a	7.2312(2)
_cell_length_b	32.8894(8)
_cell_length_c	7.1873(2)
_cell_angle_alpha	90.00
_cell_angle_beta	107.398(1)
_cell_angle_gamma	90.00
loop_
 _atom_site_label
 _atom_site_type_symbol
 _atom_site_fract_x
 _atom_site_fract_y
 _atom_site_fract_z
 _atom_site_occupancy
 _atom_site_disorder_group
Si1	Si	0.47055(14)	0.33916(2)	0.84501(13)	1.0	.
C1	C	0.4833(4)	0.46183(8)	0.5828(4)	1.0	.
C2	C	0.3885(4)	0.46828(8)	0.3824(4)	1.0	.
C3	C	0.2752(4)	0.43753(8)	0.2633(4)	1.0	.
C4'	C	0.1895(4)	0.44462(8)	0.0698(4)	1.0	2
C5'	C	0.073(3)	0.4174(5)	-0.070(3)	1.0	2
H5'	H	0.0370	0.3908	-0.0429	1.0	2
F1'	F	-0.0879(11)	0.4190(2)	-0.4172(10)	1.0	2
C6'	C	0.020(3)	0.4351(4)	-0.2471(16)	1.0	2
S7'	S	0.0985(12)	0.4849(2)	-0.2638(6)	1.0	2
C8'	C	0.2136(4)	0.48266(8)	-0.0166(4)	1.0	2
C9	C	0.3198(4)	0.51301(8)	0.0949(4)	1.0	.
C10	C	0.4087(4)	0.50712(8)	0.2976(4)	1.0	.
C11	C	0.4703(4)	0.42277(8)	0.6662(4)	1.0	.
C12	C	0.4629(4)	0.38974(9)	0.7360(4)	1.0	.
C13	C	0.6840(6)	0.31226(10)	0.8076(6)	1.0	.
H13A	H	0.6601	0.3076	0.6663	1.0	.
H13B	H	0.7993	0.3300	0.8533	1.0	.
C14	C	0.7281(9)	0.27138(14)	0.9143(8)	1.0	.
H14A	H	0.7563	0.2758	1.0549	1.0	.
H14B	H	0.8405	0.2588	0.8879	1.0	.
H14C	H	0.6156	0.2534	0.8683	1.0	.
C15'	C	0.4992(6)	0.34461(10)	1.1088(5)	1.0	2
C16'	C	0.6646(7)	0.37042(14)	1.2234(6)	1.0	2
H16D	H	0.7369	0.3805	1.1373	1.0	2
H16E	H	0.7506	0.3542	1.3283	1.0	2
H16F	H	0.6144	0.3935	1.2797	1.0	2
C16"	C	0.3679(16)	0.3256(3)	1.1788(14)	1.0	2
H16G	H	0.3761	0.3280	1.3127	1.0	2
H16H	H	0.2677	0.3098	1.0940	1.0	2
C17'	C	0.245(3)	0.3096(5)	0.6964(19)	1.0	2
H17A	H	0.2640	0.2805	0.7328	1.0	2
H17B	H	0.1323	0.3193	0.7357	1.0	2
C18'	C	0.1935(17)	0.3127(3)	0.4746(14)	1.0	2
H18F	H	0.0785	0.2962	0.4142	1.0	2
H18G	H	0.3025	0.3029	0.4325	1.0	2
H18H	H	0.1667	0.3412	0.4349	1.0	2
