data_x12576_config-1
loop_
 _symmetry_equiv_pos_as_xyz
'x, y, z'
'-x, y+1/2, -z+1/2'
'-x, -y, -z'
'x, -y-1/2, z-1/2'

_cell_length_a	7.1556(2)
_cell_length_b	32.3584(10)
_cell_length_c	7.3292(2)
_cell_angle_alpha	90.00
_cell_angle_beta	109.468(1)
_cell_angle_gamma	90.00
loop_
 _atom_site_label
 _atom_site_type_symbol
 _atom_site_fract_x
 _atom_site_fract_y
 _atom_site_fract_z
 _atom_site_occupancy
 _atom_site_disorder_group
Si1	Si	0.50587(13)	0.33427(2)	0.17348(12)	1.0	.
C1	C	0.5152(4)	0.46091(9)	0.4201(4)	1.0	.
C2	C	0.6107(4)	0.46761(9)	0.6202(4)	1.0	.
C3	C	0.7257(4)	0.43615(9)	0.7426(4)	1.0	.
H3	H	0.7428	0.4102	0.6900	1.0	1
C4	C	0.8110(4)	0.44350(9)	0.9354(4)	1.0	1
S5	S	0.9580(3)	0.40883(5)	1.1068(2)	1.0	1
C6	C	0.9763(9)	0.44606(14)	1.2853(6)	1.0	1
F1	F	1.0800(4)	0.43478(10)	1.4680(4)	1.0	1
C7	C	0.887(2)	0.4816(4)	1.2285(15)	1.0	1
H7	H	0.8875	0.5040	1.3125	1.0	1
C8	C	0.7880(4)	0.48224(9)	1.0194(4)	1.0	1
C9	C	0.6816(4)	0.51334(9)	0.9044(4)	1.0	.
H9	H	0.6675	0.5392	0.9602	1.0	1
C10	C	0.5927(4)	0.50714(8)	0.7028(4)	1.0	.
C11	C	0.5230(4)	0.42083(9)	0.3396(4)	1.0	.
C12	C	0.5215(4)	0.38688(9)	0.2721(4)	1.0	.
C13	C	0.5096(5)	0.33632(10)	-0.0795(5)	1.0	.
H13A	H	0.6431	0.3453	-0.0758	1.0	.
H13B	H	0.4883	0.3080	-0.1340	1.0	.
C14	C	0.3565(6)	0.36490(14)	-0.2154(6)	1.0	.
H14A	H	0.2232	0.3561	-0.2223	1.0	.
H14B	H	0.3681	0.3637	-0.3448	1.0	.
H14C	H	0.3796	0.3933	-0.1666	1.0	.
C15	C	0.268(7)	0.3104(12)	0.163(4)	1.0	1
H15A	H	0.2691	0.3071	0.2979	1.0	1
H15B	H	0.1610	0.3301	0.0985	1.0	1
C16	C	0.2138(17)	0.2680(3)	0.0599(14)	1.0	1
H16A	H	0.2042	0.2709	-0.0761	1.0	1
H16B	H	0.0861	0.2587	0.0670	1.0	1
H16C	H	0.3166	0.2477	0.1233	1.0	1
C17	C	0.7211(6)	0.30486(11)	0.3355(5)	1.0	1
H17A	H	0.7041	0.2755	0.2958	1.0	1
H17B	H	0.8422	0.3149	0.3129	1.0	1
C18	C	0.7562(5)	0.30689(11)	0.5499(5)	1.0	1
H18A	H	0.7651	0.3359	0.5910	1.0	1
H18B	H	0.8803	0.2927	0.6201	1.0	1
H18C	H	0.6460	0.2935	0.5780	1.0	1
