data_x12576_config-2
loop_
 _symmetry_equiv_pos_as_xyz
'x, y, z'
'-x, y+1/2, -z+1/2'
'-x, -y, -z'
'x, -y-1/2, z-1/2'

_cell_length_a	7.1556(2)
_cell_length_b	32.3584(10)
_cell_length_c	7.3292(2)
_cell_angle_alpha	90.00
_cell_angle_beta	109.468(1)
_cell_angle_gamma	90.00
loop_
 _atom_site_label
 _atom_site_type_symbol
 _atom_site_fract_x
 _atom_site_fract_y
 _atom_site_fract_z
 _atom_site_occupancy
 _atom_site_disorder_group
Si1	Si	0.50587(13)	0.33427(2)	0.17348(12)	1.0	.
C1	C	0.5152(4)	0.46091(9)	0.4201(4)	1.0	.
C2	C	0.6107(4)	0.46761(9)	0.6202(4)	1.0	.
C3	C	0.7257(4)	0.43615(9)	0.7426(4)	1.0	.
C4'	C	0.8110(4)	0.44350(9)	0.9354(4)	1.0	2
C5'	C	0.935(4)	0.4164(6)	1.085(3)	1.0	2
H5'	H	0.9737	0.3893	1.0618	1.0	2
F1'	F	1.0962(13)	0.4179(2)	1.4284(11)	1.0	2
C6'	C	0.987(3)	0.4339(4)	1.2564(16)	1.0	2
S7'	S	0.9031(14)	0.4848(3)	1.2654(8)	1.0	2
C8'	C	0.7880(4)	0.48224(9)	1.0194(4)	1.0	2
C9	C	0.6816(4)	0.51334(9)	0.9044(4)	1.0	.
C10	C	0.5927(4)	0.50714(8)	0.7028(4)	1.0	.
C11	C	0.5230(4)	0.42083(9)	0.3396(4)	1.0	.
C12	C	0.5215(4)	0.38688(9)	0.2721(4)	1.0	.
C13	C	0.5096(5)	0.33632(10)	-0.0795(5)	1.0	.
H13A	H	0.6431	0.3453	-0.0758	1.0	.
H13B	H	0.4883	0.3080	-0.1340	1.0	.
C14	C	0.3565(6)	0.36490(14)	-0.2154(6)	1.0	.
H14A	H	0.2232	0.3561	-0.2223	1.0	.
H14B	H	0.3681	0.3637	-0.3448	1.0	.
H14C	H	0.3796	0.3933	-0.1666	1.0	.
C15'	C	0.275(10)	0.3112(18)	0.208(7)	1.0	2
H15'	H	0.2476	0.3191	0.3286	1.0	2
C16'	C	0.244(2)	0.2670(4)	0.1474(15)	1.0	2
H16D	H	0.1954	0.2478	0.2270	1.0	2
H16E	H	0.3337	0.2545	0.0849	1.0	2
C16"	C	0.1097(11)	0.3013(2)	0.0437(11)	1.0	2
H16F	H	0.1145	0.3096	-0.0847	1.0	2
H16G	H	-0.0233	0.3029	0.0569	1.0	2
C17'	C	0.7211(6)	0.30486(11)	0.3355(5)	1.0	2
H17'	H	0.7379	0.2767	0.2871	1.0	2
C18'	C	0.7562(5)	0.30689(11)	0.5499(5)	1.0	2
H18D	H	0.6798	0.3273	0.5973	1.0	2
H18E	H	0.7925	0.2811	0.6265	1.0	2
C18"	C	0.8923(9)	0.32256(19)	0.4485(9)	1.0	2
H18F	H	0.9048	0.3529	0.4389	1.0	2
H18G	H	1.0167	0.3071	0.4679	1.0	2
