data_x13065_config-1
loop_
 _symmetry_equiv_pos_as_xyz
'x, y, z'
'-x, -y, -z'

_cell_length_a	6.8372(1)
_cell_length_b	7.4596(1)
_cell_length_c	16.7833(3)
_cell_angle_alpha	99.294(1)
_cell_angle_beta	93.846(1)
_cell_angle_gamma	102.786(1)
loop_
 _atom_site_label
 _atom_site_type_symbol
 _atom_site_fract_x
 _atom_site_fract_y
 _atom_site_fract_z
 _atom_site_occupancy
 _atom_site_disorder_group
Si1	Si	0.21952(7)	0.63661(7)	0.82216(3)	1.0	.
C1	C	0.4280(2)	0.5451(2)	0.57597(9)	1.0	.
C2	C	0.6260(2)	0.6352(2)	0.56350(9)	1.0	.
C3	C	0.7523(2)	0.7723(2)	0.62513(10)	1.0	.
H3	H	0.7039	0.8083	0.6756	1.0	1
C4	C	0.9443(2)	0.8525(2)	0.61148(10)	1.0	1
S5	S	1.12332(11)	1.02420(12)	0.67932(5)	1.0	1
C6	C	1.2980(3)	1.0141(4)	0.60791(15)	1.0	1
F1	F	1.4824(2)	1.1257(2)	0.62968(10)	1.0	1
C7	C	1.2295(13)	0.8975(16)	0.5385(7)	1.0	1
H7	H	1.3087	0.8804	0.4948	1.0	1
C8	C	1.0226(2)	0.7994(2)	0.53644(10)	1.0	1
C9	C	0.9019(2)	0.6713(2)	0.47542(10)	1.0	.
H9	H	0.9530	0.6386	0.4252	1.0	1
C10	C	0.7003(2)	0.5866(2)	0.48655(9)	1.0	.
C11	C	0.3582(2)	0.5871(2)	0.65368(10)	1.0	.
C12	C	0.3025(3)	0.6180(2)	0.71996(10)	1.0	.
C13	C	-0.0613(3)	0.5995(3)	0.81322(12)	1.0	.
H13A	H	-0.1080	0.5824	0.8667	1.0	.
H13B	H	-0.0967	0.7138	0.8000	1.0	.
C14	C	-0.1748(3)	0.4340(3)	0.74994(15)	1.0	.
H14A	H	-0.1339	0.4512	0.6963	1.0	.
H14B	H	-0.3201	0.4246	0.7497	1.0	.
H14C	H	-0.1438	0.3192	0.7629	1.0	.
C15	C	0.3053(3)	0.4508(3)	0.86873(11)	1.0	.
H15A	H	0.2556	0.3297	0.8312	1.0	.
H15B	H	0.4546	0.4795	0.8739	1.0	.
C16	C	0.2357(4)	0.4294(4)	0.95192(13)	1.0	.
H16A	H	0.2809	0.5492	0.9894	1.0	.
H16B	H	0.2933	0.3349	0.9729	1.0	.
H16C	H	0.0881	0.3903	0.9469	1.0	.
C17	C	0.3390(4)	0.8755(3)	0.88260(12)	1.0	1
H17A	H	0.2941	0.9703	0.8556	1.0	1
H17B	H	0.2914	0.8851	0.9372	1.0	1
C18	C	0.5599(5)	0.9175(4)	0.89157(18)	1.0	1
H18	H	0.6243	0.8497	0.9240	1.0	1
C19	C	0.6729(7)	1.0415(6)	0.8580(3)	1.0	1
H19A	H	0.6131	1.1117	0.8252	1.0	1
H19B	H	0.8155	1.0621	0.8662	1.0	1
