data_k06144_config-2
loop_
 _symmetry_equiv_pos_as_xyz
'x, y, z'
'-x, -y, -z'

_cell_length_a	7.0838(1)
_cell_length_b	10.3072(2)
_cell_length_c	11.1758(3)
_cell_angle_alpha	95.7485(9)
_cell_angle_beta	90.0154(9)
_cell_angle_gamma	98.9117(9)
loop_
 _atom_site_label
 _atom_site_type_symbol
 _atom_site_fract_x
 _atom_site_fract_y
 _atom_site_fract_z
 _atom_site_occupancy
 _atom_site_disorder_group
C1	C	0.9474(3)	-0.06908(18)	0.10130(17)	1.0	.
C2	C	0.8392(3)	0.02719(18)	0.06980(18)	1.0	.
C3	C	0.6788(3)	0.05622(19)	0.13696(18)	1.0	.
C8'	C	0.641(2)	0.218(2)	-0.002(2)	1.0	2
S7'	S	0.4925(6)	0.3338(3)	-0.0258(3)	1.0	2
C6'	C	0.3582(12)	0.2888(9)	0.0996(7)	1.0	2
Cl1'	Cl	0.1686(3)	0.3702(2)	0.1345(2)	1.0	2
C5'	C	0.4160(13)	0.1908(10)	0.1540(8)	1.0	2
H5'	H	0.3532	0.1532	0.2204	1.0	2
C4'	C	0.582(4)	0.150(3)	0.101(3)	1.0	2
C9	C	0.7846(3)	0.19453(18)	-0.06386(18)	1.0	.
C10	C	0.8930(3)	0.09798(18)	-0.03350(18)	1.0	.
C11	C	0.8909(3)	-0.13934(19)	0.20385(18)	1.0	.
C12	C	0.8391(3)	-0.19700(19)	0.28931(19)	1.0	.
C13	C	0.6431(3)	-0.4624(2)	0.33994(19)	1.0	.
H13A	H	0.6006	-0.5193	0.4042	1.0	.
H13B	H	0.5314	-0.4619	0.2868	1.0	.
C14	C	0.7965(3)	-0.5218(2)	0.2667(2)	1.0	.
H14A	H	0.8302	-0.4712	0.1980	1.0	.
H14B	H	0.7476	-0.6137	0.2376	1.0	.
H14C	H	0.9102	-0.5186	0.3176	1.0	.
C15	C	0.9026(3)	-0.2938(2)	0.53288(19)	1.0	.
H15A	H	0.8384	-0.3471	0.5944	1.0	.
H15B	H	1.0066	-0.3397	0.4993	1.0	.
C16	C	0.9926(3)	-0.1592(2)	0.5955(2)	1.0	.
H16A	H	1.0675	-0.1082	0.5375	1.0	.
H16B	H	1.0762	-0.1723	0.6617	1.0	.
H16C	H	0.8914	-0.1112	0.6274	1.0	.
C17	C	0.5241(3)	-0.2059(2)	0.4643(2)	1.0	.
H17A	H	0.4617	-0.2514	0.5312	1.0	.
H17B	H	0.5751	-0.1141	0.4964	1.0	.
C18	C	0.3733(3)	-0.2031(2)	0.3656(2)	1.0	.
H18A	H	0.4365	-0.1682	0.2950	1.0	.
H18B	H	0.2811	-0.1465	0.3960	1.0	.
H18C	H	0.3065	-0.2928	0.3432	1.0	.
Si1	Si	0.72649(8)	-0.29052(5)	0.40991(5)	1.0	.
