data_k08080_config-1
loop_
 _symmetry_equiv_pos_as_xyz
'x, y, z'
'-x, y, -z+1/2'
'x+1/2, y+1/2, z'
'-x+1/2, y+1/2, -z+1/2'
'-x, -y, -z'
'x, -y, z-1/2'
'-x+1/2, -y+1/2, -z'
'x+1/2, -y+1/2, z-1/2'

_cell_length_a	32.0712(4)
_cell_length_b	14.2599(2)
_cell_length_c	8.2937(1)
_cell_angle_alpha	90.00
_cell_angle_beta	98.2712(6)
_cell_angle_gamma	90.00
loop_
 _atom_site_label
 _atom_site_type_symbol
 _atom_site_fract_x
 _atom_site_fract_y
 _atom_site_fract_z
 _atom_site_occupancy
 _atom_site_disorder_group
Si1	Si	0.158182(14)	0.26240(4)	0.46423(7)	1.0	.
F1	F	0.03327(4)	0.76629(7)	0.66802(16)	1.0	.
F2	F	0.06851(3)	0.60281(7)	0.58833(14)	1.0	.
C1	C	0.01775(5)	0.68340(11)	0.7085(2)	1.0	.
C2	C	0.03513(5)	0.60199(11)	0.6704(2)	1.0	.
C3	C	0.01854(4)	0.51382(10)	0.71020(18)	1.0	.
C4	C	0.03648(4)	0.42940(10)	0.67502(18)	1.0	.
H4	H	0.0609	0.4297	0.6246	1.0	.
C5	C	0.01895(4)	0.34331(9)	0.71291(17)	1.0	.
C6	C	0.03754(4)	0.25623(10)	0.67792(18)	1.0	.
C7	C	0.01899(4)	0.17111(10)	0.71363(18)	1.0	.
C8	C	0.03689(5)	0.08303(11)	0.6790(2)	1.0	.
H8	H	0.0617	0.0817	0.6312	1.0	.
C9	C	0.01865(6)	0.00165(12)	0.7138(2)	1.0	.
H9	H	0.0309	-0.0556	0.6898	1.0	.
C10	C	0.07566(5)	0.25695(10)	0.6061(2)	1.0	.
C11	C	0.10783(5)	0.25802(11)	0.5477(2)	1.0	.
C12	C	0.17656(6)	0.38743(15)	0.4765(2)	1.0	.
H12A	H	0.1863	0.4023	0.5911	1.0	.
H12B	H	0.2009	0.3927	0.4178	1.0	.
C13	C	0.14455(6)	0.46036(14)	0.4098(3)	1.0	.
H13A	H	0.1198	0.4542	0.4659	1.0	.
H13B	H	0.1355	0.4472	0.2941	1.0	.
C14	C	0.15998(8)	0.56042(16)	0.4266(3)	1.0	.
H14A	H	0.1660	0.5767	0.5412	1.0	.
H14B	H	0.1384	0.6021	0.3728	1.0	.
H14C	H	0.1854	0.5668	0.3767	1.0	.
C15	C	0.14853(6)	0.22175(14)	0.2482(3)	1.0	.
H15A	H	0.1291	0.2659	0.1857	1.0	.
H15B	H	0.1752	0.2246	0.2040	1.0	.
C16	C	0.13064(7)	0.12370(15)	0.2202(3)	1.0	.
H16A	H	0.1513	0.0785	0.2725	1.0	.
H16B	H	0.1053	0.1184	0.2731	1.0	.
C17	C	0.11944(9)	0.0979(2)	0.0420(3)	1.0	.
H17A	H	0.0982	0.1409	-0.0101	1.0	.
H17B	H	0.1085	0.0344	0.0331	1.0	.
H17C	H	0.1444	0.1019	-0.0111	1.0	.
C18	C	0.19436(12)	0.1775(3)	0.5812(4)	1.0	1
H18A	H	0.1817	0.1149	0.5684	1.0	1
H18B	H	0.2208	0.1759	0.5348	1.0	1
C19	C	0.20424(11)	0.1998(3)	0.7614(4)	1.0	1
H19A	H	0.2190	0.2601	0.7739	1.0	1
H19B	H	0.1776	0.2071	0.8052	1.0	1
C20	C	0.23071(14)	0.1273(4)	0.8621(5)	1.0	1
H20A	H	0.2127	0.0878	0.9177	1.0	1
H20B	H	0.2512	0.1585	0.9419	1.0	1
H20C	H	0.2453	0.0889	0.7915	1.0	1
