data_k15150s_config-2
loop_
 _symmetry_equiv_pos_as_xyz
'x, y, z'
'-x, -y, -z'

_cell_length_a	9.765(2)
_cell_length_b	10.190(2)
_cell_length_c	14.858(3)
_cell_angle_alpha	93.36(3)
_cell_angle_beta	97.76(3)
_cell_angle_gamma	110.32(3)
loop_
 _atom_site_label
 _atom_site_type_symbol
 _atom_site_fract_x
 _atom_site_fract_y
 _atom_site_fract_z
 _atom_site_occupancy
 _atom_site_disorder_group
C1	C	0.5967(4)	0.0314(4)	0.5860(3)	1.0	.
C3'	C	0.4208(4)	0.0848(4)	0.4742(3)	1.0	2
S1'	S	0.3183(3)	0.1847(3)	0.44132(19)	1.0	2
C2'	C	0.5178(4)	0.1180(4)	0.5586(3)	1.0	2
C4'	C	0.4940(13)	0.2434(11)	0.5956(7)	1.0	2
H4'	H	0.5413	0.2872	0.6554	1.0	2
C5'	C	0.4071(4)	0.2954(4)	0.5458(2)	1.0	2
C6'	C	0.3642(4)	0.4158(4)	0.5630(2)	1.0	2
S2'	S	0.2318(4)	0.4392(4)	0.4790(2)	1.0	2
C7'	C	0.4131(15)	0.5209(13)	0.6349(8)	1.0	2
H7'	H	0.4875	0.5274	0.6851	1.0	2
C8'	C	0.339(3)	0.619(2)	0.6253(17)	1.0	2
C9'	C	0.365(2)	0.7399(19)	0.6853(13)	1.0	2
H9'	H	0.4378	0.7644	0.7392	1.0	2
C10'	C	0.281(3)	0.822(2)	0.6628(13)	1.0	2
S3'	S	0.2847(4)	0.9740(3)	0.7249(2)	1.0	2
C11'	C	0.166(4)	1.003(3)	0.641(2)	1.0	2
H11'	H	0.1399	1.0846	0.6437	1.0	2
C12'	C	0.1098(15)	0.8980(13)	0.5703(9)	1.0	2
H12'	H	0.0352	0.8937	0.5208	1.0	2
C13'	C	0.179(3)	0.794(2)	0.5804(14)	1.0	2
C14'	C	0.159(3)	0.677(2)	0.5196(15)	1.0	2
H14'	H	0.0915	0.6566	0.4637	1.0	2
C15'	C	0.239(4)	0.592(3)	0.5426(17)	1.0	2
C16	C	0.6898(5)	0.0584(5)	0.6728(3)	1.0	.
C17	C	0.7666(6)	0.0767(5)	0.7463(3)	1.0	.
Si1'	Si	0.87800(18)	0.09025(16)	0.85813(10)	1.0	2
C18'	C	0.9327(13)	-0.0746(10)	0.8473(8)	1.0	2
C19'	C	0.8119(15)	-0.2240(11)	0.8069(9)	1.0	2
C20'	C	0.7076(14)	-0.2634(15)	0.8763(9)	1.0	2
C21'	C	0.8705(16)	-0.3294(14)	0.7827(10)	1.0	2
C22'	C	1.0430(13)	0.2559(12)	0.8860(8)	1.0	2
C23'	C	1.1507(13)	0.2951(15)	0.8200(9)	1.0	2
C24'	C	1.2918(16)	0.4367(19)	0.8689(11)	1.0	2
C25'	C	1.077(2)	0.341(2)	0.7296(10)	1.0	2
C26'	C	0.7766(16)	0.0879(14)	0.9575(8)	1.0	2
C27'	C	0.717(2)	0.2055(18)	0.9775(9)	1.0	2
C28'	C	0.701(2)	0.285(2)	1.0591(11)	1.0	2
C29'	C	0.711(2)	0.2976(18)	0.9038(11)	1.0	2
