data_k15169_config-1
loop_
 _symmetry_equiv_pos_as_xyz
'x, y, z'
'-x, -y, -z'

_cell_length_a	8.0938(18)
_cell_length_b	11.616(3)
_cell_length_c	16.821(4)
_cell_angle_alpha	105.963(9)
_cell_angle_beta	101.942(9)
_cell_angle_gamma	94.874(9)
loop_
 _atom_site_label
 _atom_site_type_symbol
 _atom_site_fract_x
 _atom_site_fract_y
 _atom_site_fract_z
 _atom_site_occupancy
 _atom_site_disorder_group
Si1	Si	0.27910(18)	0.65277(12)	0.19335(8)	1.0	.
C1	C	0.4578(4)	0.5342(3)	0.4236(2)	1.0	.
C2	C	0.3339(4)	0.4705(3)	0.4495(2)	1.0	1
C3	C	0.3759(4)	0.4370(3)	0.5248(2)	1.0	1
C4	C	0.2097(11)	0.3744(10)	0.5259(6)	1.0	1
H4	H	0.1966	0.3414	0.5704	1.0	1
C5	C	0.0763(19)	0.367(5)	0.4591(19)	1.0	1
S1	S	0.1321(3)	0.4324(2)	0.38726(13)	1.0	1
C6	C	-0.0934(15)	0.309(3)	0.4504(14)	1.0	1
S2	S	-0.1494(3)	0.2437(2)	0.52213(15)	1.0	1
C7	C	-0.2277(11)	0.2986(10)	0.3841(6)	1.0	1
H7	H	-0.2177	0.3282	0.3377	1.0	1
C8	C	-0.3887(14)	0.239(2)	0.3901(9)	1.0	1
C9	C	-0.5457(15)	0.209(2)	0.3337(10)	1.0	1
H9	H	-0.5649	0.2340	0.2836	1.0	1
C10	C	-0.6790(16)	0.141(4)	0.3524(14)	1.0	1
S3	S	-0.8864(5)	0.1035(6)	0.2939(3)	1.0	1
C11	C	-0.9395(13)	0.054(3)	0.3731(11)	1.0	1
C12	C	-0.8048(15)	0.0435(18)	0.4316(10)	1.0	1
H12	H	-0.8112	-0.0018	0.4703	1.0	1
C13	C	-0.647(2)	0.111(5)	0.4277(19)	1.0	1
C14	C	-0.4915(15)	0.143(3)	0.4850(11)	1.0	1
H14	H	-0.4746	0.1237	0.5371	1.0	1
C15	C	-0.3559(11)	0.206(2)	0.4644(9)	1.0	1
F1	F	-1.0912(9)	-0.0098(12)	0.3722(6)	1.0	1
C16	C	0.4104(5)	0.5718(4)	0.3478(3)	1.0	.
C17	C	0.3618(6)	0.6024(4)	0.2865(3)	1.0	.
C18	C	0.3579(9)	0.8148(6)	0.2210(4)	1.0	.
H18	H	0.2919	0.8506	0.2634	1.0	.
C19	C	0.5251(7)	0.8584(5)	0.2675(4)	1.0	.
H19A	H	0.6036	0.8322	0.2312	1.0	.
H19B	H	0.5488	0.8268	0.3163	1.0	.
H19C	H	0.5411	0.9471	0.2878	1.0	.
C20	C	0.2874(9)	0.8669(6)	0.1472(4)	1.0	.
H20A	H	0.3288	0.9540	0.1646	1.0	.
H20B	H	0.1623	0.8534	0.1336	1.0	.
H20C	H	0.3268	0.8262	0.0968	1.0	.
C21	C	0.0402(10)	0.6235(18)	0.1667(12)	1.0	1
H21	H	0.0057	0.6423	0.1117	1.0	1
C22	C	-0.0386(13)	0.4846(9)	0.1443(6)	1.0	1
H22A	H	0.0082	0.4536	0.1916	1.0	1
H22B	H	-0.0092	0.4376	0.0925	1.0	1
H22C	H	-0.1631	0.4771	0.1351	1.0	1
C23	C	-0.0510(18)	0.7051(14)	0.2256(7)	1.0	1
H23A	H	-0.1634	0.7113	0.1929	1.0	1
H23B	H	0.0171	0.7859	0.2505	1.0	1
H23C	H	-0.0654	0.6706	0.2712	1.0	1
C24	C	0.336(2)	0.5471(8)	0.1022(7)	1.0	1
H24A	H	0.2918	0.5695	0.0500	1.0	1
H24B	H	0.4620	0.5554	0.1123	1.0	1
C25	C	0.2644(12)	0.4153(9)	0.0882(6)	1.0	1
H25A	H	0.2992	0.3981	0.1433	1.0	1
H25B	H	0.1383	0.4083	0.0743	1.0	1
C26	C	0.3110(12)	0.3174(8)	0.0220(6)	1.0	1
H26A	H	0.2756	0.3333	-0.0335	1.0	1
H26B	H	0.4369	0.3231	0.0356	1.0	1
C27	C	0.2368(11)	0.1912(8)	0.0118(5)	1.0	1
H27A	H	0.1109	0.1863	-0.0003	1.0	1
H27B	H	0.2745	0.1749	0.0669	1.0	1
C28	C	0.2808(12)	0.0883(9)	-0.0585(6)	1.0	1
H28A	H	0.2383	0.1028	-0.1139	1.0	1
H28B	H	0.4068	0.0961	-0.0480	1.0	1
C29	C	0.2152(14)	-0.0374(11)	-0.0671(7)	1.0	1
H29A	H	0.0892	-0.0501	-0.0871	1.0	1
H29B	H	0.2430	-0.0498	-0.0102	1.0	1
C30	C	0.2834(13)	-0.1298(9)	-0.1263(6)	1.0	1
H30A	H	0.4098	-0.1160	-0.1085	1.0	1
H30B	H	0.2493	-0.1224	-0.1844	1.0	1
C31	C	0.2172(14)	-0.2549(10)	-0.1269(7)	1.0	1
H31A	H	0.2463	-0.2610	-0.0689	1.0	1
H31B	H	0.2693	-0.3145	-0.1636	1.0	1
H31C	H	0.0928	-0.2709	-0.1487	1.0	1
