data_k15192x_config-2
loop_
 _symmetry_equiv_pos_as_xyz
'x, y, z'
'-x, -y, -z'

_cell_length_a	10.1804(6)
_cell_length_b	17.6978(12)
_cell_length_c	24.0642(16)
_cell_angle_alpha	94.496(2)
_cell_angle_beta	101.532(2)
_cell_angle_gamma	100.166(2)
loop_
 _atom_site_label
 _atom_site_type_symbol
 _atom_site_fract_x
 _atom_site_fract_y
 _atom_site_fract_z
 _atom_site_occupancy
 _atom_site_disorder_group
Si1A	Si	0.60147(18)	0.28257(10)	1.16898(7)	1.0	.
C1A	C	0.5131(4)	0.4449(2)	1.04006(14)	1.0	.
C2C	C	0.3783(14)	0.5150(7)	0.9713(5)	1.0	2
C3C	C	0.3741(14)	0.4541(7)	1.0061(5)	1.0	2
C4C	C	0.2386(10)	0.4154(7)	1.0027(5)	1.0	2
H4C	H	0.2160	0.3741	1.0242	1.0	2
C5C	C	0.1436(7)	0.4428(13)	0.9659(10)	1.0	2
S1C	S	0.2183(3)	0.51338(15)	0.92905(12)	1.0	2
C6C	C	-0.0034(6)	0.4153(4)	0.9504(3)	1.0	2
S2C	S	-0.0846(3)	0.34303(14)	0.98491(11)	1.0	2
C7C	C	-0.0940(9)	0.4425(4)	0.9138(3)	1.0	2
H7C	H	-0.0678	0.4821	0.8915	1.0	2
C8C	C	-0.2341(11)	0.4083(6)	0.9104(4)	1.0	2
C9C	C	-0.3512(8)	0.4238(5)	0.8768(4)	1.0	2
H9C	H	-0.3454	0.4620	0.8513	1.0	2
C10C	C	-0.4769(8)	0.3827(4)	0.8810(3)	1.0	2
S3C	S	-0.6369(2)	0.39262(19)	0.84316(12)	1.0	2
C11C	C	-0.7131(7)	0.3224(5)	0.8774(4)	1.0	2
C12C	C	-0.6307(8)	0.2920(4)	0.9145(3)	1.0	2
H12C	H	-0.6607	0.2525	0.9363	1.0	2
C13C	C	-0.4888(8)	0.3258(5)	0.9183(3)	1.0	2
C14C	C	-0.3722(8)	0.3093(5)	0.9522(4)	1.0	2
H14C	H	-0.3786	0.2710	0.9776	1.0	2
C15C	C	-0.2448(10)	0.3511(6)	0.9478(4)	1.0	2
F1C	F	-0.8505(7)	0.3036(6)	0.8639(4)	1.0	2
C16A	C	0.5303(5)	0.3895(3)	1.08000(19)	1.0	.
C17A	C	0.5523(5)	0.3440(3)	1.1137(2)	1.0	.
C18A	C	0.7825(6)	0.3284(4)	1.2045(2)	1.0	.
H18A	H	0.7855	0.3830	1.2182	1.0	.
H18B	H	0.8108	0.3020	1.2384	1.0	.
C19A	C	0.8840(6)	0.3261(4)	1.1675(3)	1.0	.
H19A	H	0.8503	0.3470	1.1315	1.0	.
H19B	H	0.8891	0.2715	1.1576	1.0	.
C20A	C	1.0253(7)	0.3705(4)	1.1939(3)	1.0	.
H20A	H	1.0574	0.3525	1.2313	1.0	.
H20B	H	1.0225	0.4260	1.2008	1.0	.
C21A	C	1.1259(7)	0.3609(4)	1.1564(3)	1.0	.
H21A	H	1.1394	0.3074	1.1541	1.0	.
H21B	H	1.2135	0.3959	1.1728	1.0	.
H21C	H	1.0898	0.3733	1.1180	1.0	.
C22A	C	0.4904(6)	0.2851(3)	1.2199(2)	1.0	.
H22A	H	0.3958	0.2605	1.1999	1.0	.
H22B	H	0.5196	0.2536	1.2506	1.0	.
C23A	C	0.4889(6)	0.3655(4)	1.2472(2)	1.0	.
H23A	H	0.5830	0.3900	1.2678	1.0	.
H23B	H	0.4606	0.3974	1.2166	1.0	.
C24A	C	0.3952(7)	0.3661(4)	1.2882(3)	1.0	.
H24A	H	0.4307	0.3407	1.3217	1.0	.
H24B	H	0.3036	0.3356	1.2693	1.0	.
C25A	C	0.3813(10)	0.4469(5)	1.3085(4)	1.0	.
H25A	H	0.4722	0.4786	1.3244	1.0	.
H25B	H	0.3273	0.4444	1.3380	1.0	.
H25C	H	0.3353	0.4699	1.2762	1.0	.
C26A	C	0.5806(8)	0.1810(4)	1.1343(3)	1.0	.
H26A	H	0.6477	0.1558	1.1579	1.0	.
H26B	H	0.4884	0.1528	1.1355	1.0	.
C27A	C	0.5967(10)	0.1707(5)	1.0758(4)	1.0	.
H27A	H	0.6860	0.2020	1.0739	1.0	.
H27B	H	0.5249	0.1923	1.0516	1.0	.
C28A	C	0.5896(11)	0.0884(5)	1.0495(5)	1.0	.
H28A	H	0.5110	0.0539	1.0587	1.0	.
H28B	H	0.5732	0.0870	1.0075	1.0	.
C29A	C	0.7120(12)	0.0593(6)	1.0694(5)	1.0	.
H29A	H	0.7922	0.0984	1.0680	1.0	.
H29B	H	0.7108	0.0121	1.0450	1.0	.
H29C	H	0.7163	0.0477	1.1088	1.0	.
Si1B	Si	-0.12660(18)	0.08987(10)	0.85749(6)	1.0	.
C1D	C	-0.1287(12)	0.2399(4)	0.5886(7)	1.0	2
C2D	C	0.0038(14)	0.2523(5)	0.6212(7)	1.0	2
S1D	S	0.1534(4)	0.29317(17)	0.60554(12)	1.0	2
C5D	C	0.2483(5)	0.2799(2)	0.67061(16)	1.0	2
C4D	C	0.1672(12)	0.2460(5)	0.7039(4)	1.0	2
H4D	H	0.2009	0.2348	0.7414	1.0	2
C3D	C	0.0262(16)	0.2293(5)	0.6764(8)	1.0	2
C30D	C	-0.0834(12)	0.1926(5)	0.7009(7)	1.0	2
C31D	C	-0.2143(11)	0.1818(5)	0.6659(5)	1.0	2
S4D	S	-0.3635(3)	0.13996(15)	0.68272(12)	1.0	2
C34D	C	-0.4589(8)	0.1531(6)	0.6161(9)	1.0	2
C33D	C	-0.3793(9)	0.1870(5)	0.5840(4)	1.0	2
H33D	H	-0.4136	0.1983	0.5465	1.0	2
C32D	C	-0.2365(12)	0.2049(4)	0.6112(5)	1.0	2
C6D	C	0.3962(8)	0.3080(5)	0.6795(5)	1.0	2
S2D	S	0.4629(3)	0.34626(17)	0.62384(11)	1.0	2
C7D	C	0.4926(9)	0.3081(7)	0.7256(4)	1.0	2
H7D	H	0.4738	0.2889	0.7596	1.0	2
C8D	C	0.6287(11)	0.3401(15)	0.7194(7)	1.0	2
C9D	C	0.7519(9)	0.3470(14)	0.7582(6)	1.0	2
H9D	H	0.7542	0.3305	0.7949	1.0	2
C10D	C	0.8710(9)	0.3783(14)	0.7425(6)	1.0	2
S3D	S	1.0364(3)	0.3986(2)	0.78471(13)	1.0	2
C11D	C	1.0973(9)	0.4352(19)	0.7297(7)	1.0	2
C12D	C	1.0073(11)	0.4366(11)	0.6827(6)	1.0	2
H12D	H	1.0288	0.4559	0.6492	1.0	2
C13D	C	0.8709(9)	0.4048(13)	0.6889(6)	1.0	2
C14D	C	0.7490(9)	0.3942(12)	0.6481(6)	1.0	2
H14D	H	0.7476	0.4087	0.6109	1.0	2
C15D	C	0.628(1)	0.3611(14)	0.6641(7)	1.0	2
F1D	F	1.2333(10)	0.459(2)	0.7395(10)	1.0	2
C16B	C	-0.0972(5)	0.1650(3)	0.7504(2)	1.0	.
C17B	C	-0.1042(6)	0.1383(3)	0.7945(2)	1.0	.
C18B	C	0.0268(8)	0.1285(5)	0.9147(3)	1.0	.
H18C	H	0.1089	0.1275	0.8987	1.0	.
H18D	H	0.0265	0.1832	0.9268	1.0	.
C19B	C	0.0388(10)	0.0865(6)	0.9658(4)	1.0	.
H19C	H	0.0328	0.0312	0.9531	1.0	.
H19D	H	-0.0408	0.0903	0.9829	1.0	.
C20B	C	0.1740(9)	0.1151(6)	1.0142(4)	1.0	.
H20C	H	0.1891	0.0740	1.0390	1.0	.
H20D	H	0.2543	0.1281	0.9969	1.0	.
C21B	C	0.1556(12)	0.1825(5)	1.0472(4)	1.0	.
H21D	H	0.1529	0.2251	1.0235	1.0	.
H21E	H	0.2319	0.1977	1.0805	1.0	.
H21F	H	0.0696	0.1707	1.0600	1.0	.
C22B	C	-0.1562(8)	-0.0141(4)	0.8342(3)	1.0	.
H22C	H	-0.1554	-0.0414	0.8686	1.0	.
H22D	H	-0.2496	-0.0294	0.8100	1.0	.
C23B	C	-0.0642(8)	-0.0429(4)	0.8033(3)	1.0	.
H23C	H	0.0290	-0.0276	0.8276	1.0	.
H23D	H	-0.0648	-0.0153	0.7691	1.0	.
C24B	C	-0.0865(10)	-0.1277(5)	0.7837(4)	1.0	.
H24C	H	-0.0774	-0.1552	0.8181	1.0	.
H24D	H	-0.1824	-0.1442	0.7621	1.0	.
C25B	C	-0.0039(13)	-0.1535(6)	0.7502(5)	1.0	.
H25D	H	-0.0231	-0.1346	0.7128	1.0	.
H25E	H	-0.0223	-0.2101	0.7453	1.0	.
H25F	H	0.0923	-0.1339	0.7689	1.0	.
C26B	C	-0.2798(5)	0.1154(3)	0.8797(2)	1.0	.
H26C	H	-0.2905	0.0907	0.9145	1.0	.
H26D	H	-0.2616	0.1720	0.8904	1.0	.
C27B	C	-0.4139(8)	0.0930(5)	0.8365(3)	1.0	.
H27C	H	-0.4009	0.1149	0.8010	1.0	.
H27D	H	-0.4343	0.0360	0.8277	1.0	.
C28B	C	-0.5329(10)	0.1160(6)	0.8514(4)	1.0	.
H28C	H	-0.5138	0.1730	0.8591	1.0	.
H28D	H	-0.5447	0.0953	0.8875	1.0	.
C29B	C	-0.6627(10)	0.0923(6)	0.8100(4)	1.0	.
H29D	H	-0.6545	0.1133	0.7741	1.0	.
H29E	H	-0.7344	0.1120	0.8250	1.0	.
H29F	H	-0.6864	0.0357	0.8032	1.0	.
C35D	C	-0.6085(9)	0.1290(4)	0.5971(5)	1.0	2
S5D	S	-0.6734(5)	0.0808(3)	0.6497(2)	1.0	2
C36D	C	-0.7070(11)	0.1363(5)	0.5537(4)	1.0	2
H36D	H	-0.6894	0.1610	0.5215	1.0	2
C37D	C	-0.8427(12)	0.1036(5)	0.5595(6)	1.0	2
C38D	C	-0.9673(10)	0.1011(5)	0.5229(5)	1.0	2
H38D	H	-0.9718	0.1230	0.4879	1.0	2
C39D	C	-1.0845(9)	0.0662(4)	0.5381(4)	1.0	2
S6D	S	-1.2520(3)	0.0557(2)	0.49902(17)	1.0	2
C40D	C	-1.3098(9)	0.0095(5)	0.5513(5)	1.0	2
C41D	C	-1.2176(10)	0.0001(5)	0.5959(4)	1.0	2
H41D	H	-1.2375	-0.0247	0.6277	1.0	2
C42D	C	-1.0821(9)	0.0331(5)	0.5894(4)	1.0	2
C43D	C	-0.9587(9)	0.0348(5)	0.6271(5)	1.0	2
H43D	H	-0.9550	0.0127	0.6620	1.0	2
C44D	C	-0.8393(11)	0.0706(5)	0.6111(6)	1.0	2
F2D	F	-1.4459(9)	-0.0143(6)	0.5426(7)	1.0	2
C45B	C	-0.1166(5)	0.2645(3)	0.5301(2)	1.0	.
C46B	C	-0.1178(6)	0.2803(3)	0.4821(2)	1.0	.
Si2D	Si	-0.1200(11)	0.2917(6)	0.4066(8)	1.0	2
C47D	C	0.0208(18)	0.2540(13)	0.3873(12)	1.0	2
H47C	H	0.0098	0.1986	0.3928	1.0	2
H47D	H	0.0189	0.2583	0.3464	1.0	2
C48D	C	0.1660(16)	0.2999(14)	0.4251(11)	1.0	2
H48C	H	0.1458	0.3499	0.4388	1.0	2
H48D	H	0.1795	0.2717	0.4591	1.0	2
C49D	C	0.3028(18)	0.3211(11)	0.4152(12)	1.0	2
H49C	H	0.3528	0.3669	0.4423	1.0	2
H49D	H	0.2964	0.3361	0.3761	1.0	2
C50D	C	0.384(3)	0.2577(19)	0.4217(12)	1.0	2
H50D	H	0.4748	0.2758	0.4145	1.0	2
H50E	H	0.3928	0.2433	0.4606	1.0	2
H50F	H	0.3363	0.2125	0.3943	1.0	2
C51D	C	-0.117(2)	0.3969(8)	0.4007(9)	1.0	2
H51C	H	-0.0263	0.4278	0.4207	1.0	2
H51D	H	-0.1318	0.4060	0.3600	1.0	2
C52D	C	-0.233(2)	0.4223(11)	0.4283(11)	1.0	2
H52C	H	-0.3231	0.3966	0.4043	1.0	2
H52D	H	-0.2266	0.4038	0.4664	1.0	2
C53D	C	-0.227(6)	0.5091(14)	0.4352(19)	1.0	2
H53C	H	-0.1307	0.5343	0.4390	1.0	2
H53D	H	-0.2784	0.5216	0.3986	1.0	2
C54D	C	-0.274(4)	0.5457(14)	0.478(1)	1.0	2
H54D	H	-0.2608	0.6012	0.4748	1.0	2
H54E	H	-0.3711	0.5245	0.4745	1.0	2
H54F	H	-0.2221	0.5373	0.5153	1.0	2
C55D	C	-0.2778(17)	0.2291(8)	0.3602(7)	1.0	2
H55C	H	-0.3593	0.2482	0.3674	1.0	2
H55D	H	-0.2751	0.2328	0.3196	1.0	2
C56D	C	-0.290(3)	0.1483(11)	0.3708(11)	1.0	2
H56C	H	-0.2713	0.1451	0.4124	1.0	2
H56D	H	-0.2233	0.1248	0.3544	1.0	2
C57D	C	-0.444(2)	0.1023(12)	0.3418(8)	1.0	2
H57C	H	-0.4673	0.0554	0.3604	1.0	2
H57D	H	-0.5110	0.1356	0.3449	1.0	2
C58D	C	-0.442(3)	0.0817(13)	0.2822(7)	1.0	2
H58D	H	-0.5329	0.0534	0.2620	1.0	2
H58E	H	-0.4180	0.1288	0.2646	1.0	2
H58F	H	-0.3746	0.0491	0.2800	1.0	2
