data_k16057_config-2
loop_
 _symmetry_equiv_pos_as_xyz
'x, y, z'
'-x, -y, -z'

_cell_length_a	10.5389(2)
_cell_length_b	17.7893(3)
_cell_length_c	18.9721(3)
_cell_angle_alpha	70.2181(7)
_cell_angle_beta	82.0521(8)
_cell_angle_gamma	86.4869(8)
loop_
 _atom_site_label
 _atom_site_type_symbol
 _atom_site_fract_x
 _atom_site_fract_y
 _atom_site_fract_z
 _atom_site_occupancy
 _atom_site_disorder_group
Si1	Si	0.39677(5)	0.82812(3)	0.18178(3)	1.0	.
Si2	Si	0.09542(5)	0.65867(3)	0.83840(3)	1.0	.
C1'	C	0.282(5)	0.7612(9)	0.4306(7)	1.0	2
C2'	C	0.248(4)	0.8213(7)	0.4614(7)	1.0	2
S3'	S	0.2252(4)	0.9215(2)	0.41006(17)	1.0	2
C4'	C	0.200(7)	0.9481(8)	0.4916(6)	1.0	2
C5'	C	0.1848(10)	0.8813(5)	0.5531(4)	1.0	2
F1'	F	0.1585(5)	0.8821(3)	0.6257(3)	1.0	2
C6'	C	0.218(5)	0.8084(7)	0.5399(7)	1.0	2
C7'	C	0.227(5)	0.7295(8)	0.5907(7)	1.0	2
C8'	C	0.256(3)	0.6691(6)	0.5595(7)	1.0	2
S9'	S	0.2739(4)	0.5669(2)	0.60927(17)	1.0	2
C10'	C	0.296(5)	0.5427(8)	0.5264(6)	1.0	2
C11'	C	0.3115(11)	0.6105(5)	0.4656(4)	1.0	2
F2'	F	0.3373(5)	0.6093(3)	0.3937(3)	1.0	2
C12'	C	0.289(5)	0.6827(7)	0.4811(7)	1.0	2
C13'	C	0.335(4)	0.4621(6)	0.5266(8)	1.0	2
S14'	S	0.37343(16)	0.43797(9)	0.44491(9)	1.0	2
C15'	C	0.381(2)	0.3366(6)	0.4955(6)	1.0	2
C16'	C	0.417(3)	0.2750(7)	0.4679(9)	1.0	2
H16'	H	0.4365	0.2847	0.4152	1.0	2
C17'	C	0.425(6)	0.1984(9)	0.5195(9)	1.0	2
C18'	C	0.4590(13)	0.1286(6)	0.5004(5)	1.0	2
H18'	H	0.4798	0.1284	0.4501	1.0	2
C19'	C	0.458(6)	0.0622(8)	0.5624(9)	1.0	2
H19'	H	0.4765	0.0100	0.5605	1.0	2
S20'	S	0.4203(5)	0.0832(2)	0.64559(17)	1.0	2
C21'	C	0.396(5)	0.1838(8)	0.5984(10)	1.0	2
C22'	C	0.362(2)	0.2466(6)	0.6263(7)	1.0	2
H22'	H	0.3429	0.2373	0.6790	1.0	2
C23'	C	0.356(2)	0.3232(5)	0.5743(6)	1.0	2
C24'	C	0.3284(6)	0.3965(3)	0.5904(4)	1.0	2
H24'	H	0.3075	0.3990	0.6400	1.0	2
C25'	C	0.158(5)	1.0284(6)	0.4891(9)	1.0	2
S26'	S	0.11569(16)	1.05450(9)	0.56987(9)	1.0	2
C27'	C	0.104(2)	1.1556(6)	0.5173(6)	1.0	2
C28'	C	0.073(3)	1.2179(7)	0.5442(8)	1.0	2
H28'	H	0.0485	1.2095	0.5963	1.0	2
C29'	C	0.080(3)	1.2946(7)	0.4900(9)	1.0	2
C30'	C	0.0318(14)	1.3626(7)	0.5080(6)	1.0	2
H30'	H	-0.0001	1.3622	0.5575	1.0	2
C31'	C	0.037(4)	1.4296(7)	0.4442(8)	1.0	2
H31'	H	0.0189	1.4821	0.4455	1.0	2
S32'	S	0.0795(5)	1.4080(2)	0.36112(17)	1.0	2
C33'	C	0.092(4)	1.3067(7)	0.4109(9)	1.0	2
C34'	C	0.127(3)	1.2425(6)	0.3859(8)	1.0	2
H34'	H	0.1455	1.2504	0.3335	1.0	2
C35'	C	0.133(2)	1.1668(5)	0.4388(6)	1.0	2
C36'	C	0.1644(6)	1.0933(3)	0.4251(4)	1.0	2
H36'	H	0.1875	1.0900	0.3760	1.0	2
C37	C	0.30598(16)	0.79251(10)	0.34898(10)	1.0	.
C38	C	0.33759(17)	0.80731(11)	0.28237(10)	1.0	.
C39	C	0.47667(19)	0.92718(12)	0.14575(11)	1.0	.
H39A	H	0.5496	0.9245	0.1744	1.0	.
H39B	H	0.5117	0.9382	0.0921	1.0	.
C40	C	0.38671(19)	0.99674(11)	0.15220(12)	1.0	.
H40A	H	0.3097	0.9960	0.1279	1.0	.
H40B	H	0.3582	0.9880	0.2063	1.0	.
C41	C	0.4471(2)	1.07949(12)	0.11628(12)	1.0	.
H41A	H	0.4877	1.0846	0.0646	1.0	.
H41B	H	0.3779	1.1205	0.1116	1.0	.
C42	C	0.5470(2)	1.09739(13)	0.15910(12)	1.0	.
H42A	H	0.6075	1.0514	0.1724	1.0	.
H42B	H	0.5965	1.1444	0.1253	1.0	.
C43	C	0.4913(2)	1.11376(13)	0.23065(12)	1.0	.
H43A	H	0.4429	1.0665	0.2649	1.0	.
H43B	H	0.4303	1.1595	0.2177	1.0	.
C44	C	0.5927(3)	1.13228(14)	0.27162(14)	1.0	.
H44A	H	0.6509	1.0862	0.2869	1.0	.
H44B	H	0.5513	1.1438	0.3165	1.0	.
H44C	H	0.6413	1.1789	0.2379	1.0	.
C45	C	0.25291(18)	0.83041(11)	0.13393(10)	1.0	.
H45A	H	0.2184	0.7757	0.1516	1.0	.
H45B	H	0.1867	0.8649	0.1505	1.0	.
C46	C	0.27291(19)	0.85996(13)	0.04769(10)	1.0	.
H46A	H	0.3476	0.8313	0.0304	1.0	.
H46B	H	0.2932	0.9175	0.0292	1.0	.
C47	C	0.1569(2)	0.84816(15)	0.01254(11)	1.0	.
H47A	H	0.1720	0.8759	-0.0427	1.0	.
H47B	H	0.1490	0.7905	0.0211	1.0	.
C48	C	0.03115(19)	0.87876(13)	0.04353(12)	1.0	.
H48A	H	0.0134	0.8486	0.0982	1.0	.
H48B	H	0.0408	0.9356	0.0378	1.0	.
C49	C	-0.0825(2)	0.87172(16)	0.00574(13)	1.0	.
H49A	H	-0.0698	0.9075	-0.0475	1.0	.
H49B	H	-0.0853	0.8163	0.0055	1.0	.
C50	C	-0.2088(2)	0.89208(16)	0.04259(15)	1.0	.
H50A	H	-0.2265	0.8535	0.0937	1.0	.
H50B	H	-0.2767	0.8900	0.0129	1.0	.
H50C	H	-0.2058	0.9460	0.0453	1.0	.
C51	C	0.5059(2)	0.74240(12)	0.17663(12)	1.0	.
H51A	H	0.5515	0.7553	0.1248	1.0	.
H51B	H	0.5708	0.7350	0.2116	1.0	.
C52	C	0.4328(2)	0.66370(13)	0.19729(14)	1.0	.
H52A	H	0.3701	0.6591	0.2425	1.0	.
H52B	H	0.3835	0.6676	0.1554	1.0	.
C53	C	0.5120(2)	0.58798(14)	0.21306(14)	1.0	.
H53A	H	0.5525	0.5795	0.2593	1.0	.
H53B	H	0.5814	0.5942	0.1707	1.0	.
C54	C	0.4344(2)	0.51403(14)	0.22356(15)	1.0	.
H54A	H	0.3610	0.5110	0.2630	1.0	.
H54B	H	0.3991	0.5216	0.1759	1.0	.
C55	C	0.5051(2)	0.43613(15)	0.24479(16)	1.0	.
H55A	H	0.5368	0.4267	0.2938	1.0	.
H55B	H	0.5805	0.4392	0.2066	1.0	.
C56	C	0.4259(3)	0.36685(16)	0.25093(15)	1.0	.
H56A	H	0.3523	0.3623	0.2898	1.0	.
H56B	H	0.4780	0.3177	0.2648	1.0	.
H56C	H	0.3955	0.3751	0.2023	1.0	.
C57	C	0.19761(16)	0.69688(10)	0.67238(10)	1.0	.
C58	C	0.16889(17)	0.68059(10)	0.73956(10)	1.0	.
C59	C	0.04033(18)	0.75662(11)	0.8480(1)	1.0	.
H59A	H	-0.0019	0.7471	0.9002	1.0	.
H59B	H	0.1164	0.7897	0.8407	1.0	.
C60	C	-0.05260(19)	0.80420(11)	0.79289(11)	1.0	.
H60A	H	-0.0136	0.8098	0.7408	1.0	.
H60B	H	-0.1322	0.7734	0.8033	1.0	.
C61	C	-0.08777(19)	0.88760(12)	0.79703(11)	1.0	.
H61A	H	-0.1513	0.9126	0.7617	1.0	.
H61B	H	-0.1292	0.8820	0.8486	1.0	.
C62	C	0.02513(19)	0.94278(11)	0.77817(11)	1.0	.
H62A	H	0.0710	0.9448	0.7284	1.0	.
H62B	H	0.0851	0.9201	0.8162	1.0	.
C63	C	-0.0119(2)	1.02792(12)	0.77593(13)	1.0	.
H63A	H	-0.0681	1.0517	0.7361	1.0	.
H63B	H	-0.0614	1.0259	0.8248	1.0	.
C64	C	0.1020(3)	1.08101(14)	0.76092(14)	1.0	.
H64A	H	0.1554	1.0597	0.8019	1.0	.
H64B	H	0.0722	1.1351	0.7581	1.0	.
H64C	H	0.1524	1.0827	0.7130	1.0	.
C65	C	0.21304(19)	0.60849(11)	0.90604(10)	1.0	.
H65A	H	0.1655	0.5870	0.9573	1.0	.
H65B	H	0.2527	0.5625	0.8924	1.0	.
C66	C	0.32000(19)	0.66131(12)	0.90885(11)	1.0	.
H66A	H	0.3604	0.6888	0.8567	1.0	.
H66B	H	0.2820	0.7028	0.9298	1.0	.
C67	C	0.42343(19)	0.61543(12)	0.95629(12)	1.0	.
H67A	H	0.4623	0.5744	0.9350	1.0	.
H67B	H	0.3829	0.5874	1.0083	1.0	.
C68	C	0.5292(2)	0.66859(13)	0.95970(12)	1.0	.
H68A	H	0.5605	0.7028	0.9077	1.0	.
H68B	H	0.4926	0.7041	0.9881	1.0	.
C69	C	0.6410(2)	0.62221(14)	0.99654(13)	1.0	.
H69A	H	0.6801	0.5884	0.9670	1.0	.
H69B	H	0.6095	0.5865	1.0479	1.0	.
C70	C	0.7434(2)	0.67648(17)	1.00212(15)	1.0	.
H70A	H	0.7728	0.7133	0.9517	1.0	.
H70B	H	0.8160	0.6438	1.0236	1.0	.
H70C	H	0.7071	0.7071	1.0347	1.0	.
C71	C	-0.0375(2)	0.58832(12)	0.85266(11)	1.0	.
H71A	H	-0.0833	0.5772	0.9042	1.0	.
H71B	H	-0.0992	0.6141	0.8164	1.0	.
C72	C	0.0103(2)	0.50869(13)	0.84200(14)	1.0	.
C73'	C	-0.0965(3)	0.45190(15)	0.85099(14)	1.0	2
H73C	H	-0.1348	0.4690	0.8031	1.0	2
H73D	H	-0.1636	0.4585	0.8905	1.0	2
C74'	C	-0.0637(14)	0.3627(5)	0.8712(6)	1.0	2
H74C	H	-0.0270	0.3435	0.9196	1.0	2
H74D	H	-0.1425	0.3324	0.8773	1.0	2
C75'	C	0.0329(11)	0.3489(7)	0.8088(6)	1.0	2
H75C	H	0.0665	0.2933	0.8261	1.0	2
H75D	H	0.1058	0.3854	0.7975	1.0	2
C76'	C	-0.0306(16)	0.3636(9)	0.7368(7)	1.0	2
H76D	H	0.0326	0.3545	0.6974	1.0	2
H76E	H	-0.1020	0.3269	0.7478	1.0	2
H76F	H	-0.0628	0.4189	0.7193	1.0	2
