data_k16057_config-1
loop_
 _symmetry_equiv_pos_as_xyz
'x, y, z'
'-x, -y, -z'

_cell_length_a	10.5389(2)
_cell_length_b	17.7893(3)
_cell_length_c	18.9721(3)
_cell_angle_alpha	70.2181(7)
_cell_angle_beta	82.0521(8)
_cell_angle_gamma	86.4869(8)
loop_
 _atom_site_label
 _atom_site_type_symbol
 _atom_site_fract_x
 _atom_site_fract_y
 _atom_site_fract_z
 _atom_site_occupancy
 _atom_site_disorder_group
Si1	Si	0.39677(5)	0.82812(3)	0.18178(3)	1.0	.
Si2	Si	0.09542(5)	0.65867(3)	0.83840(3)	1.0	.
C1	C	0.2748(12)	0.7725(3)	0.42873(19)	1.0	1
C2	C	0.2827(13)	0.6920(2)	0.4722(2)	1.0	1
S3	S	0.32422(6)	0.61505(3)	0.43595(4)	1.0	1
C4	C	0.3116(12)	0.5438(2)	0.5263(2)	1.0	1
C5	C	0.2744(4)	0.5797(2)	0.57888(16)	1.0	1
F1	F	0.25368(14)	0.53708(8)	0.65367(9)	1.0	1
C6	C	0.2603(9)	0.6635(2)	0.5522(2)	1.0	1
C7	C	0.2259(12)	0.7175(2)	0.59221(19)	1.0	1
C8	C	0.2185(13)	0.7980(3)	0.5482(2)	1.0	1
S9	S	0.17875(6)	0.87642(3)	0.58375(4)	1.0	1
C10	C	0.1866(17)	0.9466(2)	0.4927(2)	1.0	1
C11	C	0.2240(4)	0.9100(2)	0.44079(16)	1.0	1
F2	F	0.23831(14)	0.95114(8)	0.36592(9)	1.0	1
C12	C	0.240(1)	0.8262(2)	0.4684(2)	1.0	1
C13	C	0.3294(17)	0.4591(3)	0.5386(3)	1.0	1
S14	S	0.31423(7)	0.38863(4)	0.62872(4)	1.0	1
C15	C	0.3551(10)	0.3110(3)	0.5932(3)	1.0	1
C16	C	0.3656(11)	0.2303(3)	0.6342(4)	1.0	1
H16	H	0.3483	0.2114	0.6877	1.0	1
C17	C	0.402(2)	0.1778(4)	0.5944(4)	1.0	1
C18	C	0.4198(10)	0.0935(5)	0.6258(4)	1.0	1
H18	H	0.4070	0.0644	0.6783	1.0	1
C19	C	0.457(2)	0.0597(4)	0.5716(5)	1.0	1
H19	H	0.4765	0.0044	0.5823	1.0	1
S20	S	0.46549(13)	0.12812(7)	0.48113(5)	1.0	1
C21	C	0.423(2)	0.2066(4)	0.5142(4)	1.0	1
C22	C	0.4129(13)	0.2878(3)	0.4733(4)	1.0	1
H22	H	0.4277	0.3066	0.4197	1.0	1
C23	C	0.3803(9)	0.3403(3)	0.5131(3)	1.0	1
C24	C	0.3639(3)	0.42535(18)	0.48386(18)	1.0	1
H24	H	0.3758	0.4553	0.4315	1.0	1
C25	C	0.167(2)	1.0317(3)	0.4790(4)	1.0	1
S26	S	0.18441(7)	1.10001(4)	0.38744(4)	1.0	1
C27	C	0.1409(10)	1.1798(3)	0.4199(3)	1.0	1
C28	C	0.1321(12)	1.2595(3)	0.3761(4)	1.0	1
H28	H	0.1499	1.2764	0.3226	1.0	1
C29	C	0.0961(16)	1.3139(4)	0.4141(4)	1.0	1
C30	C	0.0811(10)	1.3975(5)	0.3802(4)	1.0	1
H30	H	0.0957	1.4246	0.3273	1.0	1
C31	C	0.0430(19)	1.4353(3)	0.4321(4)	1.0	1
H31	H	0.0267	1.4912	0.4193	1.0	1
S32	S	0.02829(13)	1.36901(7)	0.52366(6)	1.0	1
C33	C	0.0622(16)	1.2875(4)	0.4940(4)	1.0	1
C34	C	0.0758(14)	1.2071(4)	0.5367(4)	1.0	1
H34	H	0.0592	1.1901	0.5903	1.0	1
C35	C	0.1137(9)	1.1525(3)	0.5001(3)	1.0	1
C36	C	0.1290(3)	1.06762(18)	0.53157(18)	1.0	1
H36	H	0.1141	1.0391	0.5842	1.0	1
C37	C	0.30598(16)	0.79251(10)	0.34898(10)	1.0	.
C38	C	0.33759(17)	0.80731(11)	0.28237(10)	1.0	.
C39	C	0.47667(19)	0.92718(12)	0.14575(11)	1.0	.
H39A	H	0.5496	0.9245	0.1744	1.0	.
H39B	H	0.5117	0.9382	0.0921	1.0	.
C40	C	0.38671(19)	0.99674(11)	0.15220(12)	1.0	.
H40A	H	0.3097	0.9960	0.1279	1.0	.
H40B	H	0.3582	0.9880	0.2063	1.0	.
C41	C	0.4471(2)	1.07949(12)	0.11628(12)	1.0	.
H41A	H	0.4877	1.0846	0.0646	1.0	.
H41B	H	0.3779	1.1205	0.1116	1.0	.
C42	C	0.5470(2)	1.09739(13)	0.15910(12)	1.0	.
H42A	H	0.6075	1.0514	0.1724	1.0	.
H42B	H	0.5965	1.1444	0.1253	1.0	.
C43	C	0.4913(2)	1.11376(13)	0.23065(12)	1.0	.
H43A	H	0.4429	1.0665	0.2649	1.0	.
H43B	H	0.4303	1.1595	0.2177	1.0	.
C44	C	0.5927(3)	1.13228(14)	0.27162(14)	1.0	.
H44A	H	0.6509	1.0862	0.2869	1.0	.
H44B	H	0.5513	1.1438	0.3165	1.0	.
H44C	H	0.6413	1.1789	0.2379	1.0	.
C45	C	0.25291(18)	0.83041(11)	0.13393(10)	1.0	.
H45A	H	0.2184	0.7757	0.1516	1.0	.
H45B	H	0.1867	0.8649	0.1505	1.0	.
C46	C	0.27291(19)	0.85996(13)	0.04769(10)	1.0	.
H46A	H	0.3476	0.8313	0.0304	1.0	.
H46B	H	0.2932	0.9175	0.0292	1.0	.
C47	C	0.1569(2)	0.84816(15)	0.01254(11)	1.0	.
H47A	H	0.1720	0.8759	-0.0427	1.0	.
H47B	H	0.1490	0.7905	0.0211	1.0	.
C48	C	0.03115(19)	0.87876(13)	0.04353(12)	1.0	.
H48A	H	0.0134	0.8486	0.0982	1.0	.
H48B	H	0.0408	0.9356	0.0378	1.0	.
C49	C	-0.0825(2)	0.87172(16)	0.00574(13)	1.0	.
H49A	H	-0.0698	0.9075	-0.0475	1.0	.
H49B	H	-0.0853	0.8163	0.0055	1.0	.
C50	C	-0.2088(2)	0.89208(16)	0.04259(15)	1.0	.
H50A	H	-0.2265	0.8535	0.0937	1.0	.
H50B	H	-0.2767	0.8900	0.0129	1.0	.
H50C	H	-0.2058	0.9460	0.0453	1.0	.
C51	C	0.5059(2)	0.74240(12)	0.17663(12)	1.0	.
H51A	H	0.5515	0.7553	0.1248	1.0	.
H51B	H	0.5708	0.7350	0.2116	1.0	.
C52	C	0.4328(2)	0.66370(13)	0.19729(14)	1.0	.
H52A	H	0.3701	0.6591	0.2425	1.0	.
H52B	H	0.3835	0.6676	0.1554	1.0	.
C53	C	0.5120(2)	0.58798(14)	0.21306(14)	1.0	.
H53A	H	0.5525	0.5795	0.2593	1.0	.
H53B	H	0.5814	0.5942	0.1707	1.0	.
C54	C	0.4344(2)	0.51403(14)	0.22356(15)	1.0	.
H54A	H	0.3610	0.5110	0.2630	1.0	.
H54B	H	0.3991	0.5216	0.1759	1.0	.
C55	C	0.5051(2)	0.43613(15)	0.24479(16)	1.0	.
H55A	H	0.5368	0.4267	0.2938	1.0	.
H55B	H	0.5805	0.4392	0.2066	1.0	.
C56	C	0.4259(3)	0.36685(16)	0.25093(15)	1.0	.
H56A	H	0.3523	0.3623	0.2898	1.0	.
H56B	H	0.4780	0.3177	0.2648	1.0	.
H56C	H	0.3955	0.3751	0.2023	1.0	.
C57	C	0.19761(16)	0.69688(10)	0.67238(10)	1.0	.
C58	C	0.16889(17)	0.68059(10)	0.73956(10)	1.0	.
C59	C	0.04033(18)	0.75662(11)	0.8480(1)	1.0	.
H59A	H	-0.0019	0.7471	0.9002	1.0	.
H59B	H	0.1164	0.7897	0.8407	1.0	.
C60	C	-0.05260(19)	0.80420(11)	0.79289(11)	1.0	.
H60A	H	-0.0136	0.8098	0.7408	1.0	.
H60B	H	-0.1322	0.7734	0.8033	1.0	.
C61	C	-0.08777(19)	0.88760(12)	0.79703(11)	1.0	.
H61A	H	-0.1513	0.9126	0.7617	1.0	.
H61B	H	-0.1292	0.8820	0.8486	1.0	.
C62	C	0.02513(19)	0.94278(11)	0.77817(11)	1.0	.
H62A	H	0.0710	0.9448	0.7284	1.0	.
H62B	H	0.0851	0.9201	0.8162	1.0	.
C63	C	-0.0119(2)	1.02792(12)	0.77593(13)	1.0	.
H63A	H	-0.0681	1.0517	0.7361	1.0	.
H63B	H	-0.0614	1.0259	0.8248	1.0	.
C64	C	0.1020(3)	1.08101(14)	0.76092(14)	1.0	.
H64A	H	0.1554	1.0597	0.8019	1.0	.
H64B	H	0.0722	1.1351	0.7581	1.0	.
H64C	H	0.1524	1.0827	0.7130	1.0	.
C65	C	0.21304(19)	0.60849(11)	0.90604(10)	1.0	.
H65A	H	0.1655	0.5870	0.9573	1.0	.
H65B	H	0.2527	0.5625	0.8924	1.0	.
C66	C	0.32000(19)	0.66131(12)	0.90885(11)	1.0	.
H66A	H	0.3604	0.6888	0.8567	1.0	.
H66B	H	0.2820	0.7028	0.9298	1.0	.
C67	C	0.42343(19)	0.61543(12)	0.95629(12)	1.0	.
H67A	H	0.4623	0.5744	0.9350	1.0	.
H67B	H	0.3829	0.5874	1.0083	1.0	.
C68	C	0.5292(2)	0.66859(13)	0.95970(12)	1.0	.
H68A	H	0.5605	0.7028	0.9077	1.0	.
H68B	H	0.4926	0.7041	0.9881	1.0	.
C69	C	0.6410(2)	0.62221(14)	0.99654(13)	1.0	.
H69A	H	0.6801	0.5884	0.9670	1.0	.
H69B	H	0.6095	0.5865	1.0479	1.0	.
C70	C	0.7434(2)	0.67648(17)	1.00212(15)	1.0	.
H70A	H	0.7728	0.7133	0.9517	1.0	.
H70B	H	0.8160	0.6438	1.0236	1.0	.
H70C	H	0.7071	0.7071	1.0347	1.0	.
C71	C	-0.0375(2)	0.58832(12)	0.85266(11)	1.0	.
H71A	H	-0.0833	0.5772	0.9042	1.0	.
H71B	H	-0.0992	0.6141	0.8164	1.0	.
C72	C	0.0103(2)	0.50869(13)	0.84200(14)	1.0	.
H72A	H	0.0586	0.5201	0.7910	1.0	1
H72B	H	0.0700	0.4823	0.8793	1.0	1
C73	C	-0.0965(3)	0.45190(15)	0.85099(14)	1.0	1
H73A	H	-0.1583	0.4786	0.8151	1.0	1
H73B	H	-0.1426	0.4381	0.9028	1.0	1
C74	C	-0.0441(4)	0.37371(19)	0.8364(2)	1.0	1
H74A	H	0.0298	0.3535	0.8649	1.0	1
H74B	H	-0.1116	0.3328	0.8567	1.0	1
C75	C	-0.0028(4)	0.38273(19)	0.7549(2)	1.0	1
H75A	H	0.0681	0.4213	0.7348	1.0	1
H75B	H	-0.0753	0.4048	0.7256	1.0	1
C76	C	0.0419(4)	0.3031(2)	0.7441(2)	1.0	1
H76A	H	0.1108	0.2798	0.7750	1.0	1
H76B	H	0.0734	0.3125	0.6909	1.0	1
H76C	H	-0.0302	0.2663	0.7597	1.0	1
