data_x07069_config-1
loop_
 _symmetry_equiv_pos_as_xyz
'x, y, z'
'-x, -y, -z'

_cell_length_a	6.5550(4)
_cell_length_b	7.1254(4)
_cell_length_c	16.8837(10)
_cell_angle_alpha	99.819(2)
_cell_angle_beta	93.255(2)
_cell_angle_gamma	103.909(2)
loop_
 _atom_site_label
 _atom_site_type_symbol
 _atom_site_fract_x
 _atom_site_fract_y
 _atom_site_fract_z
 _atom_site_occupancy
 _atom_site_disorder_group
Si1	Si	0.20661(12)	0.60529(10)	0.82229(4)	1.0	.
C1	C	0.4336(4)	0.5364(3)	0.57781(13)	1.0	.
C2	C	0.6406(4)	0.6306(3)	0.56439(13)	1.0	.
C3	C	0.7810(4)	0.7662(3)	0.62702(14)	1.0	.
H3	H	0.7394	0.7981	0.6796	1.0	1
C4	C	0.9866(11)	0.8524(16)	0.6076(4)	1.0	1
S5	S	1.19186(18)	1.02510(13)	0.66962(5)	1.0	1
C6	C	1.3442(6)	1.0125(6)	0.5889(3)	1.0	1
H6	H	1.4865	1.0887	0.5945	1.0	1
N7	N	1.2618(11)	0.8988(11)	0.5213(4)	1.0	1
C8	C	1.0548(11)	0.8070(15)	0.5299(4)	1.0	1
C9	C	0.9176(4)	0.6805(3)	0.47221(14)	1.0	.
H9	H	0.9621	0.6492	0.4201	1.0	1
C10	C	0.7085(4)	0.5912(3)	0.48566(13)	1.0	.
C11	C	0.3664(4)	0.5694(3)	0.65662(13)	1.0	.
C12	C	0.3047(4)	0.5899(3)	0.72225(14)	1.0	.
C13	C	-0.0881(5)	0.5401(5)	0.80989(16)	1.0	.
H13A	H	-0.1388	0.5381	0.8639	1.0	.
H13B	H	-0.1343	0.6456	0.7883	1.0	.
C14	C	-0.1942(5)	0.3451(6)	0.7553(2)	1.0	.
H14A	H	-0.1597	0.3504	0.6998	1.0	.
H14B	H	-0.3476	0.3189	0.7566	1.0	.
H14C	H	-0.1439	0.2397	0.7740	1.0	.
C15	C	0.3069(4)	0.4248(4)	0.87140(14)	1.0	.
H15A	H	0.2665	0.2953	0.8344	1.0	.
H15B	H	0.4631	0.4677	0.8791	1.0	.
C16	C	0.2259(5)	0.3993(4)	0.95278(15)	1.0	.
H16A	H	0.2600	0.5274	0.9894	1.0	.
H16B	H	0.2933	0.3094	0.9760	1.0	.
H16C	H	0.0724	0.3445	0.9452	1.0	.
C17	C	0.3060(6)	0.8623(4)	0.87968(17)	1.0	.
H17A	H	0.2319	0.9476	0.8553	1.0	.
H17B	H	0.2688	0.8657	0.9358	1.0	.
C18	C	0.5400(7)	0.9473(5)	0.8822(2)	1.0	.
H18A	H	0.6157	0.8659	0.9073	1.0	.
H18B	H	0.5786	1.0817	0.9138	1.0	.
H18C	H	0.5785	0.9495	0.8270	1.0	.
