data_x09077t_config-1
loop_
 _symmetry_equiv_pos_as_xyz
'x, y, z'
'-x+1/2, y+1/2, -z+1/2'
'-x, -y, -z'
'x-1/2, -y-1/2, z-1/2'

_cell_length_a	17.3204(10)
_cell_length_b	9.1990(5)
_cell_length_c	34.233(2)
_cell_angle_alpha	90.00
_cell_angle_beta	91.259(4)
_cell_angle_gamma	90.00
loop_
 _atom_site_label
 _atom_site_type_symbol
 _atom_site_fract_x
 _atom_site_fract_y
 _atom_site_fract_z
 _atom_site_occupancy
 _atom_site_disorder_group
Si1	Si	0.23750(10)	0.61659(18)	0.13910(5)	1.0	.
C1	C	0.2531(4)	0.8804(7)	0.02979(17)	1.0	.
C2	C	0.1924(4)	0.9768(7)	0.01953(17)	1.0	.
C3	C	0.1260(4)	0.9882(7)	0.04213(18)	1.0	.
H3	H	0.1215	0.9278	0.0645	1.0	1
C4	C	0.0666(4)	1.0848(7)	0.03300(18)	1.0	1
C5	C	-0.0005(9)	1.095(3)	0.0554(7)	1.0	1
C6	C	-0.0580(6)	1.1871(15)	0.0463(4)	1.0	1
C7	C	-0.0509(7)	1.2839(19)	0.0143(4)	1.0	1
C8	C	0.0110(8)	1.2779(17)	-0.0074(4)	1.0	1
F1	F	-0.0092(3)	1.0072(6)	0.08714(13)	1.0	1
F2	F	-0.1223(3)	1.2005(9)	0.06805(19)	1.0	1
F3	F	-0.1101(4)	1.3747(8)	0.0062(2)	1.0	1
F4	F	0.0176(3)	1.3679(5)	-0.03879(14)	1.0	1
C9	C	0.0749(4)	1.1791(7)	-0.00056(19)	1.0	1
C10	C	0.1396(4)	1.1691(7)	-0.02309(19)	1.0	.
H10	H	0.1437	1.2308	-0.0452	1.0	1
C11	C	0.1999(4)	1.0706(7)	-0.01453(17)	1.0	.
C12	C	0.2666(4)	1.0620(7)	-0.03678(17)	1.0	.
C13	C	0.3298(4)	0.9709(7)	-0.02525(17)	1.0	.
C14	C	0.3994(4)	0.9710(7)	-0.04549(18)	1.0	.
H14	H	0.4050	1.0342	-0.0672	1.0	1
C15	C	0.4611(4)	0.8791(7)	-0.03427(17)	1.0	1
C16	C	0.5315(7)	0.885(2)	-0.0536(5)	1.0	1
H16	H	0.5371	0.9504	-0.0749	1.0	1
C17	C	0.5934(7)	0.7976(17)	-0.0420(5)	1.0	1
C18	C	0.6659(7)	0.800(2)	-0.0616(5)	1.0	1
H18	H	0.6743	0.8671	-0.0822	1.0	1
C19	C	0.7225(5)	0.7052(11)	-0.0502(3)	1.0	1
H19	H	0.7705	0.7077	-0.0631	1.0	1
C20	C	0.7120(5)	0.6023(10)	-0.0197(3)	1.0	1
H20	H	0.7525	0.5368	-0.0129	1.0	1
C21	C	0.6461(10)	0.597(2)	-0.0007(8)	1.0	1
H21	H	0.6408	0.5296	0.0200	1.0	1
C22	C	0.5824(7)	0.692(2)	-0.0107(5)	1.0	1
C23	C	0.5136(12)	0.690(4)	0.0083(9)	1.0	1
H23	H	0.5075	0.6228	0.0292	1.0	1
C24	C	0.4521(4)	0.7813(7)	-0.00167(18)	1.0	1
C25	C	0.3830(4)	0.7833(8)	0.0185(2)	1.0	.
H25	H	0.3773	0.7197	0.0401	1.0	1
C26	C	0.3219(4)	0.8756(7)	0.00801(17)	1.0	.
C27	C	0.2468(4)	0.7908(7)	0.06356(16)	1.0	.
C28	C	0.2428(4)	0.7179(7)	0.09297(18)	1.0	.
C29	C	0.3252(4)	0.4938(7)	0.14319(18)	1.0	.
H29	H	0.3113	0.4031	0.1285	1.0	.
C30	C	0.3977(4)	0.5538(9)	0.1241(2)	1.0	.
H30A	H	0.4133	0.6450	0.1375	1.0	.
H30B	H	0.3855	0.5774	0.0965	1.0	.
C31	C	0.4655(4)	0.4467(9)	0.1259(2)	1.0	.
H31A	H	0.5118	0.4932	0.1150	1.0	.
H31B	H	0.4527	0.3602	0.1098	1.0	.
C32	C	0.4830(4)	0.3993(8)	0.1681(2)	1.0	.
H32A	H	0.5246	0.3256	0.1685	1.0	.
H32B	H	0.5011	0.4841	0.1836	1.0	.
C33	C	0.4114(4)	0.3363(8)	0.1862(2)	1.0	.
H33A	H	0.4232	0.3087	0.2136	1.0	.
H33B	H	0.3956	0.2475	0.1718	1.0	.
C34	C	0.3451(4)	0.4461(8)	0.18505(19)	1.0	.
H34A	H	0.3598	0.5323	0.2008	1.0	.
H34B	H	0.2990	0.4018	0.1968	1.0	.
C35	C	0.1475(4)	0.5000(7)	0.13609(18)	1.0	.
H35	H	0.1597	0.4199	0.1175	1.0	.
C36	C	0.1268(4)	0.4247(7)	0.17417(19)	1.0	.
H36A	H	0.1726	0.3715	0.1845	1.0	.
H36B	H	0.1127	0.4990	0.1937	1.0	.
C37	C	0.0599(4)	0.3187(8)	0.1685(2)	1.0	.
H37A	H	0.0760	0.2386	0.1512	1.0	.
H37B	H	0.0469	0.2761	0.1941	1.0	.
C38	C	-0.0101(4)	0.3903(8)	0.1512(2)	1.0	.
H38A	H	-0.0304	0.4615	0.1701	1.0	.
H38B	H	-0.0505	0.3161	0.1462	1.0	.
C39	C	0.0078(5)	0.4678(9)	0.1131(2)	1.0	.
H39A	H	-0.0386	0.5210	0.1036	1.0	.
H39B	H	0.0214	0.3951	0.0931	1.0	.
C40	C	0.0747(4)	0.5745(9)	0.1189(2)	1.0	.
H40A	H	0.0588	0.6534	0.1367	1.0	.
H40B	H	0.0871	0.6189	0.0934	1.0	.
C41	C	0.2363(3)	0.7579(6)	0.17851(18)	1.0	.
H41	H	0.2329	0.7059	0.2041	1.0	.
C42	C	0.1660(4)	0.8596(8)	0.1749(2)	1.0	.
H42A	H	0.1647	0.9041	0.1486	1.0	.
H42B	H	0.1182	0.8017	0.1776	1.0	.
C43	C	0.1674(4)	0.9804(8)	0.2057(2)	1.0	.
H43A	H	0.1230	1.0462	0.2007	1.0	.
H43B	H	0.1614	0.9367	0.2318	1.0	.
C44	C	0.2411(4)	1.0679(7)	0.2054(2)	1.0	.
H44A	H	0.2404	1.1412	0.2265	1.0	.
H44B	H	0.2448	1.1200	0.1802	1.0	.
C45	C	0.3105(4)	0.9698(7)	0.2111(2)	1.0	.
H45A	H	0.3090	0.9246	0.2373	1.0	.
H45B	H	0.3583	1.0284	0.2097	1.0	.
C46	C	0.3119(4)	0.8499(7)	0.17976(19)	1.0	.
H46A	H	0.3564	0.7848	0.1852	1.0	.
H46B	H	0.3192	0.8950	0.1539	1.0	.
C47	C	0.2705(4)	1.1433(7)	-0.07219(17)	1.0	.
C48	C	0.2712(4)	1.2025(7)	-0.10394(19)	1.0	.
Si2	Si	0.26521(10)	1.28408(17)	-0.15309(5)	1.0	.
C49	C	0.3384(4)	1.1870(7)	-0.18398(18)	1.0	.
H49	H	0.3146	1.0928	-0.1924	1.0	.
C50	C	0.4127(4)	1.1505(7)	-0.16161(19)	1.0	.
H50A	H	0.4003	1.0910	-0.1385	1.0	.
H50B	H	0.4372	1.2417	-0.1522	1.0	.
C51	C	0.4697(4)	1.0677(8)	-0.1867(2)	1.0	.
H51A	H	0.5185	1.0529	-0.1716	1.0	.
H51B	H	0.4481	0.9710	-0.1933	1.0	.
C52	C	0.4864(4)	1.1502(9)	-0.2241(2)	1.0	.
H52A	H	0.5139	1.2415	-0.2176	1.0	.
H52B	H	0.5204	1.0906	-0.2406	1.0	.
C53	C	0.4130(4)	1.1853(8)	-0.24673(19)	1.0	.
H53A	H	0.3880	1.0939	-0.2555	1.0	.
H53B	H	0.4256	1.2430	-0.2702	1.0	.
C54	C	0.3570(3)	1.2719(7)	-0.22123(17)	1.0	.
H54A	H	0.3806	1.3665	-0.2140	1.0	.
H54B	H	0.3087	1.2913	-0.2363	1.0	.
C55	C	0.2896(4)	1.4824(7)	-0.14674(19)	1.0	1
H55	H	0.3471	1.4888	-0.1476	1.0	1
C56	C	0.2584(7)	1.5837(7)	-0.1799(3)	1.0	1
H56A	H	0.2772	1.5489	-0.2053	1.0	1
H56B	H	0.2012	1.5796	-0.1808	1.0	1
C57	C	0.2842(5)	1.7403(7)	-0.1734(2)	1.0	1
H57A	H	0.3408	1.7466	-0.1765	1.0	1
H57B	H	0.2595	1.8030	-0.1936	1.0	1
C58	C	0.2637(5)	1.7958(8)	-0.1333(2)	1.0	1
H58A	H	0.2859	1.8942	-0.1295	1.0	1
H58B	H	0.2069	1.8038	-0.1317	1.0	1
C59	C	0.2936(5)	1.6971(8)	-0.1010(2)	1.0	1
H59A	H	0.3508	1.7006	-0.1000	1.0	1
H59B	H	0.2749	1.7328	-0.0756	1.0	1
C60	C	0.2676(5)	1.5415(8)	-0.1069(2)	1.0	1
H60A	H	0.2108	1.5362	-0.1044	1.0	1
H60B	H	0.2913	1.4798	-0.0862	1.0	1
C61	C	0.1627(4)	1.2483(6)	-0.17196(18)	1.0	.
H61	H	0.1281	1.3195	-0.1589	1.0	.
C62	C	0.1347(4)	1.0946(7)	-0.1611(2)	1.0	.
H62A	H	0.1700	1.0215	-0.1721	1.0	.
H62B	H	0.1363	1.0839	-0.1323	1.0	.
C63	C	0.0535(4)	1.0664(8)	-0.1762(2)	1.0	.
H63A	H	0.0395	0.9644	-0.1705	1.0	.
H63B	H	0.0174	1.1302	-0.1622	1.0	.
C64	C	0.0440(4)	1.0924(8)	-0.2192(2)	1.0	.
H64A	H	-0.0110	1.0794	-0.2270	1.0	.
H64B	H	0.0747	1.0200	-0.2336	1.0	.
C65	C	0.0698(4)	1.2444(7)	-0.2303(2)	1.0	.
H65A	H	0.0353	1.3171	-0.2184	1.0	.
H65B	H	0.0664	1.2560	-0.2590	1.0	.
C66	C	0.1527(4)	1.2704(7)	-0.21609(18)	1.0	.
H66A	H	0.1680	1.3709	-0.2228	1.0	.
H66B	H	0.1875	1.2030	-0.2298	1.0	.
