data_x10018_config-2
loop_
 _symmetry_equiv_pos_as_xyz
'x, y, z'
'-x, -y, -z'

_cell_length_a	7.9248(2)
_cell_length_b	8.8481(2)
_cell_length_c	17.7695(4)
_cell_angle_alpha	101.225(1)
_cell_angle_beta	99.042(2)
_cell_angle_gamma	97.371(1)
loop_
 _atom_site_label
 _atom_site_type_symbol
 _atom_site_fract_x
 _atom_site_fract_y
 _atom_site_fract_z
 _atom_site_occupancy
 _atom_site_disorder_group
Si1	Si	0.49314(12)	0.26408(10)	0.16665(5)	1.0	.
C1	C	0.4827(3)	0.4462(3)	0.41806(14)	1.0	.
C2	C	0.4265(3)	0.5879(3)	0.44724(14)	1.0	.
C3	C	0.3520(3)	0.6770(3)	0.39773(15)	1.0	.
H3	H	0.3387	0.6408	0.3428	1.0	.
C4	C	0.2969(3)	0.8165(3)	0.42615(16)	1.0	.
C5	C	0.2185(3)	0.9047(3)	0.37543(17)	1.0	.
C6'	C	0.1687(3)	1.0417(3)	0.40611(17)	1.0	2
C7'	C	0.089(2)	1.1514(17)	0.3683(8)	1.0	2
H7'	H	0.0653	1.1418	0.3134	1.0	2
F1	F	-0.012(2)	1.3948(15)	0.4027(6)	1.0	2
C8'	C	0.051(4)	1.270(2)	0.4205(12)	1.0	2
S9'	S	0.1227(4)	1.2779(3)	0.51957(15)	1.0	2
C10'	C	0.1943(3)	1.1001(3)	0.48939(17)	1.0	2
C11	C	0.2670(3)	1.0181(3)	0.53965(16)	1.0	.
C12	C	0.3192(3)	0.8732(3)	0.50958(15)	1.0	.
C13	C	0.3915(3)	0.7851(3)	0.55903(14)	1.0	.
H13	H	0.4053	0.8224	0.6139	1.0	.
C14	C	0.4449(3)	0.6428(3)	0.53076(14)	1.0	.
C15	C	0.4715(3)	0.3929(3)	0.33586(16)	1.0	.
C16	C	0.4689(4)	0.3458(3)	0.26715(17)	1.0	.
C17'	C	0.4184(17)	0.0350(18)	0.1542(9)	1.0	2
H17'	H	0.4443	-0.0186	0.1034	1.0	2
C18'	C	0.5274(19)	-0.0231(14)	0.2200(7)	1.0	2
H18C	H	0.6496	0.0252	0.2251	1.0	2
H18D	H	0.4902	0.0189	0.2695	1.0	2
C19'	C	0.524(3)	-0.1929(17)	0.2138(12)	1.0	2
H19D	H	0.6005	-0.2101	0.2591	1.0	2
H19E	H	0.5628	-0.2377	0.1659	1.0	2
H19F	H	0.4052	-0.2433	0.2121	1.0	2
C20'	C	0.2187(18)	-0.0071(18)	0.1507(11)	1.0	2
H20D	H	0.1557	0.0306	0.1079	1.0	2
H20E	H	0.1894	0.0424	0.2002	1.0	2
H20F	H	0.1860	-0.1207	0.1417	1.0	2
C21'	C	0.727(2)	0.3161(16)	0.1618(9)	1.0	2
H21'	H	0.7844	0.2787	0.2074	1.0	2
C22'	C	0.7915(18)	0.4923(18)	0.1878(9)	1.0	2
H22C	H	0.7592	0.5417	0.1434	1.0	2
H22D	H	0.7320	0.5359	0.2301	1.0	2
C23'	C	0.983(2)	0.534(3)	0.2164(12)	1.0	2
H23D	H	1.0154	0.6480	0.2310	1.0	2
H23E	H	1.0429	0.4918	0.1749	1.0	2
H23F	H	1.0153	0.4899	0.2620	1.0	2
C24'	C	0.776(3)	0.209(2)	0.0954(9)	1.0	2
H24D	H	0.7196	0.1015	0.0918	1.0	2
H24E	H	0.9018	0.2134	0.1044	1.0	2
H24F	H	0.7378	0.2407	0.0465	1.0	2
C25'	C	0.3128(6)	0.3124(6)	0.0972(2)	1.0	2
H25'	H	0.2088	0.2710	0.1170	1.0	2
C26'	C	0.291(3)	0.196(2)	0.0167(8)	1.0	2
H26C	H	0.3832	0.2325	-0.0103	1.0	2
H26D	H	0.3107	0.0931	0.0268	1.0	2
C27'	C	0.118(3)	0.172(3)	-0.0394(11)	1.0	2
H27D	H	0.1227	0.1014	-0.0885	1.0	2
H27E	H	0.0942	0.2730	-0.0498	1.0	2
H27F	H	0.0251	0.1269	-0.0159	1.0	2
C28'	C	0.278(3)	0.4685(18)	0.0911(12)	1.0	2
H28D	H	0.2876	0.5331	0.1436	1.0	2
H28E	H	0.1612	0.4605	0.0613	1.0	2
H28F	H	0.3629	0.5164	0.0644	1.0	2
