data_x14412_config-1
loop_
 _symmetry_equiv_pos_as_xyz
'x, y, z'

_cell_length_a	7.2815(4)
_cell_length_b	8.2665(4)
_cell_length_c	17.4661(9)
_cell_angle_alpha	88.946(4)
_cell_angle_beta	79.384(4)
_cell_angle_gamma	66.082(4)
loop_
 _atom_site_label
 _atom_site_type_symbol
 _atom_site_fract_x
 _atom_site_fract_y
 _atom_site_fract_z
 _atom_site_occupancy
 _atom_site_disorder_group
O1	O	0.0593(8)	1.4680(8)	0.4698(4)	1.0	1
O2	O	0.2203(8)	1.3810(8)	0.3416(4)	1.0	1
O3	O	0.8244(10)	-0.1736(10)	0.5082(4)	1.0	1
O4	O	0.6601(13)	-0.0832(15)	0.6375(8)	1.0	1
C1	C	0.4058(16)	0.5438(19)	0.5816(10)	1.0	1
C2	C	0.3937(16)	0.6732(19)	0.5269(9)	1.0	1
C3	C	0.2861(15)	0.8555(18)	0.5474(9)	1.0	1
H3	H	0.2197	0.8921	0.6001	1.0	1
C4	C	0.2722(15)	0.984(2)	0.4943(8)	1.0	1
C5	C	0.1609(13)	1.1701(16)	0.5179(6)	1.0	1
H5	H	0.0949	1.2085	0.5706	1.0	1
C6	C	0.1536(10)	1.2881(11)	0.4626(5)	1.0	1
C7	C	0.0948(10)	1.5338(11)	0.3947(5)	1.0	1
H7A	H	0.1662	1.6129	0.3964	1.0	1
H7B	H	-0.0366	1.6015	0.3777	1.0	1
C8	C	0.2538(10)	1.2326(11)	0.3828(5)	1.0	1
C9	C	0.3575(18)	1.065(2)	0.3600(12)	1.0	1
H9	H	0.4236	1.0321	0.3070	1.0	1
C10	C	0.3728(16)	0.929(2)	0.4142(10)	1.0	1
C11	C	0.4799(15)	0.7498(19)	0.3935(8)	1.0	1
H11	H	0.5466	0.7139	0.3407	1.0	1
C12	C	0.4945(16)	0.618(2)	0.4474(9)	1.0	1
C13	C	0.6061(16)	0.4324(19)	0.4255(10)	1.0	1
C14	C	0.6163(16)	0.3046(19)	0.4815(9)	1.0	1
C15	C	0.7261(16)	0.1200(18)	0.4599(9)	1.0	1
H15	H	0.7943	0.0790	0.4076	1.0	1
C16	C	0.7298(15)	0.005(2)	0.5167(8)	1.0	1
C17	C	0.7872(12)	-0.2382(12)	0.5841(6)	1.0	1
H17A	H	0.9182	-0.3058	0.6013	1.0	1
H17B	H	0.7156	-0.3171	0.5824	1.0	1
C18	C	0.6317(17)	0.060(2)	0.5938(10)	1.0	1
C19	C	0.5244(16)	0.2325(19)	0.6187(8)	1.0	1
H19	H	0.4588	0.2667	0.6717	1.0	1
C20	C	0.5136(16)	0.362(2)	0.5614(9)	1.0	1
C21	C	0.2967(14)	0.6090(13)	0.6595(6)	1.0	.
C22	C	0.2031(14)	0.6683(14)	0.7232(6)	1.0	.
C32	C	0.7120(14)	0.3805(13)	0.3460(6)	1.0	.
C33	C	0.8061(14)	0.3252(14)	0.2807(6)	1.0	.
Si1	Si	0.0650(6)	0.7710(6)	0.8219(3)	1.0	.
C23	C	0.2511(14)	0.6592(13)	0.8888(6)	1.0	.
H23	H	0.3761	0.6801	0.8671	1.0	.
C24	C	0.3244(18)	0.4570(13)	0.8869(7)	1.0	.
H24A	H	0.4377	0.4064	0.9151	1.0	.
H24B	H	0.3710	0.4084	0.8326	1.0	.
H24C	H	0.2112	0.4269	0.9118	1.0	.
C25	C	0.1813(16)	0.7424(17)	0.9719(6)	1.0	.
H25A	H	0.0613	0.7226	0.9975	1.0	.
H25B	H	0.1454	0.8701	0.9706	1.0	.
H25C	H	0.2923	0.6881	1.0009	1.0	.
C26	C	-0.1834(14)	0.7462(14)	0.8436(7)	1.0	.
H26	H	-0.2599	0.8078	0.8022	1.0	.
C27	C	-0.1551(19)	0.5602(15)	0.8358(12)	1.0	.
H27A	H	-0.1708	0.5149	0.8877	1.0	.
H27B	H	-0.0178	0.4891	0.8059	1.0	.
H27C	H	-0.2579	0.5529	0.8085	1.0	.
C28	C	-0.3215(16)	0.8341(19)	0.9202(7)	1.0	.
H28A	H	-0.4551	0.8301	0.9228	1.0	.
H28B	H	-0.3391	0.9578	0.9243	1.0	.
H28C	H	-0.2598	0.7713	0.9634	1.0	.
C29	C	0.0128(14)	1.0140(12)	0.8186(6)	1.0	.
H29	H	-0.0567	1.0699	0.8723	1.0	.
C30	C	-0.1329(17)	1.1106(15)	0.7630(7)	1.0	.
H30A	H	-0.1680	1.2381	0.7680	1.0	.
H30B	H	-0.2580	1.0899	0.7765	1.0	.
H30C	H	-0.0654	1.0654	0.7091	1.0	.
C31	C	0.2070(17)	1.0452(16)	0.7978(8)	1.0	.
H31A	H	0.2810	0.9900	0.7457	1.0	.
H31B	H	0.2939	0.9929	0.8362	1.0	.
H31C	H	0.1716	1.1730	0.7980	1.0	.
Si2	Si	0.9343(6)	0.2294(6)	0.1802(3)	1.0	.
C34	C	0.9888(14)	-0.0151(12)	0.1802(6)	1.0	.
H34	H	1.0537	-0.0685	0.1259	1.0	.
C35	C	0.7918(17)	-0.0422(16)	0.2040(8)	1.0	.
H35A	H	0.8217	-0.1683	0.1967	1.0	.
H35B	H	0.6938	0.0265	0.1716	1.0	.
H35C	H	0.7330	-0.0023	0.2590	1.0	.
C36	C	1.1411(17)	-0.1100(15)	0.2341(7)	1.0	.
H36A	H	1.0873	-0.0511	0.2866	1.0	.
H36B	H	1.2732	-0.1051	0.2134	1.0	.
H36C	H	1.1596	-0.2341	0.2366	1.0	.
C37	C	1.1844(14)	0.2547(14)	0.1558(7)	1.0	.
H37	H	1.2607	0.2053	0.1989	1.0	.
C38	C	1.3175(16)	0.1505(19)	0.0805(7)	1.0	.
H38A	H	1.2381	0.1818	0.0387	1.0	.
H38B	H	1.3632	0.0233	0.0878	1.0	.
H38C	H	1.4369	0.1792	0.0663	1.0	.
C39	C	1.1519(19)	0.4448(15)	0.1520(12)	1.0	.
H39A	H	1.2849	0.4527	0.1410	1.0	.
H39B	H	1.0731	0.5090	0.2020	1.0	.
H39C	H	1.0765	0.4974	0.1104	1.0	.
C40	C	0.7418(14)	0.3449(13)	0.1163(6)	1.0	.
H40	H	0.6220	0.3156	0.1366	1.0	.
C41	C	0.6575(17)	0.5460(13)	0.1243(7)	1.0	.
H41A	H	0.7644	0.5847	0.1004	1.0	.
H41B	H	0.6132	0.5861	0.1797	1.0	.
H41C	H	0.5406	0.5969	0.0980	1.0	.
C42	C	0.8107(16)	0.2757(16)	0.0307(6)	1.0	.
H42A	H	0.6968	0.3317	0.0032	1.0	.
H42B	H	0.8539	0.1469	0.0275	1.0	.
H42C	H	0.9257	0.3041	0.0066	1.0	.
