data_x15193_config-1
loop_
 _symmetry_equiv_pos_as_xyz
'x, y, z'
'-x, -y, -z'

_cell_length_a	8.1244(3)
_cell_length_b	11.8274(5)
_cell_length_c	16.6285(8)
_cell_angle_alpha	70.294(3)
_cell_angle_beta	75.906(2)
_cell_angle_gamma	82.317(2)
loop_
 _atom_site_label
 _atom_site_type_symbol
 _atom_site_fract_x
 _atom_site_fract_y
 _atom_site_fract_z
 _atom_site_occupancy
 _atom_site_disorder_group
Si1	Si	0.44641(10)	0.67290(6)	0.79972(5)	1.0	.
C1	C	0.4799(3)	0.5420(2)	0.57339(16)	1.0	.
C2	C	0.3602(17)	0.5657(19)	0.5267(10)	1.0	1
C3	C	0.3683(7)	0.5290(8)	0.4533(5)	1.0	1
C4	C	0.2210(6)	0.5692(5)	0.4180(4)	1.0	1
C5	C	0.1067(14)	0.6372(17)	0.4607(11)	1.0	1
S1	S	0.16887(12)	0.64928(11)	0.54967(7)	1.0	1
C6	C	-0.0571(19)	0.692(2)	0.4402(11)	1.0	1
C7	C	-0.1768(4)	0.7515(3)	0.4850(2)	1.0	1
H7	H	-0.1635	0.7643	0.5364	1.0	1
C8	C	-0.3239(5)	0.7940(4)	0.4494(3)	1.0	1
C9	C	-0.3090(5)	0.7659(6)	0.3714(4)	1.0	1
S2	S	-0.11649(8)	0.68608(7)	0.34731(5)	1.0	1
C10	C	-0.4368(5)	0.7960(7)	0.3243(4)	1.0	1
H10	H	-0.4257	0.7736	0.2734	1.0	1
C11	C	-0.5816(9)	0.8600(13)	0.3541(6)	1.0	1
C12	C	-0.7310(14)	0.9002(13)	0.3196(6)	1.0	1
H12	H	-0.7452	0.8871	0.2685	1.0	1
C13	C	-0.8494(5)	0.9579(5)	0.3652(4)	1.0	1
H13	H	-0.9556	0.9893	0.3501	1.0	1
S3	S	-0.78786(10)	0.96924(12)	0.45536(7)	1.0	1
C14	C	-0.5937(9)	0.8921(13)	0.4301(6)	1.0	1
C15	C	-0.4692(8)	0.8582(7)	0.4795(5)	1.0	1
H15	H	-0.4824	0.8779	0.5316	1.0	1
C16	C	0.4653(3)	0.5858(2)	0.64538(17)	1.0	.
C17	C	0.4586(4)	0.6231(2)	0.70486(18)	1.0	.
C18	C	0.659(2)	0.6369(10)	0.8345(9)	1.0	1
H18	H	0.6487	0.6634	0.8867	1.0	1
C19	C	0.7999(18)	0.7031(9)	0.7625(16)	1.0	1
H19A	H	0.9076	0.6821	0.7822	1.0	1
H19B	H	0.7740	0.7900	0.7488	1.0	1
H19C	H	0.8093	0.6800	0.7102	1.0	1
C20	C	0.7057(10)	0.5024(7)	0.8598(4)	1.0	1
H20A	H	0.7176	0.4750	0.8091	1.0	1
H20B	H	0.6163	0.4593	0.9074	1.0	1
H20C	H	0.8135	0.4864	0.8793	1.0	1
C21	C	0.3957(3)	0.8395(2)	0.76676(17)	1.0	.
H21	H	0.4944	0.8780	0.7207	1.0	.
C22	C	0.2386(4)	0.8780(3)	0.7267(2)	1.0	.
H22A	H	0.1374	0.8473	0.7714	1.0	.
H22B	H	0.2509	0.8455	0.6785	1.0	.
H22C	H	0.2267	0.9661	0.7046	1.0	.
C23	C	0.3789(5)	0.8878(3)	0.8436(2)	1.0	.
H23A	H	0.3612	0.9756	0.8234	1.0	.
H23B	H	0.4830	0.8655	0.8666	1.0	.
H23C	H	0.2818	0.8530	0.8899	1.0	.
C24	C	0.2830(13)	0.5796(7)	0.8869(7)	1.0	1
H24A	H	0.2739	0.5973	0.9419	1.0	1
H24B	H	0.1712	0.6012	0.8701	1.0	1
C25	C	0.3261(9)	0.4449(5)	0.9023(4)	1.0	1
H25A	H	0.3488	0.4301	0.8454	1.0	1
H25B	H	0.4324	0.4231	0.9245	1.0	1
C26	C	0.1929(7)	0.3635(4)	0.9646(3)	1.0	1
H26A	H	0.0884	0.3791	0.9410	1.0	1
H26B	H	0.1647	0.3792	1.0213	1.0	1
C27	C	0.2597(12)	0.2295(6)	0.9781(5)	1.0	1
H27A	H	0.2799	0.2134	0.9217	1.0	1
H27B	H	0.3699	0.2172	0.9962	1.0	1
C28	C	0.1375(7)	0.1397(5)	1.0464(3)	1.0	1
H28A	H	0.0284	0.1506	1.0275	1.0	1
H28B	H	0.1147	0.1574	1.1023	1.0	1
C29	C	0.2037(9)	0.0088(6)	1.0620(4)	1.0	1
H29A	H	0.2445	-0.0042	1.0045	1.0	1
H29B	H	0.3031	-0.0041	1.0893	1.0	1
C30	C	0.0815(7)	-0.0843(4)	1.1175(3)	1.0	1
H30A	H	-0.0198	-0.0708	1.0916	1.0	1
H30B	H	0.0439	-0.0744	1.1761	1.0	1
C31	C	0.1523(8)	-0.2105(5)	1.1277(4)	1.0	1
H31A	H	0.1940	-0.2205	1.0699	1.0	1
H31B	H	0.0630	-0.2665	1.1617	1.0	1
H31C	H	0.2463	-0.2272	1.1582	1.0	1
