data_x15297_config-2
loop_
 _symmetry_equiv_pos_as_xyz
'x, y, z'
'-x, -y, -z'

_cell_length_a	10.1547(4)
_cell_length_b	10.3853(4)
_cell_length_c	14.1353(6)
_cell_angle_alpha	78.723(2)
_cell_angle_beta	82.090(2)
_cell_angle_gamma	69.285(2)
loop_
 _atom_site_label
 _atom_site_type_symbol
 _atom_site_fract_x
 _atom_site_fract_y
 _atom_site_fract_z
 _atom_site_occupancy
 _atom_site_disorder_group
Si1	Si	0.12884(5)	0.83514(5)	0.18986(3)	1.0	.
C1	C	0.41913(16)	0.57109(17)	0.41753(11)	1.0	.
C3'	C	0.49574(17)	0.37020(17)	0.54737(12)	1.0	2
S1'	S	0.4944(6)	0.2178(6)	0.6156(4)	1.0	2
C2'	C	0.41721(17)	0.44031(17)	0.46594(12)	1.0	2
C4'	C	0.3457(17)	0.3360(14)	0.4676(12)	1.0	2
H4'	H	0.2751	0.3541	0.4244	1.0	2
C5'	C	0.38276(17)	0.21480(16)	0.53159(12)	1.0	2
C6'	C	0.33666(17)	0.09431(17)	0.54891(11)	1.0	2
S2'	S	0.2330(8)	0.0839(8)	0.4637(5)	1.0	2
C7'	C	0.355(3)	-0.0176(19)	0.6199(14)	1.0	2
H7'	H	0.4127	-0.0347	0.6716	1.0	2
C8'	C	0.281(6)	-0.108(4)	0.610(3)	1.0	2
C9'	C	0.280(5)	-0.230(3)	0.672(3)	1.0	2
H9'	H	0.3267	-0.2584	0.7299	1.0	2
C10'	C	0.209(10)	-0.308(6)	0.646(4)	1.0	2
S3'	S	0.1907(11)	-0.4631(10)	0.7083(6)	1.0	2
C11'	C	0.108(17)	-0.483(8)	0.617(7)	1.0	2
H11'	H	0.0906	-0.5663	0.6138	1.0	2
C12'	C	0.071(3)	-0.368(3)	0.551(2)	1.0	2
H12'	H	0.0108	-0.3555	0.5019	1.0	2
C13'	C	0.130(8)	-0.264(5)	0.562(4)	1.0	2
C14'	C	0.133(6)	-0.144(5)	0.501(3)	1.0	2
H14'	H	0.0781	-0.1087	0.4467	1.0	2
C15'	C	0.218(6)	-0.075(4)	0.521(3)	1.0	2
C16	C	0.33397(17)	0.64768(17)	0.33872(12)	1.0	.
C17	C	0.25807(18)	0.71988(18)	0.27641(12)	1.0	.
C18'	C	0.08051(19)	1.02023(18)	0.20926(13)	1.0	2
H18C	H	0.0140	1.0812	0.1609	1.0	2
H18D	H	0.0303	1.0294	0.2741	1.0	2
C19'	C	0.2046(11)	1.0724(12)	0.202(2)	1.0	2
H19C	H	0.2548	1.0641	0.1371	1.0	2
H19D	H	0.2714	1.0118	0.2504	1.0	2
C20'	C	0.162(3)	1.2236(15)	0.2185(11)	1.0	2
H20C	H	0.0941	1.2376	0.2763	1.0	2
H20D	H	0.2461	1.2425	0.2309	1.0	2
C21'	C	0.0956(7)	1.3229(5)	0.1338(4)	1.0	2
H21D	H	0.1582	1.3028	0.0753	1.0	2
H21E	H	0.0800	1.4183	0.1433	1.0	2
H21F	H	0.0050	1.3132	0.1268	1.0	2
C22	C	0.20963(19)	0.81413(18)	0.06409(12)	1.0	.
H22A	H	0.1434	0.8809	0.0175	1.0	.
H22B	H	0.2971	0.8381	0.0548	1.0	.
C23	C	0.2453(2)	0.66678(19)	0.04125(13)	1.0	.
H23A	H	0.3117	0.6000	0.0877	1.0	.
H23B	H	0.1578	0.6427	0.0506	1.0	.
C24	C	0.3108(2)	0.6498(2)	-0.06137(13)	1.0	.
H24A	H	0.2438	0.7148	-0.1081	1.0	.
H24B	H	0.3975	0.6752	-0.0714	1.0	.
C25	C	0.3475(3)	0.5024(2)	-0.08112(15)	1.0	.
H25A	H	0.4098	0.4371	-0.0328	1.0	.
H25B	H	0.3956	0.4949	-0.1459	1.0	.
H25C	H	0.2608	0.4799	-0.0774	1.0	.
C26	C	-0.03032(18)	0.77935(18)	0.21349(12)	1.0	.
H26A	H	-0.0005	0.6793	0.2079	1.0	.
H26B	H	-0.0694	0.7893	0.2809	1.0	.
C27	C	-0.14772(18)	0.86131(18)	0.14530(13)	1.0	.
H27A	H	-0.1863	0.9595	0.1564	1.0	.
H27B	H	-0.1070	0.8606	0.0775	1.0	.
C28	C	-0.26698(19)	0.80171(19)	0.15964(13)	1.0	.
H28A	H	-0.3004	0.7929	0.2290	1.0	.
H28B	H	-0.2299	0.7069	0.1421	1.0	.
C29	C	-0.3918(2)	0.8895(2)	0.10024(17)	1.0	.
H29A	H	-0.4303	0.9831	0.1179	1.0	.
H29B	H	-0.4649	0.8457	0.1133	1.0	.
H29C	H	-0.3604	0.8960	0.0313	1.0	.
