data_x15401_config-1
loop_
 _symmetry_equiv_pos_as_xyz
'x, y, z'
'-x, -y, -z'

_cell_length_a	9.8492(3)
_cell_length_b	10.2479(2)
_cell_length_c	16.9850(5)
_cell_angle_alpha	93.416(2)
_cell_angle_beta	106.750(2)
_cell_angle_gamma	110.500(2)
loop_
 _atom_site_label
 _atom_site_type_symbol
 _atom_site_fract_x
 _atom_site_fract_y
 _atom_site_fract_z
 _atom_site_occupancy
 _atom_site_disorder_group
Si1	Si	1.0098(4)	1.2055(4)	0.8187(2)	1.0	.
C1	C	0.6250(9)	1.0491(7)	0.5752(5)	1.0	.
C2	C	0.601(2)	0.9349(17)	0.5311(11)	1.0	1
C3	C	0.481(2)	0.8719(19)	0.4583(12)	1.0	1
C4	C	0.4734(18)	0.7369(17)	0.4187(10)	1.0	1
C5	C	0.585(4)	0.706(3)	0.4628(19)	1.0	1
S1	S	0.7078(4)	0.8305(3)	0.5528(2)	1.0	1
C6	C	0.611(3)	0.577(2)	0.4430(15)	1.0	1
S2	S	0.4938(3)	0.4487(3)	0.3539(2)	1.0	1
C7	C	0.730(2)	0.5498(17)	0.4749(14)	1.0	1
C8	C	0.7300(15)	0.4110(13)	0.4587(8)	1.0	1
C9	C	0.834(3)	0.342(2)	0.4863(14)	1.0	1
C10	C	0.804(3)	0.215(3)	0.4374(16)	1.0	1
S3	S	0.9253(4)	0.1232(3)	0.4690(2)	1.0	1
C11	C	0.805(4)	-0.008(3)	0.3838(19)	1.0	1
C12	C	0.6931(19)	0.0235(16)	0.3434(11)	1.0	1
C13	C	0.6891(15)	0.1607(15)	0.3619(8)	1.0	1
C14	C	0.584(3)	0.230(2)	0.3341(14)	1.0	1
C15	C	0.609(3)	0.353(2)	0.3848(13)	1.0	1
C16	C	0.7546(11)	1.1013(10)	0.6558(7)	1.0	.
C17	C	0.8521(13)	1.1399(12)	0.7198(8)	1.0	.
C98	C	1.137(2)	1.374(2)	0.8033(14)	1.0	.
C99	C	1.082(3)	1.057(3)	0.8394(15)	1.0	.
C97	C	1.039(3)	1.316(3)	0.993(2)	1.0	.
C96	C	1.199(2)	1.346(2)	0.7236(14)	1.0	.
C95	C	0.968(3)	0.691(3)	0.7230(17)	1.0	.
C94	C	0.868(3)	1.362(3)	0.8773(19)	1.0	.
C93	C	0.918(2)	1.246(2)	0.8938(14)	1.0	.
C92	C	1.069(5)	0.837(5)	0.808(3)	1.0	.
C91	C	1.439(5)	1.725(5)	0.906(3)	1.0	.
C90	C	1.290(3)	1.459(3)	0.8717(18)	1.0	.
C89	C	0.964(5)	0.936(4)	0.818(2)	1.0	.
