data_x15401_config-2
loop_
 _symmetry_equiv_pos_as_xyz
'x, y, z'
'-x, -y, -z'

_cell_length_a	9.8492(3)
_cell_length_b	10.2479(2)
_cell_length_c	16.9850(5)
_cell_angle_alpha	93.416(2)
_cell_angle_beta	106.750(2)
_cell_angle_gamma	110.500(2)
loop_
 _atom_site_label
 _atom_site_type_symbol
 _atom_site_fract_x
 _atom_site_fract_y
 _atom_site_fract_z
 _atom_site_occupancy
 _atom_site_disorder_group
Si1	Si	1.0098(4)	1.2055(4)	0.8187(2)	1.0	.
C1	C	0.6250(9)	1.0491(7)	0.5752(5)	1.0	.
C3'	C	0.452(3)	0.8761(19)	0.4431(13)	1.0	2
C2'	C	0.578(2)	0.9087(19)	0.5132(12)	1.0	2
C4'	C	0.6513(19)	0.8043(16)	0.5191(10)	1.0	2
C5'	C	0.578(4)	0.702(3)	0.455(2)	1.0	2
S1'	S	0.4204(5)	0.7185(4)	0.3842(3)	1.0	2
C6'	C	0.616(5)	0.580(4)	0.438(2)	1.0	2
S2'	S	0.7690(7)	0.5652(6)	0.5135(3)	1.0	2
C7'	C	0.548(2)	0.4676(18)	0.3809(12)	1.0	2
C8'	C	0.613(4)	0.360(3)	0.380(2)	1.0	2
C9'	C	0.572(4)	0.218(3)	0.340(2)	1.0	2
C10'	C	0.671(2)	0.150(2)	0.3709(13)	1.0	2
S3'	S	0.6459(9)	0.0056(7)	0.3018(5)	1.0	2
C11'	C	0.805(6)	-0.003(4)	0.375(3)	1.0	2
C12'	C	0.875(2)	0.1090(18)	0.4315(12)	1.0	2
C13'	C	0.808(5)	0.215(4)	0.435(3)	1.0	2
C14'	C	0.843(4)	0.353(3)	0.479(2)	1.0	2
C15'	C	0.748(2)	0.4225(19)	0.4457(11)	1.0	2
C16	C	0.7546(11)	1.1013(10)	0.6558(7)	1.0	.
C17	C	0.8521(13)	1.1399(12)	0.7198(8)	1.0	.
C98	C	1.137(2)	1.374(2)	0.8033(14)	1.0	.
C99	C	1.082(3)	1.057(3)	0.8394(15)	1.0	.
C97	C	1.039(3)	1.316(3)	0.993(2)	1.0	.
C96	C	1.199(2)	1.346(2)	0.7236(14)	1.0	.
C95	C	0.968(3)	0.691(3)	0.7230(17)	1.0	.
C94	C	0.868(3)	1.362(3)	0.8773(19)	1.0	.
C93	C	0.918(2)	1.246(2)	0.8938(14)	1.0	.
C92	C	1.069(5)	0.837(5)	0.808(3)	1.0	.
C91	C	1.439(5)	1.725(5)	0.906(3)	1.0	.
C90	C	1.290(3)	1.459(3)	0.8717(18)	1.0	.
C89	C	0.964(5)	0.936(4)	0.818(2)	1.0	.
