data_x16026_config-1
loop_
 _symmetry_equiv_pos_as_xyz
'x, y, z'
'-x, -y, -z'

_cell_length_a	9.9556(2)
_cell_length_b	10.1493(2)
_cell_length_c	14.9580(3)
_cell_angle_alpha	92.564(1)
_cell_angle_beta	98.008(1)
_cell_angle_gamma	110.722(1)
loop_
 _atom_site_label
 _atom_site_type_symbol
 _atom_site_fract_x
 _atom_site_fract_y
 _atom_site_fract_z
 _atom_site_occupancy
 _atom_site_disorder_group
Si1	Si	0.63394(6)	-0.08948(5)	0.14075(3)	1.0	.
C1	C	0.90632(18)	-0.03503(18)	0.41312(11)	1.0	.
C2	C	0.92067(18)	0.08197(18)	0.47209(12)	1.0	1
S3	S	0.82039(10)	0.18390(8)	0.43879(7)	1.0	1
C4	C	0.900(3)	0.294(2)	0.5388(16)	1.0	1
C5	C	0.9898(5)	0.2436(4)	0.5911(3)	1.0	1
F1	F	1.0665(2)	0.3086(3)	0.67353(19)	1.0	1
C6	C	1.01264(19)	0.11707(17)	0.55677(11)	1.0	1
C7	C	0.865(4)	0.416(3)	0.5624(19)	1.0	1
S8	S	0.94855(9)	0.53292(8)	0.65893(6)	1.0	1
C9	C	0.8475(16)	0.6389(12)	0.6298(9)	1.0	1
C10	C	0.8530(13)	0.7604(9)	0.6789(7)	1.0	1
H10	H	0.9170	0.7961	0.7350	1.0	1
C11	C	0.7606(11)	0.8282(10)	0.6426(5)	1.0	1
C12	C	0.7509(5)	0.9572(4)	0.6775(3)	1.0	1
H12	H	0.8114	1.0140	0.7305	1.0	1
C13	C	0.6448(14)	0.9892(11)	0.626(1)	1.0	1
H13	H	0.6165	1.0656	0.6428	1.0	1
S14	S	0.56789(10)	0.87910(9)	0.52876(8)	1.0	1
C15	C	0.6661(10)	0.7715(8)	0.5584(5)	1.0	1
C16	C	0.6591(11)	0.6483(8)	0.5099(6)	1.0	1
H16	H	0.5954	0.6125	0.4537	1.0	1
C17	C	0.7498(17)	0.5793(14)	0.5475(9)	1.0	1
C18	C	0.7634(5)	0.4544(5)	0.5104(3)	1.0	1
H18	H	0.7075	0.4025	0.4548	1.0	1
C19	C	0.8175(2)	-0.0625(2)	0.32590(12)	1.0	.
C20	C	0.7453(2)	-0.0781(2)	0.25212(13)	1.0	.
C21	C	0.6635(3)	-0.2176(4)	0.0566(2)	1.0	1
H21A	H	0.6418	-0.3074	0.0850	1.0	1
H21B	H	0.5849	-0.2357	0.0039	1.0	1
C22	C	0.7852(8)	-0.2003(8)	0.0210(5)	1.0	1
H22	H	0.8038	-0.1052	-0.0016	1.0	1
C23	C	0.8057(8)	-0.2757(8)	-0.0552(4)	1.0	1
H23A	H	0.8049	-0.3685	-0.0392	1.0	1
H23B	H	0.8993	-0.2221	-0.0730	1.0	1
H23C	H	0.7268	-0.2885	-0.1059	1.0	1
C24	C	0.9316(5)	-0.1650(8)	0.0975(3)	1.0	1
H24A	H	0.9419	-0.0843	0.1399	1.0	1
H24B	H	1.0174	-0.1417	0.0675	1.0	1
H24C	H	0.9231	-0.2478	0.1308	1.0	1
C25	C	0.4336(3)	-0.1637(3)	0.1520(2)	1.0	1
H25A	H	0.4219	-0.1142	0.2072	1.0	1
H25B	H	0.3785	-0.1385	0.0995	1.0	1
C26	C	0.3606(4)	-0.3245(4)	0.1573(3)	1.0	1
H26	H	0.3787	-0.3751	0.1040	1.0	1
C27	C	0.4216(9)	-0.3732(7)	0.2430(4)	1.0	1
H27A	H	0.4025	-0.3270	0.2962	1.0	1
H27B	H	0.5269	-0.3479	0.2464	1.0	1
H27C	H	0.3748	-0.4761	0.2418	1.0	1
C28	C	0.1955(7)	-0.3632(14)	0.1498(8)	1.0	1
H28A	H	0.1488	-0.4648	0.1544	1.0	1
H28B	H	0.1568	-0.3400	0.0912	1.0	1
H28C	H	0.1754	-0.3095	0.1989	1.0	1
C29	C	0.6898(3)	0.0900(3)	0.10331(19)	1.0	1
H29A	H	0.7767	0.1047	0.0742	1.0	1
H29B	H	0.6109	0.0916	0.0556	1.0	1
C30	C	0.7256(8)	0.2183(6)	0.1736(5)	1.0	1
H30	H	0.8026	0.2151	0.2231	1.0	1
C31	C	0.5955(5)	0.2154(4)	0.2158(3)	1.0	1
H31A	H	0.5152	0.2100	0.1679	1.0	1
H31B	H	0.6218	0.3018	0.2569	1.0	1
H31C	H	0.5651	0.1326	0.2499	1.0	1
C32	C	0.7873(5)	0.3559(5)	0.1303(3)	1.0	1
H32A	H	0.7132	0.3624	0.0820	1.0	1
H32B	H	0.8730	0.3570	0.1046	1.0	1
H32C	H	0.8153	0.4366	0.1765	1.0	1
