data_x16035_config-2
loop_
 _symmetry_equiv_pos_as_xyz
'x, y, z'
'-x, -y, -z'

_cell_length_a	8.2718(1)
_cell_length_b	10.5045(2)
_cell_length_c	16.6383(3)
_cell_angle_alpha	80.085(1)
_cell_angle_beta	79.992(1)
_cell_angle_gamma	71.713(1)
loop_
 _atom_site_label
 _atom_site_type_symbol
 _atom_site_fract_x
 _atom_site_fract_y
 _atom_site_fract_z
 _atom_site_occupancy
 _atom_site_disorder_group
Si1	Si	0.54957(8)	0.36668(7)	0.16779(4)	1.0	.
C1	C	0.5375(3)	0.4493(3)	0.42138(15)	1.0	.
C2'	C	0.3993(3)	0.4296(3)	0.47973(16)	1.0	2
F1'	F	0.2544(5)	0.3022(5)	0.4247(3)	1.0	2
C3'	C	0.2576(11)	0.3694(9)	0.4897(5)	1.0	2
C4'	C	0.149(7)	0.367(7)	0.561(3)	1.0	2
S5'	S	0.1884(3)	0.4636(2)	0.62505(14)	1.0	2
C6'	C	0.3635(3)	0.4792(3)	0.55621(15)	1.0	2
C8'	C	-0.1081(10)	0.3240(8)	0.6417(5)	1.0	2
H8'	H	-0.1049	0.3707	0.6853	1.0	2
C9'	C	-0.233(2)	0.254(2)	0.6433(9)	1.0	2
C10'	C	-0.373(2)	0.250(2)	0.7031(11)	1.0	2
H10'	H	-0.3968	0.2964	0.7499	1.0	2
C11'	C	-0.477(4)	0.175(4)	0.6912(19)	1.0	2
S12'	S	-0.6606(6)	0.1533(5)	0.7530(2)	1.0	2
C13'	C	-0.685(3)	0.047(3)	0.689(2)	1.0	2
H13'	H	-0.7712	0.0015	0.7010	1.0	2
C14'	C	-0.5713(16)	0.0364(14)	0.6232(7)	1.0	2
H14'	H	-0.5706	-0.0139	0.5808	1.0	2
C15'	C	-0.447(6)	0.108(6)	0.621(3)	1.0	2
C16'	C	-0.302(3)	0.107(3)	0.5624(15)	1.0	2
H16'	H	-0.2741	0.0565	0.5173	1.0	2
C17'	C	-0.202(2)	0.185(2)	0.5740(12)	1.0	2
S18'	S	-0.0211(2)	0.2083(2)	0.50907(13)	1.0	2
C7'	C	0.004(4)	0.316(4)	0.5725(16)	1.0	2
C19	C	0.5648(3)	0.4067(3)	0.34175(16)	1.0	.
C20	C	0.5768(3)	0.3767(3)	0.27395(16)	1.0	.
C21	C	0.5972(3)	0.5182(3)	0.10282(16)	1.0	.
H21A	H	0.5987	0.5098	0.0443	1.0	.
H21B	H	0.5030	0.5997	0.1165	1.0	.
C22	C	0.7677(3)	0.5384(3)	0.11320(16)	1.0	.
H22A	H	0.7668	0.5467	0.1717	1.0	.
H22B	H	0.8624	0.4573	0.0992	1.0	.
C23	C	0.8035(3)	0.6626(3)	0.06007(17)	1.0	.
H23A	H	0.7092	0.7440	0.0741	1.0	.
H23B	H	0.8049	0.6544	0.0015	1.0	.
C24	C	0.9738(3)	0.6810(3)	0.07138(19)	1.0	.
H24A	H	0.9719	0.6919	0.1289	1.0	.
H24B	H	0.9909	0.7614	0.0357	1.0	.
H24C	H	1.0680	0.6013	0.0568	1.0	.
C25	C	0.6925(3)	0.2064(3)	0.12977(15)	1.0	.
H25A	H	0.8136	0.2060	0.1250	1.0	.
H25B	H	0.6776	0.1288	0.1704	1.0	.
C26	C	0.6541(3)	0.1890(3)	0.04607(16)	1.0	.
H26A	H	0.5289	0.2062	0.0480	1.0	.
H26B	H	0.6895	0.2568	0.0035	1.0	.
C27	C	0.7467(3)	0.0482(3)	0.02205(17)	1.0	.
H27A	H	0.8703	0.0270	0.0268	1.0	.
H27B	H	0.7013	-0.0185	0.0613	1.0	.
C28	C	0.7273(4)	0.0333(3)	-0.0650(2)	1.0	.
H28A	H	0.6053	0.0535	-0.0701	1.0	.
H28B	H	0.7879	-0.0594	-0.0763	1.0	.
H28C	H	0.7763	0.0964	-0.1044	1.0	.
C29	C	0.3211(3)	0.3694(3)	0.17261(16)	1.0	.
H29A	H	0.2455	0.4512	0.1964	1.0	.
H29B	H	0.2948	0.3760	0.1159	1.0	.
C30	C	0.2798(3)	0.2449(3)	0.22361(17)	1.0	.
H30A	H	0.3498	0.1635	0.1979	1.0	.
H30B	H	0.3122	0.2350	0.2794	1.0	.
C31	C	0.0909(3)	0.2527(3)	0.23107(19)	1.0	.
H31A	H	0.0205	0.3368	0.2540	1.0	.
H31B	H	0.0600	0.2578	0.1755	1.0	.
C32	C	0.0476(4)	0.1330(3)	0.2852(2)	1.0	.
H32A	H	0.1086	0.0503	0.2602	1.0	.
H32B	H	-0.0764	0.1466	0.2908	1.0	.
H32C	H	0.0826	0.1248	0.3397	1.0	.
