data_k06247_config-1
loop_
 _symmetry_equiv_pos_as_xyz
'x, y, z'
'-x, -y, -z'

_cell_length_a	9.2962(1)
_cell_length_b	10.1861(2)
_cell_length_c	11.4873(2)
_cell_angle_alpha	109.6687(7)
_cell_angle_beta	95.2066(7)
_cell_angle_gamma	91.5590(7)
loop_
 _atom_site_label
 _atom_site_type_symbol
 _atom_site_fract_x
 _atom_site_fract_y
 _atom_site_fract_z
 _atom_site_occupancy
 _atom_site_disorder_group
C1	C	-0.04064(18)	0.09922(15)	-0.05596(14)	1.0	.
C2	C	-0.13288(19)	0.06745(15)	0.02366(14)	1.0	.
C3	C	-0.26464(19)	0.13350(16)	0.04893(14)	1.0	.
H3	H	-0.2940	0.2015	0.0133	1.0	1
C4'	C	-0.349(3)	0.096(3)	0.127(3)	1.0	1
C5'	C	-0.4860(7)	0.1431(7)	0.1630(7)	1.0	1
H5'	H	-0.5341	0.2092	0.1341	1.0	1
C6'	C	-0.5425(7)	0.0868(8)	0.2414(8)	1.0	1
S7'	S	-0.4293(3)	-0.0314(3)	0.2779(2)	1.0	1
C8'	C	-0.3020(14)	-0.005(2)	0.183(2)	1.0	1
C13'	C	-0.6830(5)	0.1095(6)	0.2978(5)	1.0	1
H13A	H	-0.7403	0.0191	0.2723	1.0	1
H13B	H	-0.7389	0.1731	0.2648	1.0	1
C14'	C	-0.6628(18)	0.1719(13)	0.4408(8)	1.0	1
H14A	H	-0.5978	0.1156	0.4737	1.0	1
H14B	H	-0.7568	0.1718	0.4730	1.0	1
H14C	H	-0.6208	0.2680	0.4667	1.0	1
C9	C	-0.1831(2)	-0.06495(16)	0.16077(14)	1.0	.
H9	H	-0.1566	-0.1320	0.1984	1.0	1
C10	C	-0.09080(19)	-0.03333(15)	0.08108(14)	1.0	.
C11	C	-0.08105(18)	0.19921(16)	-0.11439(14)	1.0	.
C12	C	-0.11394(18)	0.28157(16)	-0.16550(15)	1.0	.
C15	C	-0.22328(19)	0.27874(16)	-0.41665(14)	1.0	.
H15	H	-0.3102	0.2228	-0.4098	1.0	.
C16	C	-0.1138(2)	0.1716(2)	-0.47589(17)	1.0	.
H16A	H	-0.1606	0.1023	-0.5527	1.0	.
H16B	H	-0.0799	0.1247	-0.4177	1.0	.
H16C	H	-0.0313	0.2198	-0.4950	1.0	.
C17	C	-0.2752(2)	0.35738(19)	-0.50361(16)	1.0	.
H17A	H	-0.1933	0.4120	-0.5161	1.0	.
H17B	H	-0.3494	0.4203	-0.4665	1.0	.
H17C	H	-0.3163	0.2903	-0.5839	1.0	.
C18	C	0.00243(18)	0.52112(17)	-0.23235(15)	1.0	.
H18	H	0.0291	0.5643	-0.1406	1.0	.
C19	C	0.13598(19)	0.4487(2)	-0.28561(18)	1.0	.
H19A	H	0.1197	0.4137	-0.3766	1.0	.
H19B	H	0.1533	0.3704	-0.2558	1.0	.
H19C	H	0.2204	0.5156	-0.2585	1.0	.
C20	C	-0.0295(2)	0.64242(17)	-0.27968(17)	1.0	.
H20A	H	0.0577	0.7049	-0.2629	1.0	.
H20B	H	-0.1077	0.6943	-0.2370	1.0	.
H20C	H	-0.0588	0.6055	-0.3694	1.0	.
C21	C	-0.31452(18)	0.50202(17)	-0.18247(15)	1.0	.
H21	H	-0.3361	0.5688	-0.2277	1.0	.
C22	C	-0.2723(2)	0.58867(18)	-0.04560(16)	1.0	.
H22A	H	-0.3529	0.6447	-0.0124	1.0	.
H22B	H	-0.1870	0.6507	-0.0383	1.0	.
H22C	H	-0.2501	0.5262	0.0015	1.0	.
C23	C	-0.4540(2)	0.4119(2)	-0.19544(18)	1.0	.
H23A	H	-0.4350	0.3414	-0.1562	1.0	.
H23B	H	-0.4872	0.3655	-0.2837	1.0	.
H23C	H	-0.5288	0.4713	-0.1546	1.0	.
Si1	Si	-0.16143(5)	0.39860(4)	-0.25314(4)	1.0	.
