data_k06247_config-2
loop_
 _symmetry_equiv_pos_as_xyz
'x, y, z'
'-x, -y, -z'

_cell_length_a	9.2962(1)
_cell_length_b	10.1861(2)
_cell_length_c	11.4873(2)
_cell_angle_alpha	109.6687(7)
_cell_angle_beta	95.2066(7)
_cell_angle_gamma	91.5590(7)
loop_
 _atom_site_label
 _atom_site_type_symbol
 _atom_site_fract_x
 _atom_site_fract_y
 _atom_site_fract_z
 _atom_site_occupancy
 _atom_site_disorder_group
C1	C	-0.04064(18)	0.09922(15)	-0.05596(14)	1.0	.
C2	C	-0.13288(19)	0.06745(15)	0.02366(14)	1.0	.
C3	C	-0.26464(19)	0.13350(16)	0.04893(14)	1.0	.
C8	C	-0.3179(12)	0.0009(19)	0.1812(18)	1.0	2
C7	C	-0.4290(9)	-0.0183(9)	0.2528(7)	1.0	2
H7	H	-0.4243	-0.0838	0.2953	1.0	2
C6	C	-0.5411(7)	0.0634(7)	0.2557(7)	1.0	2
S5	S	-0.51942(15)	0.17187(14)	0.16724(16)	1.0	2
C4	C	-0.354(2)	0.103(3)	0.125(2)	1.0	2
C13	C	-0.6720(5)	0.0719(4)	0.3246(4)	1.0	2
H13C	H	-0.6826	-0.0129	0.3475	1.0	2
H13D	H	-0.7590	0.0739	0.2689	1.0	2
C14	C	-0.6639(15)	0.2018(10)	0.4432(7)	1.0	2
H14D	H	-0.5792	0.1994	0.4997	1.0	2
H14E	H	-0.7518	0.2024	0.4843	1.0	2
H14F	H	-0.6553	0.2863	0.4210	1.0	2
C9	C	-0.1831(2)	-0.06495(16)	0.16077(14)	1.0	.
C10	C	-0.09080(19)	-0.03333(15)	0.08108(14)	1.0	.
C11	C	-0.08105(18)	0.19921(16)	-0.11439(14)	1.0	.
C12	C	-0.11394(18)	0.28157(16)	-0.16550(15)	1.0	.
C15	C	-0.22328(19)	0.27874(16)	-0.41665(14)	1.0	.
H15	H	-0.3102	0.2228	-0.4098	1.0	.
C16	C	-0.1138(2)	0.1716(2)	-0.47589(17)	1.0	.
H16A	H	-0.1606	0.1023	-0.5527	1.0	.
H16B	H	-0.0799	0.1247	-0.4177	1.0	.
H16C	H	-0.0313	0.2198	-0.4950	1.0	.
C17	C	-0.2752(2)	0.35738(19)	-0.50361(16)	1.0	.
H17A	H	-0.1933	0.4120	-0.5161	1.0	.
H17B	H	-0.3494	0.4203	-0.4665	1.0	.
H17C	H	-0.3163	0.2903	-0.5839	1.0	.
C18	C	0.00243(18)	0.52112(17)	-0.23235(15)	1.0	.
H18	H	0.0291	0.5643	-0.1406	1.0	.
C19	C	0.13598(19)	0.4487(2)	-0.28561(18)	1.0	.
H19A	H	0.1197	0.4137	-0.3766	1.0	.
H19B	H	0.1533	0.3704	-0.2558	1.0	.
H19C	H	0.2204	0.5156	-0.2585	1.0	.
C20	C	-0.0295(2)	0.64242(17)	-0.27968(17)	1.0	.
H20A	H	0.0577	0.7049	-0.2629	1.0	.
H20B	H	-0.1077	0.6943	-0.2370	1.0	.
H20C	H	-0.0588	0.6055	-0.3694	1.0	.
C21	C	-0.31452(18)	0.50202(17)	-0.18247(15)	1.0	.
H21	H	-0.3361	0.5688	-0.2277	1.0	.
C22	C	-0.2723(2)	0.58867(18)	-0.04560(16)	1.0	.
H22A	H	-0.3529	0.6447	-0.0124	1.0	.
H22B	H	-0.1870	0.6507	-0.0383	1.0	.
H22C	H	-0.2501	0.5262	0.0015	1.0	.
C23	C	-0.4540(2)	0.4119(2)	-0.19544(18)	1.0	.
H23A	H	-0.4350	0.3414	-0.1562	1.0	.
H23B	H	-0.4872	0.3655	-0.2837	1.0	.
H23C	H	-0.5288	0.4713	-0.1546	1.0	.
Si1	Si	-0.16143(5)	0.39860(4)	-0.25314(4)	1.0	.
