data_shelxl_config-0
loop_
 _symmetry_equiv_pos_as_xyz
'x, y, z'
'-x+1/2, y+1/2, -z+1/2'
'-x, -y, -z'
'x-1/2, -y-1/2, z-1/2'

_cell_length_a	17.9980(7)
_cell_length_b	17.7810(8)
_cell_length_c	25.7650(14)
_cell_angle_alpha	90.00
_cell_angle_beta	99.7060(19)
_cell_angle_gamma	90.00
loop_
 _atom_site_label
 _atom_site_type_symbol
 _atom_site_fract_x
 _atom_site_fract_y
 _atom_site_fract_z
 _atom_site_occupancy
 _atom_site_disorder_group
Si1	Si	0.9803(2)	0.2101(2)	0.14344(16)	1.0	.
Si2	Si	0.6257(2)	0.2965(2)	0.48396(17)	1.0	.
Si3	Si	1.1002(3)	0.8151(2)	0.27688(18)	1.0	.
Si4	Si	0.7860(3)	0.7562(2)	0.63479(17)	1.0	.
O7	O	0.8852(5)	0.6422(5)	0.2445(3)	1.0	.
O11	O	1.0011(5)	0.3815(5)	0.3747(3)	1.0	.
C78	C	0.7768(6)	0.1877(7)	0.3433(5)	1.0	.
O5	O	0.8002(5)	-0.1700(5)	0.3267(3)	1.0	.
C20	C	0.9804(6)	0.6539(8)	0.3938(5)	1.0	.
O6	O	0.7277(5)	-0.1456(5)	0.3894(3)	1.0	.
C73	C	0.8660(6)	0.3710(7)	0.2638(5)	1.0	.
O10	O	0.8401(5)	1.1686(5)	0.5205(3)	1.0	.
O12	O	0.9316(4)	0.3559(5)	0.4401(3)	1.0	.
C36	C	0.8857(7)	0.7583(7)	0.4898(5)	1.0	.
O8	O	0.8156(5)	0.6671(5)	0.3097(3)	1.0	.
C23	C	0.9549(6)	0.7150(7)	0.4208(5)	1.0	.
C75	C	0.7769(7)	0.3998(8)	0.3422(5)	1.0	.
C77	C	0.7610(6)	0.2634(7)	0.3540(5)	1.0	.
C76	C	0.7913(7)	0.3245(7)	0.3290(5)	1.0	.
C74	C	0.8379(7)	0.3076(7)	0.2893(5)	1.0	.
C88	C	0.8523(6)	0.2327(7)	0.2763(5)	1.0	.
C85	C	0.8058(6)	0.0379(7)	0.3173(5)	1.0	.
C18	C	0.9678(7)	0.5791(8)	0.4086(5)	1.0	.
C79	C	0.7475(7)	0.1272(8)	0.3691(5)	1.0	.
O9	O	0.9184(5)	1.1957(5)	0.4596(3)	1.0	.
C72	C	0.8825(7)	0.5052(7)	0.2493(5)	1.0	.
C22	C	0.9112(7)	0.6998(7)	0.4625(5)	1.0	.
C19	C	0.9970(7)	0.5198(7)	0.3803(5)	1.0	.
C67	C	0.8636(7)	0.5753(8)	0.2644(5)	1.0	.
C86	C	0.8365(7)	0.0956(7)	0.2907(5)	1.0	.
C84	C	0.8243(7)	-0.0364(8)	0.3045(5)	1.0	.
C87	C	0.8238(6)	0.1742(7)	0.3033(4)	1.0	.
C45	C	0.8987(6)	0.8363(7)	0.4768(5)	1.0	.
C81	C	0.7332(7)	-0.0074(8)	0.3852(5)	1.0	.
C21	C	0.8994(7)	0.6217(8)	0.4772(5)	1.0	.
C83	C	0.7954(7)	-0.0920(8)	0.3310(5)	1.0	.
C46	C	0.9428(7)	0.8517(7)	0.4365(5)	1.0	.
C80	C	0.7601(7)	0.0521(7)	0.3562(5)	1.0	.
C52	C	0.9451(7)	1.0637(8)	0.4362(5)	1.0	.
C89	C	0.8963(7)	0.2175(7)	0.2361(5)	1.0	.
C17	C	0.9255(7)	0.5647(7)	0.4485(5)	1.0	.
C70	C	0.8060(7)	0.4598(7)	0.3159(5)	1.0	.
C71	C	0.8511(6)	0.4450(7)	0.2771(5)	1.0	.
C25	C	1.0125(6)	0.8048(7)	0.3666(5)	1.0	.
C15	C	0.9383(7)	0.4344(8)	0.4347(5)	1.0	.
C48	C	0.8685(7)	0.8952(8)	0.5027(5)	1.0	.
C54	C	0.8656(7)	1.1017(7)	0.5008(5)	1.0	.
C69	C	0.7911(7)	0.5357(7)	0.3315(5)	1.0	.
C51	C	0.9277(6)	0.9852(7)	0.4503(5)	1.0	.
C68	C	0.8209(7)	0.5902(7)	0.3041(5)	1.0	.
C82	C	0.7490(7)	-0.0767(8)	0.3716(5)	1.0	.
C58	C	0.7012(7)	0.3078(7)	0.5434(5)	1.0	.
C16	C	0.9095(6)	0.4871(7)	0.4646(5)	1.0	.
C24	C	0.9695(7)	0.7905(8)	0.4071(5)	1.0	.
C50	C	0.8809(7)	0.9702(7)	0.4894(5)	1.0	.
C49	C	0.8486(6)	1.0306(7)	0.5157(5)	1.0	.
C14	C	0.9797(7)	0.4487(8)	0.3943(5)	1.0	.
C90	C	0.9307(6)	0.2102(7)	0.1997(5)	1.0	.
C59	C	0.5629(7)	0.3816(7)	0.4754(5)	1.0	.
C47	C	0.9546(7)	0.9265(8)	0.4220(5)	1.0	.
C26	C	1.0475(7)	0.8118(7)	0.3332(5)	1.0	.
C95	C	0.9603(8)	0.3671(8)	0.1252(5)	1.0	.
C37	C	0.8467(7)	0.7469(7)	0.5327(5)	1.0	.
C91	C	1.1240(8)	0.1478(8)	0.1891(5)	1.0	.
C93	C	1.0512(7)	0.1316(7)	0.1504(5)	1.0	.
C62	C	0.5702(7)	0.2067(8)	0.4866(5)	1.0	.
C96	C	0.9087(7)	0.1940(8)	0.0853(5)	1.0	.
C39	C	0.8255(8)	0.6829(8)	0.6841(5)	1.0	.
C53	C	0.9120(7)	1.1175(8)	0.4628(5)	1.0	.
C94	C	1.0291(8)	0.3054(8)	0.1435(5)	1.0	.
C65	C	0.6759(7)	0.2877(8)	0.4261(5)	1.0	.
C92	C	1.1809(8)	0.0775(8)	0.1969(6)	1.0	.
C66	C	0.7134(7)	0.2785(7)	0.3924(5)	1.0	.
C60	C	0.4880(8)	0.3670(8)	0.4368(6)	1.0	.
C35	C	0.8577(7)	0.7064(7)	0.2736(5)	1.0	.
C97	C	0.8711(8)	0.1150(8)	0.0850(6)	1.0	.
C55	C	0.8730(7)	1.2315(7)	0.4929(5)	1.0	.
C38	C	0.8165(6)	0.7403(7)	0.5707(5)	1.0	.
C61	C	0.4357(7)	0.4387(8)	0.4283(5)	1.0	.
C13	C	0.9737(7)	0.3176(7)	0.4027(5)	1.0	.
C43	C	0.8275(7)	0.8504(8)	0.6577(5)	1.0	.
C63	C	0.6268(9)	0.1385(9)	0.4962(6)	1.0	.
C57	C	0.7496(8)	0.3796(8)	0.5407(6)	1.0	.
C32	C	0.9746(13)	0.8970(13)	0.2202(9)	1.0	.
C42	C	0.6808(8)	0.7537(8)	0.6254(6)	1.0	.
C98	C	0.8029(9)	0.1023(9)	0.0390(6)	1.0	.
C56	C	0.8184(9)	0.3787(9)	0.5895(6)	1.0	.
C34	C	0.9269(9)	0.9488(10)	0.1824(6)	1.0	.
C44	C	0.6372(8)	0.8271(9)	0.6030(6)	1.0	.
C64	C	0.5770(8)	0.0609(9)	0.4936(6)	1.0	.
C41	C	0.9167(8)	0.8492(8)	0.6623(5)	1.0	.
C30	C	1.2219(14)	0.8954(14)	0.3443(10)	1.0	.
C31	C	1.0466(14)	0.8718(13)	0.2253(9)	1.0	.
C40	C	0.7852(12)	0.5972(13)	0.6611(9)	1.0	.
C33	C	1.1905(12)	0.8661(13)	0.3002(9)	1.0	.
C99	C	0.7585(7)	-0.2086(7)	0.3633(5)	1.0	.
C100	C	0.832(3)	0.574(3)	0.694(2)	1.0	.
C101	C	0.9991(8)	0.4494(8)	0.1354(6)	1.0	.
C102	C	0.9463(7)	0.9310(8)	0.6818(5)	1.0	.
C103	C	0.6453(8)	0.8388(9)	0.5441(6)	1.0	.
C104	C	1.2938(9)	0.9397(9)	0.3603(6)	1.0	.
C107	C	1.0934(15)	0.5914(17)	0.2501(10)	1.0	.
C105	C	1.1301(12)	0.7087(12)	0.2705(8)	1.0	.
C106	C	1.0612(16)	0.6905(18)	0.2337(11)	1.0	.
