data_k07075_config-2
loop_
 _symmetry_equiv_pos_as_xyz
'x, y, z'
'-x, -y, -z'

_cell_length_a	7.1877(3)
_cell_length_b	7.8704(4)
_cell_length_c	16.4794(8)
_cell_angle_alpha	91.9236(18)
_cell_angle_beta	102.737(2)
_cell_angle_gamma	90.9632(18)
loop_
 _atom_site_label
 _atom_site_type_symbol
 _atom_site_fract_x
 _atom_site_fract_y
 _atom_site_fract_z
 _atom_site_occupancy
 _atom_site_disorder_group
Si1	Si	0.55936(11)	0.80826(9)	0.83562(4)	1.0	.
C1	C	0.5197(3)	0.5628(3)	0.58338(14)	1.0	.
C2	C	0.3623(3)	0.4555(3)	0.54697(14)	1.0	.
C3	C	0.2222(3)	0.4082(3)	0.59037(15)	1.0	.
H3	H	0.2366	0.4473	0.6466	1.0	.
C4	C	0.0647(3)	0.3072(3)	0.55413(14)	1.0	.
C5	C	-0.0799(4)	0.2608(3)	0.59766(15)	1.0	.
H5	H	-0.0674	0.2993	0.6539	1.0	.
C6	C	-0.2328(4)	0.1640(3)	0.56036(16)	1.0	.
H6	H	-0.3259	0.1341	0.5907	1.0	.
C7	C	-0.2565(4)	0.1057(3)	0.47565(15)	1.0	.
H7	H	-0.3661	0.0388	0.4498	1.0	.
C8	C	-0.1239(3)	0.1452(3)	0.43193(15)	1.0	.
H8	H	-0.1412	0.1045	0.3758	1.0	.
C9	C	0.0414(3)	0.2468(3)	0.46866(14)	1.0	.
C10	C	0.1804(3)	0.2883(3)	0.42555(15)	1.0	.
H10	H	0.1668	0.2453	0.3699	1.0	.
C11	C	0.3410(3)	0.3920(3)	0.46156(14)	1.0	.
C12	C	0.5370(3)	0.6332(3)	0.66658(15)	1.0	.
C13	C	0.5496(3)	0.6988(3)	0.73520(15)	1.0	.
C14	C	0.6153(4)	1.0389(3)	0.82532(15)	1.0	.
H14	H	0.6251	1.0969	0.8811	1.0	.
C15	C	0.4598(4)	1.1268(4)	0.76309(18)	1.0	.
H15A	H	0.4986	1.2455	0.7588	1.0	.
H15B	H	0.3401	1.1228	0.7823	1.0	.
H15C	H	0.4412	1.0682	0.7084	1.0	.
C16	C	0.8101(4)	1.0634(3)	0.80136(17)	1.0	.
H16A	H	0.8065	1.0044	0.7477	1.0	.
H16B	H	0.9108	1.0163	0.8442	1.0	.
H16C	H	0.8363	1.1849	0.7971	1.0	.
C17	C	0.7480(4)	0.7108(3)	0.91618(15)	1.0	.
H17	H	0.8724	0.7346	0.9005	1.0	.
C18	C	0.7632(5)	0.7941(4)	1.00317(16)	1.0	.
H18A	H	0.6414	0.7795	1.0199	1.0	.
H18B	H	0.7938	0.9157	1.0019	1.0	.
H18C	H	0.8642	0.7403	1.0433	1.0	.
C19	C	0.7265(4)	0.5169(3)	0.91824(17)	1.0	.
H19A	H	0.8361	0.4727	0.9576	1.0	.
H19B	H	0.7210	0.4665	0.8625	1.0	.
H19C	H	0.6088	0.4876	0.9359	1.0	.
C20'	C	0.332(4)	0.765(4)	0.8738(17)	1.0	2
H20C	H	0.3565	0.6779	0.9164	1.0	2
H20D	H	0.2959	0.8708	0.9003	1.0	2
C21'	C	0.171(2)	0.7061(19)	0.8047(9)	1.0	2
H21'	H	0.1298	0.7842	0.7621	1.0	2
C22'	C	0.081(6)	0.561(4)	0.796(4)	1.0	2
H22C	H	0.1165	0.4781	0.8367	1.0	2
H22D	H	-0.0197	0.5379	0.7489	1.0	2
