data_k08046_config-1
loop_
 _symmetry_equiv_pos_as_xyz
'x, y, z'
'-x, -y, -z'

_cell_length_a	7.7304(5)
_cell_length_b	7.5695(5)
_cell_length_c	16.9293(12)
_cell_angle_alpha	77.163(3)
_cell_angle_beta	89.077(3)
_cell_angle_gamma	84.015(3)
loop_
 _atom_site_label
 _atom_site_type_symbol
 _atom_site_fract_x
 _atom_site_fract_y
 _atom_site_fract_z
 _atom_site_occupancy
 _atom_site_disorder_group
Si1	Si	0.21294(11)	0.25055(12)	0.82617(5)	1.0	.
C1	C	0.4416(3)	0.4404(4)	0.58058(15)	1.0	.
C2	C	0.3926(3)	0.6221(4)	0.53828(15)	1.0	.
C3	C	0.2894(3)	0.7477(4)	0.57382(16)	1.0	.
H3	H	0.2487	0.7084	0.6275	1.0	.
C4	C	0.2453(3)	0.9257(4)	0.53345(15)	1.0	.
C5	C	0.1430(3)	1.0557(4)	0.56957(17)	1.0	.
H5	H	0.1030	1.0191	0.6235	1.0	.
C6	C	0.1026(4)	1.2292(4)	0.52824(18)	1.0	.
H6	H	0.0349	1.3129	0.5535	1.0	.
C7	C	0.1601(4)	1.2880(4)	0.44734(18)	1.0	.
H7	H	0.1315	1.4106	0.4191	1.0	.
C8	C	0.2557(4)	1.1697(4)	0.41051(17)	1.0	.
H8	H	0.2919	1.2106	0.3562	1.0	.
C9	C	0.3034(3)	0.9851(4)	0.45116(15)	1.0	.
C10	C	0.4022(3)	0.8620(4)	0.41505(16)	1.0	.
H10	H	0.4379	0.9014	0.3606	1.0	.
C11	C	0.4520(3)	0.6811(4)	0.45565(15)	1.0	.
C12	C	0.3767(3)	0.3784(4)	0.66116(16)	1.0	.
C13	C	0.3170(3)	0.3261(4)	0.72806(16)	1.0	.
C14	C	-0.0262(4)	0.3223(4)	0.81316(16)	1.0	.
H14	H	-0.0825	0.2741	0.8661	1.0	.
C15	C	-0.1074(4)	0.2390(5)	0.74879(18)	1.0	.
H15A	H	-0.2313	0.2827	0.7424	1.0	.
H15B	H	-0.0939	0.1058	0.7663	1.0	.
H15C	H	-0.0484	0.2755	0.6969	1.0	.
C16	C	-0.0674(4)	0.5298(5)	0.79350(18)	1.0	.
H16A	H	-0.0114	0.5821	0.7425	1.0	.
H16B	H	-0.0236	0.5792	0.8373	1.0	.
H16C	H	-0.1936	0.5610	0.7881	1.0	.
C17	C	0.3089(4)	0.3621(4)	0.90143(15)	1.0	.
H17	H	0.2909	0.4966	0.8791	1.0	.
C18	C	0.2153(4)	0.3241(4)	0.98293(16)	1.0	.
H18A	H	0.2335	0.1936	1.0077	1.0	.
H18B	H	0.0906	0.3613	0.9744	1.0	.
H18C	H	0.2620	0.3931	1.0189	1.0	.
C19	C	0.5050(4)	0.3103(4)	0.91284(17)	1.0	.
H19A	H	0.5501	0.3778	0.9498	1.0	.
H19B	H	0.5627	0.3408	0.8603	1.0	.
H19C	H	0.5277	0.1793	0.9357	1.0	.
C20	C	0.2650(8)	-0.0041(11)	0.8652(3)	1.0	1
C21	C	0.145(2)	-0.096(3)	0.9124(8)	1.0	1
H21A	H	0.1625	-0.2247	0.9290	1.0	1
H21B	H	0.0443	-0.0308	0.9288	1.0	1
C22	C	0.4253(6)	-0.1096(6)	0.8395(3)	1.0	1
H22A	H	0.5214	-0.0308	0.8292	1.0	1
H22B	H	0.4622	-0.2158	0.8837	1.0	1
C23	C	0.3896(6)	-0.1744(6)	0.7640(2)	1.0	1
H23A	H	0.2923	-0.2496	0.7736	1.0	1
H23B	H	0.4934	-0.2468	0.7499	1.0	1
H23C	H	0.3598	-0.0691	0.7193	1.0	1
