data_k08070s_config-1
loop_
 _symmetry_equiv_pos_as_xyz
'x, y, z'
'-x, -y, -z'

_cell_length_a	7.6580(2)
_cell_length_b	7.7502(3)
_cell_length_c	16.6354(6)
_cell_angle_alpha	89.8875(15)
_cell_angle_beta	79.3747(16)
_cell_angle_gamma	85.6275(15)
loop_
 _atom_site_label
 _atom_site_type_symbol
 _atom_site_fract_x
 _atom_site_fract_y
 _atom_site_fract_z
 _atom_site_occupancy
 _atom_site_disorder_group
Si1	Si	0.24501(6)	-0.29163(6)	0.32450(3)	1.0	.
C1	C	0.4447(2)	-0.06226(18)	0.08056(9)	1.0	.
C2	C	0.3239(2)	0.04429(19)	0.04391(9)	1.0	.
C3	C	0.1482(2)	0.09005(19)	0.08503(9)	1.0	.
H3	H	0.1118	0.0508	0.1392	1.0	.
C4	C	0.0276(2)	0.19020(19)	0.04890(9)	1.0	.
C5	C	-0.1515(2)	0.2353(2)	0.09083(10)	1.0	.
H5	H	-0.1897	0.1972	0.1451	1.0	1
C6	C	-0.2649(2)	0.3318(2)	0.05280(10)	1.0	1
F1	F	-0.4335(2)	0.3736(2)	0.08835(10)	1.0	1
C7	C	-0.2129(2)	0.3904(2)	-0.02821(10)	1.0	1
H7	H	-0.2963	0.4580	-0.0533	1.0	1
C8	C	-0.0461(2)	0.3514(2)	-0.07021(10)	1.0	.
H8	H	-0.0133	0.3917	-0.1245	1.0	1
C9	C	0.0812(2)	0.24991(19)	-0.03367(9)	1.0	.
C10	C	0.2544(2)	0.20836(19)	-0.07439(9)	1.0	.
H10	H	0.2901	0.2497	-0.1283	1.0	.
C11	C	0.3786(2)	0.10680(19)	-0.03827(9)	1.0	.
C12	C	0.3868(2)	-0.12996(19)	0.16039(9)	1.0	.
C13	C	0.3338(2)	-0.1919(2)	0.22647(9)	1.0	.
C14	C	0.3525(2)	-0.1912(2)	0.40438(10)	1.0	.
H14	H	0.4841	-0.2077	0.3841	1.0	.
C15	C	0.3070(4)	0.0048(3)	0.41458(13)	1.0	.
H15A	H	0.1801	0.0276	0.4378	1.0	.
H15B	H	0.3334	0.0600	0.3611	1.0	.
H15C	H	0.3784	0.0520	0.4513	1.0	.
C16	C	0.3171(3)	-0.2795(3)	0.48767(10)	1.0	.
H16A	H	0.3911	-0.2328	0.5234	1.0	.
H16B	H	0.3465	-0.4044	0.4803	1.0	.
H16C	H	0.1911	-0.2576	0.5126	1.0	.
C17	C	0.3123(2)	-0.5310(2)	0.31616(10)	1.0	.
H17	H	0.2687	-0.5823	0.3707	1.0	.
C18	C	0.5151(3)	-0.5667(3)	0.29699(12)	1.0	.
H18A	H	0.5456	-0.6919	0.2945	1.0	.
H18B	H	0.5671	-0.5151	0.3400	1.0	.
H18C	H	0.5624	-0.5159	0.2442	1.0	.
C19	C	0.2269(3)	-0.6229(2)	0.25293(11)	1.0	.
H19A	H	0.2602	-0.5699	0.1993	1.0	.
H19B	H	0.0970	-0.6117	0.2697	1.0	.
H19C	H	0.2693	-0.7457	0.2495	1.0	.
C20	C	-0.0045(4)	-0.2611(4)	0.33553(19)	1.0	1
H20	H	-0.0358	-0.3270	0.2892	1.0	1
C21	C	-0.1064(10)	-0.3391(10)	0.4155(6)	1.0	1
H21A	H	-0.0766	-0.2814	0.4630	1.0	1
H21B	H	-0.0716	-0.4632	0.4169	1.0	1
H21C	H	-0.2350	-0.3216	0.4168	1.0	1
C22	C	-0.0793(4)	-0.0756(4)	0.32848(19)	1.0	1
H22A	H	-0.2041	-0.0747	0.3221	1.0	1
H22B	H	-0.0101	-0.0221	0.2808	1.0	1
H22C	H	-0.0721	-0.0104	0.3780	1.0	1
