data_k08070s_config-2
loop_
 _symmetry_equiv_pos_as_xyz
'x, y, z'
'-x, -y, -z'

_cell_length_a	7.6580(2)
_cell_length_b	7.7502(3)
_cell_length_c	16.6354(6)
_cell_angle_alpha	89.8875(15)
_cell_angle_beta	79.3747(16)
_cell_angle_gamma	85.6275(15)
loop_
 _atom_site_label
 _atom_site_type_symbol
 _atom_site_fract_x
 _atom_site_fract_y
 _atom_site_fract_z
 _atom_site_occupancy
 _atom_site_disorder_group
Si1	Si	0.24501(6)	-0.29163(6)	0.32450(3)	1.0	.
C1	C	0.4447(2)	-0.06226(18)	0.08056(9)	1.0	.
C2	C	0.3239(2)	0.04429(19)	0.04391(9)	1.0	.
C3	C	0.1482(2)	0.09005(19)	0.08503(9)	1.0	.
H3	H	0.1118	0.0508	0.1392	1.0	.
C4	C	0.0276(2)	0.19020(19)	0.04890(9)	1.0	.
C5	C	-0.1515(2)	0.2353(2)	0.09083(10)	1.0	.
C6'	C	-0.2649(2)	0.3318(2)	0.05280(10)	1.0	2
H6'	H	-0.3830	0.3613	0.0811	1.0	2
C7'	C	-0.2129(2)	0.3904(2)	-0.02821(10)	1.0	2
F1'	F	-0.3329(3)	0.4885(3)	-0.05769(13)	1.0	2
C8	C	-0.0461(2)	0.3514(2)	-0.07021(10)	1.0	.
C9	C	0.0812(2)	0.24991(19)	-0.03367(9)	1.0	.
C10	C	0.2544(2)	0.20836(19)	-0.07439(9)	1.0	.
H10	H	0.2901	0.2497	-0.1283	1.0	.
C11	C	0.3786(2)	0.10680(19)	-0.03827(9)	1.0	.
C12	C	0.3868(2)	-0.12996(19)	0.16039(9)	1.0	.
C13	C	0.3338(2)	-0.1919(2)	0.22647(9)	1.0	.
C14	C	0.3525(2)	-0.1912(2)	0.40438(10)	1.0	.
H14	H	0.4841	-0.2077	0.3841	1.0	.
C15	C	0.3070(4)	0.0048(3)	0.41458(13)	1.0	.
H15A	H	0.1801	0.0276	0.4378	1.0	.
H15B	H	0.3334	0.0600	0.3611	1.0	.
H15C	H	0.3784	0.0520	0.4513	1.0	.
C16	C	0.3171(3)	-0.2795(3)	0.48767(10)	1.0	.
H16A	H	0.3911	-0.2328	0.5234	1.0	.
H16B	H	0.3465	-0.4044	0.4803	1.0	.
H16C	H	0.1911	-0.2576	0.5126	1.0	.
C17	C	0.3123(2)	-0.5310(2)	0.31616(10)	1.0	.
H17	H	0.2687	-0.5823	0.3707	1.0	.
C18	C	0.5151(3)	-0.5667(3)	0.29699(12)	1.0	.
H18A	H	0.5456	-0.6919	0.2945	1.0	.
H18B	H	0.5671	-0.5151	0.3400	1.0	.
H18C	H	0.5624	-0.5159	0.2442	1.0	.
C19	C	0.2269(3)	-0.6229(2)	0.25293(11)	1.0	.
H19A	H	0.2602	-0.5699	0.1993	1.0	.
H19B	H	0.0970	-0.6117	0.2697	1.0	.
H19C	H	0.2693	-0.7457	0.2495	1.0	.
C20'	C	-0.0052(17)	-0.2168(16)	0.3608(6)	1.0	2
H20'	H	-0.0195	-0.1082	0.3945	1.0	2
C21'	C	-0.1065(11)	-0.1944(11)	0.2872(5)	1.0	2
H21D	H	-0.0665	-0.0938	0.2552	1.0	2
H21E	H	-0.2350	-0.1770	0.3081	1.0	2
H21F	H	-0.0815	-0.2985	0.2524	1.0	2
C22'	C	-0.082(4)	-0.367(4)	0.411(2)	1.0	2
H22A	H	-0.2122	-0.3471	0.4252	1.0	2
H22B	H	-0.0332	-0.3761	0.4618	1.0	2
H22C	H	-0.0506	-0.4752	0.3797	1.0	2
