data_k08215x_config-1
loop_
 _symmetry_equiv_pos_as_xyz
'x, y, z'
'-x, -y, -z'

_cell_length_a	7.14110(10)
_cell_length_b	8.3011(2)
_cell_length_c	17.9335(5)
_cell_angle_alpha	87.3699(9)
_cell_angle_beta	82.4797(10)
_cell_angle_gamma	66.9838(10)
loop_
 _atom_site_label
 _atom_site_type_symbol
 _atom_site_fract_x
 _atom_site_fract_y
 _atom_site_fract_z
 _atom_site_occupancy
 _atom_site_disorder_group
Si1	Si	0.64195(18)	0.75398(16)	0.19457(6)	1.0	.
C1	C	0.5495(5)	0.5634(5)	0.4284(2)	1.0	.
C2	C	0.6291(5)	0.3807(4)	0.44236(19)	1.0	.
C3	C	0.7592(5)	0.2597(5)	0.3871(2)	1.0	.
H3	H	0.7975	0.3022	0.3399	1.0	.
C4	C	0.8333(5)	0.0813(5)	0.3989(2)	1.0	.
C5	C	0.9640(6)	-0.0437(5)	0.3434(2)	1.0	.
F1	F	1.0056(7)	0.0297(6)	0.2779(2)	1.0	1
C6	C	1.0285(6)	-0.2175(5)	0.3552(2)	1.0	.
F2	F	1.1301(7)	-0.3216(6)	0.3025(3)	1.0	1
C7	C	0.9711(6)	-0.2810(5)	0.4260(2)	1.0	.
F3	F	1.0297(8)	-0.4439(6)	0.4359(3)	1.0	1
C8	C	0.8513(6)	-0.1714(5)	0.4810(2)	1.0	.
F4	F	0.7867(7)	-0.2188(6)	0.5496(2)	1.0	1
C9	C	0.7753(5)	0.0154(5)	0.4710(2)	1.0	.
C10	C	0.6522(5)	0.1333(5)	0.5269(2)	1.0	.
H10	H	0.6184	0.0903	0.5745	1.0	.
C11	C	0.5753(5)	0.3174(4)	0.51463(19)	1.0	.
C12	C	0.5902(6)	0.6255(5)	0.3545(2)	1.0	.
C13	C	0.6149(6)	0.6779(5)	0.2916(2)	1.0	.
C14	C	0.6225(13)	0.9872(7)	0.1962(4)	1.0	1
H14A	H	0.7531	0.9877	0.2090	1.0	1
H14B	H	0.6022	1.0379	0.1454	1.0	1
C15	C	0.4460(12)	1.1016(8)	0.2531(5)	1.0	1
H15A	H	0.4716	1.0555	0.3043	1.0	1
H15B	H	0.3170	1.0941	0.2425	1.0	1
C16	C	0.420(2)	1.2945(9)	0.2510(7)	1.0	1
H16A	H	0.5475	1.3034	0.2282	1.0	1
H16B	H	0.3852	1.3417	0.3024	1.0	1
H16C	H	0.3089	1.3616	0.2212	1.0	1
C17	C	0.4280(6)	0.7440(6)	0.1467(2)	1.0	.
H17A	H	0.4255	0.6259	0.1539	1.0	.
H17B	H	0.2961	0.8293	0.1713	1.0	.
C18	C	0.4454(8)	0.7827(7)	0.0629(2)	1.0	.
H18A	H	0.4459	0.9015	0.0559	1.0	.
H18B	H	0.5786	0.6987	0.0387	1.0	.
C19	C	0.2760(9)	0.7724(9)	0.0232(3)	1.0	.
H19A	H	0.2568	0.6639	0.0373	1.0	.
H19B	H	0.3132	0.7736	-0.0314	1.0	.
H19C	H	0.1483	0.8730	0.0379	1.0	.
C20	C	0.8946(8)	0.6032(9)	0.1465(4)	1.0	1
H20A	H	0.9120	0.6413	0.0939	1.0	1
H20B	H	1.0060	0.6102	0.1721	1.0	1
C21	C	0.9120(11)	0.4140(11)	0.1471(4)	1.0	1
H21A	H	0.9268	0.3675	0.1987	1.0	1
H21B	H	0.7840	0.4113	0.1327	1.0	1
C22	C	1.0925(10)	0.297(2)	0.0937(4)	1.0	1
H22A	H	1.0564	0.3134	0.0422	1.0	1
H22B	H	1.1266	0.1742	0.1081	1.0	1
H22C	H	1.2111	0.3271	0.0962	1.0	1
