data_k08215x_config-2
loop_
 _symmetry_equiv_pos_as_xyz
'x, y, z'
'-x, -y, -z'

_cell_length_a	7.14110(10)
_cell_length_b	8.3011(2)
_cell_length_c	17.9335(5)
_cell_angle_alpha	87.3699(9)
_cell_angle_beta	82.4797(10)
_cell_angle_gamma	66.9838(10)
loop_
 _atom_site_label
 _atom_site_type_symbol
 _atom_site_fract_x
 _atom_site_fract_y
 _atom_site_fract_z
 _atom_site_occupancy
 _atom_site_disorder_group
Si1	Si	0.64195(18)	0.75398(16)	0.19457(6)	1.0	.
C1	C	0.5495(5)	0.5634(5)	0.4284(2)	1.0	.
C2	C	0.6291(5)	0.3807(4)	0.44236(19)	1.0	.
C3	C	0.7592(5)	0.2597(5)	0.3871(2)	1.0	.
H3	H	0.7975	0.3022	0.3399	1.0	.
C4	C	0.8333(5)	0.0813(5)	0.3989(2)	1.0	.
C5	C	0.9640(6)	-0.0437(5)	0.3434(2)	1.0	.
H5	H	1.0075	-0.0027	0.2961	1.0	2
C6	C	1.0285(6)	-0.2175(5)	0.3552(2)	1.0	.
H6	H	1.1128	-0.2982	0.3160	1.0	2
C7	C	0.9711(6)	-0.2810(5)	0.4260(2)	1.0	.
H7	H	1.0195	-0.4049	0.4343	1.0	2
C8	C	0.8513(6)	-0.1714(5)	0.4810(2)	1.0	.
H8	H	0.8153	-0.2181	0.5281	1.0	2
C9	C	0.7753(5)	0.0154(5)	0.4710(2)	1.0	.
C10	C	0.6522(5)	0.1333(5)	0.5269(2)	1.0	.
H10	H	0.6184	0.0903	0.5745	1.0	.
C11	C	0.5753(5)	0.3174(4)	0.51463(19)	1.0	.
C12	C	0.5902(6)	0.6255(5)	0.3545(2)	1.0	.
C13	C	0.6149(6)	0.6779(5)	0.2916(2)	1.0	.
C14'	C	0.571(17)	0.993(4)	0.216(6)	1.0	2
H14C	H	0.7005	1.0113	0.2021	1.0	2
H14D	H	0.4819	1.0567	0.1770	1.0	2
C15'	C	0.471(14)	1.100(9)	0.288(5)	1.0	2
H15C	H	0.5800	1.0958	0.3179	1.0	2
H15D	H	0.3862	1.0443	0.3182	1.0	2
C16'	C	0.335(15)	1.293(7)	0.274(6)	1.0	2
H16D	H	0.2792	1.3545	0.3221	1.0	2
H16E	H	0.2224	1.2982	0.2467	1.0	2
H16F	H	0.4178	1.3487	0.2438	1.0	2
C17	C	0.4280(6)	0.7440(6)	0.1467(2)	1.0	.
H17A	H	0.4255	0.6259	0.1539	1.0	.
H17B	H	0.2961	0.8293	0.1713	1.0	.
C18	C	0.4454(8)	0.7827(7)	0.0629(2)	1.0	.
H18A	H	0.4459	0.9015	0.0559	1.0	.
H18B	H	0.5786	0.6987	0.0387	1.0	.
C19	C	0.2760(9)	0.7724(9)	0.0232(3)	1.0	.
H19A	H	0.2568	0.6639	0.0373	1.0	.
H19B	H	0.3132	0.7736	-0.0314	1.0	.
H19C	H	0.1483	0.8730	0.0379	1.0	.
C20'	C	0.885(3)	0.5863(19)	0.1406(12)	1.0	2
H20C	H	0.8791	0.6107	0.0862	1.0	2
H20D	H	1.0043	0.6059	0.1542	1.0	2
C21'	C	0.924(3)	0.3944(19)	0.1527(6)	1.0	2
H21C	H	0.7975	0.3787	0.1451	1.0	2
H21D	H	0.9449	0.3679	0.2061	1.0	2
C22'	C	1.120(3)	0.2428(18)	0.1003(9)	1.0	2
H22D	H	1.1236	0.1261	0.1141	1.0	2
H22E	H	1.2492	0.2499	0.1091	1.0	2
H22F	H	1.1022	0.2637	0.0469	1.0	2
