data_k09044_config-0
loop_
 _symmetry_equiv_pos_as_xyz
'x, y, z'
'-x, -y, -z'

_cell_length_a	7.2564(3)
_cell_length_b	8.5684(3)
_cell_length_c	19.2030(8)
_cell_angle_alpha	89.0361(17)
_cell_angle_beta	80.4912(16)
_cell_angle_gamma	80.2659(18)
loop_
 _atom_site_label
 _atom_site_type_symbol
 _atom_site_fract_x
 _atom_site_fract_y
 _atom_site_fract_z
 _atom_site_occupancy
 _atom_site_disorder_group
Si1	Si	0.68106(7)	0.70177(7)	0.20593(3)	1.0	.
O1	O	1.04937(18)	-0.27573(16)	0.35834(7)	1.0	.
O2	O	0.95569(19)	-0.34649(15)	0.47404(7)	1.0	.
C1	C	0.5506(2)	0.5439(2)	0.42900(9)	1.0	.
C2	C	0.6107(2)	0.3864(2)	0.44931(9)	1.0	.
C3	C	0.7219(2)	0.2712(2)	0.40144(10)	1.0	.
H3	H	0.7582	0.3005	0.3539	1.0	.
C4	C	0.7803(2)	0.1169(2)	0.42105(10)	1.0	.
C5	C	0.8944(3)	0.0009(2)	0.37134(10)	1.0	.
H5	H	0.9348	0.0279	0.3237	1.0	.
C6	C	0.9417(3)	-0.1466(2)	0.39467(10)	1.0	.
C7	C	0.8850(3)	-0.1899(2)	0.46555(10)	1.0	.
C8	C	0.7814(2)	-0.0877(2)	0.51493(10)	1.0	.
H8	H	0.7469	-0.1196	0.5622	1.0	.
C9	C	0.7248(2)	0.0724(2)	0.49321(10)	1.0	.
C10	C	0.6186(2)	0.1843(2)	0.54091(10)	1.0	.
H10	H	0.5849	0.1543	0.5886	1.0	.
C11	C	0.5583(2)	0.3421(2)	0.52149(10)	1.0	.
C12	C	0.5987(2)	0.5896(2)	0.35715(10)	1.0	.
C13	C	0.6351(2)	0.6318(2)	0.29696(10)	1.0	.
C14	C	0.6859(3)	0.9187(2)	0.20795(10)	1.0	.
H14A	H	0.8038	0.9348	0.2244	1.0	.
H14B	H	0.6912	0.9590	0.1592	1.0	.
C15	C	0.5167(3)	1.0178(2)	0.25517(11)	1.0	.
H15A	H	0.3989	0.9821	0.2473	1.0	.
H15B	H	0.5298	0.9979	0.3052	1.0	.
C16	C	0.4977(3)	1.1952(2)	0.24209(11)	1.0	.
H16A	H	0.6167	1.2306	0.2488	1.0	.
H16B	H	0.4809	1.2156	0.1924	1.0	.
C17	C	0.3331(3)	1.2928(2)	0.29027(11)	1.0	.
H17A	H	0.2156	1.2539	0.2864	1.0	.
H17B	H	0.3216	1.4041	0.2763	1.0	.
H17C	H	0.3558	1.2832	0.3392	1.0	.
C18	C	0.4834(3)	0.6659(2)	0.16007(9)	1.0	.
H18A	H	0.4771	0.5514	0.1614	1.0	.
H18B	H	0.3621	0.7228	0.1861	1.0	.
C19	C	0.5057(3)	0.7200(3)	0.08280(10)	1.0	.
H19A	H	0.5289	0.8307	0.0810	1.0	.
H19B	H	0.6184	0.6534	0.0555	1.0	.
C20	C	0.3342(3)	0.7109(3)	0.04765(10)	1.0	.
H20A	H	0.3155	0.5992	0.0466	1.0	.
H20B	H	0.2199	0.7724	0.0763	1.0	.
C21	C	0.3551(3)	0.7739(3)	-0.02700(11)	1.0	.
H21A	H	0.3761	0.8838	-0.0264	1.0	.
H21B	H	0.2393	0.7693	-0.0464	1.0	.
H21C	H	0.4633	0.7092	-0.0564	1.0	.
C22	C	0.9125(3)	0.5890(2)	0.16124(10)	1.0	.
H22A	H	0.9326	0.6203	0.1111	1.0	.
H22B	H	1.0154	0.6200	0.1832	1.0	.
C23	C	0.9284(3)	0.4087(2)	0.16449(11)	1.0	.
H23A	H	0.9241	0.3758	0.2143	1.0	.
H23B	H	0.8173	0.3784	0.1478	1.0	.
C24	C	1.1081(3)	0.3193(3)	0.12072(12)	1.0	.
H24A	H	1.1089	0.3473	0.0705	1.0	.
H24B	H	1.2193	0.3541	0.1355	1.0	.
C25	C	1.1281(3)	0.1407(3)	0.12754(13)	1.0	.
H25A	H	1.1287	0.1118	0.1771	1.0	.
H25B	H	1.2472	0.0905	0.0988	1.0	.
H25C	H	1.0214	0.1046	0.1111	1.0	.
C26	C	1.0480(3)	-0.4069(2)	0.40592(11)	1.0	.
H26A	H	0.9791	-0.4857	0.3894	1.0	.
H26B	H	1.1794	-0.4592	0.4082	1.0	.
