data_k06346_config-2
loop_
 _symmetry_equiv_pos_as_xyz
'x, y, z'
'-x, -y, -z'

_cell_length_a	8.3039(2)
_cell_length_b	10.6399(3)
_cell_length_c	11.1645(4)
_cell_angle_alpha	97.4821(11)
_cell_angle_beta	99.4733(11)
_cell_angle_gamma	95.1998(12)
loop_
 _atom_site_label
 _atom_site_type_symbol
 _atom_site_fract_x
 _atom_site_fract_y
 _atom_site_fract_z
 _atom_site_occupancy
 _atom_site_disorder_group
Si1	Si	0.33064(10)	0.94407(7)	0.25853(7)	1.0	.
C1	C	0.4614(3)	0.6086(2)	0.4455(2)	1.0	.
C2	C	0.6005(3)	0.5494(2)	0.4210(2)	1.0	.
C3'	C	0.708(4)	0.599(5)	0.350(4)	1.0	2
H3	H	0.6951	0.6788	0.3227	1.0	2
C4'	C	0.837(4)	0.528(3)	0.319(5)	1.0	2
C5'	C	0.9692(11)	0.5380(9)	0.2422(8)	1.0	2
H5'	H	0.9768	0.6062	0.1956	1.0	2
C6'	C	1.074(4)	0.453(4)	0.239(4)	1.0	2
S7'	S	1.0338(3)	0.34133(19)	0.32861(19)	1.0	2
C8'	C	0.872(5)	0.417(4)	0.371(5)	1.0	2
C9'	C	0.782(6)	0.377(6)	0.451(5)	1.0	2
H9	H	0.8132	0.3077	0.4916	1.0	2
C10	C	0.6388(3)	0.4371(2)	0.4758(2)	1.0	.
C11	C	0.4192(3)	0.7161(2)	0.3853(2)	1.0	.
C12	C	0.3818(3)	0.8033(3)	0.3311(3)	1.0	.
C13	C	0.1466(4)	1.0045(3)	0.3135(3)	1.0	.
H13A	H	0.1029	1.0645	0.2590	1.0	.
H13B	H	0.0606	0.9315	0.3049	1.0	.
C14	C	0.1761(5)	1.0710(4)	0.4442(3)	1.0	.
H14A	H	0.2103	1.0107	0.5001	1.0	.
H14B	H	0.0746	1.1030	0.4627	1.0	.
H14C	H	0.2627	1.1426	0.4549	1.0	.
C15	C	0.5146(4)	1.0679(3)	0.3077(3)	1.0	.
H15A	H	0.4841	1.1502	0.2840	1.0	.
H15B	H	0.5454	1.0797	0.3983	1.0	.
C16	C	0.6637(4)	1.0337(3)	0.2518(3)	1.0	.
H16A	H	0.6893	0.9490	0.2689	1.0	.
H16B	H	0.7582	1.0969	0.2877	1.0	.
H16C	H	0.6392	1.0332	0.1628	1.0	.
C17	C	0.2894(5)	0.9051(4)	0.0883(3)	1.0	.
C18'	C	0.1342(10)	0.9545(5)	0.0311(17)	1.0	2
H18D	H	0.1172	0.9320	-0.0584	1.0	2
H18E	H	0.1445	1.0475	0.0527	1.0	2
H18F	H	0.0403	0.9162	0.0619	1.0	2
C19'	C	1.220(4)	0.412(3)	0.209(2)	1.0	2
H19C	H	1.2684	0.3636	0.2733	1.0	2
H19D	H	1.2991	0.4880	0.2101	1.0	2
C20'	C	1.197(3)	0.330(3)	0.086(2)	1.0	2
H20C	H	1.1149	0.3636	0.0275	1.0	2
H20D	H	1.1527	0.2425	0.0938	1.0	2
C21'	C	1.358(5)	0.322(3)	0.030(4)	1.0	2
H21C	H	1.4503	0.3082	0.0938	1.0	2
H21D	H	1.3421	0.2486	-0.0374	1.0	2
C22'	C	1.398(5)	0.443(3)	-0.019(3)	1.0	2
H22D	H	1.4952	0.4367	-0.0581	1.0	2
H22E	H	1.4218	0.5143	0.0491	1.0	2
H22F	H	1.3049	0.4581	-0.0790	1.0	2
