data_k09137_config-0
loop_
 _symmetry_equiv_pos_as_xyz
'x, y, z'
'-x, -y, -z'

_cell_length_a	8.4655(6)
_cell_length_b	9.6531(7)
_cell_length_c	16.3182(14)
_cell_angle_alpha	81.122(3)
_cell_angle_beta	88.626(3)
_cell_angle_gamma	72.304(3)
loop_
 _atom_site_label
 _atom_site_type_symbol
 _atom_site_fract_x
 _atom_site_fract_y
 _atom_site_fract_z
 _atom_site_occupancy
 _atom_site_disorder_group
Si1	Si	0.16517(10)	0.24187(8)	0.28620(4)	1.0	.
C1	C	0.0322(3)	0.0685(3)	0.06637(15)	1.0	.
C2	C	-0.1313(3)	0.1077(3)	0.03318(15)	1.0	.
C3	C	-0.2635(3)	0.2160(3)	0.06143(16)	1.0	.
H3	H	-0.2426	0.2639	0.1048	1.0	.
C4	C	-0.4233(3)	0.2557(3)	0.02861(16)	1.0	.
C5	C	-0.5560(3)	0.3680(3)	0.05608(17)	1.0	.
H5	H	-0.5350	0.4203	0.0973	1.0	.
C6	C	-0.7119(4)	0.4016(3)	0.02421(17)	1.0	.
H6	H	-0.7989	0.4774	0.0430	1.0	.
C7	C	-0.7458(4)	0.3244(3)	-0.03694(17)	1.0	.
H7	H	-0.8561	0.3474	-0.0578	1.0	.
C8	C	-0.6238(4)	0.2186(3)	-0.06586(17)	1.0	.
H8	H	-0.6491	0.1683	-0.1070	1.0	.
C9	C	-0.4563(3)	0.1811(3)	-0.03536(16)	1.0	.
C10	C	-0.3279(3)	0.0755(3)	-0.06443(16)	1.0	.
H10	H	-0.3510	0.0266	-0.1068	1.0	.
C11	C	-0.1639(3)	0.0372(3)	-0.03399(15)	1.0	.
C12	C	0.0658(3)	0.1312(3)	0.13564(16)	1.0	.
C13	C	0.0970(3)	0.1773(3)	0.19644(16)	1.0	.
C14	C	0.3748(3)	0.1123(3)	0.32337(16)	1.0	.
H14	H	0.4146	0.1560	0.3674	1.0	.
C15	C	0.3698(4)	-0.0417(3)	0.36380(18)	1.0	.
H15A	H	0.2951	-0.0317	0.4116	1.0	.
H15B	H	0.3241	-0.0864	0.3231	1.0	.
C16	C	0.5418(4)	-0.1430(3)	0.3934(2)	1.0	.
H16A	H	0.5832	-0.1037	0.4382	1.0	.
H16B	H	0.5343	-0.2418	0.4164	1.0	.
C17	C	0.6626(4)	-0.1559(3)	0.3228(2)	1.0	.
H17A	H	0.6257	-0.2024	0.2800	1.0	.
H17B	H	0.7736	-0.2197	0.3439	1.0	.
C18	C	0.6739(4)	-0.0053(3)	0.28403(19)	1.0	.
H18A	H	0.7217	0.0369	0.3253	1.0	.
H18B	H	0.7487	-0.0162	0.2363	1.0	.
C19	C	0.5040(3)	0.0986(3)	0.25498(17)	1.0	.
H19A	H	0.4641	0.0630	0.2081	1.0	.
H19B	H	0.5144	0.1973	0.2343	1.0	.
C20	C	0.1881(3)	0.4281(3)	0.24626(16)	1.0	.
H20	H	0.2424	0.4183	0.1914	1.0	.
C21	C	0.3045(4)	0.4763(3)	0.29845(17)	1.0	.
H21A	H	0.2576	0.4868	0.3541	1.0	.
H21B	H	0.4131	0.3986	0.3057	1.0	.
C22	C	0.3313(4)	0.6215(3)	0.25930(18)	1.0	.
H22A	H	0.3919	0.6081	0.2071	1.0	.
H22B	H	0.3996	0.6514	0.2975	1.0	.
C23	C	0.1652(4)	0.7424(3)	0.24113(17)	1.0	.
H23A	H	0.1101	0.7634	0.2940	1.0	.
H23B	H	0.1848	0.8336	0.2126	1.0	.
C24	C	0.0529(4)	0.6959(3)	0.18717(18)	1.0	.
H24A	H	0.1039	0.6829	0.1325	1.0	.
H24B	H	-0.0550	0.7742	0.1779	1.0	.
C25	C	0.0244(3)	0.5527(3)	0.22756(17)	1.0	.
H25A	H	-0.0461	0.5236	0.1901	1.0	.
H25B	H	-0.0354	0.5684	0.2799	1.0	.
C26	C	0.0134(3)	0.2381(3)	0.37168(15)	1.0	.
H26	H	0.0250	0.1318	0.3906	1.0	.
C27	C	-0.1708(3)	0.3129(3)	0.34983(17)	1.0	.
H27A	H	-0.2032	0.2697	0.3041	1.0	.
H27B	H	-0.1893	0.4190	0.3302	1.0	.
C28	C	-0.2802(4)	0.2947(4)	0.42484(18)	1.0	.
H28A	H	-0.3976	0.3483	0.4092	1.0	.
H28B	H	-0.2703	0.1892	0.4411	1.0	.
C29	C	-0.2300(4)	0.3529(3)	0.49776(18)	1.0	.
H29A	H	-0.2986	0.3351	0.5459	1.0	.
H29B	H	-0.2504	0.4604	0.4834	1.0	.
C30	C	-0.0483(4)	0.2787(3)	0.52104(17)	1.0	.
H30A	H	-0.0303	0.1728	0.5411	1.0	.
H30B	H	-0.0174	0.3226	0.5668	1.0	.
C31	C	0.0619(4)	0.2956(3)	0.44756(16)	1.0	.
H31A	H	0.1787	0.2409	0.4641	1.0	.
H31B	H	0.0537	0.4008	0.4319	1.0	.
