data_x06014_config-0
loop_
 _symmetry_equiv_pos_as_xyz
'x, y, z'
'-x, y+1/2, -z+1/2'
'-x, -y, -z'
'x, -y-1/2, z-1/2'

_cell_length_a	18.5836(9)
_cell_length_b	18.2949(10)
_cell_length_c	14.6367(8)
_cell_angle_alpha	90.00
_cell_angle_beta	110.888(2)
_cell_angle_gamma	90.00
loop_
 _atom_site_label
 _atom_site_type_symbol
 _atom_site_fract_x
 _atom_site_fract_y
 _atom_site_fract_z
 _atom_site_occupancy
 _atom_site_disorder_group
Si2	Si	0.1937(2)	0.6994(2)	0.6033(3)	1.0	.
Si1	Si	0.8180(2)	0.7441(2)	0.5974(3)	1.0	.
O1	O	0.5114(5)	1.1380(5)	0.6294(6)	1.0	.
O2	O	0.3883(5)	1.1180(5)	0.6243(7)	1.0	.
O3	O	0.5161(5)	0.3269(5)	0.6191(6)	1.0	.
O4	O	0.6420(5)	0.3470(5)	0.6318(7)	1.0	.
C1	C	0.5915(6)	0.7452(6)	0.6307(7)	1.0	.
C2	C	0.5433(6)	0.8050(6)	0.6278(7)	1.0	.
C3	C	0.5680(6)	0.8780(6)	0.6293(7)	1.0	.
C4	C	0.5240(7)	0.9375(7)	0.6262(8)	1.0	.
C5	C	0.5479(7)	1.0104(7)	0.6279(8)	1.0	.
C6	C	0.5003(7)	1.0656(6)	0.6271(8)	1.0	.
C7	C	0.4232(7)	1.0540(7)	0.6243(9)	1.0	.
C8	C	0.3954(7)	0.9853(6)	0.6227(8)	1.0	.
C9	C	0.4433(7)	0.9245(6)	0.6236(8)	1.0	.
C10	C	0.4188(6)	0.8547(6)	0.6245(8)	1.0	.
C11	C	0.4663(6)	0.7925(6)	0.6273(7)	1.0	.
C12	C	0.4390(6)	0.7200(6)	0.6241(7)	1.0	.
C13	C	0.4888(6)	0.6599(6)	0.6267(7)	1.0	.
C14	C	0.4613(7)	0.5877(6)	0.6233(8)	1.0	.
C15	C	0.5092(7)	0.5268(6)	0.6268(8)	1.0	.
C16	C	0.4792(7)	0.4560(7)	0.6211(8)	1.0	.
C17	C	0.5299(7)	0.3972(7)	0.6240(9)	1.0	.
C18	C	0.6075(7)	0.4127(7)	0.6313(9)	1.0	.
C19	C	0.6367(7)	0.4800(7)	0.6362(8)	1.0	.
C20	C	0.5865(6)	0.5418(6)	0.6341(8)	1.0	.
C21	C	0.6137(7)	0.6118(6)	0.6367(8)	1.0	.
C22	C	0.5642(6)	0.6719(6)	0.6322(7)	1.0	.
C23	C	0.6659(7)	0.7582(6)	0.6272(8)	1.0	.
C24	C	0.7296(8)	0.7573(7)	0.6188(9)	1.0	.
C25	C	0.7949(19)	0.6740(16)	0.500(2)	1.0	.
C26	C	0.7149(12)	0.6464(11)	0.4446(15)	1.0	.
C27	C	0.7280(10)	0.5874(10)	0.3780(12)	1.0	.
C28	C	0.7977(13)	0.6112(12)	0.3577(16)	1.0	.
C29	C	0.8446(14)	0.6566(12)	0.4435(17)	1.0	.
C30	C	0.8921(11)	0.7114(11)	0.7207(14)	1.0	.
C31	C	0.8567(19)	0.6565(16)	0.772(2)	1.0	.
C32	C	0.9375(18)	0.6169(16)	0.840(2)	1.0	.
C33	C	1.0014(15)	0.6398(14)	0.8068(18)	1.0	.
C34	C	0.9674(11)	0.6899(10)	0.7203(13)	1.0	.
C35	C	0.8580(11)	0.8284(10)	0.5710(14)	1.0	.
C36	C	0.889(2)	0.874(2)	0.671(3)	1.0	.
C37	C	0.879(2)	0.955(3)	0.652(3)	1.0	.
C38	C	0.8577(18)	0.9626(16)	0.537(2)	1.0	.
C39	C	0.802(2)	0.8882(18)	0.508(2)	1.0	.
C40	C	0.3616(6)	0.7085(6)	0.6181(8)	1.0	.
C41	C	0.2963(7)	0.7048(7)	0.6141(9)	1.0	.
C42	C	0.1890(9)	0.6606(8)	0.7146(11)	1.0	.
C43	C	0.2109(10)	0.7116(10)	0.7967(13)	1.0	.
C44	C	0.2395(16)	0.6606(15)	0.894(2)	1.0	.
C45	C	0.2697(16)	0.6007(15)	0.8672(19)	1.0	.
C46	C	0.2352(14)	0.5906(13)	0.7467(18)	1.0	.
C47	C	0.142(2)	0.6378(19)	0.497(2)	1.0	.
C48	C	0.169(2)	0.600(2)	0.452(3)	1.0	.
C49	C	0.094(3)	0.549(2)	0.378(3)	1.0	.
C50	C	0.0312(17)	0.5654(15)	0.417(2)	1.0	.
C51	C	0.0521(16)	0.6322(15)	0.481(2)	1.0	.
C52	C	0.1520(10)	0.7922(10)	0.5727(13)	1.0	.
C53	C	0.2097(10)	0.8585(9)	0.6324(12)	1.0	.
C54	C	0.1638(15)	0.9140(13)	0.6705(18)	1.0	.
C55	C	0.0754(13)	0.8913(12)	0.6054(16)	1.0	.
C56	C	0.0768(14)	0.8117(12)	0.5928(17)	1.0	.
C57	C	0.4406(9)	1.1764(8)	0.6204(11)	1.0	.
C58	C	0.5860(9)	0.2884(8)	0.6288(11)	1.0	.
