data_x06077_config-0
loop_
 _symmetry_equiv_pos_as_xyz
'x, y, z'
'-x, -y, -z'

_cell_length_a	7.0429(2)
_cell_length_b	8.0689(3)
_cell_length_c	15.7272(5)
_cell_angle_alpha	88.862(1)
_cell_angle_beta	79.313(1)
_cell_angle_gamma	89.519(1)
loop_
 _atom_site_label
 _atom_site_type_symbol
 _atom_site_fract_x
 _atom_site_fract_y
 _atom_site_fract_z
 _atom_site_occupancy
 _atom_site_disorder_group
Si1	Si	0.28027(6)	0.29053(5)	0.65457(3)	1.0	.
O1	O	0.65941(17)	0.32301(16)	0.57873(8)	1.0	.
C1	C	0.0590(2)	0.06237(18)	0.91431(10)	1.0	.
C2	C	-0.1243(2)	0.10746(18)	0.96172(10)	1.0	.
C3	C	-0.2517(2)	0.21051(18)	0.92590(10)	1.0	.
H3	H	-0.2124	0.2531	0.8686	1.0	.
C4	C	-0.4329(2)	0.25204(18)	0.97154(10)	1.0	.
C5	C	-0.5649(2)	0.35312(19)	0.93457(11)	1.0	.
H5	H	-0.5289	0.3936	0.8767	1.0	.
C6	C	-0.7413(2)	0.3921(2)	0.98099(11)	1.0	.
H6	H	-0.8279	0.4585	0.9551	1.0	.
C7	C	-0.7976(2)	0.3345(2)	1.06808(11)	1.0	.
H7	H	-0.9210	0.3638	1.1000	1.0	.
C8	C	-0.6773(2)	0.2385(2)	1.10591(11)	1.0	.
H8	H	-0.7173	0.2011	1.1641	1.0	.
C9	C	-0.4904(2)	0.19243(19)	1.05940(10)	1.0	.
C10	C	-0.3656(2)	0.09196(19)	1.09541(10)	1.0	.
H10	H	-0.4042	0.0533	1.1534	1.0	.
C11	C	-0.1834(2)	0.04488(18)	1.04921(10)	1.0	.
C12	C	0.1214(2)	0.12973(19)	0.82935(10)	1.0	.
C13	C	0.1771(2)	0.1926(2)	0.75885(10)	1.0	.
C14	C	0.1815(2)	0.1896(2)	0.56561(10)	1.0	.
H14	H	0.0404	0.2163	0.5742	1.0	.
C15	C	0.2012(3)	0.0013(2)	0.57055(12)	1.0	.
H15A	H	0.1452	-0.0484	0.5245	1.0	.
H15B	H	0.1329	-0.0397	0.6270	1.0	.
H15C	H	0.3382	-0.0291	0.5634	1.0	.
C16	C	0.2752(3)	0.2583(2)	0.47642(11)	1.0	.
H16A	H	0.4146	0.2365	0.4666	1.0	.
H16B	H	0.2522	0.3781	0.4739	1.0	.
H16C	H	0.2188	0.2044	0.4317	1.0	.
C17	C	0.2351(2)	0.5195(2)	0.65999(11)	1.0	.
H17	H	0.2842	0.5683	0.6012	1.0	.
C18	C	0.3405(3)	0.6041(2)	0.72374(12)	1.0	.
H18A	H	0.3154	0.7237	0.7227	1.0	.
H18B	H	0.4797	0.5836	0.7073	1.0	.
H18C	H	0.2941	0.5592	0.7822	1.0	.
C19	C	0.0169(3)	0.5537(2)	0.68234(14)	1.0	.
H19A	H	-0.0359	0.5039	0.7391	1.0	.
H19B	H	-0.0466	0.5054	0.6383	1.0	.
H19C	H	-0.0062	0.6736	0.6839	1.0	.
C20	C	0.5546(2)	0.2464(2)	0.63647(10)	1.0	.
C21	C	0.6370(2)	0.1187(3)	0.69051(12)	1.0	.
H21A	H	0.7773	0.1118	0.6711	1.0	.
H21B	H	0.5792	0.0106	0.6842	1.0	.
H21C	H	0.6081	0.1505	0.7514	1.0	.
