data_x07086_config-2
loop_
 _symmetry_equiv_pos_as_xyz
'x, y, z'
'-x, -y, -z'

_cell_length_a	7.4725(6)
_cell_length_b	7.6935(5)
_cell_length_c	16.2871(12)
_cell_angle_alpha	90.163(3)
_cell_angle_beta	100.717(3)
_cell_angle_gamma	95.799(3)
loop_
 _atom_site_label
 _atom_site_type_symbol
 _atom_site_fract_x
 _atom_site_fract_y
 _atom_site_fract_z
 _atom_site_occupancy
 _atom_site_disorder_group
Si1	Si	0.25485(5)	0.20924(5)	0.82737(2)	1.0	.
C1	C	0.05276(19)	0.43979(17)	0.58204(8)	1.0	.
C2	C	-0.12713(19)	0.39352(17)	0.53828(9)	1.0	.
C3	C	-0.25761(19)	0.29230(17)	0.57440(9)	1.0	.
H3	H	-0.2235	0.2529	0.6298	1.0	.
C4	C	-0.43378(19)	0.24829(17)	0.53188(9)	1.0	.
C5	C	-0.5675(2)	0.14642(18)	0.56842(9)	1.0	.
H5	H	-0.5360	0.1078	0.6241	1.0	.
C6	C	-0.7383(2)	0.10431(18)	0.52465(9)	1.0	.
H6	H	-0.8258	0.0366	0.5500	1.0	.
C7	C	-0.7889(2)	0.15974(19)	0.44135(9)	1.0	.
H7	H	-0.9096	0.1283	0.4113	1.0	.
C8	C	-0.66695(19)	0.25679(18)	0.40443(9)	1.0	.
H8	H	-0.7028	0.2935	0.3487	1.0	.
C9	C	-0.48508(19)	0.30488(17)	0.44803(9)	1.0	.
C10	C	-0.35869(19)	0.40564(17)	0.41192(9)	1.0	.
H10	H	-0.3940	0.4438	0.3564	1.0	.
C11	C	-0.17987(19)	0.45341(17)	0.45469(9)	1.0	.
C12	C	0.10956(18)	0.37244(17)	0.66275(9)	1.0	.
C13	C	0.16281(19)	0.31103(18)	0.72957(9)	1.0	.
C14	C	0.1771(2)	-0.03045(19)	0.81830(9)	1.0	.
H14	H	0.2223	-0.0832	0.8734	1.0	.
C15	C	0.2582(3)	-0.1209(2)	0.75205(11)	1.0	.
H15A	H	0.2124	-0.2452	0.7480	1.0	.
H15B	H	0.3920	-0.1087	0.7678	1.0	.
H15C	H	0.2221	-0.0669	0.6979	1.0	.
C16	C	-0.0308(2)	-0.0634(2)	0.80027(11)	1.0	.
H16A	H	-0.0792	-0.0106	0.7471	1.0	.
H16B	H	-0.0797	-0.0113	0.8453	1.0	.
H16C	H	-0.0675	-0.1895	0.7967	1.0	.
C17'	C	0.518(3)	0.2415(17)	0.8372(9)	1.0	2
H17'	H	0.5508	0.1873	0.7868	1.0	2
C18'	C	0.608(4)	0.149(3)	0.9149(12)	1.0	2
H18C	H	0.5618	0.0248	0.9111	1.0	2
H18D	H	0.5794	0.2021	0.9650	1.0	2
H18E	H	0.7413	0.1605	0.9184	1.0	2
C19'	C	0.5890(12)	0.4362(11)	0.8416(4)	1.0	2
H19D	H	0.5701	0.4883	0.8939	1.0	2
H19E	H	0.5223	0.4955	0.7941	1.0	2
H19F	H	0.7200	0.4491	0.8397	1.0	2
C20'	C	0.1480(12)	0.317(2)	0.9117(11)	1.0	2
H20'	H	0.0124	0.3065	0.8918	1.0	2
C21'	C	0.185(3)	0.224(3)	0.9948(13)	1.0	2
H21C	H	0.1347	0.1009	0.9866	1.0	2
H21D	H	0.1274	0.2798	1.0356	1.0	2
H21E	H	0.3177	0.2300	1.0154	1.0	2
C22'	C	0.2141(17)	0.510(2)	0.9222(11)	1.0	2
H22D	H	0.1537	0.5635	0.9631	1.0	2
H22E	H	0.1843	0.5676	0.8684	1.0	2
H22F	H	0.3470	0.5252	0.9420	1.0	2
