data_x08015_config-1
loop_
 _symmetry_equiv_pos_as_xyz
'x, y, z'
'-x, -y, -z'

_cell_length_a	7.4436(4)
_cell_length_b	7.6906(4)
_cell_length_c	16.8240(8)
_cell_angle_alpha	89.060(2)
_cell_angle_beta	78.620(2)
_cell_angle_gamma	85.093(2)
loop_
 _atom_site_label
 _atom_site_type_symbol
 _atom_site_fract_x
 _atom_site_fract_y
 _atom_site_fract_z
 _atom_site_occupancy
 _atom_site_disorder_group
Si1	Si	0.75465(8)	0.79140(7)	0.17709(3)	1.0	.
C1	C	0.5534(3)	0.5608(3)	0.41983(12)	1.0	.
C2	C	0.6802(3)	0.4541(3)	0.45543(12)	1.0	.
C3	C	0.8592(3)	0.4086(3)	0.41316(12)	1.0	.
H3	H	0.8952	0.4478	0.3590	1.0	.
C4	C	0.9845(3)	0.3081(3)	0.44857(12)	1.0	.
C5	C	1.1668(3)	0.2612(3)	0.40735(13)	1.0	1
F5	F	1.2159(3)	0.3261(3)	0.33187(12)	1.0	1
C6	C	1.2899(3)	0.1645(3)	0.44192(14)	1.0	.
H6	H	1.4109	0.1352	0.4123	1.0	1
C7	C	1.2372(3)	0.1068(3)	0.52291(13)	1.0	.
H7	H	1.3234	0.0386	0.5477	1.0	1
C8	C	1.0657(3)	0.1480(3)	0.56495(13)	1.0	1
H8	H	1.0333	0.1081	0.6192	1.0	1
C9	C	0.9313(3)	0.2499(3)	0.53046(12)	1.0	.
C10	C	0.7552(3)	0.2924(3)	0.57237(12)	1.0	.
H10	H	0.7203	0.2522	0.6265	1.0	.
C11	C	0.6261(3)	0.3936(2)	0.53704(12)	1.0	.
C12	C	0.6119(3)	0.6289(3)	0.34053(12)	1.0	.
C13	C	0.6640(3)	0.6903(3)	0.27476(13)	1.0	.
C14	C	0.6800(3)	1.0309(3)	0.18542(14)	1.0	.
H14	H	0.7306	1.0859	0.1324	1.0	.
C15	C	0.7566(5)	1.1193(4)	0.25107(16)	1.0	.
H15A	H	0.7096	1.2425	0.2554	1.0	.
H15B	H	0.8912	1.1108	0.2366	1.0	.
H15C	H	0.7181	1.0613	0.3032	1.0	.
C16	C	0.4714(4)	1.0642(4)	0.20040(16)	1.0	.
H16A	H	0.4173	1.0073	0.2510	1.0	.
H16B	H	0.4255	1.0167	0.1552	1.0	.
H16C	H	0.4371	1.1901	0.2046	1.0	.
C17	C	0.6452(3)	0.6903(3)	0.09991(13)	1.0	.
H17	H	0.5095	0.7068	0.1210	1.0	.
C18	C	0.6789(4)	0.7795(4)	0.01747(15)	1.0	.
H18A	H	0.8093	0.7600	-0.0078	1.0	.
H18B	H	0.6449	0.9050	0.0244	1.0	.
H18C	H	0.6043	0.7308	-0.0172	1.0	.
C19	C	0.6922(5)	0.4944(4)	0.09063(19)	1.0	.
H19A	H	0.6137	0.4464	0.0575	1.0	.
H19B	H	0.6717	0.4393	0.1442	1.0	.
H19C	H	0.8215	0.4712	0.0642	1.0	.
C20	C	1.0117(3)	0.7546(4)	0.15989(15)	1.0	.
H20	H	1.0458	0.8187	0.2053	1.0	1
C21	C	1.1059(3)	0.8425(4)	0.08423(17)	1.0	.
H21A	H	1.0665	0.9675	0.0867	1.0	.
H21B	H	1.0731	0.7911	0.0367	1.0	.
H21C	H	1.2394	0.8260	0.0801	1.0	.
C22	C	1.0871(5)	0.5718(5)	0.1685(2)	1.0	1
H22A	H	1.2167	0.5703	0.1726	1.0	1
H22B	H	1.0768	0.5041	0.1210	1.0	1
H22C	H	1.0176	0.5203	0.2175	1.0	1
