data_x08072_config-0
loop_
 _symmetry_equiv_pos_as_xyz
'x, y, z'
'-x, -y, -z'

_cell_length_a	7.1746(3)
_cell_length_b	7.8462(3)
_cell_length_c	16.4197(7)
_cell_angle_alpha	92.307(1)
_cell_angle_beta	101.956(1)
_cell_angle_gamma	92.835(1)
loop_
 _atom_site_label
 _atom_site_type_symbol
 _atom_site_fract_x
 _atom_site_fract_y
 _atom_site_fract_z
 _atom_site_occupancy
 _atom_site_disorder_group
Si1	Si	0.55710(4)	0.79963(4)	0.838683(19)	1.0	.
C1	C	0.52551(15)	0.56500(14)	0.58378(7)	1.0	.
C2	C	0.66414(16)	0.60939(14)	0.53677(7)	1.0	.
C3	C	0.82780(16)	0.71420(14)	0.57092(7)	1.0	.
H3	H	0.8446	0.7591	0.6267	1.0	.
C4	C	0.96577(16)	0.75448(14)	0.52585(7)	1.0	.
C5	C	1.13349(16)	0.86021(15)	0.56048(8)	1.0	.
H5	H	1.1521	0.9059	0.6162	1.0	.
C6	C	1.26649(16)	0.89620(15)	0.51490(8)	1.0	.
H6	H	1.3780	0.9655	0.5393	1.0	.
C7	C	1.24074(17)	0.83096(15)	0.43058(8)	1.0	.
H7	H	1.3350	0.8574	0.3993	1.0	.
C8	C	1.08275(17)	0.73161(15)	0.39483(8)	1.0	.
H8	H	1.0672	0.6895	0.3386	1.0	.
C9	C	0.93919(16)	0.68935(14)	0.44068(7)	1.0	.
C10	C	0.77704(16)	0.58708(14)	0.40589(7)	1.0	.
H10	H	0.7597	0.5453	0.3496	1.0	.
C11	C	0.63734(15)	0.54318(14)	0.45140(7)	1.0	.
C12	C	0.54789(15)	0.63347(14)	0.66722(7)	1.0	.
C13	C	0.56168(16)	0.69405(15)	0.73731(7)	1.0	.
C14	C	0.31537(18)	0.74692(17)	0.85802(8)	1.0	.
H14	H	0.2854	0.8064	0.9084	1.0	.
C15	C	0.14761(18)	0.71223(17)	0.78492(8)	1.0	.
H15A	H	0.0229	0.7542	0.7907	1.0	.
H15B	H	0.1734	0.7160	0.7281	1.0	.
C16	C	0.22122(18)	0.56837(18)	0.83610(8)	1.0	.
H16A	H	0.2926	0.4831	0.8109	1.0	.
H16B	H	0.1421	0.5214	0.8736	1.0	.
C17	C	0.74752(18)	0.71457(16)	0.92150(7)	1.0	.
H17	H	0.8735	0.7425	0.9066	1.0	.
C18	C	0.7239(2)	0.52007(18)	0.92409(8)	1.0	.
H18A	H	0.8301	0.4793	0.9648	1.0	.
H18B	H	0.7231	0.4676	0.8688	1.0	.
H18C	H	0.6032	0.4887	0.9403	1.0	.
C19	C	0.7524(2)	0.8013(2)	1.00717(8)	1.0	.
H19A	H	0.6289	0.7795	1.0227	1.0	.
H19B	H	0.7781	0.9247	1.0050	1.0	.
H19C	H	0.8532	0.7552	1.0487	1.0	.
C20	C	0.60184(18)	1.03624(16)	0.82967(8)	1.0	.
H20	H	0.6034	1.0939	0.8853	1.0	.
C21	C	0.4429(2)	1.11016(18)	0.76576(9)	1.0	.
H21A	H	0.4711	1.2330	0.7629	1.0	.
H21B	H	0.3207	1.0914	0.7827	1.0	.
H21C	H	0.4356	1.0533	0.7109	1.0	.
C22	C	0.79637(19)	1.07649(17)	0.80796(9)	1.0	.
H22A	H	0.8000	1.0190	0.7543	1.0	.
H22B	H	0.8973	1.0361	0.8514	1.0	.
H22C	H	0.8163	1.2002	0.8043	1.0	.
