data_x08153_config-0
loop_
 _symmetry_equiv_pos_as_xyz
'x, y, z'
'-x, -y, -z'

_cell_length_a	7.1691(4)
_cell_length_b	8.5469(5)
_cell_length_c	17.7563(10)
_cell_angle_alpha	86.663(3)
_cell_angle_beta	82.531(3)
_cell_angle_gamma	66.171(3)
loop_
 _atom_site_label
 _atom_site_type_symbol
 _atom_site_fract_x
 _atom_site_fract_y
 _atom_site_fract_z
 _atom_site_occupancy
 _atom_site_disorder_group
Si1	Si	0.89411(13)	0.26855(11)	0.19140(4)	1.0	.
F1	F	0.9238(3)	-0.2114(2)	0.45412(10)	1.0	.
F2	F	0.9042(3)	-0.4333(2)	0.56961(11)	1.0	.
F3	F	0.6825(3)	-0.3188(2)	0.70195(10)	1.0	.
F4	F	0.4588(3)	0.0216(2)	0.72560(9)	1.0	.
C1	C	0.6143(4)	0.4405(4)	0.42831(15)	1.0	.
C2	C	0.6047(4)	0.3206(4)	0.48536(15)	1.0	.
C3	C	0.7095(4)	0.1435(4)	0.47409(15)	1.0	.
H3	H	0.7868	0.1034	0.4270	1.0	.
C4	C	0.7022(4)	0.0272(4)	0.53008(15)	1.0	.
C5	C	0.8109(5)	-0.1527(4)	0.52118(16)	1.0	.
C6	C	0.8029(5)	-0.2644(4)	0.57725(17)	1.0	.
C7	C	0.6827(5)	-0.2039(4)	0.64762(17)	1.0	.
C8	C	0.5742(5)	-0.0350(4)	0.65869(16)	1.0	.
C9	C	0.5793(4)	0.0883(4)	0.60180(15)	1.0	.
C10	C	0.4748(4)	0.2617(4)	0.61393(15)	1.0	.
H10	H	0.3936	0.3004	0.6605	1.0	.
C11	C	0.4872(4)	0.3819(4)	0.55806(15)	1.0	.
C12	C	0.7197(5)	0.3810(4)	0.35441(16)	1.0	.
C13	C	0.7985(5)	0.3327(4)	0.29160(16)	1.0	.
C14	C	0.9805(5)	0.4330(5)	0.14365(18)	1.0	.
H14A	H	1.1006	0.4285	0.1660	1.0	.
H14B	H	1.0232	0.4044	0.0897	1.0	.
C15	C	0.8152(7)	0.6154(5)	0.1504(2)	1.0	.
H15A	H	0.6851	0.6138	0.1399	1.0	.
H15B	H	0.7967	0.6536	0.2028	1.0	.
C16	C	0.8620(7)	0.7451(6)	0.0973(2)	1.0	.
H16A	H	0.9944	0.7431	0.1049	1.0	.
H16B	H	0.7565	0.8586	0.1081	1.0	.
H16C	H	0.8647	0.7161	0.0450	1.0	.
C17	C	0.6731(5)	0.2677(4)	0.14595(17)	1.0	.
H17A	H	0.6341	0.1769	0.1693	1.0	.
H17B	H	0.5555	0.3770	0.1564	1.0	.
C18	C	0.7185(5)	0.2405(5)	0.06017(18)	1.0	.
H18A	H	0.7573	0.3314	0.0368	1.0	.
H18B	H	0.8362	0.1313	0.0497	1.0	.
C19	C	0.5383(6)	0.2398(6)	0.0234(2)	1.0	.
H19A	H	0.5010	0.1483	0.0453	1.0	.
H19B	H	0.5771	0.2220	-0.0308	1.0	.
H19C	H	0.4220	0.3486	0.0323	1.0	.
C20	C	1.1052(5)	0.0502(5)	0.18936(18)	1.0	.
H20A	H	1.1293	0.0035	0.1382	1.0	.
H20B	H	1.2312	0.0600	0.1994	1.0	.
C21	C	1.0630(6)	-0.0756(5)	0.2465(2)	1.0	.
H21A	H	1.0531	-0.0350	0.2980	1.0	.
H21B	H	0.9299	-0.0767	0.2399	1.0	.
C22	C	1.2257(7)	-0.2576(5)	0.2392(3)	1.0	.
H22A	H	1.2265	-0.3036	0.1904	1.0	.
H22B	H	1.1950	-0.3280	0.2796	1.0	.
H22C	H	1.3594	-0.2573	0.2428	1.0	.
