data_k11061_config-2
loop_
 _symmetry_equiv_pos_as_xyz
'x, y, z'
'-x, -y, -z'

_cell_length_a	8.91240(10)
_cell_length_b	10.43340(10)
_cell_length_c	11.5640(2)
_cell_angle_alpha	109.7717(7)
_cell_angle_beta	94.7599(7)
_cell_angle_gamma	93.0208(7)
loop_
 _atom_site_label
 _atom_site_type_symbol
 _atom_site_fract_x
 _atom_site_fract_y
 _atom_site_fract_z
 _atom_site_occupancy
 _atom_site_disorder_group
Si1	Si	0.34333(7)	0.88458(6)	0.24346(6)	1.0	.
C1	C	0.4605(3)	0.5950(2)	0.4419(2)	1.0	.
C2	C	0.3630(3)	0.5658(2)	0.5211(2)	1.0	.
C3	C	0.2280(3)	0.6322(2)	0.5456(2)	1.0	.
C4'	C	0.1403(3)	0.6075(2)	0.6289(2)	1.0	2
C5'	C	0.0141(14)	0.6625(13)	0.6878(12)	1.0	2
H5'	H	-0.0359	0.7299	0.6649	1.0	2
F3'	F	-0.1480(10)	0.6288(9)	0.9528(8)	1.0	2
F2'	F	-0.2922(19)	0.610(2)	0.7846(14)	1.0	2
F1'	F	-0.1613(9)	0.7994(7)	0.8931(7)	1.0	2
C22'	C	-0.1634(16)	0.6627(12)	0.8492(13)	1.0	2
C6'	C	-0.035(3)	0.620(3)	0.775(3)	1.0	2
S7'	S	0.0649(7)	0.4898(5)	0.7992(5)	1.0	2
C8'	C	0.1802(3)	0.5128(2)	0.6895(2)	1.0	2
C9	C	0.3073(3)	0.4448(2)	0.6647(2)	1.0	.
C10	C	0.4027(3)	0.4699(2)	0.5810(2)	1.0	.
C11	C	0.4228(3)	0.6910(2)	0.3822(2)	1.0	.
C12	C	0.3918(3)	0.7704(2)	0.3303(2)	1.0	.
C13	C	0.2999(3)	0.7712(2)	0.0775(2)	1.0	.
H13	H	0.2060	0.7122	0.0732	1.0	.
C14	C	0.4222(4)	0.6730(3)	0.0282(3)	1.0	.
H14A	H	0.3862	0.6100	-0.0550	1.0	.
H14B	H	0.4428	0.6208	0.0832	1.0	.
H14C	H	0.5150	0.7259	0.0253	1.0	.
C15	C	0.2628(4)	0.8524(3)	-0.0081(2)	1.0	.
H15A	H	0.3516	0.9127	-0.0065	1.0	.
H15B	H	0.1784	0.9074	0.0202	1.0	.
H15C	H	0.2346	0.7890	-0.0926	1.0	.
C16	C	0.5041(3)	1.0218(3)	0.2788(2)	1.0	.
H16	H	0.5263	1.0591	0.3708	1.0	.
C17	C	0.6496(3)	0.9674(3)	0.2284(3)	1.0	.
H17A	H	0.6365	0.9374	0.1379	1.0	.
H17B	H	0.6735	0.8899	0.2543	1.0	.
H17C	H	0.7324	1.0399	0.2605	1.0	.
C18	C	0.4595(4)	1.1431(3)	0.2391(3)	1.0	.
H18A	H	0.5465	1.2111	0.2581	1.0	.
H18B	H	0.3759	1.1850	0.2839	1.0	.
H18C	H	0.4280	1.1102	0.1500	1.0	.
C19	C	0.1699(3)	0.9664(3)	0.3038(2)	1.0	.
H19	H	0.1413	1.0267	0.2556	1.0	.
C20	C	0.0353(3)	0.8583(4)	0.2824(3)	1.0	.
H20A	H	0.0625	0.7933	0.3236	1.0	.
H20B	H	0.0108	0.8093	0.1936	1.0	.
H20C	H	-0.0527	0.9038	0.3166	1.0	.
C21	C	0.2004(4)	1.0576(3)	0.4405(3)	1.0	.
H21A	H	0.1083	1.1004	0.4682	1.0	.
H21B	H	0.2815	1.1288	0.4501	1.0	.
H21C	H	0.2308	1.0019	0.4902	1.0	.
