data_x08183_config-0
loop_
 _symmetry_equiv_pos_as_xyz
'x, y, z'
'-x, -y, -z'

_cell_length_a	7.4944(4)
_cell_length_b	8.3059(4)
_cell_length_c	18.6255(9)
_cell_angle_alpha	90.933(2)
_cell_angle_beta	97.236(2)
_cell_angle_gamma	101.834(2)
loop_
 _atom_site_label
 _atom_site_type_symbol
 _atom_site_fract_x
 _atom_site_fract_y
 _atom_site_fract_z
 _atom_site_occupancy
 _atom_site_disorder_group
Si1	Si	0.69705(7)	0.26275(6)	0.78839(3)	1.0	.
F1	F	1.02643(17)	0.92225(15)	0.69801(6)	1.0	.
F2	F	1.12997(18)	1.24533(15)	0.67169(7)	1.0	.
F3	F	0.99446(18)	1.36875(15)	0.54958(7)	1.0	.
F4	F	0.74813(17)	1.17142(15)	0.44879(6)	1.0	.
C1	C	0.5647(3)	0.4382(2)	0.56669(11)	1.0	.
C2	C	0.6315(3)	0.6041(2)	0.55157(10)	1.0	.
C3	C	0.7626(3)	0.7097(3)	0.60107(11)	1.0	.
H3	H	0.8110	0.6673	0.6447	1.0	.
C4	C	0.8223(3)	0.8731(3)	0.58772(11)	1.0	.
C5	C	0.9540(3)	0.9830(3)	0.63702(11)	1.0	.
C6	C	1.0073(3)	1.1432(3)	0.62479(11)	1.0	.
C7	C	0.9341(3)	1.2091(3)	0.55999(11)	1.0	.
C8	C	0.8126(3)	1.1093(3)	0.51055(11)	1.0	.
C9	C	0.7496(3)	0.9393(2)	0.52170(11)	1.0	.
C10	C	0.6257(3)	0.8354(2)	0.47143(11)	1.0	.
H10	H	0.5815	0.8779	0.4272	1.0	.
C11	C	0.5635(3)	0.6683(2)	0.48428(10)	1.0	.
C12	C	0.6228(3)	0.3775(2)	0.63545(11)	1.0	.
C13	C	0.6617(3)	0.3294(2)	0.69463(11)	1.0	.
C14	C	0.6895(3)	0.0364(3)	0.78696(11)	1.0	.
H14A	H	0.8029	0.0164	0.7695	1.0	.
H14B	H	0.6900	-0.0008	0.8372	1.0	.
C15	C	0.5232(3)	-0.0685(3)	0.73961(11)	1.0	.
H15A	H	0.4105	-0.0329	0.7499	1.0	.
H15B	H	0.5363	-0.0495	0.6880	1.0	.
C16	C	0.5016(3)	-0.2516(3)	0.75209(12)	1.0	.
H16A	H	0.4896	-0.2703	0.8038	1.0	.
H16B	H	0.6141	-0.2872	0.7415	1.0	.
C17	C	0.3357(3)	-0.3572(3)	0.70566(13)	1.0	.
H17A	H	0.2240	-0.3205	0.7146	1.0	.
H17B	H	0.3252	-0.4727	0.7181	1.0	.
H17C	H	0.3512	-0.3464	0.6544	1.0	.
C18	C	0.5030(3)	0.3078(2)	0.83420(11)	1.0	.
H18A	H	0.5012	0.4262	0.8306	1.0	.
H18B	H	0.3855	0.2444	0.8083	1.0	.
C19	C	0.5160(3)	0.2654(3)	0.91394(11)	1.0	.
H19A	H	0.5317	0.1503	0.9180	1.0	.
H19B	H	0.6265	0.3376	0.9409	1.0	.
C20	C	0.3483(3)	0.2844(3)	0.94893(11)	1.0	.
H20A	H	0.3368	0.4009	0.9475	1.0	.
H20B	H	0.2369	0.2171	0.9204	1.0	.
C21	C	0.3573(4)	0.2328(3)	1.02667(12)	1.0	.
H21A	H	0.3673	0.1171	1.0285	1.0	.
H21B	H	0.2454	0.2464	1.0461	1.0	.
H21C	H	0.4649	0.3016	1.0557	1.0	.
C22	C	0.9220(3)	0.3813(3)	0.83504(11)	1.0	.
H22A	H	0.9390	0.3451	0.8854	1.0	.
H22B	H	1.0218	0.3535	0.8102	1.0	.
C23	C	0.9417(3)	0.5679(3)	0.83732(12)	1.0	.
H23A	H	0.9439	0.6069	0.7874	1.0	.
H23B	H	0.8329	0.5955	0.8558	1.0	.
C24	C	1.1148(3)	0.6581(3)	0.88482(13)	1.0	.
H24A	H	1.1088	0.6236	0.9352	1.0	.
H24B	H	1.2228	0.6247	0.8682	1.0	.
C25	C	1.1428(4)	0.8441(3)	0.88436(15)	1.0	.
H25A	H	1.1574	0.8803	0.8352	1.0	.
H25B	H	1.2535	0.8938	0.9175	1.0	.
H25C	H	1.0358	0.8784	0.9001	1.0	.
