data_x08194_config-2
loop_
 _symmetry_equiv_pos_as_xyz
'x, y, z'
'-x, -y, -z'

_cell_length_a	7.5089(2)
_cell_length_b	8.2020(2)
_cell_length_c	18.6936(5)
_cell_angle_alpha	90.871(1)
_cell_angle_beta	97.698(1)
_cell_angle_gamma	102.084(1)
loop_
 _atom_site_label
 _atom_site_type_symbol
 _atom_site_fract_x
 _atom_site_fract_y
 _atom_site_fract_z
 _atom_site_occupancy
 _atom_site_disorder_group
Si1	Si	0.31517(7)	0.74341(6)	0.21146(3)	1.0	.
C1	C	0.4383(3)	0.5627(3)	0.43299(11)	1.0	.
C2	C	0.3697(3)	0.3938(3)	0.44743(11)	1.0	.
C3	C	0.2401(3)	0.2864(3)	0.39752(11)	1.0	.
H3	H	0.1944	0.3291	0.3535	1.0	.
C4	C	0.1769(3)	0.1203(3)	0.41046(11)	1.0	.
C5	C	0.0444(3)	0.0096(3)	0.36058(12)	1.0	.
H5	H	-0.0061	0.0520	0.3166	1.0	2
C6	C	-0.0121(4)	-0.1530(3)	0.37354(13)	1.0	.
H6	H	-0.1008	-0.2247	0.3387	1.0	2
C7	C	0.0595(3)	-0.2188(3)	0.43884(13)	1.0	.
H7	H	0.0199	-0.3350	0.4475	1.0	2
C8	C	0.1824(3)	-0.1186(3)	0.48840(12)	1.0	.
H8	H	0.2275	-0.1646	0.5324	1.0	2
C9	C	0.2472(3)	0.0540(3)	0.47715(11)	1.0	.
C10	C	0.3711(3)	0.1599(3)	0.52769(11)	1.0	.
H10	H	0.4144	0.1169	0.5721	1.0	.
C11	C	0.4348(3)	0.3294(3)	0.51522(11)	1.0	.
C12	C	0.3851(3)	0.6233(3)	0.36372(11)	1.0	.
C13	C	0.3489(3)	0.6732(3)	0.30439(11)	1.0	.
C14	C	0.3278(3)	0.9732(3)	0.21447(11)	1.0	.
H14A	H	0.3324	1.0134	0.1649	1.0	.
H14B	H	0.2138	0.9943	0.2304	1.0	.
C15	C	0.4937(3)	1.0751(2)	0.26470(12)	1.0	.
H15A	H	0.4753	1.0545	0.3155	1.0	.
H15B	H	0.6057	1.0363	0.2562	1.0	.
C16	C	0.5232(3)	1.2612(3)	0.25353(12)	1.0	.
H16A	H	0.5405	1.2815	0.2026	1.0	.
H16B	H	0.4114	1.2999	0.2623	1.0	.
C17	C	0.6876(4)	1.3633(3)	0.30244(15)	1.0	.
H17A	H	0.6690	1.3483	0.3530	1.0	.
H17B	H	0.7009	1.4815	0.2919	1.0	.
H17C	H	0.7991	1.3260	0.2940	1.0	.
C18	C	0.5062(3)	0.6962(2)	0.16499(10)	1.0	.
H18A	H	0.6249	0.7611	0.1902	1.0	.
H18B	H	0.5077	0.5763	0.1691	1.0	.
C19	C	0.4897(3)	0.7367(2)	0.08507(10)	1.0	.
H19A	H	0.3774	0.6633	0.0590	1.0	.
H19B	H	0.4751	0.8534	0.0805	1.0	.
C20	C	0.6538(3)	0.7152(3)	0.04925(11)	1.0	.
H20A	H	0.6623	0.5964	0.0501	1.0	.
H20B	H	0.7674	0.7814	0.0777	1.0	.
C21	C	0.6435(3)	0.7690(3)	-0.02843(11)	1.0	.
H21A	H	0.5332	0.7019	-0.0573	1.0	.
H21B	H	0.7530	0.7526	-0.0484	1.0	.
H21C	H	0.6377	0.8872	-0.0296	1.0	.
C22	C	0.0884(3)	0.6255(3)	0.16461(11)	1.0	.
H22A	H	-0.0104	0.6561	0.1886	1.0	.
H22B	H	0.0724	0.6605	0.1141	1.0	.
C23	C	0.0657(3)	0.4358(3)	0.16377(11)	1.0	.
H23A	H	0.1745	0.4060	0.1467	1.0	.
H23B	H	0.0617	0.3984	0.2137	1.0	.
C24	C	-0.1067(3)	0.3430(3)	0.11592(12)	1.0	.
H24A	H	-0.2147	0.3789	0.1308	1.0	.
H24B	H	-0.0987	0.3747	0.0654	1.0	.
C25	C	-0.1366(3)	0.1549(3)	0.11879(15)	1.0	.
H25A	H	-0.0307	0.1181	0.1037	1.0	.
H25B	H	-0.2483	0.1030	0.0863	1.0	.
H25C	H	-0.1500	0.1219	0.1683	1.0	.
