data_x12277_config-2
loop_
 _symmetry_equiv_pos_as_xyz
'x, y, z'
'-x, -y, -z'

_cell_length_a	8.2269(2)
_cell_length_b	15.4454(3)
_cell_length_c	18.7415(4)
_cell_angle_alpha	107.123(1)
_cell_angle_beta	97.001(1)
_cell_angle_gamma	90.790(1)
loop_
 _atom_site_label
 _atom_site_type_symbol
 _atom_site_fract_x
 _atom_site_fract_y
 _atom_site_fract_z
 _atom_site_occupancy
 _atom_site_disorder_group
Si1	Si	0.91207(13)	0.40013(7)	0.80268(6)	1.0	.
Si2	Si	0.21146(13)	0.07192(7)	0.19366(5)	1.0	.
F1	F	0.4403(3)	0.58472(13)	0.65820(12)	1.0	.
F2	F	0.2269(3)	0.68107(14)	0.59326(14)	1.0	.
F3	F	0.0614(3)	0.60522(15)	0.45637(14)	1.0	.
F4	F	0.1009(2)	0.42919(14)	0.37843(13)	1.0	.
F5	F	0.6450(3)	-0.14283(12)	0.35021(11)	1.0	.
F6	F	0.8518(3)	-0.24068(13)	0.41641(12)	1.0	.
F7	F	1.0081(2)	-0.16732(14)	0.55542(12)	1.0	.
F8	F	0.9642(2)	0.00817(13)	0.63453(11)	1.0	.
C1	C	0.6264(4)	0.2603(2)	0.57832(17)	1.0	.
C2	C	0.5160(4)	0.3123(2)	0.54596(17)	1.0	.
C3	C	0.4893(4)	0.4024(2)	0.58400(18)	1.0	.
H3	H	0.5462	0.4292	0.6331	1.0	.
C4	C	0.3830(4)	0.4537(2)	0.55256(19)	1.0	.
C5	C	0.3568(4)	0.5457(2)	0.5900(2)	1.0	.
C6	C	0.2515(4)	0.5941(2)	0.5580(2)	1.0	.
C7	C	0.1643(4)	0.5534(2)	0.4854(2)	1.0	.
C8	C	0.1845(4)	0.4668(2)	0.4475(2)	1.0	.
C9	C	0.2948(4)	0.4126(2)	0.47839(19)	1.0	.
C10	C	0.3188(4)	0.3240(2)	0.43987(18)	1.0	.
H10	H	0.2600	0.2975	0.3911	1.0	.
C11	C	0.4292(3)	0.27182(19)	0.47141(17)	1.0	.
C12	C	0.4577(3)	0.1813(2)	0.43093(17)	1.0	.
C13	C	0.5655(3)	0.12914(19)	0.46416(16)	1.0	.
C14	C	0.5916(4)	0.0384(2)	0.42523(17)	1.0	.
H14	H	0.5367	0.0121	0.3757	1.0	.
C15	C	0.6953(4)	-0.0133(2)	0.45771(17)	1.0	.
C16	C	0.7232(4)	-0.1049(2)	0.41954(18)	1.0	.
C17	C	0.8248(4)	-0.1544(2)	0.4524(2)	1.0	.
C18	C	0.9067(4)	-0.1153(2)	0.5260(2)	1.0	.
C19	C	0.8842(4)	-0.0287(2)	0.56469(19)	1.0	.
C20	C	0.7783(3)	0.0266(2)	0.53313(18)	1.0	.
C21	C	0.7551(4)	0.1157(2)	0.57132(17)	1.0	.
H21	H	0.8113	0.1416	0.6207	1.0	.
C22	C	0.6503(3)	0.1690(2)	0.53884(17)	1.0	.
C23	C	0.7157(4)	0.3014(2)	0.65109(18)	1.0	.
C24	C	0.7933(4)	0.3369(2)	0.71110(19)	1.0	.
C25'	C	1.042(6)	0.325(3)	0.8435(17)	1.0	2
H25'	H	0.9495	0.2928	0.8573	1.0	2
C26'	C	1.103(7)	0.238(2)	0.7873(19)	1.0	2
H26D	H	1.2216	0.2464	0.7869	1.0	2
H26E	H	1.0459	0.2299	0.7365	1.0	2
H26F	H	1.0809	0.1850	0.8034	1.0	2
C27'	C	1.133(8)	0.357(2)	0.9195(18)	1.0	2
H27C	H	1.0751	0.4083	0.9495	1.0	2
H27D	H	1.2423	0.3809	0.9157	1.0	2
C28'	C	1.156(3)	0.2882(12)	0.9627(9)	1.0	2
H28D	H	1.1963	0.3195	1.0155	1.0	2
H28E	H	1.2352	0.2448	0.9409	1.0	2
H28F	H	1.0505	0.2558	0.9595	1.0	2
C29'	C	0.742(5)	0.441(3)	0.860(5)	1.0	2
H29'	H	0.8041	0.4720	0.9107	1.0	2
C30'	C	0.606(6)	0.381(4)	0.880(4)	1.0	2
H30D	H	0.6385	0.3181	0.8681	1.0	2
H30E	H	0.5007	0.3839	0.8508	1.0	2
H30F	H	0.5968	0.4042	0.9340	1.0	2
C31'	C	0.671(9)	0.520(4)	0.839(4)	1.0	2
H31C	H	0.6142	0.4979	0.7867	1.0	2
H31D	H	0.7604	0.5635	0.8403	1.0	2
C32'	C	0.550(5)	0.568(3)	0.890(3)	1.0	2
H32D	H	0.5119	0.6207	0.8755	1.0	2
H32E	H	0.6033	0.5877	0.9426	1.0	2
H32F	H	0.4555	0.5262	0.8862	1.0	2
C33	C	1.0378(6)	0.4903(3)	0.7824(3)	1.0	.
H33	H	0.9572	0.5228	0.7566	1.0	.
C34	C	1.1583(7)	0.4489(4)	0.7228(3)	1.0	.
H34A	H	1.2129	0.4980	0.7100	1.0	.
H34B	H	1.0958	0.4078	0.6773	1.0	.
H34C	H	1.2407	0.4152	0.7443	1.0	.
C35	C	1.1180(10)	0.5621(4)	0.8512(4)	1.0	.
H35A	H	1.2039	0.5349	0.8783	1.0	.
H35B	H	1.0351	0.5851	0.8854	1.0	.
C36	C	1.1960(13)	0.6422(5)	0.8312(6)	1.0	.
H36A	H	1.2955	0.6230	0.8082	1.0	.
H36B	H	1.2242	0.6931	0.8770	1.0	.
H36C	H	1.1177	0.6611	0.7956	1.0	.
C37	C	0.3763(4)	0.1434(2)	0.35588(18)	1.0	.
C38	C	0.3103(4)	0.1138(2)	0.29240(18)	1.0	.
C39	C	-0.0119(5)	0.0499(3)	0.1994(2)	1.0	.
H39	H	-0.0159	-0.0008	0.2224	1.0	.
C40	C	-0.1150(7)	0.0152(6)	0.1214(3)	1.0	.
H40A	H	-0.2239	-0.0065	0.1268	1.0	.
H40B	H	-0.0606	-0.0346	0.0891	1.0	.
H40C	H	-0.1261	0.0647	0.0986	1.0	.
C41	C	-0.0861(5)	0.1292(4)	0.2518(3)	1.0	.
H41A	H	-0.0057	0.1557	0.2973	1.0	.
H41B	H	-0.1072	0.1764	0.2263	1.0	.
C42	C	-0.2433(6)	0.1039(5)	0.2757(3)	1.0	.
H42A	H	-0.3223	0.0754	0.2310	1.0	.
H42B	H	-0.2885	0.1585	0.3067	1.0	.
H42C	H	-0.2217	0.0612	0.3050	1.0	.
C43'	C	0.307(3)	-0.0507(9)	0.1598(7)	1.0	2
H43'	H	0.4243	-0.0387	0.1555	1.0	2
C44'	C	0.308(3)	-0.1104(11)	0.2201(8)	1.0	2
H44D	H	0.1950	-0.1290	0.2229	1.0	2
H44E	H	0.3584	-0.0732	0.2701	1.0	2
H44F	H	0.3708	-0.1644	0.2032	1.0	2
C45'	C	0.230(2)	-0.1018(12)	0.0829(8)	1.0	2
H45C	H	0.2156	-0.0596	0.0520	1.0	2
H45D	H	0.1195	-0.1259	0.0858	1.0	2
C46'	C	0.330(3)	-0.1804(15)	0.0438(14)	1.0	2
H46D	H	0.4434	-0.1585	0.0468	1.0	2
H46E	H	0.2826	-0.2053	-0.0091	1.0	2
H46F	H	0.3272	-0.2279	0.0688	1.0	2
C47'	C	0.267(2)	0.1520(12)	0.1447(10)	1.0	2
H47'	H	0.1869	0.1400	0.0979	1.0	2
C48'	C	0.242(2)	0.2542(9)	0.1958(9)	1.0	2
H48D	H	0.2685	0.2972	0.1689	1.0	2
H48E	H	0.3153	0.2677	0.2435	1.0	2
H48F	H	0.1282	0.2596	0.2058	1.0	2
C49'	C	0.433(2)	0.1427(13)	0.1205(9)	1.0	2
H49C	H	0.4583	0.0778	0.1064	1.0	2
H49D	H	0.5150	0.1755	0.1637	1.0	2
C50'	C	0.453(3)	0.1792(15)	0.0536(11)	1.0	2
H50D	H	0.3942	0.2351	0.0592	1.0	2
H50E	H	0.4075	0.1337	0.0065	1.0	2
H50F	H	0.5695	0.1919	0.0526	1.0	2
