data_x09128_config-0
loop_
 _symmetry_equiv_pos_as_xyz
'x, y, z'
'-x, y+1/2, -z+1/2'
'-x, -y, -z'
'x, -y-1/2, z-1/2'

_cell_length_a	6.7352(4)
_cell_length_b	14.8514(8)
_cell_length_c	23.3648(13)
_cell_angle_alpha	90.00
_cell_angle_beta	94.735(4)
_cell_angle_gamma	90.00
loop_
 _atom_site_label
 _atom_site_type_symbol
 _atom_site_fract_x
 _atom_site_fract_y
 _atom_site_fract_z
 _atom_site_occupancy
 _atom_site_disorder_group
Si1	Si	0.2898(2)	0.65128(10)	0.72960(6)	1.0	.
F1	F	0.2874(5)	0.69697(18)	0.49369(12)	1.0	.
C1	C	0.2284(7)	0.4114(3)	0.6140(2)	1.0	.
Si2	Si	0.1023(2)	0.04717(10)	0.40397(6)	1.0	.
F2	F	0.3006(5)	0.7296(2)	0.37946(13)	1.0	.
C2	C	0.2334(7)	0.4317(3)	0.5540(2)	1.0	.
F3	F	0.2820(5)	0.5946(2)	0.30326(12)	1.0	.
C3	C	0.2534(7)	0.5203(3)	0.5346(2)	1.0	.
H3	H	0.2636	0.5683	0.5616	1.0	.
F4	F	0.2526(4)	0.4207(2)	0.33823(11)	1.0	.
C4	C	0.2585(7)	0.5386(3)	0.4766(2)	1.0	.
C5	C	0.2772(7)	0.6277(3)	0.4557(2)	1.0	.
C6	C	0.2844(8)	0.6448(3)	0.3994(2)	1.0	.
C7	C	0.2754(7)	0.5738(4)	0.3593(2)	1.0	.
C8	C	0.2590(7)	0.4882(3)	0.3770(2)	1.0	.
C9	C	0.2496(7)	0.4663(3)	0.4361(2)	1.0	.
C10	C	0.2298(7)	0.3786(3)	0.4552(2)	1.0	.
H10	H	0.2217	0.3307	0.4281	1.0	.
C11	C	0.2216(7)	0.3594(3)	0.51330(19)	1.0	.
C12	C	0.1987(7)	0.2685(3)	0.5337(2)	1.0	.
C13	C	0.1958(8)	0.2524(3)	0.5913(2)	1.0	.
H13	H	0.1828	0.1924	0.6045	1.0	.
C14	C	0.2119(7)	0.3241(3)	0.6316(2)	1.0	.
H14	H	0.2112	0.3112	0.6714	1.0	.
C15	C	0.2406(7)	0.4841(3)	0.65442(19)	1.0	.
C16	C	0.2545(7)	0.5488(3)	0.6860(2)	1.0	.
C17	C	0.4937(9)	0.6286(5)	0.7851(2)	1.0	.
H17A	H	0.4567	0.5782	0.8091	1.0	.
H17B	H	0.5181	0.6823	0.8090	1.0	.
H17C	H	0.6147	0.6132	0.7667	1.0	.
C18	C	0.0538(8)	0.6773(4)	0.7624(2)	1.0	.
H18A	H	-0.0536	0.6859	0.7319	1.0	.
H18B	H	0.0708	0.7324	0.7853	1.0	.
H18C	H	0.0200	0.6272	0.7871	1.0	.
C19	C	0.3537(11)	0.7440(4)	0.6811(3)	1.0	.
H19A	H	0.4848	0.7326	0.6673	1.0	.
H19B	H	0.3567	0.8012	0.7022	1.0	.
H19C	H	0.2532	0.7473	0.6484	1.0	.
C20	C	0.1747(8)	0.1961(3)	0.4929(2)	1.0	.
C21	C	0.1504(8)	0.1360(4)	0.4580(2)	1.0	.
C22	C	-0.1689(9)	0.0216(4)	0.3989(3)	1.0	.
H22A	H	-0.2024	-0.0084	0.4342	1.0	.
H22B	H	-0.2023	-0.0181	0.3660	1.0	.
H22C	H	-0.2447	0.0777	0.3939	1.0	.
C23	C	0.2478(10)	-0.0538(4)	0.4276(3)	1.0	.
H23A	H	0.3896	-0.0383	0.4328	1.0	.
H23B	H	0.2275	-0.1011	0.3984	1.0	.
H23C	H	0.2034	-0.0755	0.4640	1.0	.
C24	C	0.1756(12)	0.0921(4)	0.3340(3)	1.0	.
H24A	H	0.1060	0.1490	0.3253	1.0	.
H24B	H	0.1393	0.0484	0.3035	1.0	.
H24C	H	0.3198	0.1023	0.3366	1.0	.
