data_x15192_a_config-0
loop_
 _symmetry_equiv_pos_as_xyz
'x, y, z'
'-x, -y, z+1/2'
'-x, y, z'
'x, -y, z+1/2'
'x+1/2, y+1/2, z'
'-x+1/2, -y+1/2, z+1/2'
'-x+1/2, y+1/2, z'
'x+1/2, -y+1/2, z+1/2'

_cell_length_a	6.9516(2)
_cell_length_b	33.0401(18)
_cell_length_c	20.5485(10)
_cell_angle_alpha	90
_cell_angle_beta	90
_cell_angle_gamma	90
loop_
 _atom_site_label
 _atom_site_type_symbol
 _atom_site_fract_x
 _atom_site_fract_y
 _atom_site_fract_z
 _atom_site_occupancy
 _atom_site_disorder_group
Si3	Si	0.0000	-0.28658(17)	-0.5837(3)	1.0	.
Si4	Si	0.0000	0.0615(2)	-0.4979(5)	1.0	.
C5	C	0.0000	-0.1079(6)	-0.3792(8)	1.0	.
C6	C	0.0000	-0.1376(5)	-0.5047(10)	1.0	.
C8	C	0.0000	-0.1532(6)	-0.5682(10)	1.0	.
C10	C	0.0000	-0.0956(5)	-0.4962(10)	1.0	.
C11	C	0.0000	-0.0803(5)	-0.4313(8)	1.0	.
C14	C	0.0000	-0.1482(5)	-0.3935(10)	1.0	.
C16	C	0.0000	-0.1649(6)	-0.4523(10)	1.0	.
C18	C	0.0000	-0.0694(5)	-0.5532(9)	1.0	.
C19	C	0.0000	-0.0850(6)	-0.6155(7)	1.0	.
C20	C	0.0000	-0.1969(6)	-0.5794(10)	1.0	.
C22	C	0.0000	-0.1770(9)	-0.3392(13)	1.0	.
C23	C	0.0000	-0.1274(5)	-0.6234(10)	1.0	.
C24	C	0.0000	-0.0262(6)	-0.5429(9)	1.0	.
C26	C	0.0000	-0.1181(11)	-0.2606(10)	1.0	.
C28	C	0.0000	0.0109(6)	-0.5287(9)	1.0	.
C30	C	0.212(2)	-0.3055(4)	-0.6294(9)	1.0	.
C703	C	0.277(6)	0.0783(12)	-0.477(2)	1.0	.
C704	C	0.0000	0.0644(17)	-0.408(3)	1.0	.
C707	C	0.0000	0.0982(17)	-0.561(3)	1.0	.
C801	C	0.0000	-0.1615(10)	-0.279(2)	1.0	.
C804	C	0.0000	-0.0906(8)	-0.3154(11)	1.0	.
C901	C	0.0000	-0.2319(7)	-0.5848(12)	1.0	.
C909	C	0.0000	-0.3035(7)	-0.4960(14)	1.0	.
Si1	Si	0.5000	-0.1649(2)	-0.7569(3)	1.0	.
Si2	Si	0.5000	-0.0099(3)	-0.2442(3)	1.0	.
C1	C	0.5000	-0.1310(5)	-0.5065(8)	1.0	.
C2	C	0.5000	-0.1955(6)	-0.4578(11)	1.0	.
C3	C	0.5000	-0.2391(6)	-0.4624(12)	1.0	.
C4	C	0.5000	-0.1727(5)	-0.5127(10)	1.0	.
C7	C	0.5000	-0.1056(5)	-0.5618(8)	1.0	.
C9	C	0.5000	-0.0444(5)	-0.4963(9)	1.0	.
C12	C	0.5000	-0.0631(5)	-0.5574(8)	1.0	.
C13	C	0.5000	-0.1232(5)	-0.6269(8)	1.0	.
C15	C	0.5000	-0.2627(8)	-0.4094(19)	1.0	.
C17	C	0.5000	-0.0668(5)	-0.4416(9)	1.0	.
C21	C	0.5000	-0.1120(5)	-0.4431(10)	1.0	.
C25	C	0.5000	-0.0322(6)	-0.3247(10)	1.0	.
C27	C	0.5000	-0.1787(6)	-0.3962(12)	1.0	.
C29	C	0.5000	-0.1360(6)	-0.3884(9)	1.0	.
C601	C	0.285(3)	0.0210(7)	-0.2373(13)	1.0	.
C802	C	0.5000	-0.0494(6)	-0.3758(9)	1.0	.
C803	C	0.5000	-0.055(2)	-0.1881(18)	1.0	.
C902	C	0.5000	-0.2443(9)	-0.341(2)	1.0	.
C905	C	0.5000	-0.2205(10)	-0.737(2)	1.0	.
C910	C	0.5000	-0.1373(5)	-0.6778(8)	1.0	.
C913	C	0.713(2)	-0.1516(7)	-0.8050(8)	1.0	.
C920	C	0.5000	-0.2024(8)	-0.3340(11)	1.0	.
