data_k12063xs_config-2
loop_
 _symmetry_equiv_pos_as_xyz
'x, y, z'
'-x, y, -z+1/2'
'x+1/2, y+1/2, z'
'-x+1/2, y+1/2, -z+1/2'
'-x, -y, -z'
'x, -y, z-1/2'
'-x+1/2, -y+1/2, -z'
'x+1/2, -y+1/2, z-1/2'

_cell_length_a	29.4088(3)
_cell_length_b	8.5722(1)
_cell_length_c	20.0692(2)
_cell_angle_alpha	90.00
_cell_angle_beta	121.4773(5)
_cell_angle_gamma	90.00
loop_
 _atom_site_label
 _atom_site_type_symbol
 _atom_site_fract_x
 _atom_site_fract_y
 _atom_site_fract_z
 _atom_site_occupancy
 _atom_site_disorder_group
Si1	Si	0.14297(4)	0.16884(15)	0.33081(6)	1.0	.
C1	C	0.03425(14)	0.0364(4)	0.07989(18)	1.0	.
C2	C	-0.00422(14)	0.1468(4)	0.0300(2)	1.0	.
C3	C	-0.00972(16)	0.2934(4)	0.0579(2)	1.0	.
C4'	C	-0.04843(16)	0.3981(4)	0.0069(2)	1.0	2
C5'	C	-0.0586(11)	0.5566(15)	0.0211(15)	1.0	2
H5'	H	-0.0401	0.6058	0.0708	1.0	2
C6'	C	-0.0971(5)	0.6255(13)	-0.0443(10)	1.0	2
H6'	H	-0.1074	0.7311	-0.0459	1.0	2
S7'	S	-0.12544(18)	0.5078(6)	-0.1232(3)	1.0	2
C8'	C	-0.08154(16)	0.3590(4)	-0.0734(2)	1.0	2
C9	C	-0.07769(15)	0.2197(5)	-0.1020(2)	1.0	.
C10	C	-0.03946(14)	0.1089(4)	-0.05237(19)	1.0	.
C11	C	0.06932(15)	0.0752(5)	0.1609(2)	1.0	.
C12	C	0.09915(16)	0.1086(5)	0.2287(2)	1.0	.
C13'	C	0.1153(13)	0.092(5)	0.3896(16)	1.0	2
H13'	H	0.1024	0.1992	0.3917	1.0	2
C14'	C	0.1395(15)	0.076(7)	0.4760(16)	1.0	2
H14D	H	0.1380	0.1760	0.4982	1.0	2
H14E	H	0.1767	0.0424	0.5002	1.0	2
H14F	H	0.1196	-0.0027	0.4863	1.0	2
C15'	C	0.0582(14)	0.036(6)	0.341(2)	1.0	2
H15C	H	0.0342	0.1201	0.3384	1.0	2
H15D	H	0.0497	0.0167	0.2868	1.0	2
C16'	C	0.0475(12)	-0.110(4)	0.3721(19)	1.0	2
H16D	H	0.0535	-0.2013	0.3484	1.0	2
H16E	H	0.0105	-0.1095	0.3594	1.0	2
H16F	H	0.0716	-0.1140	0.4290	1.0	2
C17'	C	0.1404(13)	0.3840(10)	0.328(2)	1.0	2
H17'	H	0.1486	0.4265	0.2889	1.0	2
C18'	C	0.0827(14)	0.414(4)	0.303(4)	1.0	2
H18D	H	0.0800	0.4237	0.3494	1.0	2
H18E	H	0.0605	0.3264	0.2710	1.0	2
H18F	H	0.0703	0.5104	0.2725	1.0	2
C19'	C	0.178(2)	0.449(2)	0.409(2)	1.0	2
H19C	H	0.2148	0.4109	0.4284	1.0	2
H19D	H	0.1673	0.4126	0.4455	1.0	2
C20'	C	0.1774(8)	0.6276(18)	0.4064(11)	1.0	2
H20D	H	0.1904	0.6635	0.3729	1.0	2
H20E	H	0.2005	0.6688	0.4594	1.0	2
H20F	H	0.1409	0.6648	0.3853	1.0	2
C21'	C	0.2129(3)	0.1343(15)	0.3524(4)	1.0	2
H21'	H	0.2340	0.1937	0.4023	1.0	2
C22'	C	0.2326(10)	0.206(2)	0.3050(11)	1.0	2
H22D	H	0.2093	0.1764	0.2501	1.0	2
H22E	H	0.2690	0.1697	0.3239	1.0	2
H22F	H	0.2327	0.3200	0.3098	1.0	2
C23'	C	0.2343(11)	-0.0323(16)	0.3806(11)	1.0	2
H23C	H	0.2731	-0.0350	0.4014	1.0	2
H23D	H	0.2284	-0.0626	0.4231	1.0	2
C24'	C	0.2063(6)	-0.1455(16)	0.3141(8)	1.0	2
H24D	H	0.1805	-0.2062	0.3201	1.0	2
H24E	H	0.2326	-0.2161	0.3141	1.0	2
H24F	H	0.1877	-0.0881	0.2646	1.0	2
