data_k01102_config-2
loop_
 _symmetry_equiv_pos_as_xyz
'x, y, z'
'-x, y, -z+1/2'
'x+1/2, y+1/2, z'
'-x+1/2, y+1/2, -z+1/2'
'-x, -y, -z'
'x, -y, z-1/2'
'-x+1/2, -y+1/2, -z'
'x+1/2, -y+1/2, z-1/2'

_cell_length_a	30.511(2)
_cell_length_b	7.3870(5)
_cell_length_c	32.106(2)
_cell_angle_alpha	90.00
_cell_angle_beta	118.1860(19)
_cell_angle_gamma	90.00
loop_
 _atom_site_label
 _atom_site_type_symbol
 _atom_site_fract_x
 _atom_site_fract_y
 _atom_site_fract_z
 _atom_site_occupancy
 _atom_site_disorder_group
Si1	Si	0.35026(3)	0.60310(11)	0.24326(3)	1.0	.
Si2	Si	0.40084(3)	0.12157(14)	-0.08110(3)	1.0	.
C1	C	0.36788(9)	0.4021(3)	0.12063(8)	1.0	.
C2	C	0.32948(9)	0.4261(3)	0.07309(8)	1.0	.
C3	C	0.28314(9)	0.5002(3)	0.06234(8)	1.0	.
H3	H	0.2769	0.5355	0.0875	1.0	.
C4	C	0.24565(9)	0.5240(3)	0.01581(8)	1.0	.
C5	C	0.19886(9)	0.5994(3)	0.00446(9)	1.0	.
H5	H	0.1924	0.6363	0.0294	1.0	.
C6	C	0.16212(9)	0.6212(3)	-0.04180(9)	1.0	.
C7	C	0.11443(9)	0.6989(4)	-0.05374(10)	1.0	.
H7	H	0.1075	0.7372	-0.0292	1.0	.
C8	C	0.07944(10)	0.7180(4)	-0.09920(10)	1.0	.
H8	H	0.0482	0.7698	-0.1063	1.0	.
C9	C	0.08861(10)	0.6619(4)	-0.13666(10)	1.0	.
H9	H	0.0635	0.6763	-0.1685	1.0	.
C10	C	0.13292(10)	0.5881(4)	-0.12726(9)	1.0	.
H10	H	0.1384	0.5509	-0.1527	1.0	.
C11	C	0.17176(9)	0.5647(3)	-0.07970(9)	1.0	.
C12	C	0.21743(9)	0.4918(3)	-0.06921(8)	1.0	.
H12	H	0.2236	0.4552	-0.0943	1.0	.
C13	C	0.25520(9)	0.4701(3)	-0.02228(8)	1.0	.
C14	C	0.30164(9)	0.3969(3)	-0.01152(8)	1.0	.
H14	H	0.3079	0.3618	-0.0367	1.0	.
C15	C	0.33907(9)	0.3736(3)	0.03478(8)	1.0	.
C16	C	0.38615(9)	0.2989(3)	0.04506(8)	1.0	.
C17	C	0.42359(9)	0.2778(3)	0.09195(8)	1.0	.
C18	C	0.47131(9)	0.2038(4)	0.10337(9)	1.0	.
H18	H	0.4781	0.1686	0.0786	1.0	.
C19	C	0.50686(10)	0.1832(4)	0.14864(9)	1.0	.
H19	H	0.5381	0.1325	0.1553	1.0	.
C20	C	0.49772(10)	0.2367(4)	0.18621(9)	1.0	.
H20	H	0.5230	0.2220	0.2179	1.0	.
C21	C	0.45326(10)	0.3088(4)	0.17741(8)	1.0	.
H21	H	0.4480	0.3446	0.2031	1.0	.
C22	C	0.41428(9)	0.3319(3)	0.13021(8)	1.0	.
C23	C	0.35912(9)	0.4560(4)	0.15919(8)	1.0	.
C24	C	0.35308(9)	0.5057(4)	0.19196(9)	1.0	.
C25	C	0.36575(12)	0.4198(5)	0.28856(10)	1.0	.
H25A	H	0.4016	0.3912	0.3021	1.0	.
H25B	H	0.3601	0.4670	0.3145	1.0	.
C26	C	0.33649(13)	0.2465(5)	0.27037(12)	1.0	.
H26A	H	0.3008	0.2731	0.2561	1.0	.
H26B	H	0.3457	0.1615	0.2966	1.0	.
H26C	H	0.3440	0.1925	0.2466	1.0	.
C27	C	0.39828(11)	0.7862(4)	0.26724(10)	1.0	.
H27A	H	0.3880	0.8849	0.2436	1.0	.
H27B	H	0.3986	0.8363	0.2960	1.0	.
C28	C	0.45063(11)	0.7308(5)	0.27958(12)	1.0	.
H28A	H	0.4621	0.6377	0.3042	1.0	.
H28B	H	0.4726	0.8364	0.2911	1.0	.
H28C	H	0.4511	0.6822	0.2514	1.0	.
C29	C	0.28747(11)	0.6950(5)	0.22481(10)	1.0	.
H29A	H	0.2640	0.5923	0.2169	1.0	.
H29B	H	0.2879	0.7595	0.2520	1.0	.
C30	C	0.26745(12)	0.8251(5)	0.18231(12)	1.0	.
H30A	H	0.2893	0.9310	0.1901	1.0	.
H30B	H	0.2338	0.8644	0.1748	1.0	.
H30C	H	0.2665	0.7629	0.1549	1.0	.
C31	C	0.39459(9)	0.2415(3)	0.00678(9)	1.0	.
C32	C	0.39925(9)	0.1932(4)	-0.02696(9)	1.0	.
C33	C	0.34102(13)	0.2027(6)	-0.13165(10)	1.0	.
H33A	H	0.3433	0.3359	-0.1336	1.0	.
H33B	H	0.3388	0.1516	-0.1611	1.0	.
C34	C	0.29435(14)	0.1614(6)	-0.13110(13)	1.0	.
H34A	H	0.2883	0.0307	-0.1348	1.0	.
H34B	H	0.2669	0.2251	-0.1572	1.0	.
H34C	H	0.2966	0.2008	-0.1010	1.0	.
C35'	C	0.3920(5)	-0.1493(18)	-0.0815(4)	1.0	2
H35C	H	0.3608	-0.1759	-0.0803	1.0	2
H35D	H	0.3887	-0.1990	-0.1114	1.0	2
C36'	C	0.4345(4)	-0.2426(14)	-0.0407(3)	1.0	2
H36D	H	0.4295	-0.3739	-0.0440	1.0	2
H36E	H	0.4359	-0.2030	-0.0110	1.0	2
H36F	H	0.4658	-0.2115	-0.0406	1.0	2
C37'	C	0.4479(3)	0.2816(17)	-0.0887(3)	1.0	2
H37C	H	0.4525	0.2377	-0.1155	1.0	2
H37D	H	0.4334	0.4047	-0.0967	1.0	2
C38'	C	0.4983(3)	0.2923(13)	-0.0448(3)	1.0	2
H38D	H	0.5196	0.3771	-0.0504	1.0	2
H38E	H	0.5137	0.1721	-0.0377	1.0	2
H38F	H	0.4940	0.3347	-0.0181	1.0	2
