data_k01135_config-0
loop_
 _symmetry_equiv_pos_as_xyz
'x, y, z'
'-x+1/2, -y, z+1/2'
'x+1/2, -y+1/2, -z'
'-x, y+1/2, -z+1/2'
'-x, -y, -z'
'x-1/2, y, -z-1/2'
'-x-1/2, y-1/2, z'
'x, -y-1/2, z-1/2'

_cell_length_a	14.88(2)
_cell_length_b	14.26(2)
_cell_length_c	30.73(4)
_cell_angle_alpha	90.00(3)
_cell_angle_beta	90.00(3)
_cell_angle_gamma	90.00(3)
loop_
 _atom_site_label
 _atom_site_type_symbol
 _atom_site_fract_x
 _atom_site_fract_y
 _atom_site_fract_z
 _atom_site_occupancy
 _atom_site_disorder_group
Si1	Si	-0.25387(16)	0.25743(18)	0.23057(7)	1.0	.
Si2	Si	0.37540(15)	0.30038(17)	0.00221(7)	1.0	.
C1	C	0.0027(5)	0.2588(6)	0.1539(3)	1.0	.
C2	C	0.0348(5)	0.3445(6)	0.1369(3)	1.0	.
C3	C	-0.0051(5)	0.4325(6)	0.1464(2)	1.0	.
H3	H	-0.0562	0.4338	0.1649	1.0	.
C4	C	0.0260(6)	0.5146(6)	0.1303(3)	1.0	.
H4	H	-0.0016	0.5723	0.1381	1.0	.
C5	C	0.1007(6)	0.5127(6)	0.1017(3)	1.0	.
H5	H	0.1223	0.5698	0.0896	1.0	.
C6	C	0.1415(5)	0.4315(6)	0.0913(2)	1.0	.
H6	H	0.1917	0.4324	0.0722	1.0	.
C7	C	0.1109(6)	0.3440(6)	0.1084(2)	1.0	.
C8	C	0.1513(5)	0.2582(6)	0.0965(2)	1.0	.
C9	C	0.1186(5)	0.1731(6)	0.1132(2)	1.0	.
C10	C	0.1573(5)	0.0846(6)	0.1019(3)	1.0	.
H10	H	0.2070	0.0831	0.0825	1.0	.
C11	C	0.1254(5)	0.0034(6)	0.1178(3)	1.0	.
H11	H	0.1520	-0.0542	0.1092	1.0	.
C12	C	0.0518(6)	0.0031(6)	0.1475(3)	1.0	.
H12	H	0.0299	-0.0545	0.1588	1.0	.
C13	C	0.0132(6)	0.0855(6)	0.1596(3)	1.0	.
H13	H	-0.0354	0.0847	0.1796	1.0	.
C14	C	0.0438(5)	0.1730(6)	0.1428(2)	1.0	.
C15	C	-0.0761(6)	0.2583(6)	0.1816(3)	1.0	.
C16	C	-0.1439(6)	0.2578(6)	0.2028(3)	1.0	.
C17	C	-0.3162(7)	0.1556(8)	0.2066(3)	1.0	.
H17	H	-0.2811	0.1011	0.2180	1.0	.
C18	C	-0.3117(8)	0.1404(8)	0.1603(3)	1.0	.
H18A	H	-0.2496	0.1481	0.1504	1.0	.
H18B	H	-0.3503	0.1860	0.1455	1.0	.
H18C	H	-0.3324	0.0768	0.1536	1.0	.
C19	C	-0.4092(7)	0.1395(8)	0.2274(3)	1.0	.
H19A	H	-0.4049	0.1478	0.2590	1.0	.
H19B	H	-0.4297	0.0757	0.2209	1.0	.
H19C	H	-0.4522	0.1848	0.2155	1.0	.
C20	C	-0.2364(6)	0.2375(6)	0.2900(3)	1.0	.
H20	H	-0.2970	0.2397	0.3041	1.0	.
C21	C	-0.1959(7)	0.1420(7)	0.3005(3)	1.0	.
H21A	H	-0.2328	0.0926	0.2873	1.0	.
H21B	H	-0.1941	0.1332	0.3321	1.0	.
H21C	H	-0.1347	0.1386	0.2888	1.0	.
C22	C	-0.1798(7)	0.3152(7)	0.3107(3)	1.0	.
H22A	H	-0.2075	0.3762	0.3046	1.0	.
H22B	H	-0.1190	0.3137	0.2984	1.0	.
H22C	H	-0.1768	0.3054	0.3422	1.0	.
C23	C	-0.3017(6)	0.3779(6)	0.2212(3)	1.0	.
H23	H	-0.2562	0.4235	0.2325	1.0	.
C24	C	-0.3891(7)	0.3971(7)	0.2460(3)	1.0	.
H24A	H	-0.3799	0.3847	0.2770	1.0	.
H24B	H	-0.4367	0.3561	0.2348	1.0	.
H24C	H	-0.4066	0.4628	0.2419	1.0	.
C25	C	-0.3142(7)	0.4001(8)	0.1728(3)	1.0	.
H25A	H	-0.2575	0.3896	0.1574	1.0	.
H25B	H	-0.3325	0.4657	0.1694	1.0	.
H25C	H	-0.3608	0.3591	0.1606	1.0	.
C26	C	0.2273(6)	0.2585(6)	0.0672(3)	1.0	.
C27	C	0.2892(6)	0.2654(6)	0.0424(3)	1.0	.
C28	C	0.4028(5)	0.2018(6)	-0.0358(2)	1.0	.
H28	H	0.4511	0.2257	-0.0555	1.0	.
C29	C	0.3242(6)	0.1724(6)	-0.0654(3)	1.0	.
H29A	H	0.2993	0.2280	-0.0798	1.0	.
H29B	H	0.2774	0.1423	-0.0478	1.0	.
H29C	H	0.3459	0.1282	-0.0874	1.0	.
C30	C	0.4418(6)	0.1154(6)	-0.0133(3)	1.0	.
H30A	H	0.4925	0.1341	0.0052	1.0	.
H30B	H	0.4625	0.0706	-0.0352	1.0	.
H30C	H	0.3953	0.0860	0.0048	1.0	.
C31	C	0.4775(5)	0.3390(6)	0.0343(3)	1.0	.
H31	H	0.4645	0.4042	0.0446	1.0	.
C32	C	0.4969(6)	0.2808(6)	0.0755(3)	1.0	.
H32A	H	0.4423	0.2768	0.0932	1.0	.
H32B	H	0.5448	0.3110	0.0923	1.0	.
H32C	H	0.5160	0.2176	0.0671	1.0	.
C33	C	0.5618(6)	0.3456(7)	0.0064(3)	1.0	.
H33A	H	0.5492	0.3834	-0.0195	1.0	.
H33B	H	0.5804	0.2825	-0.0025	1.0	.
H33C	H	0.6101	0.3750	0.0233	1.0	.
C34	C	0.3235(6)	0.4047(6)	-0.0267(3)	1.0	.
H34	H	0.3284	0.4587	-0.0061	1.0	.
C35	C	0.3755(6)	0.4334(6)	-0.0675(3)	1.0	.
H35A	H	0.4393	0.4411	-0.0602	1.0	.
H35B	H	0.3516	0.4928	-0.0786	1.0	.
H35C	H	0.3691	0.3847	-0.0897	1.0	.
C36	C	0.2231(6)	0.3939(7)	-0.0370(3)	1.0	.
H36A	H	0.1906	0.3776	-0.0103	1.0	.
H36B	H	0.2149	0.3441	-0.0586	1.0	.
H36C	H	0.1997	0.4531	-0.0486	1.0	.
