data_k02215s_config-0
loop_
 _symmetry_equiv_pos_as_xyz
'x, y, z'
'-x+1/2, y+1/2, -z+1/2'
'-x, -y, -z'
'x-1/2, -y-1/2, z-1/2'

_cell_length_a	11.1980(3)
_cell_length_b	13.5280(4)
_cell_length_c	12.1520(3)
_cell_angle_alpha	90.00
_cell_angle_beta	99.7600(11)
_cell_angle_gamma	90.00
loop_
 _atom_site_label
 _atom_site_type_symbol
 _atom_site_fract_x
 _atom_site_fract_y
 _atom_site_fract_z
 _atom_site_occupancy
 _atom_site_disorder_group
Si1	Si	0.15062(5)	0.17904(4)	0.35966(4)	1.0	.
O1	O	0.15940(12)	0.56891(10)	0.71586(11)	1.0	.
C1	C	0.41677(16)	0.42220(13)	0.46939(14)	1.0	.
C2	C	0.38943(15)	0.49629(13)	0.54401(14)	1.0	.
C3	C	0.28088(16)	0.49344(14)	0.59074(14)	1.0	.
H3	H	0.2244	0.4413	0.5712	1.0	.
C4	C	0.25774(17)	0.56499(14)	0.66326(15)	1.0	.
C5	C	0.34008(16)	0.64462(14)	0.69090(15)	1.0	.
H5	H	0.3220	0.6952	0.7398	1.0	.
C6	C	0.44412(16)	0.64922(14)	0.64823(15)	1.0	.
H6	H	0.4981	0.7029	0.6680	1.0	.
C7	C	0.47417(15)	0.57479(13)	0.57405(14)	1.0	.
C8	C	0.33178(16)	0.34400(13)	0.43694(15)	1.0	.
C9	C	0.26010(17)	0.27844(14)	0.40851(15)	1.0	.
C10	C	0.13643(16)	0.17473(14)	0.20315(15)	1.0	.
H10	H	0.0834	0.1173	0.1758	1.0	.
C11	C	0.0754(2)	0.26838(15)	0.14910(17)	1.0	.
H11A	H	0.1217	0.3266	0.1795	1.0	.
H11B	H	-0.0073	0.2728	0.1651	1.0	.
H11C	H	0.0728	0.2656	0.0681	1.0	.
C12	C	0.25899(18)	0.15856(16)	0.16612(17)	1.0	.
H12A	H	0.2476	0.1562	0.0844	1.0	.
H12B	H	0.2942	0.0961	0.1969	1.0	.
H12C	H	0.3137	0.2131	0.1933	1.0	.
C13	C	0.20662(18)	0.05981(14)	0.42932(17)	1.0	.
H13	H	0.1721	0.0562	0.4999	1.0	.
C14	C	0.34376(19)	0.05192(17)	0.4637(2)	1.0	.
H14A	H	0.3641	-0.0108	0.5026	1.0	.
H14B	H	0.3732	0.1069	0.5134	1.0	.
H14C	H	0.3821	0.0546	0.3970	1.0	.
C15	C	0.15764(19)	-0.03099(15)	0.35963(17)	1.0	.
H15A	H	0.1906	-0.0318	0.2899	1.0	.
H15B	H	0.0690	-0.0277	0.3425	1.0	.
H15C	H	0.1822	-0.0914	0.4021	1.0	.
C16	C	0.00282(17)	0.21901(16)	0.40024(17)	1.0	.
H16	H	-0.0212	0.2822	0.3598	1.0	.
C17	C	-0.10005(18)	0.14458(17)	0.36341(18)	1.0	.
H17A	H	-0.0800	0.0814	0.4014	1.0	.
H17B	H	-0.1101	0.1348	0.2825	1.0	.
H17C	H	-0.1756	0.1702	0.3829	1.0	.
C18	C	0.0160(2)	0.24121(18)	0.52474(18)	1.0	.
H18A	H	-0.0590	0.2711	0.5405	1.0	.
H18B	H	0.0835	0.2871	0.5465	1.0	.
H18C	H	0.0318	0.1796	0.5672	1.0	.
C19	C	0.0734(2)	0.49063(17)	0.6947(2)	1.0	.
H19A	H	0.0408	0.4879	0.6146	1.0	.
H19B	H	0.0072	0.5024	0.7365	1.0	.
H19C	H	0.1130	0.4277	0.7184	1.0	.
