data_x10085x_config-2
loop_
 _symmetry_equiv_pos_as_xyz
'x, y, z'
'-x, -y, -z'

_cell_length_a	6.3736(3)
_cell_length_b	6.9883(3)
_cell_length_c	17.1653(7)
_cell_angle_alpha	80.932(2)
_cell_angle_beta	84.469(2)
_cell_angle_gamma	78.072(2)
loop_
 _atom_site_label
 _atom_site_type_symbol
 _atom_site_fract_x
 _atom_site_fract_y
 _atom_site_fract_z
 _atom_site_occupancy
 _atom_site_disorder_group
Si1	Si	0.78201(18)	0.25206(16)	0.82280(6)	1.0	.
C1	C	0.5560(6)	0.4411(5)	0.5788(2)	1.0	.
C2'	C	0.707(15)	0.38(3)	0.512(3)	1.0	2
C3'	C	0.920(8)	0.270(12)	0.5226(18)	1.0	2
H3'	H	0.9679	0.2214	0.5741	1.0	2
C4'	C	1.055(5)	0.235(9)	0.4569(14)	1.0	2
C5'	C	1.270(4)	0.126(3)	0.4453(14)	1.0	2
H5'	H	1.3652	0.0615	0.4849	1.0	2
C6'	C	1.308(3)	0.133(3)	0.3669(13)	1.0	2
H6'	H	1.4407	0.0768	0.3421	1.0	2
O7'	O	1.133(3)	0.232(3)	0.3262(8)	1.0	2
C8'	C	0.966(4)	0.285(6)	0.3821(15)	1.0	2
C9'	C	0.774(7)	0.404(11)	0.367(3)	1.0	2
H9'	H	0.7305	0.4464	0.3147	1.0	2
C10'	C	0.642(13)	0.464(19)	0.434(4)	1.0	2
C11	C	0.6159(6)	0.3809(6)	0.6587(2)	1.0	.
C12	C	0.6731(7)	0.3288(6)	0.7249(2)	1.0	.
C13	C	0.6986(7)	0.4624(6)	0.8813(2)	1.0	.
H13A	H	0.7463	0.4178	0.9355	1.0	.
H13B	H	0.7739	0.5701	0.8572	1.0	.
C14	C	0.4592(8)	0.5449(7)	0.8866(3)	1.0	.
H14A	H	0.4078	0.5809	0.8333	1.0	.
H14B	H	0.4308	0.6623	0.9135	1.0	.
H14C	H	0.3841	0.4447	0.9166	1.0	.
C15	C	0.6751(6)	0.0296(6)	0.8711(2)	1.0	.
H15A	H	0.5172	0.0675	0.8802	1.0	.
H15B	H	0.7047	-0.0704	0.8345	1.0	.
C16	C	0.7708(7)	-0.0644(6)	0.9500(2)	1.0	.
H16A	H	0.9263	-0.1090	0.9413	1.0	.
H16B	H	0.7049	-0.1777	0.9724	1.0	.
H16C	H	0.7422	0.0332	0.9868	1.0	.
C17	C	1.0808(7)	0.1914(7)	0.8099(2)	1.0	.
H17A	H	1.1329	0.3121	0.7849	1.0	.
H17B	H	1.1389	0.1526	0.8627	1.0	.
C18	C	1.1718(7)	0.0254(8)	0.7596(3)	1.0	.
H18A	H	1.1271	-0.0969	0.7849	1.0	.
H18B	H	1.3290	0.0049	0.7551	1.0	.
H18C	H	1.1171	0.0625	0.7068	1.0	.
