data_x07071_config-1
loop_
 _symmetry_equiv_pos_as_xyz
'x, y, z'
'-x+1/2, y+1/2, -z+1/2'
'-x, -y, -z'
'x-1/2, -y-1/2, z-1/2'

_cell_length_a	12.5364(8)
_cell_length_b	11.0982(7)
_cell_length_c	15.6030(10)
_cell_angle_alpha	90.00
_cell_angle_beta	95.203(3)
_cell_angle_gamma	90.00
loop_
 _atom_site_label
 _atom_site_type_symbol
 _atom_site_fract_x
 _atom_site_fract_y
 _atom_site_fract_z
 _atom_site_occupancy
 _atom_site_disorder_group
Si1	Si	0.74134(3)	0.87906(4)	0.14145(3)	1.0	.
C1	C	0.93599(13)	0.59328(14)	0.02894(10)	1.0	.
C2	C	0.90234(13)	0.53298(14)	-0.04819(10)	1.0	.
C3	C	0.80604(13)	0.56389(15)	-0.09699(11)	1.0	.
H3	H	0.7624	0.6268	-0.0782	1.0	1
C4	C	0.77567(13)	0.50310(15)	-0.17140(11)	1.0	1
S5	S	0.66123(17)	0.5272(2)	-0.24155(15)	1.0	1
C6	C	0.6973(6)	0.4095(6)	-0.3057(4)	1.0	1
H6	H	0.6546	0.3834	-0.3557	1.0	1
C7	C	0.7919(10)	0.3581(12)	-0.2780(6)	1.0	1
H7	H	0.8230	0.2942	-0.3077	1.0	1
C8	C	0.84052(14)	0.40854(15)	-0.20013(11)	1.0	1
C9	C	0.93394(14)	0.37745(15)	-0.15441(11)	1.0	.
H9	H	0.9766	0.3145	-0.1745	1.0	1
C10	C	0.96785(13)	0.43794(14)	-0.07747(10)	1.0	.
C11	C	0.87169(13)	0.68751(15)	0.05931(10)	1.0	.
C12	C	0.81923(13)	0.76596(15)	0.08771(11)	1.0	.
C13	C	0.78823(14)	1.03108(15)	0.10968(12)	1.0	.
H13	H	0.7466	1.0929	0.1393	1.0	.
C14	C	0.76918(19)	1.0531(2)	0.01286(14)	1.0	.
H14A	H	0.7790	0.9775	-0.0192	1.0	.
H14B	H	0.6954	1.0829	-0.0023	1.0	.
C15	C	0.85071(18)	1.14703(19)	-0.00955(14)	1.0	.
H15A	H	0.8920	1.1173	-0.0564	1.0	.
H15B	H	0.8142	1.2228	-0.0286	1.0	.
C16	C	0.92457(16)	1.16828(19)	0.07188(15)	1.0	.
H16A	H	0.9057	1.2440	0.1004	1.0	.
H16B	H	1.0002	1.1729	0.0586	1.0	.
C17	C	0.90703(15)	1.05974(17)	0.12896(13)	1.0	.
H17A	H	0.9240	1.0799	0.1905	1.0	.
H17B	H	0.9519	0.9908	0.1141	1.0	.
C18	C	0.76772(14)	0.84972(16)	0.25955(11)	1.0	.
H18	H	0.7238	0.7782	0.2732	1.0	.
C19	C	0.88601(15)	0.81931(18)	0.28827(12)	1.0	.
H19A	H	0.8963	0.7310	0.2922	1.0	.
H19B	H	0.9337	0.8521	0.2467	1.0	.
C20	C	0.9105(2)	0.8780(3)	0.37693(15)	1.0	.
H20A	H	0.9432	0.8187	0.4188	1.0	.
H20B	H	0.9608	0.9462	0.3733	1.0	.
C21	C	0.80530(18)	0.9218(2)	0.40420(13)	1.0	.
H21A	H	0.8154	0.9941	0.4413	1.0	.
H21B	H	0.7697	0.8583	0.4358	1.0	.
C22	C	0.74073(17)	0.95173(18)	0.32038(13)	1.0	.
H22A	H	0.7620	1.0309	0.2982	1.0	.
H22B	H	0.6631	0.9531	0.3278	1.0	.
C23	C	0.59773(14)	0.85736(16)	0.10132(12)	1.0	.
H23	H	0.5905	0.8772	0.0385	1.0	.
C24	C	0.51716(15)	0.93792(18)	0.14496(15)	1.0	.
H24A	H	0.5539	0.9824	0.1941	1.0	.
H24B	H	0.4831	0.9968	0.1034	1.0	.
C25	C	0.43394(18)	0.8524(2)	0.17566(15)	1.0	.
H25A	H	0.4515	0.8309	0.2369	1.0	.
H25B	H	0.3618	0.8893	0.1690	1.0	.
C26	C	0.43854(16)	0.74295(19)	0.11909(15)	1.0	.
H26A	H	0.3986	0.7564	0.0622	1.0	.
H26B	H	0.4089	0.6713	0.1463	1.0	.
C27	C	0.55700(15)	0.72817(17)	0.11073(14)	1.0	.
H27A	H	0.5694	0.6793	0.0595	1.0	.
H27B	H	0.5931	0.6890	0.1625	1.0	.
