data_x10193t4_config-2
loop_
 _symmetry_equiv_pos_as_xyz
'x, y, z'
'-x, y+1/2, -z+1/2'
'-x, -y, -z'
'x, -y-1/2, z-1/2'

_cell_length_a	10.6703(3)
_cell_length_b	16.2068(4)
_cell_length_c	12.0490(3)
_cell_angle_alpha	90.00
_cell_angle_beta	106.683(1)
_cell_angle_gamma	90.00
loop_
 _atom_site_label
 _atom_site_type_symbol
 _atom_site_fract_x
 _atom_site_fract_y
 _atom_site_fract_z
 _atom_site_occupancy
 _atom_site_disorder_group
Si1	Si	0.72579(6)	-0.03384(4)	0.11129(5)	1.0	.
O1	O	-0.06008(17)	0.28818(11)	0.09092(14)	1.0	.
N1	N	-0.17721(19)	0.26275(12)	0.21624(17)	1.0	.
C1	C	0.5473(2)	-0.00309(13)	0.40195(19)	1.0	.
C2	C	0.4320(2)	0.04182(13)	0.39589(19)	1.0	.
C3	C	0.3622(2)	0.08289(14)	0.29314(19)	1.0	.
C4'	C	0.2503(2)	0.12547(14)	0.28966(19)	1.0	2
C5'	C	0.147(2)	0.166(2)	0.2032(17)	1.0	2
H5'	H	0.1442	0.1652	0.1236	1.0	2
C6'	C	0.054(9)	0.204(8)	0.241(4)	1.0	2
S7'	S	0.0685(11)	0.1881(7)	0.3914(10)	1.0	2
C8'	C	0.2029(2)	0.13092(13)	0.3892(2)	1.0	2
C9	C	0.2686(2)	0.09168(14)	0.48962(19)	1.0	.
C10	C	0.3839(2)	0.04550(13)	0.49662(19)	1.0	.
C11	C	0.5963(2)	-0.00695(13)	0.30308(19)	1.0	.
C12	C	0.6413(2)	-0.01241(14)	0.22204(19)	1.0	.
C13	C	0.8877(2)	-0.07871(14)	0.1908(2)	1.0	.
H13A	H	0.8726	-0.1280	0.2338	1.0	.
H13B	H	0.9321	-0.0973	0.1335	1.0	.
C14	C	0.9788(3)	-0.02039(17)	0.2759(2)	1.0	.
H14A	H	1.0017	0.0261	0.2335	1.0	.
H14B	H	1.0585	-0.0500	0.3176	1.0	.
H14C	H	0.9347	0.0003	0.3313	1.0	.
C15	C	0.6281(2)	-0.11402(16)	0.0118(2)	1.0	.
H15A	H	0.5465	-0.0886	-0.0370	1.0	.
H15B	H	0.6787	-0.1337	-0.0403	1.0	.
C16	C	0.5930(3)	-0.18796(16)	0.0759(2)	1.0	.
H16A	H	0.6728	-0.2108	0.1292	1.0	.
H16B	H	0.5502	-0.2303	0.0197	1.0	.
H16C	H	0.5334	-0.1702	0.1198	1.0	.
C17	C	0.7406(3)	0.06445(15)	0.0334(2)	1.0	.
H17A	H	0.6529	0.0799	-0.0170	1.0	.
H17B	H	0.7702	0.1089	0.0914	1.0	.
C18	C	0.8345(2)	0.05943(15)	-0.0403(2)	1.0	.
H18A	H	0.9230	0.0481	0.0096	1.0	.
H18B	H	0.8341	0.1120	-0.0806	1.0	.
H18C	H	0.8070	0.0150	-0.0973	1.0	.
C19	C	-0.0689(2)	0.25537(14)	0.18143(19)	1.0	.
C20	C	-0.2880(2)	0.31133(16)	0.1440(2)	1.0	.
H20A	H	-0.3210	0.2875	0.0654	1.0	.
H20B	H	-0.2623	0.3694	0.1376	1.0	.
C21	C	-0.3899(2)	0.30485(16)	0.2099(2)	1.0	.
H21A	H	-0.3775	0.3486	0.2694	1.0	.
H21B	H	-0.4797	0.3087	0.1567	1.0	.
C22	C	-0.3641(2)	0.21984(16)	0.2655(2)	1.0	.
H22A	H	-0.4024	0.1759	0.2087	1.0	.
H22B	H	-0.4007	0.2153	0.3321	1.0	.
C23	C	-0.2149(2)	0.21430(15)	0.3051(2)	1.0	.
H23A	H	-0.1785	0.2387	0.3831	1.0	.
H23B	H	-0.1850	0.1564	0.3063	1.0	.
