data_k13114s_config-0
loop_
 _symmetry_equiv_pos_as_xyz
'x, y, z'
'-x+1/2, -y, z+1/2'
'x+1/2, -y+1/2, -z'
'-x, y+1/2, -z+1/2'
'-x, -y, -z'
'x-1/2, y, -z-1/2'
'-x-1/2, y-1/2, z'
'x, -y-1/2, z-1/2'

_cell_length_a	14.4240(2)
_cell_length_b	14.7388(2)
_cell_length_c	18.0870(3)
_cell_angle_alpha	90
_cell_angle_beta	90
_cell_angle_gamma	90
loop_
 _atom_site_label
 _atom_site_type_symbol
 _atom_site_fract_x
 _atom_site_fract_y
 _atom_site_fract_z
 _atom_site_occupancy
 _atom_site_disorder_group
Ge1	Ge	0.44196(2)	0.35376(2)	0.80466(2)	1.0	.
C1	C	0.48458(14)	0.46556(14)	0.57246(10)	1.0	.
C2	C	0.55254(13)	0.42459(14)	0.52661(11)	1.0	.
C3	C	0.60225(14)	0.34756(14)	0.54929(11)	1.0	.
H3	H	0.5898	0.3223	0.5966	1.0	.
C4	C	0.78294(16)	0.18954(17)	0.48252(13)	1.0	.
H4	H	0.8140	0.1358	0.4977	1.0	.
C5	C	0.71675(15)	0.22624(15)	0.52631(12)	1.0	.
H5	H	0.7019	0.1978	0.5719	1.0	.
C6	C	0.66878(14)	0.30717(14)	0.50510(11)	1.0	.
C7	C	0.80642(17)	0.23105(17)	0.41376(13)	1.0	.
H7	H	0.8537	0.2052	0.3838	1.0	.
C8	C	0.76204(16)	0.30675(16)	0.39082(12)	1.0	.
H8	H	0.7787	0.3336	0.3449	1.0	.
C9	C	0.69030(14)	0.34726(14)	0.43451(11)	1.0	.
C10	C	0.64058(14)	0.42216(14)	0.41080(11)	1.0	.
H10	H	0.6548	0.4480	0.3641	1.0	.
C11	C	0.56968(13)	0.46117(14)	0.45377(11)	1.0	.
C12	C	0.47285(14)	0.43454(14)	0.64696(11)	1.0	.
C13	C	0.46478(14)	0.41061(15)	0.71030(11)	1.0	.
C14	C	0.31754(14)	0.39357(15)	0.83541(12)	1.0	.
H14	H	0.3030	0.3627	0.8833	1.0	.
C15	C	0.24514(16)	0.36331(18)	0.77913(13)	1.0	.
H15A	H	0.1837	0.3840	0.7949	1.0	.
H15B	H	0.2454	0.2970	0.7756	1.0	.
H15C	H	0.2598	0.3895	0.7307	1.0	.
C16	C	0.31213(17)	0.49567(16)	0.84868(15)	1.0	.
H16A	H	0.3246	0.5279	0.8023	1.0	.
H16B	H	0.3583	0.5132	0.8858	1.0	.
H16C	H	0.2500	0.5115	0.8665	1.0	.
C17	C	0.53944(15)	0.38615(17)	0.87619(12)	1.0	.
H17	H	0.5914	0.3421	0.8692	1.0	.
C18	C	0.50322(19)	0.37368(18)	0.95560(12)	1.0	.
H18A	H	0.5531	0.3869	0.9908	1.0	.
H18B	H	0.4823	0.3110	0.9623	1.0	.
H18C	H	0.4513	0.4152	0.9642	1.0	.
C19	C	0.57932(17)	0.48063(17)	0.86494(13)	1.0	.
H19A	H	0.5310	0.5260	0.8739	1.0	.
H19B	H	0.6020	0.4865	0.8141	1.0	.
H19C	H	0.6307	0.4903	0.8995	1.0	.
C20	C	0.44305(15)	0.22375(15)	0.77937(14)	1.0	.
H20	H	0.3976	0.2154	0.7382	1.0	.
C21	C	0.53713(16)	0.19372(15)	0.74984(13)	1.0	.
H21A	H	0.5848	0.2051	0.7873	1.0	.
H21B	H	0.5518	0.2280	0.7049	1.0	.
H21C	H	0.5353	0.1288	0.7384	1.0	.
C22	C	0.41054(19)	0.16460(17)	0.84231(15)	1.0	.
H22A	H	0.4101	0.1010	0.8264	1.0	.
H22B	H	0.3478	0.1827	0.8569	1.0	.
H22C	H	0.4526	0.1717	0.8845	1.0	.
