data_x10026_config-1
loop_
 _symmetry_equiv_pos_as_xyz
'x, y, z'
'-x, -y, -z'

_cell_length_a	7.2816(2)
_cell_length_b	11.3308(3)
_cell_length_c	11.8578(3)
_cell_angle_alpha	105.3920(10)
_cell_angle_beta	93.4550(10)
_cell_angle_gamma	108.2650(10)
loop_
 _atom_site_label
 _atom_site_type_symbol
 _atom_site_fract_x
 _atom_site_fract_y
 _atom_site_fract_z
 _atom_site_occupancy
 _atom_site_disorder_group
C1	C	0.5538(5)	0.5612(3)	0.4116(2)	1.0	.
C2	C	0.3554(5)	0.4866(3)	0.4058(2)	1.0	.
C3	C	0.2093(5)	0.4720(3)	0.3131(2)	1.0	.
H3	H	0.2446	0.5115	0.2525	1.0	1
C4	C	0.0183(6)	0.4014(3)	0.3110(2)	1.0	1
S5	S	-0.1751(4)	0.3718(3)	0.2037(2)	1.0	1
C6	C	-0.3312(11)	0.2841(12)	0.2825(11)	1.0	1
F1	F	-0.5202(7)	0.2408(5)	0.2406(5)	1.0	1
C7	C	-0.242(2)	0.279(2)	0.3852(17)	1.0	1
H7	H	-0.3098	0.2386	0.4384	1.0	1
C8	C	-0.0376(5)	0.3417(3)	0.4026(2)	1.0	1
C9	C	0.1020(5)	0.3536(3)	0.4918(2)	1.0	.
H9	H	0.0640	0.3130	0.5513	1.0	1
C10	C	0.3013(5)	0.4253(3)	0.4969(2)	1.0	.
C11	C	0.6108(5)	0.6241(3)	0.3222(3)	1.0	.
C12	C	0.6625(5)	0.6746(4)	0.2485(2)	1.0	.
Si1	Si	0.7728(14)	0.7450(11)	0.1359(12)	1.0	1
C13	C	0.5772(17)	0.783(2)	0.0605(15)	1.0	1
H13A	H	0.6280	0.8220	-0.0007	1.0	1
H13B	H	0.5346	0.8443	0.1185	1.0	1
H13C	H	0.4659	0.7026	0.0239	1.0	1
C14	C	0.840(3)	0.6186(11)	0.0249(10)	1.0	1
H14A	H	0.8986	0.6555	-0.0358	1.0	1
H14B	H	0.7216	0.5430	-0.0125	1.0	1
H14C	H	0.9337	0.5915	0.0651	1.0	1
C15	C	0.9866(11)	0.8968(7)	0.2079(5)	1.0	1
C16	C	0.909(2)	1.0088(10)	0.2515(10)	1.0	1
H16A	H	0.8301	1.0153	0.1850	1.0	1
H16B	H	1.0195	1.0906	0.2849	1.0	1
H16C	H	0.8281	0.9925	0.3125	1.0	1
C17	C	1.125(2)	0.9227(11)	0.1123(8)	1.0	1
H17A	H	1.1776	0.8516	0.0881	1.0	1
H17B	H	1.2332	1.0053	0.1466	1.0	1
H17C	H	1.0497	0.9270	0.0431	1.0	1
C18	C	1.1081(12)	0.8884(9)	0.3156(7)	1.0	1
H18	H	1.0247	0.8822	0.3792	1.0	1
C19	C	1.1750(12)	0.7710(10)	0.2872(9)	1.0	1
H19A	H	1.0619	0.6918	0.2501	1.0	1
H19B	H	1.2354	0.7647	0.3604	1.0	1
H19C	H	1.2707	0.7810	0.2326	1.0	1
C20	C	1.298(2)	0.985(2)	0.3686(15)	1.0	1
H20A	H	1.2858	1.0715	0.3941	1.0	1
H20B	H	1.3880	0.9836	0.3104	1.0	1
H20C	H	1.3493	0.9657	0.4373	1.0	1
