data_x10026_config-2
loop_
 _symmetry_equiv_pos_as_xyz
'x, y, z'
'-x, -y, -z'

_cell_length_a	7.2816(2)
_cell_length_b	11.3308(3)
_cell_length_c	11.8578(3)
_cell_angle_alpha	105.3920(10)
_cell_angle_beta	93.4550(10)
_cell_angle_gamma	108.2650(10)
loop_
 _atom_site_label
 _atom_site_type_symbol
 _atom_site_fract_x
 _atom_site_fract_y
 _atom_site_fract_z
 _atom_site_occupancy
 _atom_site_disorder_group
C1	C	0.5538(5)	0.5612(3)	0.4116(2)	1.0	.
C2	C	0.3554(5)	0.4866(3)	0.4058(2)	1.0	.
C3	C	0.2093(5)	0.4720(3)	0.3131(2)	1.0	.
C4'	C	0.0183(6)	0.4014(3)	0.3110(2)	1.0	2
C5'	C	-0.155(3)	0.389(2)	0.2351(13)	1.0	2
H5'	H	-0.1540	0.4306	0.1749	1.0	2
F1'	F	-0.5054(16)	0.2640(12)	0.2007(9)	1.0	2
C6'	C	-0.322(2)	0.309(3)	0.263(2)	1.0	2
S7'	S	-0.2921(9)	0.2540(10)	0.3840(9)	1.0	2
C8'	C	-0.0376(5)	0.3417(3)	0.4026(2)	1.0	2
C9	C	0.1020(5)	0.3536(3)	0.4918(2)	1.0	.
C10	C	0.3013(5)	0.4253(3)	0.4969(2)	1.0	.
C11	C	0.6108(5)	0.6241(3)	0.3222(3)	1.0	.
C12	C	0.6625(5)	0.6746(4)	0.2485(2)	1.0	.
Si1'	Si	0.7644(18)	0.7575(14)	0.1350(16)	1.0	2
C13'	C	0.633(3)	0.864(2)	0.100(2)	1.0	2
H13D	H	0.6416	0.9333	0.1728	1.0	2
H13E	H	0.4950	0.8119	0.0694	1.0	2
H13F	H	0.6929	0.9027	0.0411	1.0	2
C14'	C	0.737(3)	0.6243(18)	-0.0055(12)	1.0	2
H14D	H	0.7887	0.6629	-0.0669	1.0	2
H14E	H	0.5983	0.5716	-0.0319	1.0	2
H14F	H	0.8100	0.5690	0.0090	1.0	2
C15'	C	1.0359(13)	0.8383(9)	0.1922(7)	1.0	2
C16'	C	1.1167(16)	0.7262(12)	0.1791(14)	1.0	2
H16D	H	1.0949	0.6759	0.0953	1.0	2
H16E	H	1.0494	0.6693	0.2243	1.0	2
H16F	H	1.2574	0.7618	0.2092	1.0	2
C17'	C	1.112(3)	0.925(2)	0.108(2)	1.0	2
H17D	H	1.0556	0.9941	0.1211	1.0	2
H17E	H	1.0729	0.8700	0.0254	1.0	2
H17F	H	1.2553	0.9631	0.1260	1.0	2
C18'	C	1.075(3)	0.9226(15)	0.3237(12)	1.0	2
H18'	H	1.0344	0.8640	0.3743	1.0	2
C19'	C	0.964(4)	1.0188(15)	0.3447(12)	1.0	2
H19D	H	0.8249	0.9720	0.3120	1.0	2
H19E	H	1.0179	1.0854	0.3058	1.0	2
H19F	H	0.9769	1.0604	0.4300	1.0	2
C20'	C	1.256(5)	1.029(2)	0.384(3)	1.0	2
H20D	H	1.3642	0.9959	0.3853	1.0	2
H20E	H	1.2401	1.0684	0.4660	1.0	2
H20F	H	1.2833	1.0957	0.3429	1.0	2
