data_x09086_config-2
loop_
 _symmetry_equiv_pos_as_xyz
'x, y, z'
'-x+1/2, y+1/2, -z+1/2'
'-x, -y, -z'
'x-1/2, -y-1/2, z-1/2'

_cell_length_a	11.7476(2)
_cell_length_b	12.5710(2)
_cell_length_c	15.1412(3)
_cell_angle_alpha	90.00
_cell_angle_beta	105.977(1)
_cell_angle_gamma	90.00
loop_
 _atom_site_label
 _atom_site_type_symbol
 _atom_site_fract_x
 _atom_site_fract_y
 _atom_site_fract_z
 _atom_site_occupancy
 _atom_site_disorder_group
Si1	Si	0.68090(9)	0.63790(7)	0.86593(8)	1.0	.
C1	C	0.9284(3)	0.9090(2)	0.9706(2)	1.0	.
C2	C	1.0231(3)	0.9303(2)	0.9327(2)	1.0	.
C3	C	1.0477(3)	0.8643(2)	0.8653(2)	1.0	.
H3	H	0.9992	0.8038	0.8451	1.0	.
C4	C	1.1401(3)	0.8844(3)	0.8274(2)	1.0	.
C5	C	1.1657(4)	0.8180(3)	0.7588(3)	1.0	.
H5	H	1.1172	0.7577	0.7374	1.0	.
C6	C	1.2576(4)	0.8391(4)	0.7237(3)	1.0	.
H6	H	1.2731	0.7936	0.6782	1.0	.
C7	C	1.3310(4)	0.9292(4)	0.7546(3)	1.0	.
H7	H	1.3951	0.9436	0.7295	1.0	.
C8	C	1.3102(4)	0.9945(3)	0.8193(3)	1.0	.
H8	H	1.3605	1.0540	0.8393	1.0	.
C9	C	1.2144(3)	0.9759(3)	0.8585(3)	1.0	.
C10	C	1.1904(3)	1.0420(3)	0.9241(2)	1.0	.
H10	H	1.2393	1.1024	0.9440	1.0	.
C11	C	1.0961(3)	1.0230(2)	0.9625(2)	1.0	.
C12	C	0.8542(3)	0.8186(3)	0.9394(3)	1.0	.
C13	C	0.7897(3)	0.7435(3)	0.9113(3)	1.0	.
C14'	C	0.5487(17)	0.6629(10)	0.9212(11)	1.0	2
H14'	H	0.5675	0.6262	0.9822	1.0	2
C15'	C	0.5331(9)	0.7816(8)	0.9363(8)	1.0	2
H15C	H	0.4963	0.8157	0.8763	1.0	2
H15D	H	0.6120	0.8143	0.9619	1.0	2
C16'	C	0.455(6)	0.804(6)	1.003(6)	1.0	2
H16D	H	0.4490	0.8809	1.0113	1.0	2
H16E	H	0.4905	0.7703	1.0624	1.0	2
H16F	H	0.3751	0.7747	0.9765	1.0	2
C17'	C	0.431(4)	0.619(5)	0.861(5)	1.0	2
H17D	H	0.4384	0.5420	0.8522	1.0	2
H17E	H	0.4110	0.6542	0.8007	1.0	2
H17F	H	0.3679	0.6318	0.8905	1.0	2
C18	C	0.7484(4)	0.5074(3)	0.9152(3)	1.0	.
H18	H	0.8154	0.4963	0.8874	1.0	.
C19	C	0.8048(5)	0.5071(4)	1.0152(3)	1.0	.
H19A	H	0.7423	0.5173	1.0469	1.0	.
H19B	H	0.8587	0.5690	1.0304	1.0	.
C20	C	0.8746(4)	0.4079(3)	1.0539(3)	1.0	.
H20A	H	0.8983	0.4113	1.1211	1.0	.
H20B	H	0.9454	0.4035	1.0317	1.0	.
H20C	H	0.8252	0.3449	1.0337	1.0	.
C21	C	0.6654(4)	0.4146(3)	0.8801(3)	1.0	.
H21A	H	0.6367	0.4181	0.8129	1.0	.
H21B	H	0.5981	0.4183	0.9064	1.0	.
H21C	H	0.7081	0.3476	0.8982	1.0	.
C22'	C	0.636(2)	0.6359(15)	0.7387(19)	1.0	2
H22'	H	0.5647	0.5887	0.7208	1.0	2
C23'	C	0.7260(10)	0.5840(10)	0.7024(10)	1.0	2
H23C	H	0.7302	0.5081	0.7205	1.0	2
H23D	H	0.6984	0.5865	0.6344	1.0	2
C24'	C	0.8435(11)	0.6268(11)	0.7303(10)	1.0	2
H24D	H	0.8948	0.5863	0.7014	1.0	2
H24E	H	0.8742	0.6219	0.7973	1.0	2
H24F	H	0.8418	0.7015	0.7115	1.0	2
C25'	C	0.599(2)	0.7403(18)	0.682(2)	1.0	2
H25D	H	0.5401	0.7784	0.7045	1.0	2
H25E	H	0.5659	0.7225	0.6170	1.0	2
H25F	H	0.6693	0.7855	0.6890	1.0	2
