data_x15218_config-1
loop_
 _symmetry_equiv_pos_as_xyz
'x, y, z'
'-x+1/2, y+1/2, -z+1/2'
'-x, -y, -z'
'x-1/2, -y-1/2, z-1/2'

_cell_length_a	5.2828(6)
_cell_length_b	22.806(3)
_cell_length_c	23.491(3)
_cell_angle_alpha	90
_cell_angle_beta	92.925(9)
_cell_angle_gamma	90
loop_
 _atom_site_label
 _atom_site_type_symbol
 _atom_site_fract_x
 _atom_site_fract_y
 _atom_site_fract_z
 _atom_site_occupancy
 _atom_site_disorder_group
Si1	Si	-0.25796(18)	0.68818(4)	0.48830(5)	1.0	.
C1	C	0.2928(6)	0.53943(15)	0.49632(16)	1.0	.
C2	C	0.3958(6)	0.52205(15)	0.55069(16)	1.0	.
C3	C	0.2956(7)	0.54105(16)	0.60202(17)	1.0	.
H3	H	0.1529	0.5664	0.6002	1.0	.
C4	C	0.3969(7)	0.52421(17)	0.65470(17)	1.0	.
C5	C	0.2930(8)	0.54310(18)	0.70666(18)	1.0	.
H5	H	0.1471	0.5675	0.7052	1.0	.
C6	C	0.3981(9)	0.5269(2)	0.7575(2)	1.0	.
H6	H	0.3259	0.5402	0.7914	1.0	.
C7	C	0.6173(9)	0.4900(2)	0.7614(2)	1.0	.
H7	H	0.6903	0.4790	0.7976	1.0	.
C8	C	0.7197(8)	0.47076(19)	0.71335(18)	1.0	.
H8	H	0.8652	0.4463	0.7163	1.0	.
C9	C	0.6143(7)	0.48644(17)	0.65791(17)	1.0	.
C10	C	0.7143(7)	0.46602(16)	0.60824(17)	1.0	.
H10	H	0.8576	0.4408	0.6108	1.0	.
C11	C	0.6083(6)	0.48173(15)	0.55399(16)	1.0	.
C12	C	0.0933(6)	0.58264(16)	0.49355(16)	1.0	.
C13	C	-0.0587(7)	0.62149(17)	0.49188(17)	1.0	.
C14	C	-0.4521(7)	0.68620(17)	0.41960(18)	1.0	.
H14A	H	-0.5924	0.6579	0.4232	1.0	.
H14B	H	-0.5282	0.7254	0.4126	1.0	.
C15	C	-0.3009(8)	0.66906(19)	0.36842(18)	1.0	.
H15A	H	-0.1428	0.6924	0.3692	1.0	1
H15B	H	-0.2527	0.6272	0.3720	1.0	1
C16	C	-0.4427(9)	0.6782(2)	0.3113(2)	1.0	1
H16A	H	-0.4802	0.7204	0.3060	1.0	1
H16B	H	-0.6060	0.6569	0.3109	1.0	1
C17	C	-0.288(2)	0.6564(8)	0.2621(3)	1.0	1
H17A	H	-0.1186	0.6749	0.2648	1.0	1
H17B	H	-0.2653	0.6135	0.2654	1.0	1
C18	C	-0.417(3)	0.6706(5)	0.2044(3)	1.0	1
H18A	H	-0.4329	0.7137	0.2004	1.0	1
H18B	H	-0.5895	0.6537	0.2024	1.0	1
C19	C	-0.270(3)	0.6466(5)	0.1545(4)	1.0	1
H19A	H	-0.0918	0.6587	0.1592	1.0	1
H19B	H	-0.3439	0.6622	0.1185	1.0	1
H19C	H	-0.2797	0.6037	0.1541	1.0	1
C20	C	-0.4421(7)	0.69180(17)	0.55392(18)	1.0	.
H20A	H	-0.5053	0.7323	0.5585	1.0	.
H20B	H	-0.5912	0.6656	0.5491	1.0	.
C21	C	-0.2857(7)	0.67392(19)	0.60883(17)	1.0	.
H21A	H	-0.2496	0.6314	0.6073	1.0	.
H21B	H	-0.1214	0.6949	0.6098	1.0	.
C22	C	-0.4166(8)	0.68704(19)	0.66322(19)	1.0	.
H22A	H	-0.4437	0.7299	0.6660	1.0	.
H22B	H	-0.5851	0.6679	0.6614	1.0	.
C23	C	-0.2687(8)	0.66636(19)	0.71621(18)	1.0	.
H23A	H	-0.0959	0.6831	0.7162	1.0	.
H23B	H	-0.2521	0.6232	0.7144	1.0	.
C24	C	-0.3843(10)	0.6824(2)	0.7718(2)	1.0	.
H24A	H	-0.5581	0.6662	0.7719	1.0	.
H24B	H	-0.3970	0.7256	0.7744	1.0	.
C25	C	-0.2306(12)	0.6595(3)	0.8238(2)	1.0	.
H25A	H	-0.2174	0.6167	0.8215	1.0	.
H25B	H	-0.3151	0.6703	0.8585	1.0	.
H25C	H	-0.0605	0.6767	0.8249	1.0	.
C26	C	-0.0402(7)	0.75299(17)	0.48856(18)	1.0	1
H26A	H	0.0617	0.7537	0.5251	1.0	1
H26B	H	0.0782	0.7483	0.4575	1.0	1
C27	C	-0.1789(17)	0.8116(3)	0.4808(4)	1.0	1
H27A	H	-0.2774	0.8117	0.4438	1.0	1
H27B	H	-0.2993	0.8164	0.5114	1.0	1
C28	C	0.007(3)	0.8629(4)	0.4826(13)	1.0	1
H28A	H	0.1218	0.8591	0.4508	1.0	1
H28B	H	0.1107	0.8617	0.5188	1.0	1
C29	C	-0.1330(18)	0.9222(3)	0.4776(4)	1.0	1
H29A	H	-0.2717	0.9224	0.5044	1.0	1
H29B	H	-0.0133	0.9539	0.4891	1.0	1
C30	C	-0.242(2)	0.9346(4)	0.4186(4)	1.0	1
H30A	H	-0.3680	0.9039	0.4078	1.0	1
H30B	H	-0.1049	0.9325	0.3915	1.0	1
C31	C	-0.371(5)	0.9952(11)	0.413(2)	1.0	1
H31A	H	-0.5252	0.9954	0.4345	1.0	1
H31B	H	-0.4163	1.0031	0.3726	1.0	1
H31C	H	-0.2547	1.0255	0.4278	1.0	1
