data_k07264_config-2
loop_
 _symmetry_equiv_pos_as_xyz
'x, y, z'
'-x+1/2, y, -z'
'x+1/2, y+1/2, z+1/2'
'-x+1, y+1/2, -z+1/2'
'-x, -y, -z'
'x-1/2, -y, z'
'-x+1/2, -y+1/2, -z+1/2'
'x, -y+1/2, z+1/2'

_cell_length_a	15.0998(2)
_cell_length_b	15.2827(2)
_cell_length_c	17.0280(2)
_cell_angle_alpha	90.00
_cell_angle_beta	103.863(6)
_cell_angle_gamma	90.00
loop_
 _atom_site_label
 _atom_site_type_symbol
 _atom_site_fract_x
 _atom_site_fract_y
 _atom_site_fract_z
 _atom_site_occupancy
 _atom_site_disorder_group
Si1	Si	0.26937(3)	0.60155(3)	0.15868(3)	1.0	.
C1	C	0.25072(10)	0.60577(9)	0.41726(9)	1.0	.
C2	C	0.16632(10)	0.60485(9)	0.43936(9)	1.0	.
C3	C	0.08232(10)	0.60145(9)	0.38022(10)	1.0	.
C4'	C	0.00175(10)	0.60380(9)	0.40359(10)	1.0	2
C5'	C	-0.0937(6)	0.6034(8)	0.3591(5)	1.0	2
H5'	H	-0.1113	0.6008	0.3017	1.0	2
F1'	F	-0.2456(5)	0.6070(8)	0.3780(3)	1.0	2
C6'	C	-0.1530(6)	0.6069(14)	0.4031(6)	1.0	2
S7'	S	-0.10887(14)	0.61561(19)	0.50822(14)	1.0	2
C8'	C	0.00084(10)	0.60965(9)	0.48737(10)	1.0	2
C9	C	0.08088(10)	0.61083(9)	0.54564(10)	1.0	.
C10	C	0.16589(10)	0.60766(9)	0.52360(9)	1.0	.
C11	C	0.25236(10)	0.60445(9)	0.33345(9)	1.0	.
C12	C	0.25606(11)	0.60232(10)	0.26341(10)	1.0	.
C13'	C	0.16381(13)	0.64857(13)	0.09242(11)	1.0	2
H13C	H	0.1683	0.7132	0.0946	1.0	2
H13D	H	0.1601	0.6304	0.0359	1.0	2
C14'	C	0.0772(5)	0.6213(6)	0.1151(6)	1.0	2
H14C	H	0.0770	0.5569	0.1217	1.0	2
H14D	H	0.0753	0.6482	0.1676	1.0	2
C15'	C	-0.0058(7)	0.6485(12)	0.0521(11)	1.0	2
H15D	H	-0.0041	0.7119	0.0435	1.0	2
H15E	H	-0.0607	0.6334	0.0703	1.0	2
H15F	H	-0.0067	0.6181	0.0012	1.0	2
C16	C	0.28854(13)	0.48556(11)	0.13146(10)	1.0	.
H16A	H	0.2873	0.4835	0.0731	1.0	.
H16B	H	0.3505	0.4680	0.1615	1.0	.
C17	C	0.22077(14)	0.41800(12)	0.14811(14)	1.0	.
H17A	H	0.2182	0.4225	0.2055	1.0	.
H17B	H	0.1593	0.4320	0.1144	1.0	.
C18	C	0.24459(18)	0.32418(14)	0.13086(16)	1.0	.
H18A	H	0.2432	0.3181	0.0733	1.0	.
H18B	H	0.2001	0.2841	0.1449	1.0	.
H18C	H	0.3058	0.3100	0.1633	1.0	.
C19'	C	0.37119(12)	0.67033(13)	0.15741(12)	1.0	2
H19C	H	0.3558	0.7014	0.1049	1.0	2
H19D	H	0.3729	0.7156	0.1993	1.0	2
C20'	C	0.4658(4)	0.6416(4)	0.1680(4)	1.0	2
H20C	H	0.5029	0.6894	0.1530	1.0	2
H20D	H	0.4685	0.5907	0.1327	1.0	2
C21'	C	0.5029(4)	0.6166(5)	0.2562(4)	1.0	2
H21D	H	0.4996	0.6672	0.2907	1.0	2
H21E	H	0.5665	0.5977	0.2646	1.0	2
H21F	H	0.4664	0.5686	0.2702	1.0	2
