data_k07264_config-1
loop_
 _symmetry_equiv_pos_as_xyz
'x, y, z'
'-x+1/2, y, -z'
'x+1/2, y+1/2, z+1/2'
'-x+1, y+1/2, -z+1/2'
'-x, -y, -z'
'x-1/2, -y, z'
'-x+1/2, -y+1/2, -z+1/2'
'x, -y+1/2, z+1/2'

_cell_length_a	15.0998(2)
_cell_length_b	15.2827(2)
_cell_length_c	17.0280(2)
_cell_angle_alpha	90.00
_cell_angle_beta	103.863(6)
_cell_angle_gamma	90.00
loop_
 _atom_site_label
 _atom_site_type_symbol
 _atom_site_fract_x
 _atom_site_fract_y
 _atom_site_fract_z
 _atom_site_occupancy
 _atom_site_disorder_group
Si1	Si	0.26937(3)	0.60155(3)	0.15868(3)	1.0	.
C1	C	0.25072(10)	0.60577(9)	0.41726(9)	1.0	.
C2	C	0.16632(10)	0.60485(9)	0.43936(9)	1.0	.
C3	C	0.08232(10)	0.60145(9)	0.38022(10)	1.0	.
H3	H	0.0820	0.5975	0.3245	1.0	1
C4	C	0.00175(10)	0.60380(9)	0.40359(10)	1.0	1
S5	S	-0.10407(13)	0.59904(19)	0.33682(10)	1.0	1
C6	C	-0.1508(5)	0.6068(12)	0.4222(5)	1.0	1
F1	F	-0.2427(4)	0.6071(6)	0.4064(3)	1.0	1
C7	C	-0.0915(5)	0.6117(6)	0.4920(5)	1.0	1
H7	H	-0.1090	0.6163	0.5419	1.0	1
C8	C	0.00084(10)	0.60965(9)	0.48737(10)	1.0	1
C9	C	0.08088(10)	0.61083(9)	0.54564(10)	1.0	.
H9	H	0.0797	0.6138	0.6011	1.0	1
C10	C	0.16589(10)	0.60766(9)	0.52360(9)	1.0	.
C11	C	0.25236(10)	0.60445(9)	0.33345(9)	1.0	.
C12	C	0.25606(11)	0.60232(10)	0.26341(10)	1.0	.
C13	C	0.16381(13)	0.64857(13)	0.09242(11)	1.0	1
H13A	H	0.1587	0.7094	0.1108	1.0	1
H13B	H	0.1741	0.6523	0.0372	1.0	1
C14	C	0.0711(4)	0.6057(5)	0.0846(6)	1.0	1
H14A	H	0.0728	0.5480	0.0586	1.0	1
H14B	H	0.0640	0.5944	0.1400	1.0	1
C15	C	-0.0132(7)	0.6518(12)	0.0394(11)	1.0	1
H15A	H	-0.0266	0.7007	0.0720	1.0	1
H15B	H	-0.0646	0.6108	0.0285	1.0	1
H15C	H	-0.0037	0.6742	-0.0119	1.0	1
C16	C	0.28854(13)	0.48556(11)	0.13146(10)	1.0	.
H16A	H	0.2873	0.4835	0.0731	1.0	.
H16B	H	0.3505	0.4680	0.1615	1.0	.
C17	C	0.22077(14)	0.41800(12)	0.14811(14)	1.0	.
H17A	H	0.2182	0.4225	0.2055	1.0	.
H17B	H	0.1593	0.4320	0.1144	1.0	.
C18	C	0.24459(18)	0.32418(14)	0.13086(16)	1.0	.
H18A	H	0.2432	0.3181	0.0733	1.0	.
H18B	H	0.2001	0.2841	0.1449	1.0	.
H18C	H	0.3058	0.3100	0.1633	1.0	.
C19	C	0.37119(12)	0.67033(13)	0.15741(12)	1.0	1
H19A	H	0.3790	0.6752	0.1015	1.0	1
H19B	H	0.3630	0.7299	0.1774	1.0	1
C20	C	0.4596(2)	0.6250(2)	0.2146(3)	1.0	1
H20A	H	0.4442	0.6043	0.2649	1.0	1
H20B	H	0.4771	0.5734	0.1866	1.0	1
C21	C	0.5392(2)	0.6872(3)	0.2362(3)	1.0	1
H21A	H	0.5542	0.7083	0.1866	1.0	1
H21B	H	0.5921	0.6568	0.2697	1.0	1
H21C	H	0.5231	0.7370	0.2663	1.0	1
