data_k06057_config-1
loop_
 _symmetry_equiv_pos_as_xyz
'x, y, z'
'-x, -y, -z'

_cell_length_a	14.1150(2)
_cell_length_b	16.5530(2)
_cell_length_c	20.2750(3)
_cell_angle_alpha	95.4690(5)
_cell_angle_beta	94.2900(5)
_cell_angle_gamma	106.4480(5)
loop_
 _atom_site_label
 _atom_site_type_symbol
 _atom_site_fract_x
 _atom_site_fract_y
 _atom_site_fract_z
 _atom_site_occupancy
 _atom_site_disorder_group
Si1B	Si	0.69201(6)	0.96599(5)	0.42661(4)	1.0	.
C1B	C	0.4197(2)	0.75016(18)	0.43950(15)	1.0	.
Si2B	Si	0.00664(6)	0.35899(6)	0.40132(5)	1.0	.
C2B	C	0.4223(2)	0.68314(18)	0.47738(14)	1.0	.
C3B	C	0.5074(2)	0.68434(19)	0.51870(14)	1.0	.
H3B	H	0.5644	0.7324	0.5220	1.0	.
C4B	C	0.5112(2)	0.61790(19)	0.55482(14)	1.0	.
C5B	C	0.5980(2)	0.6170(2)	0.59494(15)	1.0	.
H5B	H	0.6561	0.6640	0.5985	1.0	.
C6B	C	0.5989(2)	0.5497(2)	0.62825(16)	1.0	.
H6B	H	0.6578	0.5500	0.6543	1.0	.
C7B	C	0.5123(3)	0.4786(2)	0.62463(16)	1.0	.
H7B	H	0.5140	0.4323	0.6486	1.0	.
C8B	C	0.4281(2)	0.4766(2)	0.58730(15)	1.0	.
H8B	H	0.3712	0.4288	0.5855	1.0	.
C9B	C	0.4233(2)	0.54517(18)	0.55046(14)	1.0	.
C10B	C	0.3392(2)	0.54341(18)	0.51012(14)	1.0	.
H10B	H	0.2821	0.4956	0.5075	1.0	.
C11B	C	0.3351(2)	0.61015(19)	0.47276(14)	1.0	.
C12B	C	0.2490(2)	0.60633(19)	0.43047(14)	1.0	.
C13B	C	0.2450(2)	0.67600(19)	0.39580(15)	1.0	.
C14B	C	0.1583(2)	0.6754(2)	0.35548(15)	1.0	.
H14B	H	0.1014	0.6273	0.3518	1.0	.
C15B	C	0.1546(2)	0.7429(2)	0.32146(15)	1.0	.
C16B	C	0.0673(2)	0.7428(2)	0.27994(16)	1.0	.
H16B	H	0.0095	0.6955	0.2764	1.0	.
C17B	C	0.0660(3)	0.8090(2)	0.24578(16)	1.0	.
H17B	H	0.0076	0.8075	0.2185	1.0	.
C18B	C	0.1518(3)	0.8811(2)	0.25050(17)	1.0	.
H18B	H	0.1500	0.9271	0.2262	1.0	.
C19B	C	0.2359(3)	0.8847(2)	0.28930(17)	1.0	.
H19B	H	0.2922	0.9332	0.2919	1.0	.
C20B	C	0.2411(2)	0.8161(2)	0.32648(15)	1.0	.
C21B	C	0.3259(2)	0.81665(19)	0.36507(15)	1.0	.
H21B	H	0.3829	0.8646	0.3676	1.0	.
C22B	C	0.3317(2)	0.74947(19)	0.40075(15)	1.0	.
C23B	C	0.5081(2)	0.81894(19)	0.43820(15)	1.0	.
C24B	C	0.5828(2)	0.87613(19)	0.43490(15)	1.0	.
C25B	C	0.6419(2)	1.04402(19)	0.38509(15)	1.0	.
H25B	H	0.6995	1.0914	0.3761	1.0	.
C26B	C	0.5756(3)	1.0828(2)	0.42846(17)	1.0	.
H26A	H	0.5527	1.0473	0.4642	1.0	.
H26B	H	0.6128	1.1408	0.4492	1.0	.
C27B	C	0.4869(3)	1.0844(3)	0.3802(2)	1.0	.
H27A	H	0.4257	1.0416	0.3889	1.0	.
H27B	H	0.4760	1.1411	0.3856	1.0	.
C28B	C	0.5130(3)	1.0644(2)	0.3108(2)	1.0	.
H28A	H	0.4524	1.0356	0.2801	1.0	.
H28B	H	0.5496	1.1169	0.2932	1.0	.
C29B	C	0.5771(3)	1.0071(2)	0.31876(17)	1.0	.
H29A	H	0.6186	1.0077	0.2815	1.0	.
H29B	H	0.5361	0.9481	0.3206	1.0	.
C30B	C	0.7783(2)	0.9256(2)	0.37466(16)	1.0	1
H30B	H	0.8240	0.9074	0.4062	1.0	1
C31B	C	0.7305(3)	0.8499(2)	0.32199(19)	1.0	1
H31A	H	0.6734	0.8588	0.2953	1.0	1
H31B	H	0.7074	0.7971	0.3429	1.0	1
C32B	C	0.8140(3)	0.8457(3)	0.2783(2)	1.0	1
H32A	H	0.8547	0.8117	0.2970	1.0	1
H32B	H	0.7861	0.8199	0.2324	1.0	1
C33B	C	0.8759(3)	0.9370(3)	0.2788(2)	1.0	1
H33A	H	0.8640	0.9570	0.2354	1.0	1
H33B	H	0.9474	0.9420	0.2872	1.0	1
C34B	C	0.8444(3)	0.9901(2)	0.3349(2)	1.0	1
H34A	H	0.8069	1.0264	0.3161	1.0	1
H34B	H	0.9034	1.0269	0.3639	1.0	1
C35B	C	0.7540(2)	1.0096(2)	0.51236(16)	1.0	.
H35B	H	0.7060	1.0311	0.5375	1.0	.
C36B	C	0.8507(3)	1.0844(2)	0.51537(18)	1.0	.
H36A	H	0.8811	1.0826	0.4730	1.0	.
H36B	H	0.8368	1.1395	0.5239	1.0	.
C37B	C	0.9190(3)	1.0719(3)	0.5724(2)	1.0	.
H37A	H	0.9060	1.0985	0.6154	1.0	.
H37B	H	0.9895	1.0970	0.5656	1.0	.
C38B	C	0.8944(3)	0.9757(3)	0.5715(2)	1.0	.
H38A	H	0.9308	0.9518	0.5386	1.0	.
H38B	H	0.9122	0.9608	0.6160	1.0	.
C39B	C	0.7834(2)	0.9424(2)	0.55202(18)	1.0	.
H39A	H	0.7476	0.9350	0.5922	1.0	.
H39B	H	0.7664	0.8870	0.5239	1.0	.
C40B	C	0.1672(2)	0.5302(2)	0.42184(15)	1.0	.
C41B	C	0.1006(2)	0.4646(2)	0.41385(16)	1.0	.
C42B	C	0.0146(2)	0.3082(2)	0.31551(17)	1.0	1
H42B	H	-0.0224	0.3323	0.2824	1.0	1
C43B	C	0.1213(5)	0.3223(5)	0.2965(8)	1.0	1
H43A	H	0.1651	0.3114	0.3328	1.0	1
H43B	H	0.1497	0.3808	0.2856	1.0	1
C44B	C	0.1068(4)	0.2565(3)	0.2343(3)	1.0	1
H44A	H	0.0846	0.2781	0.1939	1.0	1
H44B	H	0.1693	0.2425	0.2275	1.0	1
C45B	C	0.0271(5)	0.1791(5)	0.2500(6)	1.0	1
H45A	H	0.0578	0.1367	0.2659	1.0	1
H45B	H	-0.0193	0.1524	0.2096	1.0	1
C46B	C	-0.0284(5)	0.2106(3)	0.3044(6)	1.0	1
H46A	H	-0.0180	0.1862	0.3461	1.0	1
H46B	H	-0.1006	0.1940	0.2899	1.0	1
C47B	C	-0.1187(2)	0.3748(2)	0.41043(17)	1.0	.
H47B	H	-0.1167	0.4040	0.4562	1.0	.
C48B	C	-0.1488(3)	0.4293(2)	0.35978(18)	1.0	.
H48A	H	-0.1735	0.4737	0.3824	1.0	.
H48B	H	-0.0915	0.4569	0.3363	1.0	.
C49B	C	-0.2306(3)	0.3678(3)	0.3112(2)	1.0	.
H49A	H	-0.2024	0.3388	0.2761	1.0	.
H49B	H	-0.2744	0.3974	0.2900	1.0	.
C50B	C	-0.2871(3)	0.3047(2)	0.35549(19)	1.0	.
H50A	H	-0.3317	0.3290	0.3811	1.0	.
H50B	H	-0.3268	0.2511	0.3286	1.0	.
C51B	C	-0.2048(2)	0.2903(2)	0.40171(19)	1.0	.
H51A	H	-0.1824	0.2428	0.3818	1.0	.
H51B	H	-0.2284	0.2768	0.4453	1.0	.
C52B	C	0.0415(2)	0.2985(2)	0.46796(17)	1.0	.
H52B	H	-0.0079	0.2408	0.4619	1.0	.
C53B	C	0.1460(3)	0.2866(2)	0.46974(17)	1.0	.
H53A	H	0.1470	0.2393	0.4363	1.0	.
H53B	H	0.1955	0.3391	0.4608	1.0	.
C54B	C	0.1678(3)	0.2666(2)	0.54048(18)	1.0	.
H54A	H	0.1385	0.2054	0.5439	1.0	.
H54B	H	0.2402	0.2823	0.5536	1.0	.
C55B	C	0.1196(4)	0.3200(3)	0.58386(19)	1.0	.
H55A	H	0.1697	0.3732	0.6042	1.0	.
H55B	H	0.0898	0.2885	0.6200	1.0	.
C56B	C	0.0396(3)	0.3398(3)	0.53934(18)	1.0	.
H56A	H	0.0531	0.4020	0.5401	1.0	.
H56B	H	-0.0263	0.3165	0.5550	1.0	.
Si1A	Si	-0.17624(7)	0.53803(5)	0.08255(5)	1.0	.
C1A	C	0.0893(2)	0.75837(19)	0.06614(15)	1.0	.
Si2A	Si	0.49135(6)	1.15256(5)	0.08980(4)	1.0	.
C2A	C	0.1792(2)	0.76360(19)	0.10435(14)	1.0	.
C3A	C	0.1889(2)	0.6997(2)	0.14263(16)	1.0	.
H3A	H	0.1334	0.6511	0.1426	1.0	.
C4A	C	0.2772(2)	0.7051(2)	0.18068(15)	1.0	.
C5A	C	0.2862(3)	0.6395(2)	0.22022(17)	1.0	.
H5A	H	0.2309	0.5911	0.2211	1.0	.
C6A	C	0.3741(3)	0.6468(2)	0.25636(17)	1.0	.
H6A	H	0.3796	0.6028	0.2819	1.0	.
C7A	C	0.4571(3)	0.7185(2)	0.25669(17)	1.0	.
H7A	H	0.5175	0.7222	0.2825	1.0	.
C8A	C	0.4514(2)	0.7817(2)	0.22075(16)	1.0	.
H8A	H	0.5082	0.8293	0.2213	1.0	.
C9A	C	0.3609(2)	0.7783(2)	0.18156(15)	1.0	.
C10A	C	0.3517(2)	0.8427(2)	0.14498(15)	1.0	.
H10A	H	0.4070	0.8918	0.1465	1.0	.
C11A	C	0.2634(2)	0.83790(19)	0.10570(15)	1.0	.
C12A	C	0.2543(2)	0.90343(18)	0.06847(14)	1.0	.
C13A	C	0.1659(2)	0.89596(18)	0.02724(14)	1.0	.
C14A	C	0.1571(2)	0.95931(18)	-0.01182(14)	1.0	.
H14A	H	0.2125	1.0082	-0.0110	1.0	.
C15A	C	0.0710(2)	0.95350(18)	-0.05161(14)	1.0	.
C16A	C	0.0613(2)	1.01901(19)	-0.09026(15)	1.0	.
H16A	H	0.1165	1.0677	-0.0903	1.0	.
C17A	C	-0.0256(2)	1.0130(2)	-0.12709(15)	1.0	.
H17A	H	-0.0305	1.0576	-0.1521	1.0	.
C18A	C	-0.1089(2)	0.9406(2)	-0.12849(15)	1.0	.
H18A	H	-0.1693	0.9371	-0.1543	1.0	.
C19A	C	-0.1032(2)	0.8760(2)	-0.09317(15)	1.0	.
H19A	H	-0.1594	0.8276	-0.0950	1.0	.
C20A	C	-0.0137(2)	0.87978(18)	-0.05322(14)	1.0	.
C21A	C	-0.0063(2)	0.81635(18)	-0.01455(15)	1.0	.
H21A	H	-0.0623	0.7680	-0.0153	1.0	.
C22A	C	0.0817(2)	0.82158(18)	0.02579(14)	1.0	.
C23A	C	0.0033(2)	0.68820(19)	0.07012(15)	1.0	.
C24A	C	-0.0684(2)	0.62918(19)	0.07508(16)	1.0	.
C25A	C	-0.2581(3)	0.5780(2)	0.13868(18)	1.0	1
H25A	H	-0.2695	0.6296	0.1216	1.0	1
C26A	C	-0.2156(3)	0.6026(3)	0.2143(2)	1.0	1
H26C	H	-0.1826	0.5612	0.2293	1.0	1
H26D	H	-0.1671	0.6599	0.2215	1.0	1
C27A	C	-0.3066(3)	0.6008(4)	0.2517(2)	1.0	1
H27C	H	-0.3067	0.5678	0.2900	1.0	1
H27D	H	-0.3053	0.6592	0.2688	1.0	1
C28A	C	-0.3937(3)	0.5617(3)	0.2056(2)	1.0	1
H28C	H	-0.4242	0.6049	0.1910	1.0	1
H28D	H	-0.4434	0.5195	0.2263	1.0	1
C29A	C	-0.3572(3)	0.5183(3)	0.1463(2)	1.0	1
H29C	H	-0.3508	0.4624	0.1557	1.0	1
H29D	H	-0.4035	0.5103	0.1054	1.0	1
C30A	C	-0.2389(2)	0.4987(2)	-0.00393(17)	1.0	.
H30A	H	-0.1871	0.4889	-0.0321	1.0	.
C31A	C	-0.2849(3)	0.5610(2)	-0.0365(2)	1.0	.
H31C	H	-0.3156	0.5907	-0.0035	1.0	.
H31D	H	-0.2337	0.6037	-0.0558	1.0	.
C32A	C	-0.3603(3)	0.5084(3)	-0.0890(2)	1.0	.
H32C	H	-0.3295	0.4989	-0.1302	1.0	.
H32D	H	-0.4118	0.5367	-0.0992	1.0	.
C33A	C	-0.4059(3)	0.4252(2)	-0.0632(2)	1.0	.
H33C	H	-0.4242	0.3779	-0.1000	1.0	.
H33D	H	-0.4662	0.4266	-0.0417	1.0	.
C34A	C	-0.3244(3)	0.4145(2)	-0.01189(18)	1.0	.
H34C	H	-0.3510	0.4039	0.0313	1.0	.
H34D	H	-0.3005	0.3663	-0.0282	1.0	.
C35A	C	-0.1262(2)	0.45672(19)	0.11852(16)	1.0	1
H35A	H	-0.1825	0.4140	0.1345	1.0	1
C36A	C	-0.0800(3)	0.4097(4)	0.0662(2)	1.0	1
H36C	H	-0.1309	0.3592	0.0422	1.0	1
H36D	H	-0.0508	0.4476	0.0334	1.0	1
C37A	C	0.0011(3)	0.3831(3)	0.1061(2)	1.0	1
H37C	H	-0.0280	0.3317	0.1275	1.0	1
H37D	H	0.0507	0.3722	0.0772	1.0	1
C38A	C	0.0474(3)	0.4603(3)	0.1581(2)	1.0	1
H38C	H	0.0815	0.4444	0.1971	1.0	1
H38D	H	0.0958	0.5053	0.1389	1.0	1
C39A	C	-0.0399(3)	0.4899(3)	0.1778(2)	1.0	1
H39C	H	-0.0202	0.5526	0.1860	1.0	1
H39D	H	-0.0626	0.4669	0.2191	1.0	1
C40A	C	0.3341(2)	0.98025(19)	0.07389(15)	1.0	.
C41A	C	0.3989(2)	1.0473(2)	0.07904(15)	1.0	.
C42A	C	0.4548(2)	1.2115(2)	0.02256(17)	1.0	.
H42A	H	0.5032	1.2696	0.0280	1.0	.
C43A	C	0.4563(3)	1.1691(2)	-0.04890(17)	1.0	.
H43C	H	0.5153	1.2010	-0.0690	1.0	.
H43D	H	0.4585	1.1100	-0.0478	1.0	.
C44A	C	0.3606(3)	1.1706(2)	-0.08937(18)	1.0	.
H44C	H	0.3747	1.1885	-0.1337	1.0	.
H44D	H	0.3113	1.1137	-0.0956	1.0	.
C45A	C	0.3223(3)	1.2341(2)	-0.04887(18)	1.0	.
H45C	H	0.2496	1.2219	-0.0589	1.0	.
H45D	H	0.3553	1.2928	-0.0576	1.0	.
C46A	C	0.3492(2)	1.2215(2)	0.02258(17)	1.0	.
H46C	H	0.3021	1.1701	0.0353	1.0	.
H46D	H	0.3491	1.2712	0.0538	1.0	.
C47A	C	0.4856(2)	1.2044(2)	0.17525(17)	1.0	.
H47A	H	0.5291	1.1841	0.2069	1.0	.
C48A	C	0.3823(2)	1.1844(2)	0.20119(17)	1.0	.
H48C	H	0.3318	1.1917	0.1675	1.0	.
H48D	H	0.3609	1.1257	0.2129	1.0	.
C49A	C	0.3981(3)	1.2491(3)	0.2630(2)	1.0	.
H49C	H	0.4277	1.2297	0.3020	1.0	.
H49D	H	0.3345	1.2588	0.2735	1.0	.
C50A	C	0.4694(4)	1.3299(3)	0.2441(2)	1.0	.
H50C	H	0.5183	1.3593	0.2826	1.0	.
H50D	H	0.4322	1.3691	0.2303	1.0	.
C51A	C	0.5226(3)	1.3027(2)	0.1859(2)	1.0	.
H51C	H	0.5956	1.3228	0.1973	1.0	.
H51D	H	0.5055	1.3262	0.1451	1.0	.
C52A	C	0.6160(2)	1.1359(2)	0.08218(17)	1.0	.
H52A	H	0.6163	1.1093	0.0358	1.0	.
C53A	C	0.6412(2)	1.0767(2)	0.13181(18)	1.0	.
H53C	H	0.5832	1.0523	0.1558	1.0	.
H53D	H	0.6603	1.0298	0.1078	1.0	.
C54A	C	0.7279(3)	1.1326(3)	0.18044(19)	1.0	.
H54C	H	0.7036	1.1597	0.2187	1.0	.
H54D	H	0.7703	1.0990	0.1974	1.0	.
C55A	C	0.7845(3)	1.1986(2)	0.13971(18)	1.0	.
H55C	H	0.8285	1.1757	0.1123	1.0	.
H55D	H	0.8253	1.2500	0.1689	1.0	.
C56A	C	0.7039(2)	1.2186(2)	0.0958(2)	1.0	.
H56C	H	0.7287	1.2363	0.0534	1.0	.
H56D	H	0.6826	1.2650	0.1188	1.0	.
