data_k04155_config-2
loop_
 _symmetry_equiv_pos_as_xyz
'x, y, z'
'-x, y+1/2, -z+1/2'
'-x, -y, -z'
'x, -y-1/2, z-1/2'

_cell_length_a	10.4570(2)
_cell_length_b	10.5100(2)
_cell_length_c	12.4180(3)
_cell_angle_alpha	90.00
_cell_angle_beta	114.2210(9)
_cell_angle_gamma	90.00
loop_
 _atom_site_label
 _atom_site_type_symbol
 _atom_site_fract_x
 _atom_site_fract_y
 _atom_site_fract_z
 _atom_site_occupancy
 _atom_site_disorder_group
Si1	Si	0.02605(5)	0.23685(4)	0.10558(4)	1.0	.
C1	C	0.38740(16)	0.05614(16)	0.40343(14)	1.0	.
C2	C	0.46627(16)	0.13116(16)	0.50361(14)	1.0	.
C3	C	0.43463(17)	0.26107(16)	0.51011(15)	1.0	.
C4'	C	0.50981(17)	0.33141(16)	0.60864(15)	1.0	2
S5'	S	0.4847(9)	0.4856(7)	0.6342(8)	1.0	2
C6'	C	0.6257(11)	0.4767(9)	0.7726(9)	1.0	2
H6'	H	0.6569	0.5467	0.8224	1.0	2
C7'	C	0.685(3)	0.3621(18)	0.8017(18)	1.0	2
H7'	H	0.7576	0.3424	0.8741	1.0	2
C8'	C	0.62304(16)	0.27382(16)	0.70669(15)	1.0	2
C9	C	0.65794(16)	0.14905(17)	0.70299(14)	1.0	.
C10	C	0.58073(16)	0.07375(16)	0.60194(14)	1.0	.
C11	C	0.27368(17)	0.11315(16)	0.30614(14)	1.0	.
C12	C	0.17662(17)	0.16086(17)	0.22522(15)	1.0	.
C13	C	-0.12849(18)	0.12771(17)	0.06133(17)	1.0	.
H13A	H	-0.1113	0.0530	0.0248	1.0	.
H13B	H	-0.2104	0.1705	0.0064	1.0	.
H13C	H	-0.1431	0.1036	0.1300	1.0	.
C14	C	0.07711(19)	0.26508(18)	-0.01919(16)	1.0	.
H14A	H	0.1554	0.3224	0.0055	1.0	.
H14B	H	-0.0005	0.3016	-0.0843	1.0	.
H14C	H	0.1028	0.1858	-0.0432	1.0	.
C15	C	-0.01194(19)	0.38895(17)	0.16162(16)	1.0	.
H15A	H	-0.0320	0.3728	0.2292	1.0	.
H15B	H	-0.0915	0.4289	0.1010	1.0	.
H15C	H	0.0680	0.4441	0.1837	1.0	.
