data_x08120_config-2
loop_
 _symmetry_equiv_pos_as_xyz
'x, y, z'
'-x, y+1/2, -z+1/2'
'-x, -y, -z'
'x, -y-1/2, z-1/2'

_cell_length_a	17.5850(10)
_cell_length_b	7.2592(4)
_cell_length_c	15.3146(10)
_cell_angle_alpha	90.00
_cell_angle_beta	90.627(3)
_cell_angle_gamma	90.00
loop_
 _atom_site_label
 _atom_site_type_symbol
 _atom_site_fract_x
 _atom_site_fract_y
 _atom_site_fract_z
 _atom_site_occupancy
 _atom_site_disorder_group
Si1	Si	0.82672(5)	0.61125(14)	0.56815(6)	1.0	.
C1	C	0.57961(18)	0.5239(5)	0.51011(19)	1.0	.
C2	C	0.55172(19)	0.3655(4)	0.46717(19)	1.0	.
C3	C	0.60050(19)	0.2297(5)	0.4339(2)	1.0	.
H3	H	0.6539	0.2471	0.4388	1.0	.
C4	C	0.57304(19)	0.0715(5)	0.3943(2)	1.0	.
C5	C	0.6224(2)	-0.0684(5)	0.3616(2)	1.0	.
H5	H	0.6759	-0.0521	0.3656	1.0	.
C6	C	0.5938(2)	-0.2241(5)	0.3249(2)	1.0	.
H6	H	0.6276	-0.3153	0.3038	1.0	2
C7	C	0.5135(2)	-0.2533(5)	0.3175(2)	1.0	.
H7	H	0.4944	-0.3633	0.2919	1.0	.
C8	C	0.4646(2)	-0.1230(5)	0.3474(2)	1.0	.
H8	H	0.4113	-0.1430	0.3423	1.0	.
C9	C	0.49194(19)	0.0433(5)	0.38628(19)	1.0	.
C10	C	0.44352(19)	0.1793(5)	0.4168(2)	1.0	.
H10	H	0.3902	0.1629	0.4100	1.0	.
C11	C	0.47050(18)	0.3398(5)	0.45720(19)	1.0	.
C12	C	0.6599(2)	0.5474(5)	0.5230(2)	1.0	.
C13	C	0.7267(2)	0.5695(5)	0.5362(2)	1.0	.
C14'	C	0.832(4)	0.862(10)	0.608(4)	1.0	2
H14'	H	0.8171	0.9449	0.5590	1.0	2
C15'	C	0.9134(8)	0.923(2)	0.6425(10)	1.0	2
H15D	H	0.9511	0.9006	0.5970	1.0	2
H15E	H	0.9269	0.8515	0.6947	1.0	2
H15F	H	0.9126	1.0543	0.6570	1.0	2
C16'	C	0.7810(8)	0.9058(19)	0.6887(11)	1.0	2
H16D	H	0.7285	0.8690	0.6756	1.0	2
H16E	H	0.7827	1.0383	0.7010	1.0	2
H16F	H	0.7998	0.8377	0.7399	1.0	2
C17'	C	0.8862(12)	0.523(2)	0.4625(10)	1.0	2
H17'	H	0.9406	0.5550	0.4746	1.0	2
C18'	C	0.8629(8)	0.631(2)	0.3808(9)	1.0	2
H18D	H	0.8666	0.7638	0.3928	1.0	2
H18E	H	0.8104	0.6005	0.3645	1.0	2
H18F	H	0.8967	0.5994	0.3327	1.0	2
C19'	C	0.8839(13)	0.316(2)	0.4482(12)	1.0	2
H19D	H	0.9005	0.2530	0.5017	1.0	2
H19E	H	0.9178	0.2831	0.4004	1.0	2
H19F	H	0.8318	0.2782	0.4333	1.0	2
C20	C	0.8485(2)	0.4399(5)	0.6566(2)	1.0	.
H20	H	0.8441	0.3156	0.6288	1.0	.
C21	C	0.9297(2)	0.4523(7)	0.6933(3)	1.0	.
H21A	H	0.9348	0.5636	0.7291	1.0	.
H21B	H	0.9657	0.4579	0.6449	1.0	.
H21C	H	0.9406	0.3436	0.7292	1.0	.
C22	C	0.7902(2)	0.4430(8)	0.7297(3)	1.0	.
H22A	H	0.8012	0.3431	0.7711	1.0	.
H22B	H	0.7391	0.4263	0.7048	1.0	.
H22C	H	0.7929	0.5615	0.7602	1.0	.
