data_x08120_config-1
loop_
 _symmetry_equiv_pos_as_xyz
'x, y, z'
'-x, y+1/2, -z+1/2'
'-x, -y, -z'
'x, -y-1/2, z-1/2'

_cell_length_a	17.5850(10)
_cell_length_b	7.2592(4)
_cell_length_c	15.3146(10)
_cell_angle_alpha	90.00
_cell_angle_beta	90.627(3)
_cell_angle_gamma	90.00
loop_
 _atom_site_label
 _atom_site_type_symbol
 _atom_site_fract_x
 _atom_site_fract_y
 _atom_site_fract_z
 _atom_site_occupancy
 _atom_site_disorder_group
Si1	Si	0.82672(5)	0.61125(14)	0.56815(6)	1.0	.
C1	C	0.57961(18)	0.5239(5)	0.51011(19)	1.0	.
C2	C	0.55172(19)	0.3655(4)	0.46717(19)	1.0	.
C3	C	0.60050(19)	0.2297(5)	0.4339(2)	1.0	.
H3	H	0.6539	0.2471	0.4388	1.0	.
C4	C	0.57304(19)	0.0715(5)	0.3943(2)	1.0	.
C5	C	0.6224(2)	-0.0684(5)	0.3616(2)	1.0	.
H5	H	0.6759	-0.0521	0.3656	1.0	.
C6	C	0.5938(2)	-0.2241(5)	0.3249(2)	1.0	.
C7	C	0.5135(2)	-0.2533(5)	0.3175(2)	1.0	.
H7	H	0.4944	-0.3633	0.2919	1.0	.
C8	C	0.4646(2)	-0.1230(5)	0.3474(2)	1.0	.
H8	H	0.4113	-0.1430	0.3423	1.0	.
C9	C	0.49194(19)	0.0433(5)	0.38628(19)	1.0	.
C10	C	0.44352(19)	0.1793(5)	0.4168(2)	1.0	.
H10	H	0.3902	0.1629	0.4100	1.0	.
C11	C	0.47050(18)	0.3398(5)	0.45720(19)	1.0	.
C12	C	0.6599(2)	0.5474(5)	0.5230(2)	1.0	.
C13	C	0.7267(2)	0.5695(5)	0.5362(2)	1.0	.
C14	C	0.833(2)	0.855(5)	0.605(2)	1.0	1
H14	H	0.8194	0.8629	0.6682	1.0	1
C15	C	0.7796(4)	0.9842(10)	0.5498(8)	1.0	1
H15A	H	0.7265	0.9495	0.5595	1.0	1
H15B	H	0.7913	0.9710	0.4877	1.0	1
H15C	H	0.7874	1.1125	0.5677	1.0	1
C16	C	0.9175(5)	0.9253(16)	0.5934(10)	1.0	1
H16A	H	0.9519	0.8522	0.6303	1.0	1
H16B	H	0.9207	1.0552	0.6105	1.0	1
H16C	H	0.9320	0.9123	0.5321	1.0	1
C17	C	0.8882(6)	0.5895(11)	0.4735(5)	1.0	1
H17	H	0.9421	0.6050	0.4940	1.0	1
C18	C	0.8714(5)	0.7393(15)	0.4054(6)	1.0	1
H18A	H	0.8767	0.8609	0.4325	1.0	1
H18B	H	0.8193	0.7244	0.3829	1.0	1
H18C	H	0.9073	0.7282	0.3572	1.0	1
C19	C	0.8803(6)	0.3978(14)	0.4342(7)	1.0	1
H19A	H	0.8911	0.3051	0.4792	1.0	1
H19B	H	0.9164	0.3838	0.3864	1.0	1
H19C	H	0.8284	0.3810	0.4118	1.0	1
C20	C	0.8485(2)	0.4399(5)	0.6566(2)	1.0	.
H20	H	0.8441	0.3156	0.6288	1.0	.
C21	C	0.9297(2)	0.4523(7)	0.6933(3)	1.0	.
H21A	H	0.9348	0.5636	0.7291	1.0	.
H21B	H	0.9657	0.4579	0.6449	1.0	.
H21C	H	0.9406	0.3436	0.7292	1.0	.
C22	C	0.7902(2)	0.4430(8)	0.7297(3)	1.0	.
H22A	H	0.8012	0.3431	0.7711	1.0	.
H22B	H	0.7391	0.4263	0.7048	1.0	.
H22C	H	0.7929	0.5615	0.7602	1.0	.
C23	C	0.6466(4)	-0.3568(10)	0.2961(4)	1.0	1
N1	N	0.6890(4)	-0.4670(10)	0.2726(5)	1.0	1
