data_x05037_config-2
loop_
 _symmetry_equiv_pos_as_xyz
'x, y, z'
'-x, -y, -z'

_cell_length_a	7.3538(2)
_cell_length_b	10.3475(2)
_cell_length_c	11.1681(2)
_cell_angle_alpha	94.809(1)
_cell_angle_beta	90.200(1)
_cell_angle_gamma	98.762(1)
loop_
 _atom_site_label
 _atom_site_type_symbol
 _atom_site_fract_x
 _atom_site_fract_y
 _atom_site_fract_z
 _atom_site_occupancy
 _atom_site_disorder_group
Si1	Si	0.72975(13)	0.21143(8)	0.41193(7)	1.0	.
C1	C	0.9534(5)	0.4323(3)	0.1031(3)	1.0	.
C2	C	0.8431(5)	0.5244(3)	0.0686(3)	1.0	.
C3	C	0.6892(5)	0.5512(3)	0.1359(3)	1.0	.
C4'	C	0.5866(5)	0.6415(3)	0.1015(3)	1.0	2
C5'	C	0.4288(15)	0.6898(11)	0.1466(10)	1.0	2
H5'	H	0.3712	0.6603	0.2174	1.0	2
C6'	C	0.363(8)	0.780(6)	0.084(7)	1.0	2
I1'	I	0.1502(2)	0.88262(14)	0.12680(12)	1.0	2
S7'	S	0.4942(4)	0.8252(3)	-0.0399(2)	1.0	2
C8'	C	0.6322(5)	0.7099(3)	-0.0040(3)	1.0	2
C9	C	0.7806(5)	0.6858(3)	-0.0708(3)	1.0	.
C10	C	0.8915(5)	0.5935(3)	-0.0367(3)	1.0	.
C11	C	0.8987(5)	0.3614(3)	0.2055(3)	1.0	.
C12	C	0.8421(5)	0.3030(3)	0.2907(3)	1.0	.
C13	C	0.6355(5)	0.0429(3)	0.3437(3)	1.0	.
H13A	H	0.5891	-0.0123	0.4087	1.0	.
H13B	H	0.5298	0.0488	0.2904	1.0	.
C14	C	0.7758(6)	-0.0240(4)	0.2717(3)	1.0	.
H14A	H	0.8115	0.0243	0.2015	1.0	.
H14B	H	0.7214	-0.1143	0.2450	1.0	.
H14C	H	0.8847	-0.0249	0.3222	1.0	.
C15	C	0.9025(6)	0.2016(4)	0.5322(3)	1.0	.
H15A	H	0.8417	0.1470	0.5936	1.0	.
H15B	H	1.0008	0.1559	0.4965	1.0	.
C16	C	0.9914(6)	0.3325(4)	0.5947(3)	1.0	.
H16A	H	1.0574	0.3862	0.5357	1.0	.
H16B	H	1.0781	0.3171	0.6569	1.0	.
H16C	H	0.8960	0.3784	0.6318	1.0	.
C17	C	0.5408(6)	0.3012(4)	0.4697(3)	1.0	.
H17A	H	0.4835	0.2578	0.5389	1.0	.
H17B	H	0.5948	0.3920	0.4990	1.0	.
C18	C	0.3908(6)	0.3067(4)	0.3751(4)	1.0	.
H18A	H	0.4472	0.3449	0.3042	1.0	.
H18B	H	0.3021	0.3610	0.4087	1.0	.
H18C	H	0.3274	0.2178	0.3519	1.0	.
