data_k07299_config-1
loop_
 _symmetry_equiv_pos_as_xyz
'x, y, z'
'-x, y+1/2, -z+1/2'
'-x, -y, -z'
'x, -y-1/2, z-1/2'

_cell_length_a	13.4497(3)
_cell_length_b	18.6673(4)
_cell_length_c	14.8215(3)
_cell_angle_alpha	90.00
_cell_angle_beta	99.3443(8)
_cell_angle_gamma	90.00
loop_
 _atom_site_label
 _atom_site_type_symbol
 _atom_site_fract_x
 _atom_site_fract_y
 _atom_site_fract_z
 _atom_site_occupancy
 _atom_site_disorder_group
Si1	Si	0.86502(5)	0.62490(4)	0.10233(4)	1.0	.
Si2	Si	0.62985(5)	0.22102(4)	0.63157(4)	1.0	.
C1	C	0.78119(17)	0.49248(11)	0.33132(14)	1.0	.
C2	C	0.68077(17)	0.48580(12)	0.34570(15)	1.0	.
C3	C	0.60185(17)	0.52430(12)	0.29217(15)	1.0	.
H3	H	0.6162	0.5563	0.2461	1.0	1
C4	C	0.50454(17)	0.51534(12)	0.30697(15)	1.0	1
S5	S	0.39023(8)	0.55199(5)	0.25444(7)	1.0	1
C6	C	0.3267(3)	0.50323(19)	0.3266(2)	1.0	1
H6	H	0.2558	0.5073	0.3227	1.0	1
N7	N	0.3795(2)	0.46010(18)	0.3874(2)	1.0	1
C8	C	0.48180(17)	0.46770(12)	0.37620(16)	1.0	1
C9	C	0.55682(17)	0.43029(12)	0.42928(15)	1.0	.
H9	H	0.5409	0.3990	0.4755	1.0	1
C10	C	0.65787(17)	0.43786(12)	0.41578(14)	1.0	.
C11	C	0.73665(18)	0.39776(11)	0.46825(15)	1.0	.
C12	C	0.83802(17)	0.40702(11)	0.45671(14)	1.0	.
C13	C	0.91782(18)	0.37049(11)	0.51258(15)	1.0	.
H13	H	0.9038	0.3388	0.5590	1.0	1
C14	C	1.01481(17)	0.38106(12)	0.49939(15)	1.0	1
S15	S	1.13091(9)	0.34821(5)	0.55750(6)	1.0	1
C16	C	1.1935(2)	0.39675(17)	0.4844(2)	1.0	1
H16	H	1.2649	0.3958	0.4905	1.0	1
N17	N	1.1381(3)	0.4355(2)	0.4194(3)	1.0	1
C18	C	1.03677(17)	0.42751(12)	0.42843(15)	1.0	1
C19	C	0.96233(17)	0.46353(12)	0.37411(15)	1.0	.
H19	H	0.9783	0.4945	0.3277	1.0	1
C20	C	0.86057(17)	0.45493(11)	0.38662(14)	1.0	.
C21	C	0.80502(17)	0.53617(12)	0.25825(16)	1.0	.
C22	C	0.82892(17)	0.57120(13)	0.19649(16)	1.0	.
C23	C	0.99604(18)	0.59813(15)	0.08527(17)	1.0	.
H23	H	0.9877	0.5554	0.0441	1.0	.
C24	C	1.0652(2)	0.57476(18)	0.17207(19)	1.0	.
H24A	H	1.1335	0.5674	0.1587	1.0	.
H24B	H	1.0402	0.5299	0.1944	1.0	.
H24C	H	1.0665	0.6119	0.2189	1.0	.
C25	C	1.0467(2)	0.65610(15)	0.03476(18)	1.0	.
H25A	H	1.0526	0.7004	0.0706	1.0	.
H25B	H	1.0059	0.6650	-0.0252	1.0	.
H25C	H	1.1140	0.6398	0.0267	1.0	.
C26	C	0.85815(18)	0.72142(13)	0.13634(16)	1.0	.
H26	H	0.8765	0.7509	0.0851	1.0	.
C27	C	0.9318(2)	0.74103(15)	0.22241(18)	1.0	.
H27A	H	0.9243	0.7919	0.2364	1.0	.
H27B	H	1.0009	0.7319	0.2123	1.0	.
H27C	H	0.9175	0.7119	0.2738	1.0	.
C28	C	0.75157(19)	0.74283(14)	0.14817(19)	1.0	.
H28A	H	0.7298	0.7134	0.1962	1.0	.
H28B	H	0.7056	0.7353	0.0905	1.0	.
H28C	H	0.7508	0.7935	0.1654	1.0	.
C29	C	0.77111(19)	0.60245(14)	-0.00182(16)	1.0	.
H29	H	0.7042	0.6207	0.0092	1.0	.
C30	C	0.7925(2)	0.63750(15)	-0.09011(17)	1.0	.
H30A	H	0.8563	0.6192	-0.1047	1.0	.
H30B	H	0.7971	0.6895	-0.0818	1.0	.
H30C	H	0.7378	0.6261	-0.1402	1.0	.
C31	C	0.7606(3)	0.52198(16)	-0.0157(2)	1.0	.
H31A	H	0.7081	0.5121	-0.0682	1.0	.
H31B	H	0.7421	0.4999	0.0393	1.0	.
H31C	H	0.8248	0.5020	-0.0270	1.0	.
C32	C	0.70957(17)	0.34510(13)	0.53036(16)	1.0	.
C33	C	0.68102(17)	0.29840(13)	0.57658(16)	1.0	.
C34	C	0.73300(17)	0.18695(13)	0.72118(16)	1.0	.
H34	H	0.7058	0.1443	0.7500	1.0	.
C35	C	0.7628(2)	0.24221(14)	0.79677(17)	1.0	.
H35A	H	0.8180	0.2232	0.8417	1.0	.
H35B	H	0.7047	0.2525	0.8270	1.0	.
H35C	H	0.7847	0.2864	0.7702	1.0	.
C36	C	0.82483(18)	0.16160(14)	0.68103(19)	1.0	.
H36A	H	0.8491	0.2007	0.6462	1.0	.
H36B	H	0.8059	0.1207	0.6405	1.0	.
H36C	H	0.8784	0.1472	0.7307	1.0	.
C37	C	0.6017(2)	0.15187(17)	0.5374(2)	1.0	1
H37	H	0.6679	0.1394	0.5191	1.0	1
C38	C	0.5603(6)	0.0820(3)	0.5719(5)	1.0	1
H38A	H	0.4944	0.0912	0.5897	1.0	1
H38B	H	0.6070	0.0643	0.6249	1.0	1
H38C	H	0.5531	0.0461	0.5231	1.0	1
C39	C	0.5346(3)	0.1776(2)	0.4513(2)	1.0	1
H39A	H	0.5318	0.1409	0.4036	1.0	1
H39B	H	0.5621	0.2220	0.4301	1.0	1
H39C	H	0.4666	0.1865	0.4644	1.0	1
C40	C	0.52124(18)	0.25361(13)	0.68564(16)	1.0	.
H40	H	0.5486	0.2934	0.7277	1.0	.
C41	C	0.4829(2)	0.19653(16)	0.7466(2)	1.0	.
H41A	H	0.4316	0.2177	0.7785	1.0	.
H41B	H	0.5393	0.1791	0.7916	1.0	.
H41C	H	0.4535	0.1565	0.7087	1.0	.
C42	C	0.43345(19)	0.28582(15)	0.62020(18)	1.0	.
H42A	H	0.4014	0.2485	0.5789	1.0	.
H42B	H	0.4584	0.3240	0.5844	1.0	.
H42C	H	0.3841	0.3057	0.6553	1.0	.
