data_k10072_config-0
loop_
 _symmetry_equiv_pos_as_xyz
'x, y, z'
'-x, y+1/2, -z+1/2'
'-x, -y, -z'
'x, -y-1/2, z-1/2'

_cell_length_a	15.07200(10)
_cell_length_b	16.4540(2)
_cell_length_c	18.2520(2)
_cell_angle_alpha	90.00
_cell_angle_beta	103.0630(4)
_cell_angle_gamma	90.00
loop_
 _atom_site_label
 _atom_site_type_symbol
 _atom_site_fract_x
 _atom_site_fract_y
 _atom_site_fract_z
 _atom_site_occupancy
 _atom_site_disorder_group
Si1	Si	0.9023(5)	0.8370(4)	0.6343(4)	1.0	.
F1	F	1.1789(8)	0.4902(7)	0.3663(6)	1.0	.
C1	C	0.7696(13)	0.6331(11)	0.4838(11)	1.0	.
Si2	Si	0.5590(3)	0.3113(3)	0.2292(3)	1.0	.
F2	F	0.2867(8)	0.6462(7)	0.5065(7)	1.0	.
C2	C	0.8270(13)	0.5888(11)	0.4470(11)	1.0	.
C3	C	0.9218(13)	0.6061(12)	0.4588(11)	1.0	.
C4	C	0.9749(14)	0.5623(12)	0.4244(11)	1.0	.
S5	S	1.0884(6)	0.5757(6)	0.4297(5)	1.0	.
C6	C	1.0939(17)	0.5030(16)	0.3779(15)	1.0	.
C7	C	1.016(2)	0.4471(19)	0.3362(17)	1.0	.
C8	C	0.9386(14)	0.4960(13)	0.3739(12)	1.0	.
C9	C	0.8457(14)	0.4785(13)	0.3597(12)	1.0	.
C10	C	0.7891(13)	0.5265(12)	0.3964(11)	1.0	.
C11	C	0.6937(14)	0.5118(13)	0.3811(12)	1.0	.
C12	C	0.6385(14)	0.5555(13)	0.4199(11)	1.0	.
C13	C	0.5412(16)	0.5383(14)	0.4041(13)	1.0	.
C14	C	0.4879(16)	0.5823(14)	0.4427(13)	1.0	.
S15	S	0.3740(7)	0.5686(7)	0.4297(6)	1.0	.
C16	C	0.3690(19)	0.6322(18)	0.4922(15)	1.0	.
C17	C	0.4523(15)	0.6831(14)	0.5428(12)	1.0	.
C18	C	0.5277(15)	0.6383(14)	0.4981(13)	1.0	.
C19	C	0.6202(15)	0.6579(13)	0.5119(13)	1.0	.
C20	C	0.6763(14)	0.6158(12)	0.4728(11)	1.0	.
C21	C	0.8093(14)	0.6993(13)	0.5345(11)	1.0	.
C22	C	0.8431(15)	0.7524(14)	0.5756(12)	1.0	.
C23	C	0.8810(18)	0.8194(17)	0.7320(15)	1.0	.
C24	C	0.784(2)	0.837(2)	0.7345(19)	1.0	.
C25	C	0.915(2)	0.734(2)	0.7603(18)	1.0	.
C26	C	0.921(2)	0.720(2)	0.844(2)	1.0	.
C27	C	0.8514(19)	0.9340(17)	0.5949(15)	1.0	.
C28	C	0.887(3)	1.009(2)	0.641(2)	1.0	.
C29	C	0.852(3)	0.941(2)	0.509(2)	1.0	.
C30	C	0.777(3)	1.011(2)	0.468(2)	1.0	.
C31	C	1.025(2)	0.8233(18)	0.6349(17)	1.0	.
C32	C	1.091(3)	0.880(3)	0.691(2)	1.0	.
C33	C	1.048(2)	0.820(2)	0.5560(19)	1.0	.
C34	C	1.131(3)	0.768(2)	0.554(2)	1.0	.
C35	C	0.6535(18)	0.4529(17)	0.3250(15)	1.0	.
C36	C	0.618(2)	0.403(2)	0.280(2)	1.0	.
C37	C	0.437(2)	0.351(2)	0.198(2)	1.0	.
C38	C	0.376(3)	0.299(3)	0.135(3)	1.0	.
C39	C	0.392(3)	0.364(3)	0.257(3)	1.0	.
C40	C	0.303(3)	0.414(3)	0.253(2)	1.0	.
C41	C	0.550(4)	0.218(3)	0.290(3)	1.0	.
C42	C	0.503(4)	0.143(4)	0.245(4)	1.0	.
C43	C	0.645(5)	0.198(5)	0.341(4)	1.0	.
C45	C	0.615(3)	0.290(3)	0.160(3)	1.0	.
C46	C	0.712(3)	0.266(3)	0.176(3)	1.0	.
C47	C	0.613(4)	0.377(3)	0.103(3)	1.0	.
C48	C	0.547(5)	0.424(5)	0.096(4)	1.0	.
