data_x14342t_config-1
loop_
 _symmetry_equiv_pos_as_xyz
'x, y, z'
'-x, -y, -z'

_cell_length_a	15.8557(4)
_cell_length_b	17.5077(6)
_cell_length_c	17.5421(6)
_cell_angle_alpha	84.941(2)
_cell_angle_beta	72.851(2)
_cell_angle_gamma	71.326(2)
loop_
 _atom_site_label
 _atom_site_type_symbol
 _atom_site_fract_x
 _atom_site_fract_y
 _atom_site_fract_z
 _atom_site_occupancy
 _atom_site_disorder_group
Si1A	Si	0.14558(15)	0.29716(15)	-0.19417(13)	1.0	.
Si2A	Si	0.29236(15)	-0.19803(14)	0.28976(13)	1.0	.
C1A	C	0.1915(5)	0.1214(4)	0.0032(4)	1.0	.
C2A	C	0.2757(5)	0.1052(4)	0.0233(4)	1.0	.
C3A	C	0.3431(5)	0.1431(5)	-0.0145(5)	1.0	.
H3A	H	0.3325	0.1809	-0.0557	1.0	1
C4A	C	0.4231(5)	0.1270(5)	0.0064(5)	1.0	1
S5A	S	0.5102(3)	0.1689(3)	-0.0376(3)	1.0	1
C6A	C	0.5676(13)	0.1144(18)	0.0309(16)	1.0	1
F1A	F	0.6501(10)	0.1238(13)	0.0269(12)	1.0	1
C7A	C	0.5285(16)	0.0677(16)	0.0801(14)	1.0	1
H7A	H	0.5555	0.0345	0.1179	1.0	1
C8A	C	0.4386(5)	0.0716(5)	0.0711(4)	1.0	1
C9A	C	0.3757(5)	0.0328(5)	0.1075(4)	1.0	.
H9A	H	0.3871	-0.0044	0.1489	1.0	1
C10A	C	0.2926(5)	0.0470(4)	0.0845(4)	1.0	.
C11A	C	0.2284(5)	0.0051(5)	0.1210(4)	1.0	.
C12A	C	0.1422(5)	0.0257(4)	0.1031(4)	1.0	.
C13A	C	0.0750(5)	-0.0129(5)	0.1406(4)	1.0	.
H13A	H	0.0886	-0.0554	0.1770	1.0	1
C14A	C	-0.0094(5)	0.0101(5)	0.1254(4)	1.0	1
S15A	S	-0.0968(4)	-0.0332(3)	0.1707(3)	1.0	1
C16A	C	-0.1641(13)	0.036(2)	0.1160(18)	1.0	1
F2A	F	-0.2500(9)	0.0321(13)	0.1246(9)	1.0	1
C17A	C	-0.1249(16)	0.0846(17)	0.0691(18)	1.0	1
H17A	H	-0.1557	0.1247	0.0378	1.0	1
C18A	C	-0.0304(5)	0.0717(5)	0.0690(4)	1.0	1
C19A	C	0.0350(5)	0.1088(5)	0.0285(5)	1.0	.
H19A	H	0.0212	0.1499	-0.0091	1.0	1
C20A	C	0.1238(5)	0.0848(4)	0.0440(4)	1.0	.
C21A	C	0.1756(5)	0.1766(5)	-0.0607(4)	1.0	.
C22A	C	0.1631(5)	0.2230(5)	-0.1153(5)	1.0	.
C23A	C	0.0240(7)	0.3694(6)	-0.1600(6)	1.0	.
H23A	H	0.0097	0.3786	-0.1020	1.0	.
H23B	H	0.0244	0.4215	-0.1867	1.0	.
C24A	C	-0.0548(6)	0.3470(6)	-0.1734(7)	1.0	.
H24A	H	-0.0396	0.3362	-0.2318	1.0	.
C25A	C	-0.1453(6)	0.4137(7)	-0.1501(7)	1.0	.
H25A	H	-0.1949	0.3955	-0.1571	1.0	.
H25B	H	-0.1406	0.4607	-0.1839	1.0	.
H25C	H	-0.1594	0.4286	-0.0942	1.0	.
C26A	C	-0.0647(7)	0.2688(7)	-0.1284(8)	1.0	.
H26A	H	-0.0785	0.2773	-0.0710	1.0	.
H26B	H	-0.0065	0.2248	-0.1467	1.0	.
H26C	H	-0.1152	0.2547	-0.1390	1.0	.
C27A	C	0.1578(7)	0.2466(7)	-0.2875(6)	1.0	.
H27A	H	0.1162	0.2127	-0.2735	1.0	.
H27B	H	0.1336	0.2893	-0.3235	1.0	.
C28A	C	0.2533(7)	0.1938(7)	-0.3359(6)	1.0	.
H28A	H	0.2979	0.2249	-0.3421	1.0	.
C29A	C	0.2555(9)	0.1742(9)	-0.4178(6)	1.0	.
H29A	H	0.2235	0.1339	-0.4144	1.0	.
H29B	H	0.3201	0.1526	-0.4501	1.0	.
H29C	H	0.2243	0.2231	-0.4427	1.0	.
C30A	C	0.2883(8)	0.1158(7)	-0.2931(7)	1.0	.
H30A	H	0.2888	0.1284	-0.2399	1.0	.
H30B	H	0.3514	0.0860	-0.3238	1.0	.
H30C	H	0.2474	0.0828	-0.2880	1.0	.
C31A	C	0.2358(8)	0.3493(7)	-0.2108(7)	1.0	.
H31A	H	0.2936	0.3145	-0.2468	1.0	.
H31B	H	0.2155	0.3995	-0.2403	1.0	.
C32A	C	0.2611(8)	0.3721(7)	-0.1406(7)	1.0	.
H32A	H	0.2871	0.3212	-0.1133	1.0	.
C33A	C	0.3374(12)	0.4128(13)	-0.1714(9)	1.0	.
H33A	H	0.3307	0.4417	-0.2209	1.0	.
H33B	H	0.3984	0.3717	-0.1819	1.0	.
H33C	H	0.3316	0.4511	-0.1312	1.0	.
C34A	C	0.1796(10)	0.4235(10)	-0.0814(8)	1.0	.
H34A	H	0.1774	0.4801	-0.0902	1.0	.
H34B	H	0.1845	0.4078	-0.0275	1.0	.
H34C	H	0.1228	0.4168	-0.0874	1.0	.
C35A	C	0.2499(5)	-0.0579(5)	0.1753(4)	1.0	.
C36A	C	0.2704(5)	-0.1145(5)	0.2196(5)	1.0	.
C37A	C	0.1775(6)	-0.2176(5)	0.3329(5)	1.0	.
H37A	H	0.1680	-0.2471	0.2921	1.0	.
H37B	H	0.1827	-0.2544	0.3787	1.0	.
C38A	C	0.0902(6)	-0.1464(6)	0.3613(5)	1.0	.
H38A	H	0.0872	-0.1067	0.3167	1.0	.
C39A	C	0.0059(8)	-0.1756(8)	0.3794(9)	1.0	.
H39A	H	-0.0017	-0.2028	0.4311	1.0	.
H39B	H	0.0146	-0.2133	0.3376	1.0	.
H39C	H	-0.0495	-0.1294	0.3812	1.0	.
C40A	C	0.0878(8)	-0.1040(8)	0.4328(7)	1.0	.
H40A	H	0.1112	-0.1439	0.4704	1.0	.
H40B	H	0.0238	-0.0718	0.4586	1.0	.
H40C	H	0.1267	-0.0685	0.4160	1.0	.
C41A	C	0.3363(6)	-0.1658(6)	0.3665(5)	1.0	.
H41A	H	0.2987	-0.1094	0.3819	1.0	.
H41B	H	0.3237	-0.1992	0.4146	1.0	.
C42A	C	0.4381(7)	-0.1702(7)	0.3451(6)	1.0	.
H42A	H	0.4748	-0.2286	0.3368	1.0	.
C43A	C	0.4705(8)	-0.1290(8)	0.2700(6)	1.0	.
H43A	H	0.4386	-0.0709	0.2762	1.0	.
H43B	H	0.4568	-0.1498	0.2265	1.0	.
H43C	H	0.5376	-0.1391	0.2576	1.0	.
C44A	C	0.4592(7)	-0.1418(8)	0.4140(6)	1.0	.
H44A	H	0.5265	-0.1539	0.4028	1.0	.
H44B	H	0.4357	-0.1696	0.4627	1.0	.
H44C	H	0.4292	-0.0836	0.4213	1.0	.
C45A	C	0.3804(6)	-0.2916(5)	0.2381(5)	1.0	.
H45A	H	0.4335	-0.2760	0.2026	1.0	.
H45B	H	0.4036	-0.3275	0.2793	1.0	.
C46A	C	0.3527(6)	-0.3409(5)	0.1890(6)	1.0	.
H46A	H	0.2967	-0.3543	0.2234	1.0	.
C47A	C	0.3288(7)	-0.2962(6)	0.1157(6)	1.0	.
H47A	H	0.2748	-0.2482	0.1327	1.0	.
H47B	H	0.3144	-0.3318	0.0846	1.0	.
H47C	H	0.3818	-0.2799	0.0827	1.0	.
C48A	C	0.4295(7)	-0.4199(6)	0.1594(7)	1.0	.
H48A	H	0.4866	-0.4082	0.1291	1.0	.
H48B	H	0.4104	-0.4484	0.1250	1.0	.
H48C	H	0.4407	-0.4538	0.2052	1.0	.
Si1B	Si	0.52769(14)	0.69785(13)	0.79512(12)	1.0	.
Si2B	Si	0.97004(16)	0.19475(17)	0.30825(15)	1.0	.
C1B	C	0.6929(5)	0.4939(4)	0.6227(4)	1.0	.
C2B	C	0.7907(5)	0.4726(4)	0.6046(4)	1.0	.
C3B	C	0.8341(5)	0.5110(5)	0.6430(4)	1.0	.
H3B	H	0.7965	0.5523	0.6813	1.0	1
C4B	C	0.9275(5)	0.4902(5)	0.6266(4)	1.0	1
S5B	S	0.9877(3)	0.5337(3)	0.6694(3)	1.0	1
C6B	C	1.0901(10)	0.4650(16)	0.6116(15)	1.0	1
F1B	F	1.1700(7)	0.4720(13)	0.6192(12)	1.0	1
C7B	C	1.0818(14)	0.4172(19)	0.5639(17)	1.0	1
H7B	H	1.1333	0.3795	0.5294	1.0	1
C8B	C	0.9856(5)	0.4269(5)	0.5686(4)	1.0	1
C9B	C	0.9470(5)	0.3903(4)	0.5292(4)	1.0	.
H9B	H	0.9858	0.3501	0.4902	1.0	1
C10B	C	0.8486(5)	0.4118(4)	0.5458(4)	1.0	.
C11B	C	0.8063(5)	0.3750(4)	0.5054(4)	1.0	.
C12B	C	0.7097(5)	0.3929(4)	0.5263(4)	1.0	.
C13B	C	0.6667(6)	0.3542(4)	0.4874(4)	1.0	.
H13B	H	0.7043	0.3154	0.4467	1.0	1
C14B	C	0.5792(17)	0.371(3)	0.506(2)	1.0	1
S15B	S	0.5137(4)	0.3297(4)	0.4651(3)	1.0	1
C16B	C	0.4122(12)	0.3871(16)	0.530(2)	1.0	1
F2B	F	0.3322(9)	0.3758(14)	0.5289(12)	1.0	1
C17B	C	0.4220(14)	0.4311(18)	0.5834(16)	1.0	1
H17B	H	0.3718	0.4642	0.6230	1.0	1
C18B	C	0.516(2)	0.423(2)	0.573(3)	1.0	1
C19B	C	0.5541(5)	0.4684(5)	0.6086(4)	1.0	.
H19B	H	0.5149	0.5093	0.6469	1.0	1
C20B	C	0.6515(5)	0.4524(4)	0.5858(4)	1.0	.
C21B	C	0.6359(5)	0.5578(5)	0.6770(4)	1.0	.
C22B	C	0.5900(5)	0.6137(5)	0.7225(5)	1.0	.
C23B	C	0.4306(6)	0.6707(5)	0.8715(5)	1.0	.
H23C	H	0.4544	0.6135	0.8860	1.0	.
H23D	H	0.4138	0.7035	0.9200	1.0	.
C24B	C	0.3425(6)	0.6818(6)	0.8479(5)	1.0	.
H24B	H	0.3188	0.7397	0.8335	1.0	.
C25B	C	0.2684(7)	0.6644(9)	0.9181(6)	1.0	.
H25D	H	0.2111	0.6745	0.9029	1.0	.
H25E	H	0.2566	0.6996	0.9631	1.0	.
H25F	H	0.2896	0.6079	0.9337	1.0	.
C26B	C	0.3590(6)	0.6319(7)	0.7766(5)	1.0	.
H26D	H	0.3974	0.6515	0.7294	1.0	.
H26E	H	0.2993	0.6362	0.7678	1.0	.
H26F	H	0.3909	0.5754	0.7859	1.0	.
C27B	C	0.4747(6)	0.7933(5)	0.7465(5)	1.0	.
H27C	H	0.4412	0.7800	0.7126	1.0	.
H27D	H	0.4275	0.8300	0.7892	1.0	.
C28B	C	0.5373(6)	0.8409(6)	0.6950(5)	1.0	.
H28B	H	0.5752	0.8500	0.7278	1.0	.
C29B	C	0.4804(10)	0.9208(7)	0.6754(9)	1.0	.
H29D	H	0.5196	0.9559	0.6563	1.0	.
H29E	H	0.4307	0.9448	0.7232	1.0	.
H29F	H	0.4532	0.9148	0.6338	1.0	.
C30B	C	0.6033(7)	0.7934(7)	0.6225(6)	1.0	.
H30D	H	0.5683	0.7783	0.5919	1.0	.
H30E	H	0.6452	0.7446	0.6389	1.0	.
H30F	H	0.6397	0.8263	0.5891	1.0	.
C31B	C	0.6186(6)	0.7110(5)	0.8353(5)	1.0	.
H31C	H	0.6579	0.7363	0.7931	1.0	.
H31D	H	0.5870	0.7500	0.8802	1.0	.
C32B	C	0.6833(5)	0.6367(6)	0.8649(5)	1.0	.
H32B	H	0.7041	0.5924	0.8249	1.0	.
C33B	C	0.7683(7)	0.6540(7)	0.8712(7)	1.0	.
H33D	H	0.7498	0.6965	0.9111	1.0	.
H33E	H	0.8002	0.6719	0.8193	1.0	.
H33F	H	0.8102	0.6050	0.8872	1.0	.
C34B	C	0.6336(7)	0.6075(7)	0.9449(6)	1.0	.
H34D	H	0.6771	0.5607	0.9624	1.0	.
H34E	H	0.5815	0.5923	0.9390	1.0	.
H34F	H	0.6103	0.6509	0.9847	1.0	.
C35B	C	0.8631(5)	0.3177(5)	0.4436(5)	1.0	.
C36B	C	0.9098(6)	0.2691(5)	0.3901(5)	1.0	.
C37B	C	0.9150(9)	0.1046(9)	0.3429(8)	1.0	1
H37C	H	0.9288	0.0716	0.2951	1.0	1
H37D	H	0.9479	0.0700	0.3795	1.0	1
C38B	C	0.8119(10)	0.1260(9)	0.3836(10)	1.0	1
H38B	H	0.7981	0.1593	0.4318	1.0	1
C39B	C	0.7522(11)	0.1760(10)	0.3305(9)	1.0	1
H39D	H	0.6863	0.1880	0.3598	1.0	1
H39E	H	0.7669	0.2265	0.3159	1.0	1
H39F	H	0.7652	0.1452	0.2821	1.0	1
C40B	C	0.7829(14)	0.0512(11)	0.4115(11)	1.0	1
H40D	H	0.7159	0.0671	0.4375	1.0	1
H40E	H	0.7978	0.0164	0.3655	1.0	1
H40F	H	0.8162	0.0219	0.4495	1.0	1
C41B	C	1.0778(10)	0.1241(10)	0.3306(10)	1.0	1
H41C	H	1.0600	0.1087	0.3874	1.0	1
H41D	H	1.0968	0.0745	0.2986	1.0	1
C42B	C	1.1623(9)	0.1510(9)	0.3168(10)	1.0	1
H42B	H	1.1805	0.1662	0.2593	1.0	1
C43B	C	1.2445(13)	0.0860(14)	0.332(2)	1.0	1
H43D	H	1.2970	0.1072	0.3220	1.0	1
H43E	H	1.2284	0.0685	0.3876	1.0	1
H43F	H	1.2616	0.0401	0.2963	1.0	1
C44B	C	1.137(3)	0.2289(15)	0.368(3)	1.0	1
H44D	H	1.0837	0.2701	0.3567	1.0	1
H44E	H	1.1222	0.2155	0.4246	1.0	1
H44F	H	1.1904	0.2497	0.3539	1.0	1
C45B	C	0.9535(11)	0.2341(10)	0.2146(9)	1.0	1
H45C	H	0.9914	0.1929	0.1726	1.0	1
H45D	H	0.8875	0.2453	0.2169	1.0	1
C46B	C	0.9806(12)	0.3132(10)	0.1914(11)	1.0	1
H46B	H	1.0310	0.3115	0.2155	1.0	1
C47B	C	0.898(2)	0.3845(15)	0.2256(19)	1.0	1
H47D	H	0.8755	0.3778	0.2833	1.0	1
H47E	H	0.9168	0.4337	0.2151	1.0	1
H47F	H	0.8493	0.3888	0.2008	1.0	1
C48B	C	1.015(2)	0.3250(19)	0.1030(12)	1.0	1
H48D	H	1.0683	0.2788	0.0797	1.0	1
H48E	H	0.9649	0.3294	0.0786	1.0	1
H48F	H	1.0324	0.3744	0.0930	1.0	1
