data_c17006_config-2
loop_
 _symmetry_equiv_pos_as_xyz
'x, y, z'
'-x+1/2, y+1/2, -z+1/2'
'-x, -y, -z'
'x-1/2, -y-1/2, z-1/2'

_cell_length_a	9.7390(3)
_cell_length_b	16.7280(5)
_cell_length_c	17.1206(5)
_cell_angle_alpha	90
_cell_angle_beta	106.436(1)
_cell_angle_gamma	90
loop_
 _atom_site_label
 _atom_site_type_symbol
 _atom_site_fract_x
 _atom_site_fract_y
 _atom_site_fract_z
 _atom_site_occupancy
 _atom_site_disorder_group
C1	C	0.0005(3)	0.56616(16)	0.55336(16)	1.0	.
C2	C	0.1253(3)	0.52490(16)	0.55476(15)	1.0	.
C3	C	0.1272(3)	0.45923(15)	0.50245(15)	1.0	.
C4	C	0.2690(3)	0.42564(18)	0.51438(17)	1.0	.
H4	H	0.291335	0.381769	0.484926	1.0	.
C5	C	0.3681(3)	0.46788(16)	0.57610(17)	1.0	.
S1	S	0.29257(9)	0.54539(4)	0.61912(4)	1.0	.
C6'	C	0.5198(3)	0.45455(16)	0.60362(17)	1.0	2
C7'	C	0.6023(15)	0.4037(9)	0.5812(10)	1.0	2
H7'	H	0.562793	0.367689	0.537738	1.0	2
C8'	C	0.749(2)	0.402(4)	0.621(4)	1.0	2
C9'	C	0.858(2)	0.356(2)	0.605(2)	1.0	2
H9'	H	0.837369	0.313441	0.566648	1.0	2
C10'	C	0.999(2)	0.374(2)	0.648(2)	1.0	2
H10'	H	1.076109	0.347343	0.635403	1.0	2
C11'	C	1.0267(19)	0.432(2)	0.708(2)	1.0	2
H11'	H	1.123354	0.440962	0.737913	1.0	2
C12'	C	0.9215(17)	0.476(2)	0.725(2)	1.0	2
H12'	H	0.945148	0.518673	0.763927	1.0	2
C13'	C	0.7767(15)	0.4578(18)	0.6853(17)	1.0	2
S2'	S	0.6270(8)	0.5155(5)	0.6804(5)	1.0	2
C14	C	-0.0002(3)	0.63230(17)	0.60649(17)	1.0	.
C15	C	-0.0053(4)	0.6865(2)	0.6510(2)	1.0	.
Si1'	Si	-0.0332(8)	0.7561(5)	0.7296(5)	1.0	2
C16'	C	-0.2181(11)	0.7366(8)	0.7373(7)	1.0	2
H16A	H	-0.220918	0.681368	0.757600	1.0	2
H16B	H	-0.235693	0.773150	0.778979	1.0	2
C17'	C	-0.3381(13)	0.7458(11)	0.6618(9)	1.0	2
H17A	H	-0.324502	0.797590	0.636927	1.0	2
H17B	H	-0.327421	0.703450	0.623564	1.0	2
C18'	C	-0.4807(13)	0.7434(14)	0.6652(11)	1.0	2
H18A	H	-0.545701	0.750425	0.610350	1.0	2
H18B	H	-0.499380	0.691721	0.687150	1.0	2
H18C	H	-0.496442	0.786449	0.700596	1.0	2
C19'	C	0.0904(10)	0.7350(8)	0.8293(6)	1.0	2
H19A	H	0.109445	0.786429	0.858983	1.0	2
H19B	H	0.038409	0.700913	0.858739	1.0	2
C20'	C	0.2325(10)	0.6963(6)	0.8382(6)	1.0	2
H20A	H	0.289314	0.730943	0.812210	1.0	2
H20B	H	0.216674	0.644864	0.808339	1.0	2
C21'	C	0.319(3)	0.680(2)	0.9256(12)	1.0	2
H21A	H	0.410286	0.655121	0.926013	1.0	2
H21B	H	0.338197	0.731062	0.955457	1.0	2
H21C	H	0.265425	0.644825	0.951580	1.0	2
C22'	C	-0.0468(14)	0.8607(9)	0.6827(12)	1.0	2
H22A	H	-0.098866	0.860154	0.623946	1.0	2
H22B	H	-0.092961	0.899074	0.711342	1.0	2
C23'	C	0.0852(14)	0.8756(7)	0.6948(8)	1.0	2
H23A	H	0.136434	0.830596	0.677989	1.0	2
H23B	H	0.132519	0.889354	0.752423	1.0	2
C24'	C	0.071(3)	0.9601(13)	0.6291(18)	1.0	2
H24A	H	0.166945	0.979624	0.631524	1.0	2
H24B	H	0.020962	0.944532	0.573130	1.0	2
H24C	H	0.017090	1.002636	0.646736	1.0	2
