data_k07340_config-1
loop_
 _symmetry_equiv_pos_as_xyz
'x, y, z'
'-x, y+1/2, -z+1/2'
'-x, -y, -z'
'x, -y-1/2, z-1/2'

_cell_length_a	13.0676(2)
_cell_length_b	18.3378(3)
_cell_length_c	20.1377(4)
_cell_angle_alpha	90.00
_cell_angle_beta	108.2352(8)
_cell_angle_gamma	90.00
loop_
 _atom_site_label
 _atom_site_type_symbol
 _atom_site_fract_x
 _atom_site_fract_y
 _atom_site_fract_z
 _atom_site_occupancy
 _atom_site_disorder_group
Si1	Si	0.8719(2)	0.80582(15)	0.57189(15)	1.0	1
Si2	Si	0.55289(12)	0.33187(9)	0.16654(9)	1.0	.
C1	C	0.7528(4)	0.6298(2)	0.4160(2)	1.0	.
C2	C	0.6504(3)	0.5975(2)	0.4076(2)	1.0	.
C3	C	0.5867(4)	0.6184(2)	0.4485(2)	1.0	.
H3	H	0.6114	0.6566	0.4814	1.0	.
C4	C	0.4877(3)	0.5853(2)	0.4430(2)	1.0	.
C5	C	0.4237(4)	0.6054(3)	0.4848(2)	1.0	.
H5	H	0.4474	0.6440	0.5176	1.0	.
C6	C	0.3275(4)	0.5709(3)	0.4797(2)	1.0	.
C7	C	0.2617(4)	0.5914(3)	0.5216(2)	1.0	.
H7	H	0.2842	0.6303	0.5541	1.0	.
C8	C	0.1682(4)	0.5564(3)	0.5159(2)	1.0	.
H8	H	0.1262	0.5707	0.5446	1.0	.
C9	C	0.1321(4)	0.4985(3)	0.4672(2)	1.0	.
H9	H	0.0658	0.4748	0.4632	1.0	.
C10	C	0.1915(4)	0.4768(3)	0.4263(2)	1.0	.
H10	H	0.1668	0.4376	0.3945	1.0	.
C11	C	0.2909(4)	0.5122(2)	0.4303(2)	1.0	.
C12	C	0.3531(4)	0.4916(2)	0.3889(2)	1.0	.
H12	H	0.3289	0.4528	0.3565	1.0	.
C13	C	0.4511(3)	0.5264(2)	0.3935(2)	1.0	.
C14	C	0.5146(3)	0.5062(2)	0.3519(2)	1.0	.
H14	H	0.4901	0.4678	0.3191	1.0	.
C15	C	0.6123(3)	0.5398(2)	0.3567(2)	1.0	.
C16	C	0.6759(3)	0.5179(2)	0.3142(2)	1.0	.
C17	C	0.7760(3)	0.5519(2)	0.3211(2)	1.0	.
C18	C	0.8399(4)	0.5314(2)	0.2797(2)	1.0	.
H18	H	0.8135	0.4950	0.2449	1.0	.
C19	C	0.9393(4)	0.5620(2)	0.2872(2)	1.0	.
C20	C	1.0064(4)	0.5398(3)	0.2464(2)	1.0	.
H20	H	0.9808	0.5041	0.2109	1.0	.
C21	C	1.1057(4)	0.5689(3)	0.2579(2)	1.0	.
H21	H	1.1493	0.5528	0.2308	1.0	.
C22	C	1.1450(4)	0.6230(2)	0.3097(2)	1.0	.
H22	H	1.2148	0.6428	0.3171	1.0	.
C23	C	1.0848(4)	0.6467(2)	0.3488(2)	1.0	.
H23	H	1.1126	0.6834	0.3829	1.0	.
C24	C	0.9796(3)	0.6176(2)	0.3400(2)	1.0	.
C25	C	0.9178(4)	0.6389(2)	0.3808(2)	1.0	.
H25	H	0.9448	0.6755	0.4153	1.0	.
C26	C	0.8155(3)	0.6082(2)	0.3733(2)	1.0	.
C27	C	0.7939(4)	0.6832(3)	0.4693(2)	1.0	.
C28	C	0.8306(4)	0.7267(3)	0.5154(3)	1.0	.
C29	C	0.9324(8)	0.8765(4)	0.5281(5)	1.0	1
H29A	H	0.8737	0.9080	0.4994	1.0	1
H29B	H	0.9812	0.9075	0.5647	1.0	1
C30	C	0.9957(13)	0.8472(9)	0.4812(8)	1.0	1
H30	H	0.9477	0.8138	0.4456	1.0	1
C31	C	1.0933(7)	0.8072(6)	0.5194(6)	1.0	1
H31A	H	1.1293	0.7895	0.4865	1.0	1
H31B	H	1.0739	0.7657	0.5437	1.0	1
H31C	H	1.1420	0.8397	0.5537	1.0	1
C32	C	1.0265(9)	0.9137(6)	0.4421(5)	1.0	1
H32A	H	0.9610	0.9397	0.4156	1.0	1
H32B	H	1.0639	0.8960	0.4099	1.0	1
H32C	H	1.0740	0.9468	0.4763	1.0	1
C33	C	0.7706(5)	0.8486(3)	0.5976(3)	1.0	.
H33A	H	0.8037	0.8941	0.6211	1.0	1
H33B	H	0.7160	0.8639	0.5535	1.0	1
C34	C	0.7077(4)	0.8191(3)	0.6415(3)	1.0	.
H34	H	0.7597	0.8091	0.6889	1.0	.
C35	C	0.6240(5)	0.8731(4)	0.6510(3)	1.0	.
H35A	H	0.6574	0.9212	0.6630	1.0	.
H35B	H	0.5972	0.8561	0.6886	1.0	.
H35C	H	0.5640	0.8765	0.6074	1.0	.
C36	C	0.6521(4)	0.7474(3)	0.6134(3)	1.0	.
H36A	H	0.5988	0.7557	0.5675	1.0	.
H36B	H	0.6159	0.7284	0.6457	1.0	.
H36C	H	0.7058	0.7121	0.6089	1.0	.
C37	C	0.9664(6)	0.7738(4)	0.6580(4)	1.0	1
H37A	H	1.0404	0.7866	0.6589	1.0	1
H37B	H	0.9508	0.8027	0.6952	1.0	1
C38	C	0.9673(8)	0.6942(5)	0.6783(5)	1.0	1
H38	H	0.8910	0.6767	0.6645	1.0	1
C39	C	1.0172(9)	0.6839(6)	0.7581(5)	1.0	1
H39A	H	1.0137	0.6323	0.7700	1.0	1
H39B	H	0.9769	0.7131	0.7823	1.0	1
H39C	H	1.0925	0.6999	0.7728	1.0	1
C40	C	1.0282(9)	0.6472(8)	0.6402(8)	1.0	1
H40A	H	1.0238	0.5958	0.6525	1.0	1
H40B	H	1.1039	0.6623	0.6542	1.0	1
H40C	H	0.9960	0.6534	0.5896	1.0	1
C41	C	0.6379(4)	0.4598(3)	0.2651(2)	1.0	.
C42	C	0.6037(4)	0.4103(3)	0.2246(3)	1.0	.
C43	C	0.6002(12)	0.3581(7)	0.0809(8)	1.0	1
H43A	H	0.6713	0.3351	0.0878	1.0	1
H43B	H	0.5488	0.3344	0.0397	1.0	1
C44	C	0.6098(9)	0.4381(6)	0.0617(5)	1.0	1
H44	H	0.6625	0.4622	0.1029	1.0	1
C45	C	0.5015(9)	0.4776(7)	0.0472(6)	1.0	1
H45A	H	0.4464	0.4522	0.0100	1.0	1
H45B	H	0.5085	0.5279	0.0326	1.0	1
H45C	H	0.4804	0.4781	0.0898	1.0	1
C46	C	0.6521(9)	0.4460(7)	0.0003(5)	1.0	1
H46A	H	0.7218	0.4213	0.0107	1.0	1
H46B	H	0.6609	0.4978	-0.0084	1.0	1
H46C	H	0.6009	0.4240	-0.0413	1.0	1
C47	C	0.6223(4)	0.2467(3)	0.2096(3)	1.0	.
H47A	H	0.6104	0.2088	0.1729	1.0	.
H47B	H	0.7006	0.2569	0.2264	1.0	.
C48	C	0.5926(4)	0.2135(3)	0.2702(3)	1.0	.
H48	H	0.5125	0.2079	0.2549	1.0	.
C49	C	0.6411(5)	0.1384(3)	0.2888(4)	1.0	.
H49A	H	0.6197	0.1072	0.2471	1.0	.
H49B	H	0.6153	0.1170	0.3251	1.0	.
H49C	H	0.7199	0.1423	0.3061	1.0	.
C50	C	0.6245(4)	0.2619(3)	0.3351(3)	1.0	.
H50A	H	0.7028	0.2684	0.3513	1.0	.
H50B	H	0.6017	0.2388	0.3721	1.0	.
H50C	H	0.5893	0.3095	0.3236	1.0	.
C51	C	0.4045(4)	0.3218(3)	0.1471(4)	1.0	.
H51A	H	0.3693	0.3429	0.1003	1.0	.
H51B	H	0.3879	0.2690	0.1438	1.0	.
C52	C	0.3516(4)	0.3551(3)	0.1971(3)	1.0	.
H52	H	0.4048	0.3532	0.2451	1.0	.
C53	C	0.3236(5)	0.4325(3)	0.1800(3)	1.0	.
H53A	H	0.2780	0.4365	0.1312	1.0	.
H53B	H	0.3897	0.4608	0.1869	1.0	.
H53C	H	0.2845	0.4514	0.2107	1.0	.
C54	C	0.2526(5)	0.3116(5)	0.1980(3)	1.0	.
H54A	H	0.2022	0.3083	0.1504	1.0	.
H54B	H	0.2173	0.3361	0.2282	1.0	.
H54C	H	0.2746	0.2625	0.2160	1.0	.
