data_x16241_config-2
loop_
 _symmetry_equiv_pos_as_xyz
'x, y, z'
'-x+1/2, y+1/2, -z+1/2'
'-x, -y, -z'
'x-1/2, -y-1/2, z-1/2'

_cell_length_a	10.2514(3)
_cell_length_b	17.6601(5)
_cell_length_c	16.7353(5)
_cell_angle_alpha	90
_cell_angle_beta	91.687(1)
_cell_angle_gamma	90
loop_
 _atom_site_label
 _atom_site_type_symbol
 _atom_site_fract_x
 _atom_site_fract_y
 _atom_site_fract_z
 _atom_site_occupancy
 _atom_site_disorder_group
C1	C	-0.00834(17)	0.46303(9)	0.42333(10)	1.0	.
C2'	C	0.1138(14)	0.4643(12)	0.4798(9)	1.0	2
F1'	F	0.2660(3)	0.38618(17)	0.40363(19)	1.0	2
C3'	C	0.2369(6)	0.4282(3)	0.4708(3)	1.0	2
C4'	C	0.323(2)	0.437(3)	0.5320(19)	1.0	2
S5'	S	0.25423(12)	0.49283(8)	0.60492(11)	1.0	2
C6'	C	0.1076(15)	0.5015(12)	0.5540(9)	1.0	2
C7'	C	0.457(3)	0.412(5)	0.538(3)	1.0	2
S8'	S	0.52568(14)	0.35592(9)	0.4617(1)	1.0	2
C9'	C	0.6740(15)	0.3538(15)	0.5131(11)	1.0	2
C10'	C	0.7864(10)	0.3148(11)	0.4942(9)	1.0	2
H10'	H	0.790178	0.287667	0.445369	1.0	2
C11'	C	0.8928(10)	0.3156(9)	0.5468(7)	1.0	2
C12'	C	1.0222(5)	0.2834(4)	0.5340(4)	1.0	2
H12'	H	1.045541	0.257401	0.486797	1.0	2
C13'	C	1.1029(14)	0.295(2)	0.5963(12)	1.0	2
H13'	H	1.190020	0.276463	0.599027	1.0	2
S14'	S	1.03432(12)	0.34614(9)	0.67133(12)	1.0	2
C15'	C	0.8872(10)	0.3532(8)	0.6207(6)	1.0	2
C16'	C	0.775(1)	0.3907(10)	0.6444(8)	1.0	2
H16'	H	0.769226	0.414022	0.695362	1.0	2
C17'	C	0.6696(18)	0.392(2)	0.5870(12)	1.0	2
C18'	C	0.5402(6)	0.4218(4)	0.5979(4)	1.0	2
H18'	H	0.517169	0.447313	0.645471	1.0	2
C19	C	-0.0145(2)	0.42580(11)	0.34763(11)	1.0	.
C20	C	-0.01426(19)	0.39302(12)	0.28479(12)	1.0	.
Si1'	Si	0.0080(7)	0.3439(3)	0.1902(4)	1.0	2
C21'	C	-0.0687(9)	0.3991(4)	0.1066(4)	1.0	2
H21C	H	-0.163300	0.403459	0.115906	1.0	2
H21D	H	-0.031780	0.450910	0.107794	1.0	2
C22'	C	-0.0510(9)	0.3660(4)	0.0234(4)	1.0	2
H22A	H	0.043131	0.357545	0.015257	1.0	2
H22B	H	-0.095385	0.316313	0.019947	1.0	2
C23'	C	-0.1051(8)	0.4170(4)	-0.0428(3)	1.0	2
H23A	H	-0.198057	0.427088	-0.032485	1.0	2
H23B	H	-0.058424	0.466014	-0.039509	1.0	2
C24'	C	-0.0957(8)	0.3872(4)	-0.1269(3)	1.0	2
H24A	H	-0.131479	0.426041	-0.164086	1.0	2
H24B	H	-0.002271	0.380706	-0.138542	1.0	2
C25'	C	-0.1647(7)	0.3134(4)	-0.1447(4)	1.0	2
H25D	H	-0.152316	0.299437	-0.200599	1.0	2
H25E	H	-0.128434	0.273693	-0.109656	1.0	2
H25F	H	-0.258052	0.319172	-0.135281	1.0	2
C26'	C	0.1914(11)	0.3368(9)	0.1775(15)	1.0	2
H26C	H	0.229654	0.308354	0.223435	1.0	2
H26D	H	0.207525	0.307044	0.128607	1.0	2
C27'	C	0.2621(13)	0.4117(9)	0.1714(13)	1.0	2
H27C	H	0.238967	0.443684	0.217462	1.0	2
H27D	H	0.230649	0.437926	0.122177	1.0	2
C28'	C	0.4113(13)	0.4052(9)	0.1696(11)	1.0	2
H28C	H	0.434257	0.372331	0.124191	1.0	2
H28D	H	0.447991	0.456039	0.159574	1.0	2
C29'	C	0.475(2)	0.374(3)	0.2445(18)	1.0	2
H29C	H	0.445784	0.320952	0.251748	1.0	2
H29D	H	0.445851	0.403618	0.290815	1.0	2
C30'	C	0.622(2)	0.376(2)	0.243(2)	1.0	2
H30D	H	0.658553	0.354522	0.293274	1.0	2
H30E	H	0.652039	0.345210	0.198120	1.0	2
H30F	H	0.652106	0.427914	0.237205	1.0	2
C31'	C	-0.0751(17)	0.2569(8)	0.1993(11)	1.0	2
H31C	H	-0.169572	0.267376	0.203136	1.0	2
H31D	H	-0.062773	0.226981	0.150122	1.0	2
C32'	C	-0.032(2)	0.2098(15)	0.2703(18)	1.0	2
H32C	H	-0.012560	0.243631	0.316425	1.0	2
H32D	H	0.049934	0.182919	0.257718	1.0	2
C33'	C	-0.1352(16)	0.1519(10)	0.2934(10)	1.0	2
H33C	H	-0.212218	0.179330	0.312878	1.0	2
H33D	H	-0.163253	0.123310	0.245015	1.0	2
C34'	C	-0.0900(18)	0.0970(12)	0.3561(14)	1.0	2
H34C	H	-0.048327	0.124814	0.401406	1.0	2
H34D	H	-0.024281	0.062528	0.333727	1.0	2
C35'	C	-0.2057(19)	0.0507(9)	0.3858(11)	1.0	2
H35D	H	-0.174680	0.014966	0.426903	1.0	2
H35E	H	-0.270104	0.084946	0.408534	1.0	2
H35F	H	-0.246100	0.022769	0.340973	1.0	2
