data_k04245_config-0
loop_
 _symmetry_equiv_pos_as_xyz
'x, y, z'
'-x, y+1/2, -z+1/2'
'-x, -y, -z'
'x, -y-1/2, z-1/2'

_cell_length_a	10.2631(2)
_cell_length_b	16.5888(4)
_cell_length_c	16.8183(4)
_cell_angle_alpha	90.00
_cell_angle_beta	106.9732(12)
_cell_angle_gamma	90.00
loop_
 _atom_site_label
 _atom_site_type_symbol
 _atom_site_fract_x
 _atom_site_fract_y
 _atom_site_fract_z
 _atom_site_occupancy
 _atom_site_disorder_group
Si1	Si	0.90691(6)	0.29585(4)	0.20247(3)	1.0	.
O1	O	0.33814(14)	0.24756(9)	0.46191(8)	1.0	.
O2	O	0.20245(16)	0.15684(9)	0.51072(9)	1.0	.
O3	O	0.43561(14)	0.48262(9)	0.71791(9)	1.0	.
O4	O	0.35375(16)	0.41670(9)	0.81726(9)	1.0	.
C1	C	0.9757(2)	0.44557(12)	0.43235(11)	1.0	.
C2	C	0.8803(2)	0.44991(12)	0.47816(11)	1.0	.
C3	C	0.7624(2)	0.40146(12)	0.45952(11)	1.0	.
H3	H	0.7459	0.3648	0.4143	1.0	.
C4	C	0.6692(2)	0.40562(12)	0.50528(11)	1.0	.
C5	C	0.5504(2)	0.35582(12)	0.48916(12)	1.0	.
H5	H	0.5319	0.3185	0.4444	1.0	.
C6	C	0.4633(2)	0.36071(12)	0.53631(12)	1.0	.
C7	C	0.4879(2)	0.41889(12)	0.60334(12)	1.0	.
C8	C	0.5981(2)	0.46713(12)	0.61932(12)	1.0	.
H8	H	0.6124	0.5055	0.6629	1.0	.
C9	C	0.6942(2)	0.46233(12)	0.57277(12)	1.0	.
C10	C	0.8098(2)	0.51005(12)	0.59201(12)	1.0	.
H10	H	0.8249	0.5470	0.6370	1.0	.
C11	C	0.9055(2)	0.50560(12)	0.54709(11)	1.0	.
C12	C	0.9518(2)	0.39380(12)	0.36140(12)	1.0	.
C13	C	0.9362(2)	0.35374(13)	0.29969(13)	1.0	.
C14	C	0.7628(2)	0.22509(13)	0.20085(13)	1.0	.
H14	H	0.7416	0.1937	0.1479	1.0	.
C15	C	0.8030(2)	0.16501(14)	0.27286(13)	1.0	.
H15A	H	0.8266	0.1943	0.3257	1.0	.
H15B	H	0.8818	0.1335	0.2691	1.0	.
H15C	H	0.7264	0.1287	0.2699	1.0	.
C16	C	0.6335(2)	0.27111(14)	0.20177(15)	1.0	.
H16A	H	0.5634	0.2327	0.2062	1.0	.
H16B	H	0.6000	0.3022	0.1502	1.0	.
H16C	H	0.6545	0.3079	0.2495	1.0	.
C17	C	0.8563(2)	0.37206(14)	0.11529(13)	1.0	.
H17	H	0.7732	0.3996	0.1215	1.0	.
C18	C	0.8145(3)	0.33493(16)	0.02852(14)	1.0	.
H18A	H	0.7799	0.3773	-0.0129	1.0	.
H18B	H	0.7431	0.2947	0.0247	1.0	.
H18C	H	0.8938	0.3090	0.0180	1.0	.
C19	C	0.9621(3)	0.43832(15)	0.12154(16)	1.0	.
H19A	H	1.0422	0.4157	0.1092	1.0	.
H19B	H	0.9891	0.4607	0.1779	1.0	.
H19C	H	0.9230	0.4811	0.0815	1.0	.
C20	C	1.0652(2)	0.23634(13)	0.20987(13)	1.0	.
H20	H	1.0766	0.1991	0.2582	1.0	.
C21	C	1.0494(2)	0.18203(15)	0.13423(15)	1.0	.
H21A	H	1.0545	0.2148	0.0868	1.0	.
H21B	H	0.9609	0.1547	0.1206	1.0	.
H21C	H	1.1224	0.1418	0.1468	1.0	.
C22	C	1.1985(2)	0.28545(14)	0.22883(14)	1.0	.
H22A	H	1.2764	0.2486	0.2417	1.0	.
H22B	H	1.2054	0.3208	0.2766	1.0	.
H22C	H	1.1981	0.3182	0.1803	1.0	.
C23	C	0.3388(2)	0.30837(12)	0.52181(12)	1.0	.
H23A	H	0.3377	0.2828	0.5748	1.0	.
H23B	H	0.2560	0.3420	0.5020	1.0	.
C24	C	0.2166(2)	0.20110(14)	0.44273(13)	1.0	.
H24A	H	0.1374	0.2376	0.4229	1.0	.
H24B	H	0.2160	0.1634	0.3970	1.0	.
C25	C	0.3012(3)	0.09382(14)	0.53568(16)	1.0	.
H25A	H	0.2944	0.0576	0.4886	1.0	.
H25B	H	0.2841	0.0634	0.5815	1.0	.
H25C	H	0.3927	0.1173	0.5540	1.0	.
C26	C	0.3895(2)	0.42409(12)	0.65369(12)	1.0	.
H26A	H	0.2983	0.4394	0.6173	1.0	.
H26B	H	0.3818	0.3708	0.6785	1.0	.
C27	C	0.3518(2)	0.48693(14)	0.77054(14)	1.0	.
H27A	H	0.3814	0.5330	0.8090	1.0	.
H27B	H	0.2570	0.4975	0.7365	1.0	.
C28	C	0.4855(2)	0.40124(16)	0.87454(14)	1.0	.
H28A	H	0.5527	0.3955	0.8438	1.0	.
H28B	H	0.4822	0.3514	0.9052	1.0	.
H28C	H	0.5115	0.4462	0.9137	1.0	.
