data_x06041_config-1
loop_
 _symmetry_equiv_pos_as_xyz
'x, y, z'
'-x, -y, -z'

_cell_length_a	7.2714(3)
_cell_length_b	10.4965(4)
_cell_length_c	12.1615(4)
_cell_angle_alpha	65.2580(10)
_cell_angle_beta	88.287(2)
_cell_angle_gamma	76.895(2)
loop_
 _atom_site_label
 _atom_site_type_symbol
 _atom_site_fract_x
 _atom_site_fract_y
 _atom_site_fract_z
 _atom_site_occupancy
 _atom_site_disorder_group
Si1	Si	0.50040(7)	1.10960(5)	0.20621(4)	1.0	.
C1	C	0.4868(3)	0.64903(18)	0.42889(15)	1.0	.
C2	C	0.6398(3)	0.56643(19)	0.51799(15)	1.0	.
C3	C	0.7808(3)	0.63011(19)	0.53635(16)	1.0	.
H3	H	0.7729	0.7300	0.4894	1.0	1
C4	C	0.9286(3)	0.54813(19)	0.62156(16)	1.0	1
C5	C	1.085(2)	0.5952(17)	0.6516(19)	1.0	1
H5	H	1.1011	0.6911	0.6127	1.0	1
C6	C	1.2048(9)	0.4861(5)	0.7414(6)	1.0	1
H6	H	1.3145	0.4980	0.7730	1.0	1
S7	S	1.1406(5)	0.3219(4)	0.7941(4)	1.0	1
C8	C	0.9420(3)	0.39734(19)	0.69320(16)	1.0	1
C9	C	0.8074(3)	0.33279(18)	0.67735(16)	1.0	.
H9	H	0.8178	0.2327	0.7251	1.0	1
C10	C	0.6530(3)	0.41505(19)	0.58989(15)	1.0	.
C11	C	0.4781(3)	0.79804(19)	0.35573(16)	1.0	.
C12	C	0.4773(3)	0.9232(2)	0.29368(16)	1.0	.
C13	C	0.2793(3)	1.23672(19)	0.20618(17)	1.0	.
H13	H	0.2411	1.2277	0.2883	1.0	.
C14	C	0.1170(3)	1.2857(2)	0.11176(19)	1.0	.
H14A	H	0.1336	1.2474	0.0493	1.0	.
H14B	H	-0.0134	1.3011	0.1378	1.0	.
C15	C	0.2312(3)	1.3891(2)	0.10652(19)	1.0	.
H15A	H	0.1716	1.4683	0.1294	1.0	.
H15B	H	0.3186	1.4146	0.0409	1.0	.
C16	C	0.5540(3)	1.13733(19)	0.04899(17)	1.0	.
H16	H	0.4525	1.1290	0.0004	1.0	.
C17	C	0.6676(3)	1.2462(2)	-0.02252(19)	1.0	.
H17A	H	0.6313	1.3039	-0.1103	1.0	.
H17B	H	0.7137	1.2980	0.0186	1.0	.
C18	C	0.7556(3)	1.0891(2)	0.01969(19)	1.0	.
H18A	H	0.8559	1.0439	0.0870	1.0	.
H18B	H	0.7734	1.0497	-0.0420	1.0	.
C19	C	0.6972(3)	1.1310(2)	0.28436(17)	1.0	.
H19	H	0.7179	1.2310	0.2501	1.0	.
C20	C	0.8759(3)	1.0116(2)	0.33802(18)	1.0	.
H20A	H	0.8828	0.9197	0.3315	1.0	.
H20B	H	0.9979	1.0401	0.3318	1.0	.
C21	C	0.7399(3)	1.0472(2)	0.42179(18)	1.0	.
H21A	H	0.7781	1.0979	0.4668	1.0	.
H21B	H	0.6629	0.9774	0.4665	1.0	.
