data_k08034x_config-2
loop_
 _symmetry_equiv_pos_as_xyz
'x, y, z'
'-x+1/2, -y, z+1/2'
'x+1/2, -y+1/2, -z+1/2'
'-x, y+1/2, -z'
'-x, -y, -z'
'x-1/2, y, -z-1/2'
'-x-1/2, y-1/2, z-1/2'
'x, -y-1/2, z'

_cell_length_a	16.6409(6)
_cell_length_b	17.5827(7)
_cell_length_c	18.8903(8)
_cell_angle_alpha	90.00
_cell_angle_beta	90.00
_cell_angle_gamma	90.00
loop_
 _atom_site_label
 _atom_site_type_symbol
 _atom_site_fract_x
 _atom_site_fract_y
 _atom_site_fract_z
 _atom_site_occupancy
 _atom_site_disorder_group
Si1	Si	0.85150(14)	0.2500	0.68190(13)	1.0	.
Si2	Si	0.40155(15)	0.2500	0.20739(13)	1.0	.
C1	C	0.6563(5)	0.2500	0.5221(4)	1.0	.
C2	C	0.6284(4)	0.1796(4)	0.4945(3)	1.0	.
C3	C	0.6517(4)	0.1110(5)	0.5236(3)	1.0	.
H3	H	0.6859	0.1114	0.5638	1.0	.
C4	C	0.6271(5)	0.0420(5)	0.4964(3)	1.0	.
C5	C	0.6508(5)	-0.0303(5)	0.5254(4)	1.0	.
H5	H	0.6847	-0.0312	0.5658	1.0	.
C6	C	0.6263(5)	-0.0967(5)	0.4971(4)	1.0	.
C7	C	0.5721(5)	-0.0984(5)	0.4375(4)	1.0	.
C8	C	0.5472(5)	-0.0292(4)	0.4088(4)	1.0	.
H8	H	0.5120	-0.0296	0.3692	1.0	.
C9	C	0.5725(4)	0.0415(4)	0.4365(3)	1.0	.
C10	C	0.5494(4)	0.1104(4)	0.4073(3)	1.0	.
H10	H	0.5147	0.1102	0.3674	1.0	.
C11	C	0.5751(4)	0.1801(4)	0.4344(3)	1.0	.
C12	C	0.5515(5)	0.2500	0.4049(4)	1.0	.
C13	C	0.7136(6)	0.2500	0.5777(5)	1.0	.
C14	C	0.7660(6)	0.2500	0.6227(5)	1.0	.
C15'	C	0.9231(10)	0.1735(9)	0.6661(9)	1.0	2
H15'	H	0.9606	0.1953	0.6301	1.0	2
C16'	C	0.9763(8)	0.1557(7)	0.7270(8)	1.0	2
H16C	H	0.9425	0.1414	0.7680	1.0	2
H16D	H	1.0065	0.2021	0.7400	1.0	2
C17'	C	1.0355(9)	0.0923(8)	0.7128(9)	1.0	2
H17C	H	1.0790	0.1117	0.6820	1.0	2
H17D	H	1.0601	0.0763	0.7582	1.0	2
C18'	C	0.9979(19)	0.0253(13)	0.6786(17)	1.0	2
H18C	H	0.9626	0.0000	0.7136	1.0	2
H18D	H	1.0408	-0.0112	0.6658	1.0	2
C19'	C	0.9484(11)	0.0426(10)	0.6123(12)	1.0	2
H19C	H	0.9843	0.0595	0.5735	1.0	2
H19D	H	0.9199	-0.0039	0.5965	1.0	2
C20'	C	0.8878(10)	0.1048(9)	0.6293(14)	1.0	2
H20C	H	0.8622	0.1217	0.5846	1.0	2
H20D	H	0.8451	0.0831	0.6597	1.0	2
C21	C	0.8096(5)	0.2500	0.7726(5)	1.0	.
H21	H	0.8562	0.2500	0.8061	1.0	.
C22	C	0.7599(4)	0.1802(4)	0.7891(4)	1.0	.
H22A	H	0.7945	0.1346	0.7846	1.0	.
H22B	H	0.7165	0.1758	0.7535	1.0	.
C23	C	0.7225(5)	0.1808(6)	0.8624(5)	1.0	.
H23A	H	0.6901	0.1341	0.8691	1.0	.
H23B	H	0.7655	0.1811	0.8986	1.0	.
C24	C	0.6697(7)	0.2500	0.8718(6)	1.0	.
H24A	H	0.6452	0.2500	0.9195	1.0	.
H24B	H	0.6261	0.2500	0.8361	1.0	.
C25	C	0.5022(5)	0.2500	0.3420(5)	1.0	.
C26	C	0.4630(5)	0.2500	0.2878(5)	1.0	.
C27	C	0.3437(4)	0.1570(3)	0.2113(3)	1.0	.
H27	H	0.3855	0.1165	0.2168	1.0	.
C28	C	0.2892(4)	0.1489(3)	0.2758(3)	1.0	.
H28A	H	0.2451	0.1865	0.2726	1.0	.
H28B	H	0.3205	0.1601	0.3191	1.0	.
C29	C	0.2534(4)	0.0691(4)	0.2817(3)	1.0	.
H29A	H	0.2968	0.0316	0.2901	1.0	.
H29B	H	0.2158	0.0670	0.3223	1.0	.
C30	C	0.2097(4)	0.0496(4)	0.2152(3)	1.0	.
H30A	H	0.1631	0.0841	0.2097	1.0	.
H30B	H	0.1890	-0.0031	0.2187	1.0	.
C31	C	0.2634(5)	0.0561(5)	0.1502(4)	1.0	.
H31A	H	0.2318	0.0442	0.1073	1.0	.
H31B	H	0.3077	0.0187	0.1537	1.0	.
C32	C	0.2988(4)	0.1369(4)	0.1438(3)	1.0	.
H32A	H	0.3359	0.1392	0.1029	1.0	.
H32B	H	0.2549	0.1740	0.1357	1.0	.
C33	C	0.4737(5)	0.2500	0.1310(4)	1.0	.
H33	H	0.4414	0.2500	0.0863	1.0	.
C34	C	0.5272(4)	0.1798(4)	0.1302(4)	1.0	.
H34A	H	0.4929	0.1341	0.1248	1.0	.
H34B	H	0.5550	0.1758	0.1764	1.0	.
C35	C	0.5901(5)	0.1801(5)	0.0711(4)	1.0	.
H35A	H	0.6252	0.1350	0.0760	1.0	.
H35B	H	0.5628	0.1771	0.0247	1.0	.
C36	C	0.6398(7)	0.2500	0.0739(6)	1.0	.
H36A	H	0.6717	0.2500	0.1181	1.0	.
H36B	H	0.6777	0.2500	0.0335	1.0	.
C37	C	0.6373(8)	-0.1756(8)	0.5265(6)	1.0	.
N1	N	0.6555(5)	-0.2500	0.5485(4)	1.0	.
C38	C	0.5292(8)	-0.1748(8)	0.4070(7)	1.0	.
N2	N	0.5069(5)	-0.2500	0.3843(5)	1.0	.
