data_k09020s_config-0
loop_
 _symmetry_equiv_pos_as_xyz
'x, y, z'
'-x, -y, -z'

_cell_length_a	6.9936(2)
_cell_length_b	12.6907(4)
_cell_length_c	14.9444(5)
_cell_angle_alpha	75.7692(13)
_cell_angle_beta	89.6740(13)
_cell_angle_gamma	88.1802(11)
loop_
 _atom_site_label
 _atom_site_type_symbol
 _atom_site_fract_x
 _atom_site_fract_y
 _atom_site_fract_z
 _atom_site_occupancy
 _atom_site_disorder_group
Si1	Si	0.75141(7)	0.89362(4)	0.22782(3)	1.0	.
Si2	Si	0.73700(9)	0.29376(5)	0.96438(4)	1.0	.
F1	F	0.74574(18)	0.43140(9)	0.26230(7)	1.0	.
F2	F	0.7447(2)	0.21524(10)	0.27050(9)	1.0	.
F3	F	0.7457(2)	0.06810(9)	0.43340(10)	1.0	.
F4	F	0.74605(19)	0.13147(9)	0.59419(8)	1.0	.
C1	C	0.7517(2)	0.65577(13)	0.50265(11)	1.0	.
C2	C	0.7499(2)	0.54246(13)	0.50561(11)	1.0	.
C3	C	0.7484(2)	0.50694(13)	0.42405(11)	1.0	.
H3	H	0.7483	0.5584	0.3668	1.0	.
C4	C	0.7471(2)	0.39681(13)	0.42630(12)	1.0	.
C5	C	0.7461(3)	0.35837(15)	0.34437(13)	1.0	.
C6	C	0.7453(3)	0.25166(16)	0.34765(14)	1.0	.
C7	C	0.7453(3)	0.17442(15)	0.43384(15)	1.0	.
C8	C	0.7459(3)	0.20630(14)	0.51285(14)	1.0	.
C9	C	0.7468(2)	0.31853(13)	0.51416(12)	1.0	.
C10	C	0.7475(2)	0.35332(14)	0.59490(12)	1.0	.
H10	H	0.7465	0.3015	0.6520	1.0	.
C11	C	0.7495(2)	0.46459(13)	0.59345(11)	1.0	.
C12	C	0.7504(2)	0.50167(13)	0.67590(11)	1.0	.
C13	C	0.7533(2)	0.61355(14)	0.67212(12)	1.0	.
C14	C	0.7558(3)	0.65365(16)	0.75336(13)	1.0	.
H14	H	0.7564	0.6043	0.8117	1.0	.
C15	C	0.7575(3)	0.76207(17)	0.74768(15)	1.0	.
H15	H	0.7589	0.7867	0.8021	1.0	.
C16	C	0.7573(3)	0.83827(16)	0.66124(15)	1.0	.
H16	H	0.7588	0.9130	0.6586	1.0	.
C17	C	0.7548(3)	0.80467(15)	0.58180(14)	1.0	.
H17	H	0.7542	0.8562	0.5246	1.0	.
C18	C	0.7532(2)	0.69095(14)	0.58468(12)	1.0	.
C19	C	0.7515(3)	0.73328(14)	0.41559(13)	1.0	.
C20	C	0.7511(3)	0.79916(14)	0.34251(13)	1.0	.
C21	C	0.5340(3)	0.98272(19)	0.21710(16)	1.0	.
H21A	H	0.4216	0.9385	0.2270	1.0	.
H21B	H	0.5287	1.0312	0.1558	1.0	.
H21C	H	0.5378	1.0252	0.2629	1.0	.
C22	C	0.9683(3)	0.9757(2)	0.21813(16)	1.0	.
H22A	H	0.9629	1.0188	0.2635	1.0	.
H22B	H	0.9746	1.0236	0.1567	1.0	.
H22C	H	1.0810	0.9277	0.2291	1.0	.
C23	C	0.7520(4)	0.8073(2)	0.14436(17)	1.0	.
H23A	H	0.8661	0.7604	0.1534	1.0	.
H23B	H	0.7507	0.8531	0.0820	1.0	.
H23C	H	0.6395	0.7631	0.1539	1.0	.
C24	C	0.7470(3)	0.42536(15)	0.76476(12)	1.0	.
C25	C	0.7433(3)	0.36838(16)	0.84198(13)	1.0	.
C26	C	0.5127(4)	0.3308(3)	1.01713(19)	1.0	.
H26A	H	0.5081	0.4084	1.0129	1.0	.
H26B	H	0.5084	0.2913	1.0815	1.0	.
H26C	H	0.4040	0.3123	0.9846	1.0	.
C27	C	0.9425(5)	0.3336(3)	1.0245(2)	1.0	.
H27A	H	1.0598	0.3229	0.9924	1.0	.
H27B	H	0.9488	0.2891	1.0874	1.0	.
H27C	H	0.9270	0.4095	1.0253	1.0	.
C28	C	0.7500(4)	0.1456(2)	0.97235(18)	1.0	.
H28A	H	0.6363	0.1250	0.9447	1.0	.
H28B	H	0.7579	0.1061	1.0367	1.0	.
H28C	H	0.8624	0.1282	0.9398	1.0	.
