data_k15136s_config-1
loop_
 _symmetry_equiv_pos_as_xyz
'x, y, z'
'-x+1/2, y+1/2, -z+1/2'
'-x, -y, -z'
'x-1/2, -y-1/2, z-1/2'

_cell_length_a	9.0677(4)
_cell_length_b	12.1740(5)
_cell_length_c	15.7028(6)
_cell_angle_alpha	90
_cell_angle_beta	103.959(2)
_cell_angle_gamma	90
loop_
 _atom_site_label
 _atom_site_type_symbol
 _atom_site_fract_x
 _atom_site_fract_y
 _atom_site_fract_z
 _atom_site_occupancy
 _atom_site_disorder_group
C1	C	0.5408(2)	0.59467(15)	0.55515(12)	1.0	.
C2	C	0.6314(2)	0.55759(16)	0.50140(13)	1.0	1
S3	S	0.80318(9)	0.61464(9)	0.49488(8)	1.0	1
C4	C	0.8251(6)	0.5157(4)	0.4191(4)	1.0	1
H4	H	0.9095	0.5127	0.3932	1.0	1
C5	C	0.7080(12)	0.4432(9)	0.4011(6)	1.0	1
H5	H	0.7032	0.3837	0.3614	1.0	1
C6	C	0.5935(2)	0.46380(16)	0.44647(12)	1.0	1
C7	C	0.5829(2)	0.68780(16)	0.61118(13)	1.0	.
C8	C	0.6200(3)	0.76500(18)	0.65941(14)	1.0	.
Si1	Si	0.68447(8)	0.88016(5)	0.73583(4)	1.0	.
C9	C	0.7068(4)	0.8223(3)	0.8491(2)	1.0	1
H9A	H	0.8059	0.7839	0.8658	1.0	1
H9B	H	0.7110	0.8843	0.8904	1.0	1
C10	C	0.5840(4)	0.7430(3)	0.86190(19)	1.0	1
H10A	H	0.4850	0.7816	0.8467	1.0	1
H10B	H	0.5782	0.6813	0.8201	1.0	1
C11	C	0.6069(5)	0.6965(7)	0.9527(4)	1.0	1
H11A	H	0.7079	0.6630	0.9704	1.0	1
H11B	H	0.5292	0.6407	0.9531	1.0	1
H11C	H	0.5986	0.7555	0.9937	1.0	1
C12	C	0.5323(4)	0.9893(2)	0.71228(19)	1.0	1
H12A	H	0.4409	0.9615	0.7294	1.0	1
H12B	H	0.5689	1.0549	0.7485	1.0	1
C13	C	0.4883(5)	1.0228(4)	0.6150(3)	1.0	1
H13A	H	0.5809	1.0500	0.5990	1.0	1
H13B	H	0.4550	0.9559	0.5797	1.0	1
C14	C	0.3677(8)	1.1073(6)	0.5885(4)	1.0	1
H14A	H	0.2710	1.0780	0.5960	1.0	1
H14B	H	0.3574	1.1269	0.5268	1.0	1
H14C	H	0.3951	1.1728	0.6252	1.0	1
C15	C	0.8647(4)	0.9286(3)	0.7151(3)	1.0	1
H15A	H	0.8438	0.9600	0.6552	1.0	1
H15B	H	0.9046	0.9886	0.7569	1.0	1
C16	C	0.9881(5)	0.8408(4)	0.7232(4)	1.0	1
H16A	H	1.0225	0.8184	0.7855	1.0	1
H16B	H	0.9439	0.7754	0.6890	1.0	1
C17	C	1.1236(8)	0.8793(16)	0.6914(11)	1.0	1
H17A	H	1.0924	0.8943	0.6282	1.0	1
H17B	H	1.2020	0.8222	0.7026	1.0	1
H17C	H	1.1644	0.9466	0.7226	1.0	1
