data_k07477_config-0
loop_
 _symmetry_equiv_pos_as_xyz
'x, y, z'
'-x, y+1/2, -z+1/2'
'-x, -y, -z'
'x, -y-1/2, z-1/2'

_cell_length_a	17.2271(7)
_cell_length_b	6.4203(3)
_cell_length_c	15.5762(9)
_cell_angle_alpha	90.00
_cell_angle_beta	115.804(2)
_cell_angle_gamma	90.00
loop_
 _atom_site_label
 _atom_site_type_symbol
 _atom_site_fract_x
 _atom_site_fract_y
 _atom_site_fract_z
 _atom_site_occupancy
 _atom_site_disorder_group
Si1	Si	0.83728(4)	0.87635(12)	0.58253(5)	1.0	.
C1	C	0.57776(15)	0.6037(4)	0.51283(16)	1.0	.
C2	C	0.57802(15)	0.4214(4)	0.56167(15)	1.0	.
S3	S	0.67191(4)	0.30029(11)	0.64404(4)	1.0	.
C4	C	0.61177(15)	0.1036(4)	0.66425(16)	1.0	.
C5	C	0.64560(16)	-0.0626(4)	0.72694(17)	1.0	.
H5	H	0.7061	-0.0759	0.7641	1.0	.
C6	C	0.58946(16)	-0.2081(4)	0.73416(17)	1.0	.
H6	H	0.6116	-0.3219	0.7770	1.0	.
C7	C	0.50110(16)	-0.1892(4)	0.67937(17)	1.0	.
H7	H	0.4635	-0.2907	0.6851	1.0	.
C8	C	0.46676(16)	-0.0242(4)	0.61624(16)	1.0	.
H8	H	0.4063	-0.0140	0.5784	1.0	.
C9	C	0.52216(15)	0.1267(4)	0.60892(16)	1.0	.
C10	C	0.50250(15)	0.3132(4)	0.55056(16)	1.0	.
C11	C	0.65912(16)	0.6962(4)	0.52957(16)	1.0	.
C12	C	0.72955(16)	0.7682(4)	0.54724(17)	1.0	.
C13	C	0.82946(16)	1.1273(4)	0.52001(17)	1.0	.
H13A	H	0.7970	1.2267	0.5407	1.0	.
H13B	H	0.8885	1.1836	0.5414	1.0	.
C14	C	0.78662(18)	1.1209(5)	0.41096(18)	1.0	.
H14A	H	0.8205	1.0321	0.3888	1.0	.
H14B	H	0.7837	1.2622	0.3859	1.0	.
H14C	H	0.7282	1.0643	0.3883	1.0	.
C15	C	0.90184(15)	0.6806(4)	0.55340(19)	1.0	.
H15A	H	0.9048	0.5514	0.5894	1.0	.
H15B	H	0.8712	0.6470	0.4846	1.0	.
C16	C	0.99336(17)	0.7478(5)	0.5753(2)	1.0	.
H16A	H	0.9915	0.8744	0.5393	1.0	.
H16B	H	1.0221	0.6365	0.5569	1.0	.
H16C	H	1.0254	0.7757	0.6437	1.0	.
C17	C	0.88456(16)	0.9245(5)	0.71299(17)	1.0	.
H17A	H	0.9438	0.9792	0.7339	1.0	.
H17B	H	0.8502	1.0338	0.7255	1.0	.
C18	C	0.8886(2)	0.7336(5)	0.7736(2)	1.0	.
H18A	H	0.8299	0.6852	0.7576	1.0	.
H18B	H	0.9174	0.7710	0.8413	1.0	.
H18C	H	0.9210	0.6225	0.7606	1.0	.
