data_k15193_config-1
loop_
 _symmetry_equiv_pos_as_xyz
'x, y, z'
'-x, y+1/2, -z+1/2'
'-x, -y, -z'
'x, -y-1/2, z-1/2'

_cell_length_a	15.6326(3)
_cell_length_b	6.4203(1)
_cell_length_c	14.8783(3)
_cell_angle_alpha	90
_cell_angle_beta	100.5158(11)
_cell_angle_gamma	90
loop_
 _atom_site_label
 _atom_site_type_symbol
 _atom_site_fract_x
 _atom_site_fract_y
 _atom_site_fract_z
 _atom_site_occupancy
 _atom_site_disorder_group
C1	C	0.41853(14)	0.6037(3)	0.46181(14)	1.0	.
C2	C	0.49912(14)	0.6812(3)	0.44997(13)	1.0	.
N1	N	0.51970(12)	0.8600(3)	0.40515(11)	1.0	.
C4	C	0.46638(17)	1.0165(3)	0.36346(14)	1.0	.
H4	H	0.4063	1.0118	0.3634	1.0	.
C5	C	0.50022(19)	1.1757(4)	0.32291(15)	1.0	.
H5	H	0.4636	1.2807	0.2934	1.0	.
C6	C	0.5913(2)	1.1857(4)	0.32452(18)	1.0	.
H6	H	0.6146	1.2966	0.2955	1.0	.
C7	C	0.64422(19)	1.0373(4)	0.36743(17)	1.0	.
H7	H	0.7044	1.0464	0.3686	1.0	.
C8	C	0.61082(16)	0.8677(4)	0.41081(15)	1.0	.
C9	C	0.64724(15)	0.6987(4)	0.45995(15)	1.0	.
H9	H	0.7069	0.6671	0.4737	1.0	.
C10	C	0.57971(14)	0.5805(3)	0.48625(14)	1.0	.
C11	C	0.33680(16)	0.6948(4)	0.42395(16)	1.0	.
C12	C	0.26607(18)	0.7662(5)	0.3921(2)	1.0	.
Si1	Si	0.1610(3)	0.877(2)	0.3411(8)	1.0	1
C13	C	0.1075(5)	0.7178(13)	0.2479(6)	1.0	1
H13A	H	0.0489	0.7691	0.2268	1.0	1
H13B	H	0.1050	0.5750	0.2686	1.0	1
H13C	H	0.1398	0.7233	0.1981	1.0	1
C14	C	0.1727(4)	1.1430(11)	0.3141(6)	1.0	1
H14A	H	0.1148	1.2010	0.2912	1.0	1
H14B	H	0.1971	1.2178	0.3704	1.0	1
C15	C	0.2240(6)	1.1797(16)	0.2510(8)	1.0	1
H15A	H	0.2268	1.3284	0.2403	1.0	1
H15B	H	0.2821	1.1268	0.2735	1.0	1
H15C	H	0.1997	1.1101	0.1942	1.0	1
C16	C	0.0958(7)	0.885(3)	0.4355(8)	1.0	1
H16A	H	0.1060	1.0240	0.4630	1.0	1
H16B	H	0.0347	0.8832	0.4049	1.0	1
C17	C	0.1004(10)	0.769(4)	0.4975(10)	1.0	1
H17A	H	0.0592	0.8097	0.5357	1.0	1
H17B	H	0.0868	0.6288	0.4745	1.0	1
H17C	H	0.1589	0.7713	0.5332	1.0	1
