data_x13372_config-1
loop_
 _symmetry_equiv_pos_as_xyz
'x, y, z'
'-x, -y, -z'

_cell_length_a	8.1892(2)
_cell_length_b	8.4696(2)
_cell_length_c	14.2025(3)
_cell_angle_alpha	107.193(2)
_cell_angle_beta	99.784(2)
_cell_angle_gamma	91.845(2)
loop_
 _atom_site_label
 _atom_site_type_symbol
 _atom_site_fract_x
 _atom_site_fract_y
 _atom_site_fract_z
 _atom_site_occupancy
 _atom_site_disorder_group
Si1	Si	0.11056(11)	0.61263(12)	0.82208(6)	1.0	.
C1	C	0.3942(3)	0.5298(4)	0.57174(19)	1.0	.
C2	C	0.4963(3)	0.3975(4)	0.56202(19)	1.0	.
C3	C	0.4961(3)	0.2915(4)	0.62279(19)	1.0	.
H3	H	0.4246	0.3098	0.6704	1.0	.
C4	C	0.5948(4)	0.1652(4)	0.61488(19)	1.0	.
C5	C	0.7053(3)	0.1363(4)	0.5438(2)	1.0	.
C6	C	0.7080(3)	0.2342(4)	0.48424(19)	1.0	.
H6	H	0.7806	0.2137	0.4372	1.0	.
C7	C	0.6047(3)	0.3670(4)	0.49038(19)	1.0	.
C8	C	0.2939(4)	0.5614(4)	0.6475(2)	1.0	.
C9	C	0.2188(4)	0.5842(4)	0.7148(2)	1.0	.
C10	C	-0.1282(6)	0.6024(7)	0.7617(4)	1.0	1
H10	H	-0.1580	0.4894	0.7120	1.0	1
C11	C	-0.1529(9)	0.7263(10)	0.7027(5)	1.0	1
H11A	H	-0.2689	0.7135	0.6679	1.0	1
H11B	H	-0.0794	0.7059	0.6534	1.0	1
H11C	H	-0.1262	0.8393	0.7489	1.0	1
C12	C	-0.2392(13)	0.6197(12)	0.8388(6)	1.0	1
H12A	H	-0.2067	0.7249	0.8925	1.0	1
H12B	H	-0.2274	0.5274	0.8672	1.0	1
H12C	H	-0.3553	0.6179	0.8066	1.0	1
C13	C	0.2568(7)	0.7834(6)	0.9305(4)	1.0	1
H13	H	0.3706	0.7437	0.9361	1.0	1
C14	C	0.2697(9)	0.9486(7)	0.9069(4)	1.0	1
H14A	H	0.1609	0.9936	0.9035	1.0	1
H14B	H	0.3054	0.9300	0.8424	1.0	1
H14C	H	0.3511	1.0276	0.9599	1.0	1
C15	C	0.2045(10)	0.8100(15)	1.0326(6)	1.0	1
H15A	H	0.2838	0.8926	1.0847	1.0	1
H15B	H	0.2032	0.7049	1.0484	1.0	1
H15C	H	0.0931	0.8494	1.0299	1.0	1
C16	C	0.1275(3)	0.4184(4)	0.85873(19)	1.0	.
H16	H	0.0678	0.4310	0.9160	1.0	.
C17	C	0.0452(4)	0.2651(5)	0.7747(2)	1.0	.
H17A	H	0.0934	0.2555	0.7148	1.0	.
H17B	H	-0.0745	0.2751	0.7591	1.0	.
H17C	H	0.0638	0.1662	0.7960	1.0	.
C18	C	0.3091(4)	0.3925(5)	0.8957(2)	1.0	.
H18A	H	0.3135	0.2872	0.9112	1.0	.
H18B	H	0.3559	0.4838	0.9562	1.0	.
H18C	H	0.3737	0.3898	0.8432	1.0	.
C19	C	0.5869(4)	0.0610(5)	0.6788(2)	1.0	.
N1	N	0.5769(5)	-0.0202(5)	0.7281(3)	1.0	.
C20	C	0.8059(5)	-0.0042(6)	0.5338(3)	1.0	.
N2	N	0.8845(5)	-0.1175(6)	0.5261(3)	1.0	.
