data_x07117x_config-1
loop_
 _symmetry_equiv_pos_as_xyz
'x, y, z'
'-x, -y, -z'

_cell_length_a	7.2504(6)
_cell_length_b	10.5561(8)
_cell_length_c	11.2290(7)
_cell_angle_alpha	94.585(4)
_cell_angle_beta	90.296(4)
_cell_angle_gamma	102.419(4)
loop_
 _atom_site_label
 _atom_site_type_symbol
 _atom_site_fract_x
 _atom_site_fract_y
 _atom_site_fract_z
 _atom_site_occupancy
 _atom_site_disorder_group
Si1	Si	0.22000(11)	0.21276(7)	0.90944(6)	1.0	.
C1	C	0.4479(4)	0.4347(3)	0.6030(2)	1.0	.
C2	C	0.6002(4)	0.4077(3)	0.5365(2)	1.0	.
C3	C	0.7029(4)	0.3169(3)	0.5708(2)	1.0	.
H3	H	0.6685	0.2722	0.6402	1.0	1
C4	C	0.8511(4)	0.2928(3)	0.5054(2)	1.0	1
S5	S	0.9979(6)	0.1864(4)	0.5251(4)	1.0	1
C6	C	1.1336(9)	0.2335(6)	0.4023(5)	1.0	1
C7	C	1.065(3)	0.324(2)	0.343(2)	1.0	1
H7	H	1.1183	0.3584	0.2722	1.0	1
C8	C	0.9040(4)	0.3594(3)	0.4006(2)	1.0	1
C9	C	0.8069(4)	0.4476(3)	0.3653(2)	1.0	.
H9	H	0.8431	0.4913	0.2956	1.0	1
C10	C	0.6537(4)	0.4743(3)	0.4313(2)	1.0	.
C11	C	0.3906(4)	0.3663(3)	0.7059(2)	1.0	.
C12	C	0.3358(4)	0.3083(3)	0.7905(2)	1.0	.
C13	C	0.0282(5)	0.2914(4)	0.9665(3)	1.0	.
H13A	H	-0.0336	0.2436	1.0330	1.0	.
H13B	H	0.0844	0.3816	0.9988	1.0	.
C14	C	-0.1206(5)	0.2950(4)	0.8717(3)	1.0	.
H14A	H	-0.0599	0.3396	0.8042	1.0	.
H14B	H	-0.2134	0.3419	0.9058	1.0	.
H14C	H	-0.1843	0.2059	0.8439	1.0	.
C15	C	0.3942(5)	0.2082(3)	1.0294(3)	1.0	.
H15A	H	0.3300	0.1521	1.0901	1.0	.
H15B	H	0.4942	0.1669	0.9947	1.0	.
C16	C	0.4869(5)	0.3389(3)	1.0917(3)	1.0	.
H16A	H	0.5531	0.3952	1.0330	1.0	.
H16B	H	0.5774	0.3269	1.1526	1.0	.
H16C	H	0.3901	0.3795	1.1297	1.0	.
C17	C	0.1256(5)	0.0456(3)	0.8391(3)	1.0	.
H17A	H	0.0573	-0.0086	0.8998	1.0	.
H17B	H	0.0338	0.0497	0.7748	1.0	.
C18	C	0.2767(6)	-0.0184(4)	0.7877(4)	1.0	.
H18A	H	0.3485	0.0365	0.7300	1.0	.
H18B	H	0.2183	-0.1035	0.7474	1.0	.
H18C	H	0.3618	-0.0299	0.8521	1.0	.
C19	C	1.2924(12)	0.1747(7)	0.3728(7)	1.0	1
H19	H	1.3618	0.2015	0.3043	1.0	1
C20	C	1.3486(13)	0.0874(8)	0.4327(9)	1.0	1
H20A	H	1.2832	0.0579	0.5017	1.0	1
H20B	H	1.4546	0.0539	0.4069	1.0	1
