data_x08060s_config-1
loop_
 _symmetry_equiv_pos_as_xyz
'x, y, z'
'-x, -y, -z'

_cell_length_a	7.3678(6)
_cell_length_b	10.3730(8)
_cell_length_c	12.1159(9)
_cell_angle_alpha	66.395(4)
_cell_angle_beta	87.518(4)
_cell_angle_gamma	76.878(4)
loop_
 _atom_site_label
 _atom_site_type_symbol
 _atom_site_fract_x
 _atom_site_fract_y
 _atom_site_fract_z
 _atom_site_occupancy
 _atom_site_disorder_group
Si1	Si	0.51034(6)	1.10549(5)	0.20794(4)	1.0	.
C1	C	0.4903(3)	0.64714(18)	0.42822(15)	1.0	.
C2	C	0.3525(3)	0.58248(18)	0.41085(15)	1.0	.
C3	C	0.2025(3)	0.66245(18)	0.32464(15)	1.0	.
H3	H	0.1940	0.7621	0.2766	1.0	1
C4	C	0.0700(3)	0.59725(19)	0.31015(15)	1.0	1
S5	S	-0.1223(4)	0.6753(3)	0.2069(2)	1.0	1
C6	C	-0.1842(10)	0.5104(6)	0.2632(7)	1.0	1
F1	F	-0.3396(4)	0.5053(4)	0.2131(3)	1.0	1
C7	C	-0.0733(19)	0.4022(16)	0.3534(16)	1.0	1
H7	H	-0.0945	0.3076	0.3928	1.0	1
C8	C	0.0806(3)	0.44739(19)	0.38274(16)	1.0	1
C9	C	0.2225(3)	0.36805(18)	0.46685(15)	1.0	.
H9	H	0.2277	0.2688	0.5144	1.0	1
C10	C	0.3624(3)	0.43235(18)	0.48407(15)	1.0	.
C11	C	0.4851(3)	0.79572(18)	0.35430(16)	1.0	.
C12	C	0.4866(3)	0.91914(19)	0.29294(16)	1.0	.
C13	C	0.6999(3)	1.1290(2)	0.28687(17)	1.0	.
H13	H	0.7200	1.2296	0.2544	1.0	.
C14	C	0.7381(3)	1.0465(2)	0.42230(18)	1.0	.
H14A	H	0.7732	1.0982	0.4684	1.0	.
H14B	H	0.6617	0.9761	0.4658	1.0	.
C15	C	0.8748(3)	1.0111(2)	0.33891(18)	1.0	.
H15A	H	0.8833	0.9187	0.3309	1.0	.
H15B	H	0.9947	1.0407	0.3335	1.0	.
C16	C	0.5681(3)	1.13277(19)	0.05194(16)	1.0	.
H16	H	0.4673	1.1284	0.0017	1.0	.
C17	C	0.7648(3)	1.0809(2)	0.02194(19)	1.0	.
H17A	H	0.8616	1.0323	0.0889	1.0	.
H17B	H	0.7810	1.0429	-0.0418	1.0	.
C18	C	0.6864(3)	1.2383(2)	-0.01530(18)	1.0	.
H18A	H	0.6540	1.2979	-0.1021	1.0	.
H18B	H	0.7345	1.2872	0.0286	1.0	.
C19	C	0.2913(2)	1.23146(18)	0.20879(16)	1.0	.
H19	H	0.2504	1.2235	0.2906	1.0	.
C20	C	0.2468(3)	1.3827(2)	0.11123(19)	1.0	.
H20A	H	0.1867	1.4627	0.1349	1.0	.
H20B	H	0.3353	1.4075	0.0463	1.0	.
C21	C	0.1357(3)	1.2802(2)	0.11446(19)	1.0	.
H21A	H	0.1546	1.2411	0.0515	1.0	.
H21B	H	0.0060	1.2963	0.1400	1.0	.
