data_x10099_config-1
loop_
 _symmetry_equiv_pos_as_xyz
'x, y, z'
'-x, -y, -z'

_cell_length_a	6.6164(2)
_cell_length_b	11.1867(3)
_cell_length_c	14.8538(3)
_cell_angle_alpha	98.102(1)
_cell_angle_beta	96.695(1)
_cell_angle_gamma	98.415(1)
loop_
 _atom_site_label
 _atom_site_type_symbol
 _atom_site_fract_x
 _atom_site_fract_y
 _atom_site_fract_z
 _atom_site_occupancy
 _atom_site_disorder_group
C1	C	0.4979(3)	0.61616(19)	0.55194(14)	1.0	.
C2	C	0.3323(3)	0.56434(19)	0.48223(14)	1.0	.
C3	C	0.1664(3)	0.6278(2)	0.46254(15)	1.0	.
H3	H	0.1643	0.7059	0.4968	1.0	1
C4	C	0.0091(3)	0.5756(2)	0.39373(15)	1.0	1
S5	S	-0.20123(10)	0.64263(6)	0.35569(4)	1.0	1
C6	C	-0.292(2)	0.5116(9)	0.2726(12)	1.0	1
C7	C	-0.1748(5)	0.4290(3)	0.2744(2)	1.0	1
H7	H	-0.2066	0.3536	0.2332	1.0	1
C8	C	0.0072(3)	0.4573(2)	0.34230(15)	1.0	1
C9	C	0.1666(3)	0.3948(2)	0.36010(14)	1.0	.
H9	H	0.1647	0.3163	0.3256	1.0	1
C10	C	0.3340(3)	0.44631(19)	0.42948(14)	1.0	.
C11	C	0.4963(3)	0.7323(2)	0.60613(15)	1.0	.
C12	C	0.4941(4)	0.8279(2)	0.65373(18)	1.0	.
Si1	Si	0.4791(2)	0.95895(12)	0.74713(10)	1.0	1
C13	C	0.7404(10)	1.0018(8)	0.8197(6)	1.0	1
H13A	H	0.8438	1.0304	0.7809	1.0	1
H13B	H	0.7364	1.0706	0.8689	1.0	1
C14	C	0.8086(9)	0.8954(5)	0.8633(4)	1.0	1
H14A	H	0.7043	0.8645	0.8998	1.0	1
H14B	H	0.9408	0.9240	0.9030	1.0	1
H14C	H	0.8242	0.8296	0.8148	1.0	1
C15	C	0.2734(8)	0.9139(5)	0.8198(4)	1.0	1
H15A	H	0.1397	0.8874	0.7794	1.0	1
H15B	H	0.3069	0.8429	0.8481	1.0	1
C16	C	0.2492(10)	1.0153(6)	0.8955(4)	1.0	1
H16A	H	0.3798	1.0411	0.9368	1.0	1
H16B	H	0.1407	0.9850	0.9302	1.0	1
H16C	H	0.2115	1.0852	0.8682	1.0	1
C17	C	0.4092(8)	1.0822(5)	0.6844(4)	1.0	1
H17A	H	0.2721	1.0536	0.6471	1.0	1
H17B	H	0.3979	1.1542	0.7295	1.0	1
C18	C	0.5633(15)	1.1209(10)	0.6222(8)	1.0	1
H18A	H	0.6972	1.1548	0.6592	1.0	1
H18B	H	0.5148	1.1832	0.5889	1.0	1
H18C	H	0.5777	1.0497	0.5782	1.0	1
O1	O	-0.5538(3)	0.41786(16)	0.15013(12)	1.0	.
O2	O	-0.5352(2)	0.61795(16)	0.20882(11)	1.0	.
C19	C	-0.4750(3)	0.5074(2)	0.20404(16)	1.0	.
C20	C	-0.6959(3)	0.6319(2)	0.14159(16)	1.0	.
C21	C	-0.8780(3)	0.6541(2)	0.17117(17)	1.0	.
H21	H	-0.8967	0.6544	0.2336	1.0	.
C22	C	-1.0336(4)	0.6761(2)	0.10791(19)	1.0	.
H22	H	-1.1609	0.6912	0.1270	1.0	.
C23	C	-1.0049(4)	0.6761(2)	0.01746(19)	1.0	.
H23	H	-1.1122	0.6912	-0.0257	1.0	.
C24	C	-0.8199(4)	0.6543(3)	-0.01018(18)	1.0	.
H24	H	-0.8007	0.6541	-0.0726	1.0	.
C25	C	-0.6619(4)	0.6325(3)	0.05198(17)	1.0	.
H25	H	-0.5337	0.6185	0.0333	1.0	.
