data_x10142_config-2
loop_
 _symmetry_equiv_pos_as_xyz
'x, y, z'
'-x, -y, -z'

_cell_length_a	6.3369(2)
_cell_length_b	10.9733(3)
_cell_length_c	16.8510(4)
_cell_angle_alpha	74.665(1)
_cell_angle_beta	83.637(1)
_cell_angle_gamma	76.389(1)
loop_
 _atom_site_label
 _atom_site_type_symbol
 _atom_site_fract_x
 _atom_site_fract_y
 _atom_site_fract_z
 _atom_site_occupancy
 _atom_site_disorder_group
Si1	Si	0.05509(13)	0.85558(8)	0.70420(5)	1.0	.
C1	C	0.4039(4)	0.5836(2)	0.55151(16)	1.0	.
C2	C	0.2888(4)	0.5803(2)	0.48535(16)	1.0	.
C3	C	0.0794(4)	0.6586(3)	0.46943(17)	1.0	.
C4'	C	-0.0267(4)	0.6552(3)	0.40408(17)	1.0	2
C5'	C	-0.221(2)	0.7087(13)	0.3657(8)	1.0	2
H5'	H	-0.3371	0.7552	0.3939	1.0	2
C6'	C	-0.254(5)	0.698(3)	0.2889(18)	1.0	2
S7'	S	-0.0550(6)	0.5764(4)	0.2591(2)	1.0	2
C8'	C	0.0700(5)	0.5729(3)	0.35100(17)	1.0	2
C19'	C	-0.429(3)	0.7529(15)	0.2255(10)	1.0	2
O1'	O	-0.5767(16)	0.8377(10)	0.2295(7)	1.0	2
O2'	O	-0.381(3)	0.6969(19)	0.1607(8)	1.0	2
C20'	C	-0.516(2)	0.7515(17)	0.0920(9)	1.0	2
H20'	H	-0.6088	0.8369	0.0966	1.0	2
C21'	C	-0.360(4)	0.769(2)	0.0166(13)	1.0	2
F1'	F	-0.234(2)	0.6611(16)	0.0089(7)	1.0	2
F2'	F	-0.475(2)	0.8233(16)	-0.0498(8)	1.0	2
F3'	F	-0.234(2)	0.8476(16)	0.0234(9)	1.0	2
C22'	C	-0.656(3)	0.6574(18)	0.0935(10)	1.0	2
F4'	F	-0.795(2)	0.6607(19)	0.1573(9)	1.0	2
F5'	F	-0.789(3)	0.7082(19)	0.0288(10)	1.0	2
F6'	F	-0.550(4)	0.5434(18)	0.0871(16)	1.0	2
C9	C	0.2711(5)	0.4936(3)	0.36596(17)	1.0	.
C10	C	0.3867(4)	0.4953(2)	0.43243(16)	1.0	.
C11	C	0.3043(5)	0.6695(3)	0.60293(17)	1.0	.
C12	C	0.2160(5)	0.7413(3)	0.64504(18)	1.0	.
C13	C	-0.1197(6)	0.7654(4)	0.7832(2)	1.0	.
H13A	H	-0.2285	0.8279	0.8077	1.0	.
H13B	H	-0.1994	0.7216	0.7559	1.0	.
C14	C	0.0079(9)	0.6649(4)	0.8518(3)	1.0	.
H14A	H	0.1257	0.6079	0.8277	1.0	.
H14B	H	-0.0892	0.6135	0.8874	1.0	.
H14C	H	0.0695	0.7087	0.8845	1.0	.
C15	C	0.2426(5)	0.9146(3)	0.7557(2)	1.0	.
H15A	H	0.3400	0.8392	0.7896	1.0	.
H15B	H	0.3342	0.9623	0.7130	1.0	.
C16	C	0.1241(6)	1.0032(3)	0.8108(2)	1.0	.
H16A	H	0.0274	1.0783	0.7777	1.0	.
H16B	H	0.2309	1.0325	0.8350	1.0	.
H16C	H	0.0384	0.9555	0.8549	1.0	.
C17	C	-0.1107(7)	0.9912(4)	0.6290(2)	1.0	.
H17A	H	-0.1992	1.0531	0.6594	1.0	.
H17B	H	-0.0104	1.0371	0.5895	1.0	.
C18	C	-0.2615(7)	0.9534(4)	0.5804(2)	1.0	.
H18A	H	-0.1762	0.8941	0.5485	1.0	.
H18B	H	-0.3401	1.0312	0.5428	1.0	.
H18C	H	-0.3658	0.9107	0.6184	1.0	.
