data_x10148_config-0
loop_
 _symmetry_equiv_pos_as_xyz
'x, y, z'
'-x, -y, -z'

_cell_length_a	11.1843(3)
_cell_length_b	14.8367(4)
_cell_length_c	15.7732(4)
_cell_angle_alpha	63.054(1)
_cell_angle_beta	77.064(1)
_cell_angle_gamma	89.140(1)
loop_
 _atom_site_label
 _atom_site_type_symbol
 _atom_site_fract_x
 _atom_site_fract_y
 _atom_site_fract_z
 _atom_site_occupancy
 _atom_site_disorder_group
Si1	Si	0.22576(3)	0.01747(3)	0.67228(3)	1.0	.
Si2	Si	0.37113(3)	0.88774(3)	0.21176(3)	1.0	.
N1	N	-0.27206(10)	0.60833(9)	0.70358(8)	1.0	.
N2	N	1.06098(10)	0.52179(9)	0.09518(8)	1.0	.
O1	O	-0.29606(9)	0.43742(7)	0.78832(7)	1.0	.
O2	O	1.03468(9)	0.35374(7)	0.19827(7)	1.0	.
C1	C	0.36145(12)	0.34560(10)	0.51924(9)	1.0	.
C2	C	0.26740(12)	0.40474(10)	0.53661(9)	1.0	.
C3	C	0.15690(12)	0.35923(10)	0.61094(9)	1.0	.
H3	H	0.1445	0.2877	0.6508	1.0	.
C4	C	0.06843(12)	0.41937(10)	0.62468(9)	1.0	.
S5	S	-0.07214(3)	0.38032(2)	0.71227(2)	1.0	.
C6	C	-0.10961(12)	0.50664(10)	0.66965(9)	1.0	.
C7	C	-0.02160(12)	0.57424(11)	0.59226(10)	1.0	.
H7	H	-0.0284	0.6452	0.5597	1.0	.
C8	C	0.08292(12)	0.52713(10)	0.56483(9)	1.0	.
C9	C	0.18890(12)	0.57258(10)	0.49208(9)	1.0	.
H9	H	0.1985	0.6441	0.4519	1.0	.
C10	C	0.28358(12)	0.51351(10)	0.47679(9)	1.0	.
C11	C	0.39348(12)	0.55978(10)	0.40255(9)	1.0	.
C12	C	0.48980(12)	0.50109(10)	0.38913(9)	1.0	.
C13	C	0.60020(12)	0.54776(10)	0.31628(9)	1.0	.
H13	H	0.6122	0.6196	0.2787	1.0	.
C14	C	0.69039(12)	0.48965(10)	0.29954(9)	1.0	.
C15	C	0.80589(12)	0.52334(11)	0.22653(10)	1.0	.
H15	H	0.8322	0.5926	0.1812	1.0	.
C16	C	0.87328(12)	0.44532(10)	0.22947(9)	1.0	.
S17	S	0.80085(3)	0.32577(2)	0.32225(2)	1.0	.
C18	C	0.67408(12)	0.38175(10)	0.35829(10)	1.0	.
C19	C	0.57007(12)	0.33391(10)	0.43199(10)	1.0	.
H19	H	0.5623	0.2624	0.4719	1.0	.
C20	C	0.47399(12)	0.39232(10)	0.44815(9)	1.0	.
C21	C	0.33675(11)	0.23736(10)	0.57042(9)	1.0	.
C22	C	0.30390(12)	0.14720(10)	0.61160(10)	1.0	.
C23	C	0.33541(14)	-0.07280(11)	0.65496(12)	1.0	.
H23A	H	0.4157	-0.0572	0.6644	1.0	.
H23B	H	0.3030	-0.1429	0.7057	1.0	.
C24	C	0.35566(15)	-0.06783(12)	0.55381(13)	1.0	.
H24A	H	0.2794	-0.0937	0.5479	1.0	.
H24B	H	0.4218	-0.1094	0.5455	1.0	.
H24C	H	0.3787	0.0028	0.5031	1.0	.
C25	C	0.09626(13)	0.02480(11)	0.61240(11)	1.0	.
H25A	H	0.0429	0.0759	0.6197	1.0	.
H25B	H	0.1314	0.0491	0.5414	1.0	.
C26	C	0.01623(14)	-0.07564(12)	0.65339(13)	1.0	.
H26A	H	0.0686	-0.1281	0.6501	1.0	.
H26B	H	-0.0443	-0.0666	0.6145	1.0	.
H26C	H	-0.0268	-0.0965	0.7218	1.0	.
C27	C	0.16387(14)	-0.02056(12)	0.80534(11)	1.0	.
H27A	H	0.1145	-0.0873	0.8365	1.0	.
H27B	H	0.2342	-0.0297	0.8360	1.0	.
C28	C	0.08423(17)	0.05373(15)	0.82797(13)	1.0	.
H28A	H	0.1343	0.1181	0.8037	1.0	.
H28B	H	0.0512	0.0250	0.8990	1.0	.
H28C	H	0.0160	0.0659	0.7958	1.0	.
C29	C	0.40307(11)	0.66633(10)	0.33888(9)	1.0	.
C30	C	0.40153(12)	0.75550(10)	0.28516(10)	1.0	.
C31	C	0.36089(13)	0.90939(11)	0.08726(10)	1.0	.
H31A	H	0.3446	0.9808	0.0500	1.0	.
H31B	H	0.4422	0.9007	0.0527	1.0	.
C32	C	0.26287(15)	0.84065(12)	0.08446(11)	1.0	.
H32A	H	0.2797	0.7696	0.1184	1.0	.
H32B	H	0.2648	0.8589	0.0161	1.0	.
H32C	H	0.1813	0.8494	0.1171	1.0	.
C33	C	0.49979(14)	0.97551(11)	0.19986(11)	1.0	.
H33A	H	0.5182	0.9516	0.2648	1.0	.
H33B	H	0.5745	0.9716	0.1546	1.0	.
C34	C	0.47244(15)	1.08664(11)	0.16225(12)	1.0	.
H34A	H	0.4514	1.1105	0.0989	1.0	.
H34B	H	0.5454	1.1282	0.1542	1.0	.
H34C	H	0.4031	1.0923	0.2095	1.0	.
C35	C	0.22192(13)	0.90323(12)	0.28404(11)	1.0	.
H35A	H	0.1962	0.9711	0.2457	1.0	.
H35B	H	0.1576	0.8516	0.2946	1.0	.
C36	C	0.23141(15)	0.89221(13)	0.38371(12)	1.0	.
H36A	H	0.2595	0.8260	0.4211	1.0	.
H36B	H	0.1503	0.8972	0.4201	1.0	.
H36C	H	0.2905	0.9464	0.3736	1.0	.
C37	C	-0.23211(12)	0.51594(10)	0.72450(9)	1.0	.
C38	C	-0.39615(12)	0.61358(11)	0.75639(10)	1.0	.
H38A	H	-0.4018	0.5859	0.8274	1.0	.
H38B	H	-0.4596	0.5755	0.7470	1.0	.
C39	C	-0.41146(13)	0.72669(11)	0.71021(11)	1.0	.
H39A	H	-0.4656	0.7447	0.7580	1.0	.
H39B	H	-0.4464	0.7475	0.6524	1.0	.
C40	C	-0.28010(13)	0.77612(11)	0.68035(11)	1.0	.
H40A	H	-0.2556	0.7756	0.7371	1.0	.
H40B	H	-0.2717	0.8471	0.6280	1.0	.
C41	C	-0.20267(13)	0.70972(10)	0.64320(10)	1.0	.
H41A	H	-0.1967	0.7334	0.5726	1.0	.
H41B	H	-0.1186	0.7093	0.6537	1.0	.
C42	C	0.99559(12)	0.43802(10)	0.17267(10)	1.0	.
C43	C	1.02795(13)	0.62692(11)	0.05237(10)	1.0	.
H43A	H	1.0279	0.6571	0.0970	1.0	.
H43B	H	0.9457	0.6298	0.0383	1.0	.
C44	C	1.12869(14)	0.68183(12)	-0.04208(11)	1.0	.
H44A	H	1.1050	0.6791	-0.0978	1.0	.
H44B	H	1.1461	0.7538	-0.0581	1.0	.
C45	C	1.23944(14)	0.62295(12)	-0.01843(12)	1.0	.
H45A	H	1.2814	0.6449	0.0191	1.0	.
H45B	H	1.2994	0.6321	-0.0790	1.0	.
C46	C	1.18316(13)	0.51279(12)	0.04328(11)	1.0	.
H46A	H	1.1765	0.4807	0.0013	1.0	.
H46B	H	1.2328	0.4725	0.0899	1.0	.
C1T	C	0.64401(13)	0.69830(12)	0.01479(10)	1.0	.
C2T	C	0.60993(14)	0.73254(12)	0.08440(11)	1.0	.
H2T	H	0.5322	0.7079	0.1304	1.0	.
C3T	C	0.68701(17)	0.80180(13)	0.08803(12)	1.0	.
H3T	H	0.6629	0.8232	0.1372	1.0	.
C4T	C	0.79961(17)	0.84015(13)	0.01994(14)	1.0	.
H4T	H	0.8525	0.8883	0.0219	1.0	.
C5T	C	0.83414(15)	0.80765(13)	-0.05074(12)	1.0	.
H5T	H	0.9108	0.8341	-0.0979	1.0	.
C6T	C	0.75757(14)	0.73677(12)	-0.05319(11)	1.0	.
H6T	H	0.7825	0.7142	-0.1015	1.0	.
C7T	C	0.55912(15)	0.62237(15)	0.01244(13)	1.0	.
H7T1	H	0.4817	0.6083	0.0621	1.0	.
H7T2	H	0.5982	0.5593	0.0263	1.0	.
H7T3	H	0.5421	0.6500	-0.0526	1.0	.
