data_x10197_config-1
loop_
 _symmetry_equiv_pos_as_xyz
'x, y, z'
'x, -y, z+1/2'
'x+1/2, y+1/2, z'
'x+1/2, -y+1/2, z+1/2'

_cell_length_a	20.6206(6)
_cell_length_b	18.6812(5)
_cell_length_c	24.2736(7)
_cell_angle_alpha	90.00
_cell_angle_beta	100.4330(10)
_cell_angle_gamma	90.00
loop_
 _atom_site_label
 _atom_site_type_symbol
 _atom_site_fract_x
 _atom_site_fract_y
 _atom_site_fract_z
 _atom_site_occupancy
 _atom_site_disorder_group
Si1A	Si	0.79241(5)	0.07754(5)	0.24353(4)	1.0	.
Si2A	Si	0.53715(4)	0.38341(5)	0.56155(4)	1.0	.
N1A	N	1.00231(14)	0.45044(15)	0.57514(11)	1.0	.
N2A	N	0.28752(14)	0.13665(15)	0.27484(11)	1.0	.
O1A	O	1.04017(12)	0.40658(13)	0.49991(11)	1.0	.
O2A	O	0.34478(13)	0.08968(14)	0.21300(10)	1.0	.
C1A	C	0.70245(16)	0.23072(17)	0.34646(13)	1.0	.
C2A	C	0.74117(15)	0.27409(16)	0.38770(12)	1.0	.
C3A	C	0.80921(16)	0.28457(17)	0.38804(13)	1.0	.
H3A	H	0.8293	0.2638	0.3596	1.0	1
C4A	C	0.84572(15)	0.32460(17)	0.42939(13)	1.0	1
S5A	S	0.92935(4)	0.34304(5)	0.43643(4)	1.0	1
C6A	C	0.92827(16)	0.38901(16)	0.49898(13)	1.0	1
C7A	C	0.8674(2)	0.3906(2)	0.5131(2)	1.0	1
H7A	H	0.8589	0.4125	0.5464	1.0	1
C8A	C	0.81703(15)	0.35612(16)	0.47316(12)	1.0	1
C9A	C	0.75015(16)	0.34790(17)	0.47317(13)	1.0	.
H9A	H	0.7307	0.3696	0.5016	1.0	1
C10A	C	0.71104(15)	0.30704(16)	0.43057(12)	1.0	.
C11A	C	0.64285(15)	0.29719(16)	0.42983(12)	1.0	.
C12A	C	0.60377(15)	0.25537(16)	0.38837(12)	1.0	.
C13A	C	0.53574(15)	0.24532(16)	0.38656(13)	1.0	.
H13A	H	0.5154	0.2661	0.4149	1.0	1
C14A	C	0.49819(15)	0.20617(16)	0.34474(12)	1.0	1
C15A	C	0.4299(2)	0.1904(3)	0.3327(2)	1.0	1
H15A	H	0.4010	0.2055	0.3568	1.0	1
C16A	C	0.40805(16)	0.15342(17)	0.28631(13)	1.0	1
S17A	S	0.47230(4)	0.12987(5)	0.25136(3)	1.0	1
C18A	C	0.52906(16)	0.17455(17)	0.30215(13)	1.0	1
C19A	C	0.59516(16)	0.18101(17)	0.30282(13)	1.0	.
H19A	H	0.6148	0.1581	0.2750	1.0	1
C20A	C	0.63421(16)	0.22225(16)	0.34548(12)	1.0	.
C21A	C	0.73359(16)	0.19237(17)	0.30783(13)	1.0	.
C22A	C	0.75907(17)	0.15434(18)	0.27724(15)	1.0	.
C23A	C	0.7765(2)	-0.0010(2)	0.28627(17)	1.0	.
H23A	H	0.7919	-0.0447	0.2696	1.0	.
H23B	H	0.8028	0.0043	0.3244	1.0	.
C24A	C	0.7047(2)	-0.0106(3)	0.2908(2)	1.0	.
H24A	H	0.6897	0.0309	0.3106	1.0	.
H24B	H	0.6774	-0.0129	0.2528	1.0	.
C25A	C	0.6958(3)	-0.0787(3)	0.3224(2)	1.0	.
H25A	H	0.7168	-0.1186	0.3062	1.0	.
H25B	H	0.6487	-0.0886	0.3196	1.0	.
H25C	H	0.7163	-0.0729	0.3618	1.0	.
C26A	C	0.7434(3)	0.0688(3)	0.16953(19)	1.0	1
H26A	H	0.6972	0.0825	0.1704	1.0	1
H26B	H	0.7610	0.1042	0.1457	1.0	1
C27A	C	0.7425(3)	-0.0065(4)	0.1402(3)	1.0	1
H27A	H	0.7307	-0.0438	0.1657	1.0	1
H27B	H	0.7084	-0.0066	0.1058	1.0	1
C28A	C	0.8070(4)	-0.0238(5)	0.1256(4)	1.0	1
H28A	H	0.8019	-0.0635	0.0988	1.0	1
H28B	H	0.8379	-0.0376	0.1596	1.0	1
H28C	H	0.8240	0.0182	0.1088	1.0	1
C29A	C	0.8813(2)	0.0939(2)	0.24175(17)	1.0	.
H29A	H	0.8999	0.0501	0.2276	1.0	.
H29B	H	0.8843	0.1328	0.2147	1.0	.
C30A	C	0.9229(2)	0.1136(3)	0.29702(18)	1.0	.
H30A	H	0.9194	0.0751	0.3243	1.0	.
H30B	H	0.9049	0.1579	0.3109	1.0	.
C31A	C	0.9960(2)	0.1258(2)	0.29516(18)	1.0	.
H31A	H	1.0151	0.0815	0.2834	1.0	.
H31B	H	1.0194	0.1395	0.3325	1.0	.
H31C	H	1.0002	0.1640	0.2684	1.0	.
C32A	C	0.61286(15)	0.32879(16)	0.47321(12)	1.0	.
C33A	C	0.58598(16)	0.35372(17)	0.50892(13)	1.0	.
C34A	C	0.45503(18)	0.4123(2)	0.52116(16)	1.0	.
H34A	H	0.4236	0.4163	0.5474	1.0	.
H34B	H	0.4598	0.4605	0.5055	1.0	.
C35A	C	0.42577(19)	0.3622(2)	0.47340(16)	1.0	.
H35A	H	0.4546	0.3622	0.4450	1.0	.
H35B	H	0.4250	0.3129	0.4882	1.0	.
C36A	C	0.3560(2)	0.3830(4)	0.4453(2)	1.0	.
H36A	H	0.3272	0.3836	0.4732	1.0	.
H36B	H	0.3393	0.3482	0.4159	1.0	.
H36C	H	0.3567	0.4308	0.4286	1.0	.
C37A	C	0.5295(2)	0.3044(2)	0.60808(15)	1.0	.
H37A	H	0.5057	0.3198	0.6381	1.0	.
H37B	H	0.5024	0.2673	0.5857	1.0	.
C38A	C	0.5952(2)	0.2713(2)	0.63510(15)	1.0	.
H38A	H	0.6181	0.2538	0.6052	1.0	.
H38B	H	0.6231	0.3088	0.6563	1.0	.
C39A	C	0.5880(3)	0.2098(2)	0.67427(19)	1.0	.
H39A	H	0.5656	0.2267	0.7041	1.0	.
H39B	H	0.6318	0.1915	0.6908	1.0	.
H39C	H	0.5621	0.1715	0.6533	1.0	.
C40A	C	0.58373(18)	0.45689(19)	0.60447(14)	1.0	.
H40A	H	0.6305	0.4422	0.6144	1.0	.
H40B	H	0.5821	0.5000	0.5806	1.0	.
C41A	C	0.5599(2)	0.4782(2)	0.65896(15)	1.0	.
H41A	H	0.5590	0.4348	0.6822	1.0	.
H41B	H	0.5923	0.5118	0.6802	1.0	.
C42A	C	0.4936(2)	0.5123(2)	0.65026(18)	1.0	.
H42A	H	0.4944	0.5566	0.6288	1.0	.
H42B	H	0.4817	0.5232	0.6867	1.0	.
H42C	H	0.4609	0.4794	0.6296	1.0	.
C43A	C	0.99362(16)	0.41666(17)	0.52472(13)	1.0	.
C44A	C	1.06772(19)	0.4748(2)	0.60011(16)	1.0	.
H44A	H	1.0820	0.5151	0.5787	1.0	.
H44B	H	1.1004	0.4356	0.6023	1.0	.
C45A	C	1.05872(19)	0.4988(2)	0.65854(15)	1.0	.
H45A	H	1.0659	0.4584	0.6853	1.0	.
H45B	H	1.0898	0.5378	0.6726	1.0	.
C46A	C	0.9891(2)	0.5244(2)	0.65045(17)	1.0	.
H46A	H	0.9852	0.5738	0.6355	1.0	.
H46B	H	0.9722	0.5230	0.6861	1.0	.
C47A	C	0.95219(19)	0.4719(2)	0.60845(14)	1.0	.
H47A	H	0.9366	0.4302	0.6275	1.0	.
H47B	H	0.9139	0.4951	0.5846	1.0	.
C48A	C	0.34332(17)	0.12507(17)	0.25598(13)	1.0	.
C49A	C	0.27442(17)	0.18331(19)	0.32019(14)	1.0	.
H49A	H	0.2991	0.2289	0.3208	1.0	.
H49B	H	0.2867	0.1595	0.3570	1.0	.
C50A	C	0.20112(19)	0.1960(2)	0.30591(17)	1.0	.
H50A	H	0.1908	0.2369	0.2799	1.0	.
H50B	H	0.1826	0.2054	0.3401	1.0	.
C51A	C	0.17401(18)	0.1260(2)	0.27796(16)	1.0	.
H51A	H	0.1687	0.0894	0.3063	1.0	.
H51B	H	0.1310	0.1339	0.2531	1.0	.
C52A	C	0.22653(17)	0.10391(19)	0.24453(15)	1.0	.
H52A	H	0.2307	0.0511	0.2435	1.0	.
H52B	H	0.2158	0.1222	0.2057	1.0	.
Si1B	Si	0.05775(4)	0.16034(5)	0.50492(4)	1.0	.
Si2B	Si	0.31994(4)	-0.14929(5)	0.19663(4)	1.0	.
N1B	N	-0.15520(14)	-0.20702(16)	0.18123(11)	1.0	.
N2B	N	0.56876(14)	0.09744(15)	0.47733(12)	1.0	.
O1B	O	-0.18578(11)	-0.17444(12)	0.26156(10)	1.0	.
O2B	O	0.51071(13)	0.15343(14)	0.53443(11)	1.0	.
C1B	C	0.15232(16)	0.00434(16)	0.40818(12)	1.0	.
C2B	C	0.11324(16)	-0.03901(16)	0.36720(12)	1.0	.
C3B	C	0.04492(16)	-0.04818(17)	0.36666(13)	1.0	.
H3B	H	0.0247	-0.0264	0.3946	1.0	1
C4B	C	0.00842(16)	-0.08890(17)	0.32532(14)	1.0	1
S5B	S	-0.07592(4)	-0.10499(5)	0.31933(4)	1.0	1
C6B	C	-0.07493(16)	-0.15345(17)	0.25779(13)	1.0	1
C7B	C	-0.0132(2)	-0.1615(3)	0.2444(2)	1.0	1
H7B	H	-0.0046	-0.1889	0.2135	1.0	1
C8B	C	0.03716(16)	-0.12312(17)	0.28315(13)	1.0	1
C9B	C	0.10330(16)	-0.11527(16)	0.28320(13)	1.0	.
H9B	H	0.1225	-0.1378	0.2549	1.0	1
C10B	C	0.14338(15)	-0.07372(16)	0.32514(12)	1.0	.
C11B	C	0.21124(15)	-0.06447(16)	0.32543(12)	1.0	.
C12B	C	0.25075(15)	-0.02148(16)	0.36708(12)	1.0	.
C13B	C	0.31890(15)	-0.01220(17)	0.36809(12)	1.0	.
H13B	H	0.3390	-0.0344	0.3402	1.0	1
C14B	C	0.35616(15)	0.02837(17)	0.40876(12)	1.0	1
C15B	C	0.4253(2)	0.0444(2)	0.42043(18)	1.0	1
H15B	H	0.4544	0.0270	0.3974	1.0	1
C16B	C	0.44658(16)	0.08493(16)	0.46511(12)	1.0	1
S17B	S	0.38219(4)	0.11278(5)	0.49815(4)	1.0	1
C18B	C	0.32637(15)	0.06425(17)	0.45021(12)	1.0	1
C19B	C	0.25991(16)	0.05750(17)	0.44963(12)	1.0	.
H19B	H	0.2403	0.0821	0.4767	1.0	1
C20B	C	0.22026(16)	0.01393(15)	0.40874(12)	1.0	.
C21B	C	0.12150(16)	0.04416(17)	0.44696(13)	1.0	.
C22B	C	0.09559(17)	0.08189(18)	0.47753(14)	1.0	.
C23B	C	0.07558(18)	0.23525(19)	0.45856(16)	1.0	.
H23C	H	0.0548	0.2244	0.4194	1.0	.
H23D	H	0.0554	0.2798	0.4698	1.0	.
C24B	C	0.1494(2)	0.2476(3)	0.4612(2)	1.0	.
H24C	H	0.1713	0.2525	0.5008	1.0	.
H24D	H	0.1687	0.2055	0.4452	1.0	.
C25B	C	0.1621(3)	0.3142(3)	0.4292(2)	1.0	.
H25D	H	0.1388	0.3103	0.3903	1.0	.
H25E	H	0.2095	0.3190	0.4297	1.0	.
H25F	H	0.1461	0.3563	0.4467	1.0	.
C26B	C	0.09577(18)	0.18236(19)	0.57932(15)	1.0	.
H26E	H	0.0907	0.1411	0.6038	1.0	.
H26F	H	0.1435	0.1917	0.5819	1.0	.
C27B	C	0.0621(2)	0.2488(2)	0.59917(17)	1.0	.
H27E	H	0.0620	0.2875	0.5713	1.0	.
H27F	H	0.0157	0.2368	0.6005	1.0	.
C28B	C	0.0949(2)	0.2762(2)	0.65612(16)	1.0	.
H28G	H	0.0977	0.2374	0.6836	1.0	.
H28H	H	0.0689	0.3157	0.6674	1.0	.
H28I	H	0.1394	0.2933	0.6542	1.0	.
C29B	C	-0.03250(17)	0.14323(19)	0.50129(14)	1.0	.
H29C	H	-0.0374	0.1053	0.5287	1.0	.
H29D	H	-0.0527	0.1873	0.5133	1.0	.
C30B	C	-0.07148(19)	0.1210(2)	0.44481(16)	1.0	.
H30C	H	-0.0521	0.0766	0.4325	1.0	.
H30D	H	-0.0676	0.1589	0.4170	1.0	.
C31B	C	-0.14440(19)	0.1082(2)	0.44591(16)	1.0	.
H31D	H	-0.1487	0.0705	0.4731	1.0	.
H31E	H	-0.1670	0.0933	0.4086	1.0	.
H31F	H	-0.1643	0.1525	0.4567	1.0	.
C32B	C	0.24186(15)	-0.09754(17)	0.28397(12)	1.0	.
C33B	C	0.26999(17)	-0.12285(18)	0.24938(13)	1.0	.
C34B	C	0.40561(19)	-0.1687(3)	0.23497(16)	1.0	.
H34C	H	0.4061	-0.2172	0.2514	1.0	.
H34D	H	0.4357	-0.1693	0.2075	1.0	.
C35B	C	0.4322(2)	-0.1170(3)	0.28068(17)	1.0	.
H35E	H	0.4058	-0.1208	0.3108	1.0	.
H35F	H	0.4270	-0.0677	0.2655	1.0	.
C36B	C	0.5045(2)	-0.1295(5)	0.3057(2)	1.0	.
H36G	H	0.5101	-0.1780	0.3211	1.0	.
H36H	H	0.5187	-0.0946	0.3357	1.0	.
H36I	H	0.5313	-0.1238	0.2765	1.0	.
C37B	C	0.31741(16)	-0.07099(18)	0.14796(14)	1.0	.
H37C	H	0.3374	-0.0291	0.1696	1.0	.
H37D	H	0.3447	-0.0822	0.1194	1.0	.
C38B	C	0.24784(17)	-0.05097(18)	0.11806(14)	1.0	.
H38C	H	0.2283	-0.0917	0.0947	1.0	.
H38D	H	0.2198	-0.0411	0.1462	1.0	.
C39B	C	0.24934(19)	0.0143(2)	0.08145(15)	1.0	.
H39D	H	0.2660	0.0554	0.1049	1.0	.
H39E	H	0.2047	0.0246	0.0614	1.0	.
H39F	H	0.2784	0.0052	0.0544	1.0	.
C40B	C	0.2814(2)	-0.2293(2)	0.15752(16)	1.0	.
H40C	H	0.2951	-0.2721	0.1808	1.0	1
H40D	H	0.2330	-0.2248	0.1542	1.0	1
C41B	C	0.2957(3)	-0.2434(3)	0.1001(2)	1.0	1
H41C	H	0.2668	-0.2827	0.0828	1.0	1
H41D	H	0.2846	-0.2001	0.0768	1.0	1
C42B	C	0.3603(3)	-0.2616(4)	0.0998(3)	1.0	1
H42D	H	0.3893	-0.2226	0.1162	1.0	1
H42E	H	0.3663	-0.2698	0.0611	1.0	1
H42F	H	0.3714	-0.3054	0.1218	1.0	1
C43B	C	-0.14224(16)	-0.17990(16)	0.23310(13)	1.0	.
C44B	C	-0.22248(19)	-0.2314(2)	0.15842(15)	1.0	.
H44C	H	-0.2533	-0.1904	0.1513	1.0	.
H44D	H	-0.2385	-0.2652	0.1844	1.0	.
C45B	C	-0.2153(2)	-0.2680(2)	0.10450(16)	1.0	.
H45C	H	-0.2567	-0.2646	0.0766	1.0	.
H45D	H	-0.2037	-0.3191	0.1110	1.0	.
C46B	C	-0.1594(2)	-0.2270(2)	0.08460(16)	1.0	.
H46C	H	-0.1387	-0.2560	0.0584	1.0	.
H46D	H	-0.1753	-0.1813	0.0662	1.0	.
C47B	C	-0.1114(2)	-0.2138(2)	0.13973(15)	1.0	.
H47C	H	-0.0806	-0.2545	0.1489	1.0	.
H47D	H	-0.0857	-0.1694	0.1378	1.0	.
C48B	C	0.51143(17)	0.11384(17)	0.49405(13)	1.0	.
C49B	C	0.58054(18)	0.0469(2)	0.43404(16)	1.0	.
H49C	H	0.5680	0.0677	0.3961	1.0	.
H49D	H	0.5561	0.0016	0.4360	1.0	.
C50B	C	0.6552(2)	0.0354(2)	0.4495(2)	1.0	.
H50C	H	0.6657	-0.0041	0.4769	1.0	.
H50D	H	0.6741	0.0241	0.4158	1.0	.
C51B	C	0.6812(2)	0.1056(2)	0.47474(19)	1.0	.
H51C	H	0.6864	0.1405	0.4452	1.0	.
H51D	H	0.7243	0.0990	0.4998	1.0	.
C52B	C	0.62940(18)	0.1305(2)	0.50741(16)	1.0	.
H52C	H	0.6396	0.1138	0.5467	1.0	.
H52D	H	0.6258	0.1834	0.5070	1.0	.
