data_x05106_config-1
loop_
 _symmetry_equiv_pos_as_xyz
'x, y, z'
'-x, y+1/2, -z+1/2'
'-x, -y, -z'
'x, -y-1/2, z-1/2'

_cell_length_a	6.26360(10)
_cell_length_b	18.0589(3)
_cell_length_c	13.8948(2)
_cell_angle_alpha	90.00
_cell_angle_beta	90.8790(10)
_cell_angle_gamma	90.00
loop_
 _atom_site_label
 _atom_site_type_symbol
 _atom_site_fract_x
 _atom_site_fract_y
 _atom_site_fract_z
 _atom_site_occupancy
 _atom_site_disorder_group
Si1	Si	1.27836(9)	0.79841(3)	0.88945(4)	1.0	.
C1	C	1.0551(3)	0.57379(10)	0.97630(13)	1.0	.
C2	C	0.8694(3)	0.54175(10)	0.93464(13)	1.0	.
C3	C	0.7396(3)	0.58121(11)	0.86728(14)	1.0	.
H3	H	0.7773	0.6305	0.8507	1.0	1
C4	C	0.555(4)	0.5488(15)	0.824(2)	1.0	1
C5	C	0.4155(12)	0.5860(4)	0.7591(5)	1.0	1
H5	H	0.4340	0.6358	0.7390	1.0	1
C6	C	0.2511(7)	0.5416(3)	0.7285(3)	1.0	1
H6	H	0.1454	0.5572	0.6831	1.0	1
Se7	Se	0.25337(8)	0.44708(3)	0.78444(3)	1.0	1
C8	C	0.506(5)	0.4754(17)	0.855(3)	1.0	1
C9	C	0.6250(3)	0.43564(11)	0.91836(14)	1.0	.
H9	H	0.5830	0.3868	0.9352	1.0	1
C10	C	0.8121(3)	0.46687(10)	0.95924(13)	1.0	.
C11	C	1.1125(3)	0.64814(11)	0.95248(14)	1.0	.
C12	C	1.1660(3)	0.71057(11)	0.93287(14)	1.0	.
C13	C	1.5680(4)	0.79867(14)	0.92203(18)	1.0	.
H13A	H	1.6359	0.7549	0.8925	1.0	.
H13B	H	1.6344	0.8434	0.8941	1.0	.
C14	C	1.6148(4)	0.7976(2)	1.0301(2)	1.0	.
H14A	H	1.5674	0.8443	1.0587	1.0	.
H14B	H	1.7687	0.7917	1.0415	1.0	.
H14C	H	1.5386	0.7563	1.0596	1.0	.
C15	C	1.1431(3)	0.87885(11)	0.94674(17)	1.0	.
H15A	H	0.9921	0.8803	0.9246	1.0	.
H15B	H	1.1446	0.8718	1.0174	1.0	.
C16	C	1.2491(4)	0.95305(13)	0.9232(2)	1.0	.
H16A	H	1.3964	0.9530	0.9481	1.0	.
H16B	H	1.1694	0.9934	0.9533	1.0	.
H16C	H	1.2494	0.9602	0.8533	1.0	.
C17	C	1.2440(5)	0.79990(13)	0.75511(17)	1.0	.
H17A	H	1.2488	0.8521	0.7335	1.0	.
H17B	H	1.3677	0.7742	0.7267	1.0	.
C18	C	1.0433(5)	0.76532(14)	0.71470(16)	1.0	.
H18A	H	1.0436	0.7121	0.7288	1.0	.
H18B	H	1.0368	0.7728	0.6449	1.0	.
H18C	H	0.9187	0.7884	0.7442	1.0	.
