data_k04022_config-1
loop_
 _symmetry_equiv_pos_as_xyz
'x, y, z'
'-x, -y, -z'

_cell_length_a	8.33070(10)
_cell_length_b	9.70330(10)
_cell_length_c	10.8771(2)
_cell_angle_alpha	64.6104(7)
_cell_angle_beta	87.9000(7)
_cell_angle_gamma	88.9032(7)
loop_
 _atom_site_label
 _atom_site_type_symbol
 _atom_site_fract_x
 _atom_site_fract_y
 _atom_site_fract_z
 _atom_site_occupancy
 _atom_site_disorder_group
Si1	Si	0.34444(4)	0.34721(4)	0.30367(3)	1.0	.
C1	C	0.47636(15)	0.83827(13)	0.07404(12)	1.0	.
C2	C	0.36183(15)	0.93233(13)	-0.01520(12)	1.0	1
S3	S	0.17987(19)	0.8704(2)	-0.0411(2)	1.0	1
C4	C	0.1298(8)	1.0562(6)	-0.1521(8)	1.0	1
H4	H	0.0310	1.0829	-0.1977	1.0	1
C5	C	0.2444(10)	1.1585(9)	-0.1671(7)	1.0	1
H5	H	0.2341	1.2645	-0.2240	1.0	1
C6	C	0.38437(15)	1.09188(13)	-0.08875(12)	1.0	1
C7	C	0.44892(15)	0.67758(14)	0.14720(13)	1.0	.
C8	C	0.41734(15)	0.54400(14)	0.20673(13)	1.0	.
C10	C	0.50916(15)	0.23278(13)	0.41785(13)	1.0	.
H10	H	0.4635	0.1310	0.4801	1.0	.
C11	C	0.65020(16)	0.20494(17)	0.33613(16)	1.0	.
H11A	H	0.6950	0.3031	0.2715	1.0	.
H11B	H	0.6121	0.1491	0.2862	1.0	.
H11C	H	0.7334	0.1449	0.3985	1.0	.
C12	C	0.56977(17)	0.30679(15)	0.50717(15)	1.0	.
H12A	H	0.6548	0.2432	0.5649	1.0	.
H12B	H	0.4807	0.3159	0.5647	1.0	.
H12C	H	0.6124	0.4084	0.4489	1.0	.
C13	C	0.16508(15)	0.36451(14)	0.40793(13)	1.0	.
H13	H	0.2091	0.3914	0.4791	1.0	.
C14	C	0.07532(16)	0.21368(16)	0.48503(14)	1.0	.
H14A	H	-0.0072	0.2260	0.5461	1.0	.
H14B	H	0.1513	0.1339	0.5384	1.0	.
H14C	H	0.0244	0.1847	0.4198	1.0	.
C15	C	0.04723(17)	0.49298(16)	0.32824(15)	1.0	.
H15A	H	-0.0013	0.4712	0.2577	1.0	.
H15B	H	0.1050	0.5901	0.2855	1.0	.
H15C	H	-0.0372	0.4996	0.3906	1.0	.
C16	C	0.30119(16)	0.27030(14)	0.17585(13)	1.0	.
H16	H	0.4017	0.2853	0.1185	1.0	.
C17	C	0.26873(19)	0.09752(16)	0.24215(16)	1.0	.
H17A	H	0.1684	0.0768	0.2968	1.0	.
H17B	H	0.3576	0.0441	0.3008	1.0	.
H17C	H	0.2596	0.0618	0.1710	1.0	.
C18	C	0.1692(2)	0.35735(19)	0.07815(17)	1.0	.
H18A	H	0.1658	0.3236	0.0053	1.0	.
H18B	H	0.1918	0.4669	0.0386	1.0	.
H18C	H	0.0654	0.3373	0.1279	1.0	.
