data_k04075t_config-1
loop_
 _symmetry_equiv_pos_as_xyz
'x, y, z'
'-x, -y, -z'

_cell_length_a	8.5098(2)
_cell_length_b	11.7480(2)
_cell_length_c	12.9896(4)
_cell_angle_alpha	76.8314(10)
_cell_angle_beta	86.7250(10)
_cell_angle_gamma	68.9497(10)
loop_
 _atom_site_label
 _atom_site_type_symbol
 _atom_site_fract_x
 _atom_site_fract_y
 _atom_site_fract_z
 _atom_site_occupancy
 _atom_site_disorder_group
Si1	Si	0.22390(9)	0.30829(7)	0.31249(6)	1.0	.
C1	C	0.4428(3)	0.0626(2)	0.0840(2)	1.0	.
C2	C	0.6173(3)	-0.0053(2)	0.0776(2)	1.0	.
C3	C	0.7358(4)	-0.0164(2)	0.1542(2)	1.0	.
H3	H	0.6972	0.0215	0.2127	1.0	.
C4	C	0.9066(3)	-0.0809(2)	0.1472(2)	1.0	.
C5	C	1.0265(4)	-0.0938(2)	0.2251(2)	1.0	.
H5	H	0.9897	-0.0599	0.2858	1.0	1
C6	C	1.1938(4)	-0.1545(3)	0.2132(2)	1.0	1
S7	S	1.3586(4)	-0.1791(4)	0.2975(3)	1.0	1
C8	C	1.5041(9)	-0.2562(10)	0.2142(7)	1.0	1
H8	H	1.6219	-0.2898	0.2293	1.0	1
C9	C	1.4338(15)	-0.265(2)	0.1240(15)	1.0	1
H9	H	1.4962	-0.3036	0.0705	1.0	1
C10	C	1.2539(3)	-0.2060(3)	0.1223(2)	1.0	1
C11	C	1.1418(3)	-0.1971(2)	0.0469(2)	1.0	.
H11	H	1.1820	-0.2319	-0.0130	1.0	1
C12	C	0.9668(4)	-0.1368(2)	0.0569(2)	1.0	.
C13	C	0.8486(3)	-0.1298(2)	-0.0168(2)	1.0	.
H13	H	0.8874	-0.1690	-0.0745	1.0	.
C14	C	0.6758(3)	-0.0675(2)	-0.0094(2)	1.0	.
C15	C	0.3842(3)	0.1330(3)	0.1641(2)	1.0	.
C16	C	0.3296(3)	0.2002(2)	0.2262(2)	1.0	.
C17	C	0.0681(3)	0.4527(3)	0.2200(2)	1.0	.
C18	C	0.1535(4)	0.4872(3)	0.1151(2)	1.0	.
H18A	H	0.0726	0.5596	0.0682	1.0	.
H18B	H	0.1913	0.4161	0.0808	1.0	.
H18C	H	0.2506	0.5077	0.1299	1.0	.
C19	C	-0.0856(4)	0.4274(3)	0.1891(2)	1.0	.
H19A	H	-0.1500	0.4116	0.2522	1.0	.
H19B	H	-0.0479	0.3541	0.1574	1.0	.
H19C	H	-0.1571	0.5004	0.1377	1.0	.
C20	C	0.0026(4)	0.5681(3)	0.2702(2)	1.0	.
H20A	H	-0.0760	0.6387	0.2204	1.0	.
H20B	H	0.0978	0.5901	0.2863	1.0	.
H20C	H	-0.0553	0.5486	0.3355	1.0	.
C21	C	0.1146(3)	0.2181(3)	0.4156(2)	1.0	.
C22	C	0.0326(4)	0.1478(3)	0.3622(2)	1.0	.
H22A	H	-0.0160	0.0980	0.4162	1.0	.
H22B	H	0.1182	0.0925	0.3242	1.0	.
H22C	H	-0.0564	0.2083	0.3121	1.0	.
C23	C	-0.0219(4)	0.3036(3)	0.4754(2)	1.0	.
H23A	H	-0.0667	0.2523	0.5307	1.0	.
H23B	H	-0.1133	0.3616	0.4258	1.0	.
H23C	H	0.0274	0.3511	0.5077	1.0	.
C24	C	0.2436(4)	0.1164(3)	0.4970(2)	1.0	.
H24A	H	0.2884	0.1560	0.5410	1.0	.
H24B	H	0.3360	0.0651	0.4600	1.0	.
H24C	H	0.1887	0.0634	0.5420	1.0	.
C25	C	0.3980(4)	0.3436(3)	0.3725(2)	1.0	.
C26	C	0.3389(4)	0.3999(3)	0.4707(2)	1.0	.
H26A	H	0.4320	0.4149	0.4994	1.0	.
H26B	H	0.3033	0.3413	0.5245	1.0	.
H26C	H	0.2441	0.4792	0.4504	1.0	.
C27	C	0.5542(4)	0.2238(3)	0.4050(2)	1.0	.
H27A	H	0.5982	0.1901	0.3425	1.0	.
H27B	H	0.5228	0.1615	0.4572	1.0	.
H27C	H	0.6410	0.2436	0.4359	1.0	.
C28	C	0.4600(4)	0.4364(3)	0.2925(2)	1.0	.
H28A	H	0.3688	0.5180	0.2751	1.0	.
H28B	H	0.4945	0.4049	0.2280	1.0	.
H28C	H	0.5562	0.4451	0.3236	1.0	.
