data_k07484_config-0
loop_
 _symmetry_equiv_pos_as_xyz
'x, y, z'
'-x, -y, -z'

_cell_length_a	8.2357(1)
_cell_length_b	10.3353(2)
_cell_length_c	12.0765(2)
_cell_angle_alpha	103.2930(7)
_cell_angle_beta	103.5831(8)
_cell_angle_gamma	106.0012(7)
loop_
 _atom_site_label
 _atom_site_type_symbol
 _atom_site_fract_x
 _atom_site_fract_y
 _atom_site_fract_z
 _atom_site_occupancy
 _atom_site_disorder_group
Si1	Si	0.32544(5)	0.33601(4)	0.18365(3)	1.0	.
C1	C	0.44996(18)	0.08450(14)	0.42844(12)	1.0	.
C2	C	0.57043(18)	0.01525(14)	0.40963(12)	1.0	.
S3	S	0.67047(5)	0.02357(4)	0.29833(3)	1.0	.
C4	C	0.78651(18)	-0.08411(15)	0.34236(13)	1.0	.
C5	C	0.90664(19)	-0.12563(15)	0.29081(13)	1.0	.
H5	H	0.9291	-0.0978	0.2246	1.0	.
C6	C	0.99234(19)	-0.20812(16)	0.33816(14)	1.0	.
H6	H	1.0753	-0.2364	0.3046	1.0	.
C7	C	0.95788(19)	-0.25018(16)	0.43485(13)	1.0	.
H7	H	1.0172	-0.3072	0.4661	1.0	.
C8	C	0.83821(19)	-0.20954(15)	0.48557(13)	1.0	.
H8	H	0.8158	-0.2386	0.5513	1.0	.
C9	C	0.75017(17)	-0.12552(14)	0.43988(12)	1.0	.
C10	C	0.62290(17)	-0.06806(14)	0.47902(12)	1.0	.
C11	C	0.40903(18)	0.16786(15)	0.35338(13)	1.0	.
C12	C	0.38215(18)	0.23683(15)	0.28726(13)	1.0	.
C13	C	0.36100(19)	0.52041(15)	0.27837(13)	1.0	.
H13	H	0.4885	0.5604	0.3305	1.0	.
C14	C	0.2502(2)	0.52699(18)	0.36378(16)	1.0	.
H14A	H	0.2898	0.6243	0.4177	1.0	.
H14B	H	0.2657	0.4635	0.4112	1.0	.
H14C	H	0.1241	0.4973	0.3171	1.0	.
C15	C	0.3393(2)	0.61926(16)	0.20348(15)	1.0	.
H15A	H	0.2141	0.5888	0.1546	1.0	.
H15B	H	0.4133	0.6158	0.1509	1.0	.
H15C	H	0.3765	0.7165	0.2570	1.0	.
C16	C	0.09075(18)	0.22457(15)	0.08307(13)	1.0	.
H16	H	0.0979	0.1340	0.0366	1.0	.
C17	C	-0.0403(2)	0.18234(17)	0.15081(15)	1.0	.
H17A	H	-0.0607	0.2666	0.1926	1.0	.
H17B	H	0.0094	0.1404	0.2094	1.0	.
H17C	H	-0.1535	0.1130	0.0938	1.0	.
C18	C	0.0133(2)	0.28840(18)	-0.01077(14)	1.0	.
H18A	H	-0.0984	0.2178	-0.0686	1.0	.
H18B	H	0.0987	0.3160	-0.0530	1.0	.
H18C	H	-0.0097	0.3721	0.0294	1.0	.
C19	C	0.48166(19)	0.34433(15)	0.09178(13)	1.0	.
H19	H	0.4399	0.3863	0.0286	1.0	.
C20	C	0.4784(2)	0.19674(17)	0.02753(14)	1.0	.
H20A	H	0.5607	0.2059	-0.0195	1.0	.
H20B	H	0.3575	0.1387	-0.0261	1.0	.
H20C	H	0.5151	0.1513	0.0871	1.0	.
C21	C	0.6731(2)	0.44131(18)	0.16770(16)	1.0	.
H21A	H	0.7156	0.4061	0.2336	1.0	.
H21B	H	0.6752	0.5379	0.2007	1.0	.
H21C	H	0.7506	0.4418	0.1173	1.0	.
