data_x08016t5_config-0
loop_
 _symmetry_equiv_pos_as_xyz
'x, y, z'
'-x, -y, -z'

_cell_length_a	6.3376(6)
_cell_length_b	13.0927(12)
_cell_length_c	23.146(2)
_cell_angle_alpha	87.710(5)
_cell_angle_beta	87.460(5)
_cell_angle_gamma	81.200(5)
loop_
 _atom_site_label
 _atom_site_type_symbol
 _atom_site_fract_x
 _atom_site_fract_y
 _atom_site_fract_z
 _atom_site_occupancy
 _atom_site_disorder_group
Si1B	Si	-0.2099(5)	0.6692(2)	0.56111(12)	1.0	.
C1B	C	0.0236(17)	0.7796(7)	0.3879(4)	1.0	.
Si2B	Si	0.4459(5)	0.9629(2)	0.11113(12)	1.0	.
C2B	C	0.1874(16)	0.8366(8)	0.3875(4)	1.0	.
S3B	S	0.3122(4)	0.8616(2)	0.45011(10)	1.0	.
C4B	C	0.4822(17)	0.9315(8)	0.4101(4)	1.0	.
C5B	C	0.6474(17)	0.9749(8)	0.4332(5)	1.0	.
H5B	H	0.6757	0.9666	0.4733	1.0	.
C6B	C	0.7695(18)	1.0311(8)	0.3955(5)	1.0	.
H6B	H	0.8773	1.0646	0.4104	1.0	.
C7B	C	0.7355(17)	1.0380(8)	0.3380(5)	1.0	.
H7B	H	0.8243	1.0743	0.3133	1.0	.
C8B	C	0.5752(16)	0.9939(8)	0.3141(5)	1.0	.
H8B	H	0.5513	1.0014	0.2739	1.0	.
C9B	C	0.4502(16)	0.9382(7)	0.3507(4)	1.0	.
C10B	C	0.2751(16)	0.8812(7)	0.3378(4)	1.0	.
C11B	C	0.1939(16)	0.8644(7)	0.2839(4)	1.0	.
C12B	C	0.0305(16)	0.8077(8)	0.2844(4)	1.0	.
S13B	S	-0.0899(4)	0.7798(2)	0.22095(11)	1.0	.
C14B	C	-0.2633(18)	0.7110(8)	0.2605(4)	1.0	.
C15B	C	-0.4195(19)	0.6641(9)	0.2376(5)	1.0	.
H15B	H	-0.4383	0.6666	0.1971	1.0	.
C16B	C	-0.5487(19)	0.6131(9)	0.2749(5)	1.0	.
H16B	H	-0.6554	0.5794	0.2597	1.0	.
C17B	C	-0.5246(19)	0.6107(8)	0.3338(5)	1.0	.
H17B	H	-0.6189	0.5777	0.3586	1.0	.
C18B	C	-0.3661(18)	0.6553(8)	0.3575(5)	1.0	.
H18B	H	-0.3471	0.6504	0.3981	1.0	.
C19B	C	-0.2338(16)	0.7078(8)	0.3211(4)	1.0	.
C20B	C	-0.0618(16)	0.7635(7)	0.3342(4)	1.0	.
C21B	C	-0.0606(16)	0.7396(8)	0.4421(4)	1.0	.
C22B	C	-0.1106(17)	0.7148(8)	0.4891(4)	1.0	.
C23B	C	-0.487(2)	0.6399(11)	0.5548(5)	1.0	.
H23A	H	-0.4874	0.5892	0.5248	1.0	.
H23B	H	-0.5821	0.7035	0.5445	1.0	.
H23C	H	-0.5361	0.6115	0.5920	1.0	.
C24B	C	-0.031(2)	0.5519(9)	0.5846(5)	1.0	.
H24A	H	-0.0512	0.4941	0.5609	1.0	.
H24B	H	-0.0634	0.5353	0.6254	1.0	.
H24C	H	0.1181	0.5641	0.5800	1.0	.
C25B	C	-0.203(2)	0.7731(9)	0.6124(5)	1.0	.
H25A	H	-0.2664	0.7538	0.6500	1.0	.
H25B	H	-0.2854	0.8375	0.5974	1.0	.
H25C	H	-0.0551	0.7830	0.6171	1.0	.
C26B	C	0.2733(17)	0.9034(8)	0.2300(4)	1.0	.
C27B	C	0.3371(17)	0.9303(8)	0.1831(4)	1.0	.
C28B	C	0.211(2)	1.0025(10)	0.0645(5)	1.0	.
H28A	H	0.1155	0.9501	0.0683	1.0	.
H28B	H	0.2607	1.0090	0.0241	1.0	.
H28C	H	0.1333	1.0692	0.0768	1.0	.
C29B	C	0.6137(19)	0.8460(9)	0.0828(5)	1.0	.
H29A	H	0.7583	0.8409	0.0971	1.0	.
H29B	H	0.6198	0.8506	0.0404	1.0	.
H29C	H	0.5517	0.7845	0.0959	1.0	.
C30B	C	0.607(2)	1.0666(9)	0.1182(6)	1.0	.
H30A	H	0.5215	1.1246	0.1380	1.0	.
H30B	H	0.6540	1.0902	0.0797	1.0	.
H30C	H	0.7328	1.0404	0.1408	1.0	.
Si1A	Si	0.8624(5)	0.3391(2)	0.22149(12)	1.0	.
C1A	C	0.5834(15)	0.4705(8)	0.0555(4)	1.0	.
C2A	C	0.4116(16)	0.4278(8)	0.0345(4)	1.0	.
S3A	S	0.2851(4)	0.3387(2)	0.07290(11)	1.0	.
C4A	C	0.1102(18)	0.3349(8)	0.0163(4)	1.0	.
C5A	C	-0.0488(18)	0.2748(9)	0.0173(5)	1.0	.
H5A	H	-0.0733	0.2313	0.0499	1.0	.
C6A	C	-0.1743(18)	0.2795(8)	-0.0314(5)	1.0	.
H6A	H	-0.2902	0.2413	-0.0315	1.0	.
C7A	C	-0.1284(18)	0.3400(9)	-0.0790(5)	1.0	.
H7A	H	-0.2089	0.3391	-0.1126	1.0	.
C8A	C	0.0289(17)	0.4013(8)	-0.0798(4)	1.0	.
H8A	H	0.0527	0.4443	-0.1128	1.0	.
C9A	C	0.1567(17)	0.3996(8)	-0.0303(4)	1.0	.
C10A	C	0.3290(16)	0.4565(7)	-0.0205(4)	1.0	.
C11A	C	0.6637(17)	0.4337(8)	0.1105(4)	1.0	.
C12A	C	0.7325(18)	0.3946(8)	0.1556(5)	1.0	.
C13A	C	1.041(2)	0.4283(9)	0.2426(5)	1.0	.
H13A	H	1.1417	0.4389	0.2102	1.0	.
H13B	H	1.1209	0.3987	0.2762	1.0	.
H13C	H	0.9565	0.4947	0.2525	1.0	.
C14A	C	0.657(2)	0.3214(9)	0.2781(5)	1.0	.
H14A	H	0.5702	0.3882	0.2860	1.0	.
H14B	H	0.7264	0.2928	0.3135	1.0	.
H14C	H	0.5657	0.2736	0.2650	1.0	.
C15A	C	1.0209(19)	0.2121(9)	0.2050(5)	1.0	.
H15A	H	0.9271	0.1667	0.1907	1.0	.
H15C	H	1.0873	0.1808	0.2403	1.0	.
H15D	H	1.1324	0.2216	0.1755	1.0	.
