data_x05108_config-1
loop_
 _symmetry_equiv_pos_as_xyz
'x, y, z'
'-x, -y, -z'

_cell_length_a	8.87380(1)
_cell_length_b	10.41360(1)
_cell_length_c	11.17370(1)
_cell_angle_alpha	67.9770(1)
_cell_angle_beta	82.5880(1)
_cell_angle_gamma	77.5300(1)
loop_
 _atom_site_label
 _atom_site_type_symbol
 _atom_site_fract_x
 _atom_site_fract_y
 _atom_site_fract_z
 _atom_site_occupancy
 _atom_site_disorder_group
Si1	Si	0.04211(9)	-0.38898(8)	-0.27866(7)	1.0	.
C1	C	0.0058(3)	-0.0839(3)	-0.0757(3)	1.0	.
C2	C	0.1291(3)	-0.0120(3)	-0.0886(3)	1.0	.
C3	C	0.2580(4)	-0.0222(3)	-0.1755(3)	1.0	.
H3	H	0.2627	-0.0773	-0.2275	1.0	1
C4	C	0.3760(3)	0.0476(3)	-0.1848(3)	1.0	1
Se5	Se	0.55785(7)	0.05002(6)	-0.29387(6)	1.0	1
C6	C	0.6140(6)	0.1659(5)	-0.2178(5)	1.0	1
H6	H	0.7085	0.2004	-0.2393	1.0	1
C7	C	0.5052(9)	0.1952(10)	-0.1286(9)	1.0	1
H7	H	0.5174	0.2535	-0.0837	1.0	1
C8	C	0.3715(3)	0.1317(3)	-0.1075(3)	1.0	1
C9	C	0.2466(3)	0.1442(3)	-0.0235(3)	1.0	.
H9	H	0.2432	0.2010	0.0266	1.0	1
C10	C	0.1226(3)	0.0730(3)	-0.0110(3)	1.0	.
C11	C	0.0144(3)	-0.1736(3)	-0.1481(3)	1.0	.
C12	C	0.0247(3)	-0.2553(3)	-0.2035(3)	1.0	.
C13	C	-0.0665(4)	-0.5299(3)	-0.1669(3)	1.0	.
H13	H	0.0034	-0.5899	-0.0954	1.0	.
C14	C	-0.2173(4)	-0.4772(4)	-0.1013(3)	1.0	.
H14A	H	-0.2901	-0.4161	-0.1674	1.0	.
H14B	H	-0.1953	-0.4241	-0.0515	1.0	.
H14C	H	-0.2628	-0.5579	-0.0433	1.0	.
C15	C	-0.0954(5)	-0.6284(4)	-0.2314(3)	1.0	.
H15A	H	-0.1394	-0.7066	-0.1668	1.0	.
H15B	H	0.0025	-0.6657	-0.2686	1.0	.
H15C	H	-0.1678	-0.5759	-0.3001	1.0	.
C16	C	-0.0408(4)	-0.2967(3)	-0.4427(3)	1.0	.
H16	H	-0.0324	-0.3694	-0.4827	1.0	.
C17	C	-0.2112(4)	-0.2301(4)	-0.4375(4)	1.0	.
H17A	H	-0.2250	-0.1629	-0.3930	1.0	.
H17B	H	-0.2720	-0.3039	-0.3904	1.0	.
H17C	H	-0.2461	-0.1809	-0.5256	1.0	.
C18	C	0.0537(5)	-0.1867(4)	-0.5311(3)	1.0	.
H18A	H	0.0084	-0.1404	-0.6157	1.0	.
H18B	H	0.1604	-0.2330	-0.5417	1.0	.
H18C	H	0.0528	-0.1162	-0.4924	1.0	.
C19	C	0.2543(4)	-0.4704(3)	-0.2898(3)	1.0	.
H19	H	0.2750	-0.5490	-0.2050	1.0	.
C20	C	0.2910(4)	-0.5389(4)	-0.3925(3)	1.0	.
H20A	H	0.2732	-0.4662	-0.4783	1.0	.
H20B	H	0.2241	-0.6079	-0.3758	1.0	.
H20C	H	0.3994	-0.5863	-0.3891	1.0	.
C21	C	0.3681(4)	-0.3727(4)	-0.3059(4)	1.0	.
H21A	H	0.4737	-0.4271	-0.2973	1.0	.
H21B	H	0.3438	-0.3305	-0.2390	1.0	.
H21C	H	0.3598	-0.2981	-0.3915	1.0	.
