data_x08035_config-0
loop_
 _symmetry_equiv_pos_as_xyz
'x, y, z'
'-x, y+1/2, -z+1/2'
'-x, -y, -z'
'x, -y-1/2, z-1/2'

_cell_length_a	6.4355(7)
_cell_length_b	20.067(2)
_cell_length_c	12.0940(13)
_cell_angle_alpha	90.00
_cell_angle_beta	92.200(6)
_cell_angle_gamma	90.00
loop_
 _atom_site_label
 _atom_site_type_symbol
 _atom_site_fract_x
 _atom_site_fract_y
 _atom_site_fract_z
 _atom_site_occupancy
 _atom_site_disorder_group
Si1	Si	-0.28690(16)	0.68298(5)	0.84353(8)	1.0	.
C1	C	-0.0730(5)	0.54439(16)	0.5809(3)	1.0	.
C2	C	0.1076(5)	0.50751(16)	0.5977(3)	1.0	.
S3	S	0.26282(13)	0.51143(4)	0.71908(7)	1.0	.
C4	C	0.4377(5)	0.45485(17)	0.6651(3)	1.0	.
C5	C	0.6189(6)	0.43264(18)	0.7189(3)	1.0	.
H5	H	0.6552	0.4471	0.7919	1.0	.
C6	C	0.7450(6)	0.38917(18)	0.6645(3)	1.0	.
H6	H	0.8705	0.3740	0.6999	1.0	.
C7	C	0.6912(6)	0.36729(18)	0.5588(3)	1.0	.
H7	H	0.7803	0.3374	0.5224	1.0	.
C8	C	0.5095(5)	0.38846(17)	0.5055(3)	1.0	.
H8	H	0.4735	0.3730	0.4330	1.0	.
C9	C	0.3788(5)	0.43268(17)	0.5585(3)	1.0	.
C10	C	0.1860(5)	0.46336(17)	0.5197(3)	1.0	.
C11	C	-0.1376(5)	0.58912(17)	0.6661(3)	1.0	.
C12	C	-0.1843(6)	0.62678(18)	0.7387(3)	1.0	.
C13	C	-0.1332(6)	0.7609(2)	0.8461(4)	1.0	.
H13A	H	0.0135	0.7505	0.8626	1.0	.
H13B	H	-0.1844	0.7907	0.9032	1.0	.
H13C	H	-0.1473	0.7828	0.7738	1.0	.
C14	C	-0.5625(7)	0.7003(2)	0.8018(4)	1.0	.
H14A	H	-0.5697	0.7188	0.7268	1.0	.
H14B	H	-0.6204	0.7325	0.8533	1.0	.
H14C	H	-0.6426	0.6588	0.8035	1.0	.
C15	C	-0.2636(7)	0.6393(2)	0.9813(3)	1.0	.
C16	C	-0.0367(9)	0.6291(3)	1.0162(4)	1.0	.
H16A	H	-0.0275	0.6036	1.0853	1.0	.
H16B	H	0.0303	0.6726	1.0276	1.0	.
H16C	H	0.0335	0.6047	0.9582	1.0	.
C17	C	-0.3703(10)	0.6827(3)	1.0675(4)	1.0	.
H17A	H	-0.5167	0.6892	1.0447	1.0	.
H17B	H	-0.3006	0.7260	1.0730	1.0	.
H17C	H	-0.3615	0.6604	1.1397	1.0	.
C18	C	-0.3726(9)	0.5722(2)	0.9744(4)	1.0	.
H18A	H	-0.3043	0.5438	0.9208	1.0	.
H18B	H	-0.5185	0.5787	0.9507	1.0	.
H18C	H	-0.3654	0.5508	1.0473	1.0	.
