data_x13009sx_config-1
loop_
 _symmetry_equiv_pos_as_xyz
'x, y, z'
'-x, -y, -z'

_cell_length_a	9.0185(2)
_cell_length_b	11.1498(2)
_cell_length_c	13.6960(3)
_cell_angle_alpha	84.062(1)
_cell_angle_beta	89.316(1)
_cell_angle_gamma	81.541(1)
loop_
 _atom_site_label
 _atom_site_type_symbol
 _atom_site_fract_x
 _atom_site_fract_y
 _atom_site_fract_z
 _atom_site_occupancy
 _atom_site_disorder_group
Si1	Si	0.51241(12)	0.86219(9)	0.78360(8)	1.0	.
C1	C	0.5014(4)	0.5889(3)	0.5670(2)	1.0	.
C2	C	0.6222(4)	0.5685(3)	0.5010(2)	1.0	.
C3	C	0.7451(4)	0.6321(3)	0.5001(2)	1.0	.
H3	H	0.7467	0.6913	0.5452	1.0	.
C4	C	0.8649(4)	0.6122(3)	0.4362(2)	1.0	.
C5	C	0.9893(4)	0.6764(3)	0.4369(3)	1.0	.
H5	H	0.9925	0.7350	0.4822	1.0	1
C6	C	1.1040(4)	0.6543(3)	0.3731(3)	1.0	1
S7	S	1.2649(3)	0.7237(2)	0.35755(19)	1.0	1
C8	C	1.3255(8)	0.6313(7)	0.2643(6)	1.0	1
F1	F	1.4586(4)	0.6456(4)	0.2244(3)	1.0	1
C9	C	1.233(2)	0.553(2)	0.2438(16)	1.0	1
H9	H	1.2525	0.4966	0.1961	1.0	1
C10	C	1.1018(4)	0.5659(3)	0.3035(3)	1.0	1
C11	C	0.9841(4)	0.5024(3)	0.3009(3)	1.0	.
H11	H	0.9835	0.4443	0.2549	1.0	1
C12	C	0.8622(4)	0.5230(3)	0.3666(2)	1.0	.
C13	C	0.7407(4)	0.4593(3)	0.3671(2)	1.0	.
H13	H	0.7391	0.4007	0.3216	1.0	.
C14	C	0.6205(4)	0.4781(3)	0.4323(2)	1.0	.
C15	C	0.5024(4)	0.6786(3)	0.6347(3)	1.0	.
C16	C	0.5039(4)	0.7528(3)	0.6922(3)	1.0	.
C17	C	0.4650(11)	0.7843(14)	0.904(3)	1.0	1
H17	H	0.4496	0.8487	0.9506	1.0	1
C18	C	0.3119(8)	0.7404(8)	0.8951(5)	1.0	1
H18A	H	0.2396	0.8095	0.8651	1.0	1
H18B	H	0.3226	0.6761	0.8498	1.0	1
C19	C	0.2463(10)	0.6904(9)	0.9916(6)	1.0	1
H19A	H	0.2342	0.7540	1.0376	1.0	1
H19B	H	0.3164	0.6200	1.0217	1.0	1
C20	C	0.0929(13)	0.6500(13)	0.9745(10)	1.0	1
H20A	H	0.0141	0.7210	0.9723	1.0	1
H20B	H	0.0725	0.5896	1.0282	1.0	1
H20C	H	0.0945	0.6140	0.9121	1.0	1
C21	C	0.5871(14)	0.6853(15)	0.9507(9)	1.0	1
H21A	H	0.5660	0.6680	1.0207	1.0	1
H21B	H	0.6848	0.7137	0.9430	1.0	1
H21C	H	0.5886	0.6110	0.9180	1.0	1
C22	C	0.3650(6)	0.9988(4)	0.7486(3)	1.0	.
H22	H	0.2668	0.9671	0.7496	1.0	.
C23	C	0.3524(8)	1.0915(5)	0.8239(4)	1.0	.
H23A	H	0.3427	1.0474	0.8896	1.0	.
H23B	H	0.4477	1.1258	0.8235	1.0	.
C24	C	0.2287(8)	1.1938(6)	0.8112(6)	1.0	.
H24A	H	0.2269	1.2323	0.7427	1.0	.
H24B	H	0.2441	1.2559	0.8553	1.0	.
C25	C	0.0841(9)	1.1490(7)	0.8344(6)	1.0	.
H25A	H	0.0526	1.1101	0.7787	1.0	.
H25B	H	0.0078	1.2177	0.8471	1.0	.
H25C	H	0.0963	1.0896	0.8928	1.0	.
C26	C	0.3837(7)	1.0568(5)	0.6451(4)	1.0	.
H26A	H	0.2989	1.1210	0.6284	1.0	.
H26B	H	0.3873	0.9947	0.5991	1.0	.
H26C	H	0.4772	1.0921	0.6408	1.0	.
C27	C	0.6997(11)	0.9162(10)	0.7706(8)	1.0	1
H27	H	0.6975	0.9839	0.7165	1.0	1
C28	C	0.8249(8)	0.8138(7)	0.7550(7)	1.0	1
H28A	H	0.7930	0.7673	0.7033	1.0	1
H28B	H	0.8379	0.7580	0.8164	1.0	1
C29	C	0.9789(11)	0.8514(14)	0.7259(10)	1.0	1
H29A	H	1.0213	0.8857	0.7814	1.0	1
H29B	H	1.0490	0.7790	0.7103	1.0	1
C30	C	0.9601(16)	0.9470(11)	0.6360(10)	1.0	1
H30A	H	0.9225	0.9115	0.5804	1.0	1
H30B	H	1.0572	0.9730	0.6190	1.0	1
H30C	H	0.8886	1.0176	0.6513	1.0	1
C31	C	0.755(4)	0.9572(19)	0.8725(13)	1.0	1
H31A	H	0.7676	0.8870	0.9226	1.0	1
H31B	H	0.6807	1.0218	0.8946	1.0	1
H31C	H	0.8515	0.9877	0.8620	1.0	1
