data_x17079_config-1
loop_
 _symmetry_equiv_pos_as_xyz
'x, y, z'
'-x, -y, -z'

_cell_length_a	7.9881(2)
_cell_length_b	11.5993(3)
_cell_length_c	13.0399(3)
_cell_angle_alpha	91.329(1)
_cell_angle_beta	106.459(1)
_cell_angle_gamma	106.815(1)
loop_
 _atom_site_label
 _atom_site_type_symbol
 _atom_site_fract_x
 _atom_site_fract_y
 _atom_site_fract_z
 _atom_site_occupancy
 _atom_site_disorder_group
Si1	Si	0.02409(9)	0.24054(5)	0.88544(5)	1.0	.
C1	C	0.0175(3)	0.43776(19)	0.59503(18)	1.0	.
C2	C	0.1727(3)	0.5107(2)	0.56969(18)	1.0	1
S3	S	0.39699(10)	0.53390(7)	0.64676(6)	1.0	1
C4	C	0.4747(4)	0.6296(17)	0.5552(11)	1.0	1
C5	C	0.3328(7)	0.6382(5)	0.4733(4)	1.0	1
H5	H	0.350730	0.685852	0.416781	1.0	1
C6	C	0.1541(3)	0.57151(19)	0.47659(17)	1.0	1
C7	C	0.6686(4)	0.6853(3)	0.5749(3)	1.0	1
S8	S	0.73946(9)	0.78992(6)	0.48904(6)	1.0	1
C9	C	0.9694(5)	0.8127(2)	0.5594(2)	1.0	1
C10	C	1.1213(6)	0.8906(3)	0.5368(4)	1.0	1
H10	H	1.106448	0.937956	0.478340	1.0	1
C11	C	1.2926(6)	0.8963(5)	0.6019(4)	1.0	1
H11	H	1.397835	0.949037	0.588461	1.0	1
C12	C	1.3155(6)	0.8258(5)	0.6880(5)	1.0	1
H12	H	1.435496	0.830853	0.731537	1.0	1
C13	C	1.1648(4)	0.7493(4)	0.7096(4)	1.0	1
H13	H	1.180736	0.701642	0.767723	1.0	1
C14	C	0.9884(4)	0.7423(3)	0.6455(3)	1.0	1
C15	C	0.8135(5)	0.6705(3)	0.6516(3)	1.0	1
H15	H	0.800063	0.616924	0.704800	1.0	1
C16	C	0.0315(3)	0.3778(2)	0.68966(18)	1.0	.
C17	C	0.0340(3)	0.3268(2)	0.76942(19)	1.0	.
C18	C	-0.1761(3)	0.2560(2)	0.92879(19)	1.0	.
H18	H	-0.129263	0.333736	0.977451	1.0	.
C19	C	-0.3366(4)	0.2666(2)	0.8361(2)	1.0	.
H19A	H	-0.391235	0.190646	0.787744	1.0	.
H19B	H	-0.292091	0.333282	0.796088	1.0	.
H19C	H	-0.429213	0.282827	0.865000	1.0	.
C20	C	-0.2427(4)	0.1552(3)	0.9956(2)	1.0	.
H20A	H	-0.338072	0.171377	1.021869	1.0	.
H20B	H	-0.139456	0.152984	1.056916	1.0	.
H20C	H	-0.293220	0.076956	0.950560	1.0	.
C21	C	-0.0049(3)	0.0794(2)	0.83775(18)	1.0	.
H21	H	-0.009099	0.030871	0.899897	1.0	.
C22	C	-0.1841(4)	0.0227(2)	0.7470(2)	1.0	.
H22A	H	-0.189457	0.073464	0.687839	1.0	.
H22B	H	-0.288447	0.016954	0.774172	1.0	.
H22C	H	-0.189310	-0.058526	0.720891	1.0	.
C23	C	0.1601(4)	0.0719(2)	0.8023(2)	1.0	.
H23A	H	0.141567	-0.012420	0.777086	1.0	.
H23B	H	0.272372	0.101077	0.863417	1.0	.
H23C	H	0.171556	0.122309	0.743853	1.0	.
C24	C	0.2509(3)	0.3093(2)	0.99169(19)	1.0	.
H24	H	0.347717	0.313263	0.956036	1.0	.
C25	C	0.2870(4)	0.2338(2)	1.0856(2)	1.0	.
H25A	H	0.411613	0.271316	1.134154	1.0	.
H25B	H	0.274489	0.151527	1.057680	1.0	.
H25C	H	0.198120	0.230134	1.124955	1.0	.
C26	C	0.2791(4)	0.4405(2)	1.0345(2)	1.0	.
H26A	H	0.193736	0.440603	1.075663	1.0	.
H26B	H	0.255985	0.488121	0.973903	1.0	.
H26C	H	0.405485	0.476332	1.081275	1.0	.
