data_k01066_config-2
loop_
 _symmetry_equiv_pos_as_xyz
'x, y, z'
'-x, -y, -z'

_cell_length_a	7.204(2)
_cell_length_b	9.994(3)
_cell_length_c	11.326(3)
_cell_angle_alpha	80.810(10)
_cell_angle_beta	89.130(10)
_cell_angle_gamma	82.210(10)
loop_
 _atom_site_label
 _atom_site_type_symbol
 _atom_site_fract_x
 _atom_site_fract_y
 _atom_site_fract_z
 _atom_site_occupancy
 _atom_site_disorder_group
Si	Si	0.27490(10)	0.81977(8)	0.38323(6)	1.0	.
C1	C	0.4587(3)	0.5718(2)	0.0979(2)	1.0	.
C2	C	0.3423(3)	0.4757(2)	0.0738(2)	1.0	.
C3	C	0.1836(3)	0.4500(2)	0.1429(2)	1.0	.
H3	H	0.1552	0.4977	0.2084	1.0	.
C4	C	0.0672(3)	0.3582(2)	0.1196(2)	1.0	.
C5	C	-0.0954(3)	0.3342(3)	0.1888(2)	1.0	.
H5	H	-0.1251	0.3821	0.2541	1.0	.
C6	C	-0.2080(3)	0.2450(3)	0.1635(2)	1.0	.
H6	H	-0.3163	0.2315	0.2104	1.0	.
C7	C	-0.1656(3)	0.1709(3)	0.0669(2)	1.0	.
H7	H	-0.2452	0.1077	0.0503	1.0	.
C8	C	-0.0131(3)	0.1897(2)	-0.0013(2)	1.0	.
H8	H	0.0133	0.1392	-0.0652	1.0	.
C9	C	0.1099(3)	0.2845(2)	0.0211(2)	1.0	.
C10	C	0.2655(3)	0.3081(2)	-0.0476(2)	1.0	.
H10	H	0.2935	0.2587	-0.1121	1.0	.
C11	C	0.3844(3)	0.4022(2)	-0.0259(2)	1.0	.
C12	C	0.4132(3)	0.6454(2)	0.1952(2)	1.0	.
C13	C	0.3689(3)	0.7090(3)	0.2763(2)	1.0	.
C14	C	0.2412(4)	0.9978(3)	0.2984(2)	1.0	.
H14A	H	0.1275	1.0098	0.2478	1.0	.
H14B	H	0.2194	1.0629	0.3561	1.0	.
C15	C	0.4055(4)	1.0334(3)	0.2195(3)	1.0	.
H15A	H	0.3832	1.1303	0.1839	1.0	.
H15B	H	0.4188	0.9769	0.1559	1.0	.
H15C	H	0.5205	1.0160	0.2679	1.0	.
C16	C	0.4442(4)	0.8094(3)	0.5082(2)	1.0	.
H16A	H	0.5540	0.8526	0.4758	1.0	.
H16B	H	0.3842	0.8646	0.5671	1.0	.
C17	C	0.5147(4)	0.6668(3)	0.5744(2)	1.0	.
H17A	H	0.6007	0.6740	0.6386	1.0	.
H17B	H	0.5806	0.6119	0.5184	1.0	.
H17C	H	0.4082	0.6229	0.6087	1.0	.
C18	C	0.0514(4)	0.7618(4)	0.4401(3)	1.0	.
C19'	C	0.020(2)	0.6211(6)	0.4631(11)	1.0	2
H19D	H	-0.0628	0.6034	0.4011	1.0	2
H19E	H	-0.0386	0.6020	0.5416	1.0	2
H19F	H	0.1399	0.5618	0.4623	1.0	2
