data_k01071_config-0
loop_
 _symmetry_equiv_pos_as_xyz
'x, y, z'
'-x, -y, -z'

_cell_length_a	5.8330(12)
_cell_length_b	10.146(2)
_cell_length_c	11.642(2)
_cell_angle_alpha	76.25(3)
_cell_angle_beta	76.93(3)
_cell_angle_gamma	84.99(3)
loop_
 _atom_site_label
 _atom_site_type_symbol
 _atom_site_fract_x
 _atom_site_fract_y
 _atom_site_fract_z
 _atom_site_occupancy
 _atom_site_disorder_group
Si	Si	0.09845(10)	0.76491(5)	0.88104(5)	1.0	.
C1	C	-0.0040(3)	0.57069(18)	0.59247(16)	1.0	.
C2	C	0.1594(3)	0.45983(18)	0.57962(16)	1.0	.
C3	C	0.3194(3)	0.41787(18)	0.65646(16)	1.0	.
H3	H	0.3175	0.4647	0.7183	1.0	.
C4	C	0.4798(3)	0.31024(18)	0.64467(16)	1.0	.
C5	C	0.6447(3)	0.2694(2)	0.72186(17)	1.0	.
H5	H	0.6443	0.3163	0.7835	1.0	.
C6	C	0.8016(3)	0.1645(2)	0.70810(18)	1.0	.
H6	H	0.9097	0.1386	0.7602	1.0	.
C7	C	0.8057(3)	0.09292(19)	0.61629(18)	1.0	.
H7	H	0.9153	0.0190	0.6083	1.0	.
C8	C	0.6553(3)	0.12902(18)	0.54033(17)	1.0	.
H8	H	0.6622	0.0808	0.4789	1.0	.
C9	C	0.4854(3)	0.23890(18)	0.55102(16)	1.0	.
C10	C	0.3283(3)	0.27906(18)	0.47494(17)	1.0	.
H10	H	0.3313	0.2314	0.4135	1.0	.
C11	C	0.1638(3)	0.38845(18)	0.48572(16)	1.0	.
C12	C	-0.0016(3)	0.64029(18)	0.68550(17)	1.0	.
C13	C	0.0170(3)	0.69470(18)	0.76445(17)	1.0	.
C14	C	0.3009(4)	0.9054(2)	0.80478(19)	1.0	.
H14A	H	0.4499	0.8687	0.7639	1.0	.
H14B	H	0.3309	0.9510	0.8650	1.0	.
H14C	H	0.2292	0.9706	0.7451	1.0	.
C15	C	0.2599(5)	0.6274(2)	0.9709(2)	1.0	.
H15A	H	0.1528	0.5541	1.0150	1.0	.
H15B	H	0.3207	0.6636	1.0286	1.0	.
H15C	H	0.3914	0.5918	0.9165	1.0	.
C16	C	-0.1683(4)	0.8243(3)	0.9785(2)	1.0	.
H16A	H	-0.2495	0.8973	0.9293	1.0	.
H16B	H	-0.1227	0.8584	1.0419	1.0	.
H16C	H	-0.2739	0.7486	1.0159	1.0	.
