data_k01074_config-0
loop_
 _symmetry_equiv_pos_as_xyz
'+x,+y,+z'
'-x,-y,-z'

_cell_length_a	7.2460(10)
_cell_length_b	10.1790(10)
_cell_length_c	11.6690(10)
_cell_angle_alpha	105.7160(100)
_cell_angle_beta	102.0070(100)
_cell_angle_gamma	93.6090(100)
loop_
 _atom_site_label
 _atom_site_type_symbol
 _atom_site_fract_x
 _atom_site_fract_y
 _atom_site_fract_z
 _atom_site_occupancy
 _atom_site_disorder_group
C1	C	0.0021	0.5683	0.4087	1.0	.
C2	C	0.1317	0.4719	0.4233	1.0	.
C3	C	0.2663	0.4434	0.3514	1.0	.
C4	C	0.3952	0.3512	0.3660	1.0	.
C5	C	0.5353	0.3248	0.2955	1.0	.
C6	C	0.6616	0.2358	0.3134	1.0	.
C7	C	0.6571	0.1652	0.4027	1.0	.
C8	C	0.5265	0.1860	0.4711	1.0	.
C9	C	0.3912	0.2803	0.4571	1.0	.
C10	C	0.2587	0.3068	0.5284	1.0	.
C11	C	0.1290	0.4019	0.5156	1.0	.
C12	C	0.0070	0.6383	0.3177	1.0	.
C13	C	0.0151	0.6972	0.2414	1.0	.
C14	C	0.2774	0.7711	0.0912	1.0	.
C15	C	0.3258	0.8787	0.0283	1.0	.
C16	C	0.2534	0.6276	0.0017	1.0	.
C17	C	0.4412	0.7818	0.2011	1.0	.
C18	C	0.0623	0.9860	0.2366	1.0	.
C19	C	-0.1531	0.7641	0.0056	1.0	.
H3	H	0.2686	0.4892	0.2906	1.0	.
H5	H	0.5398	0.3704	0.2349	1.0	.
H6	H	0.7542	0.2204	0.2659	1.0	.
H7	H	0.7466	0.1029	0.4144	1.0	.
H8	H	0.5245	0.1371	0.5297	1.0	.
H10	H	0.2557	0.2591	0.5878	1.0	.
H15A	H	0.4367	0.8567	-0.0056	1.0	.
H15B	H	0.3545	0.9701	0.0883	1.0	.
H15C	H	0.2170	0.8781	-0.0378	1.0	.
H16A	H	0.1545	0.6216	-0.0717	1.0	.
H16B	H	0.2164	0.5592	0.0406	1.0	.
H16C	H	0.3739	0.6096	-0.0215	1.0	.
H17A	H	0.4099	0.7151	0.2432	1.0	.
H17B	H	0.4612	0.8750	0.2578	1.0	.
H17C	H	0.5575	0.7621	0.1728	1.0	.
H18A	H	-0.0562	0.9988	0.2638	1.0	.
H18B	H	0.0800	1.0483	0.1877	1.0	.
H18C	H	0.1696	1.0063	0.3082	1.0	.
H19A	H	-0.1632	0.6670	-0.0407	1.0	.
H19B	H	-0.1320	0.8219	-0.0466	1.0	.
H19C	H	-0.2710	0.7821	0.0322	1.0	.
SI	Si	0.0501	0.8049	0.1420	1.0	.
