data_k02202_config-0
loop_
 _symmetry_equiv_pos_as_xyz
'x, y, z'
'-x, -y, -z'

_cell_length_a	6.1320(2)
_cell_length_b	14.9184(5)
_cell_length_c	15.4853(6)
_cell_angle_alpha	95.324(2)
_cell_angle_beta	100.997(2)
_cell_angle_gamma	100.363(2)
loop_
 _atom_site_label
 _atom_site_type_symbol
 _atom_site_fract_x
 _atom_site_fract_y
 _atom_site_fract_z
 _atom_site_occupancy
 _atom_site_disorder_group
Si1A	Si	0.33551(10)	0.83493(4)	0.35462(4)	1.0	.
Cl1A	Cl	0.77525(9)	0.82109(4)	0.47340(4)	1.0	.
C1A	C	0.0657(3)	0.58043(13)	0.46192(13)	1.0	.
C2A	C	-0.1576(3)	0.52817(13)	0.43188(13)	1.0	.
C3A	C	-0.3170(3)	0.55300(13)	0.36442(13)	1.0	.
H3A	H	-0.2735	0.6067	0.3382	1.0	.
C4A	C	-0.5350(3)	0.50123(13)	0.33549(13)	1.0	.
C5A	C	-0.6987(3)	0.52579(14)	0.26719(13)	1.0	.
H5A	H	-0.6574	0.5792	0.2402	1.0	.
C6A	C	-0.9115(4)	0.47411(14)	0.24045(14)	1.0	.
H6A	H	-1.0172	0.4915	0.1950	1.0	.
C7A	C	-0.9774(4)	0.39364(14)	0.28040(14)	1.0	.
H7A	H	-1.1264	0.3577	0.2609	1.0	.
C8A	C	-0.8295(3)	0.36814(14)	0.34571(14)	1.0	.
H8A	H	-0.8769	0.3151	0.3723	1.0	.
C9A	C	-0.6020(3)	0.42038(13)	0.37520(13)	1.0	.
C10A	C	-0.4478(3)	0.39502(13)	0.44183(13)	1.0	.
H10A	H	-0.4941	0.3418	0.4683	1.0	.
C11A	C	-0.2246(3)	0.44611(13)	0.47125(13)	1.0	.
C12A	C	0.1359(3)	0.66270(14)	0.42430(13)	1.0	.
C13A	C	0.2019(3)	0.73243(14)	0.39543(14)	1.0	.
C14A	C	0.1380(4)	0.91396(16)	0.32762(18)	1.0	.
H14A	H	0.0092	0.8826	0.2804	1.0	.
H14B	H	0.2176	0.9686	0.3076	1.0	.
H14C	H	0.0830	0.9324	0.3806	1.0	.
C15A	C	0.4497(4)	0.80024(15)	0.25743(14)	1.0	.
H15A	H	0.5579	0.7606	0.2741	1.0	.
H15B	H	0.5267	0.8551	0.2369	1.0	.
H15C	H	0.3250	0.7666	0.2097	1.0	.
C16A	C	0.5750(4)	0.89498(14)	0.44851(15)	1.0	.
H16A	H	0.6519	0.9529	0.4316	1.0	.
H16B	H	0.5146	0.9103	0.5017	1.0	.
Si1B	Si	0.45966(10)	0.69013(4)	0.98199(4)	1.0	.
Cl1B	Cl	0.81634(10)	0.66207(4)	1.13878(4)	1.0	.
C1B	C	0.1124(3)	0.92706(13)	0.98023(13)	1.0	.
C2B	C	-0.0917(3)	0.93402(13)	0.92242(13)	1.0	.
C3B	C	-0.1851(3)	0.87225(13)	0.84414(13)	1.0	.
H3B	H	-0.1082	0.8250	0.8294	1.0	.
C4B	C	-0.3857(3)	0.87817(13)	0.78785(13)	1.0	.
C5B	C	-0.4792(3)	0.81698(14)	0.70720(14)	1.0	.
H5B	H	-0.4014	0.7708	0.6905	1.0	.
C6B	C	-0.6784(4)	0.82408(14)	0.65408(14)	1.0	.
H6B	H	-0.7362	0.7837	0.6001	1.0	.
C7B	C	-0.8001(4)	0.89136(14)	0.67882(14)	1.0	.
H7B	H	-0.9407	0.8946	0.6420	1.0	.
C8B	C	-0.7172(3)	0.95122(14)	0.75467(13)	1.0	.
H8B	H	-0.8010	0.9957	0.7703	1.0	.
C9B	C	-0.5059(3)	0.94823(13)	0.81119(13)	1.0	.
C10B	C	-0.4140(3)	1.01065(13)	0.88706(13)	1.0	.
H10B	H	-0.4929	1.0573	0.9015	1.0	.
C11B	C	-0.2067(3)	1.00700(13)	0.94350(13)	1.0	.
C12B	C	0.2196(3)	0.85061(13)	0.96558(13)	1.0	.
C13B	C	0.3123(3)	0.78610(14)	0.96112(13)	1.0	.
C14B	C	0.5578(4)	0.64206(15)	0.88526(14)	1.0	.
H14D	H	0.4304	0.5999	0.8449	1.0	.
H14E	H	0.6777	0.6087	0.9055	1.0	.
H14F	H	0.6173	0.6922	0.8541	1.0	.
C15B	C	0.2677(4)	0.59990(15)	1.02192(15)	1.0	.
H15D	H	0.2246	0.6262	1.0750	1.0	.
H15E	H	0.3458	0.5497	1.0365	1.0	.
H15F	H	0.1313	0.5761	0.9754	1.0	.
C16B	C	0.7136(4)	0.74539(15)	1.07281(14)	1.0	.
H16C	H	0.8364	0.7760	1.0459	1.0	.
H16D	H	0.6712	0.7930	1.1116	1.0	.
