data_k02243_config-0
loop_
 _symmetry_equiv_pos_as_xyz
'x, y, z'
'-x, y+1/2, -z+1/2'
'-x, -y, -z'
'x, -y-1/2, z-1/2'

_cell_length_a	11.5150(2)
_cell_length_b	6.67200(10)
_cell_length_c	19.5730(5)
_cell_angle_alpha	90.00
_cell_angle_beta	92.3620(9)
_cell_angle_gamma	90.00
loop_
 _atom_site_label
 _atom_site_type_symbol
 _atom_site_fract_x
 _atom_site_fract_y
 _atom_site_fract_z
 _atom_site_occupancy
 _atom_site_disorder_group
Si	Si	0.44140(4)	0.70503(7)	0.37561(2)	1.0	.
C1	C	0.10885(13)	0.5468(2)	0.47241(8)	1.0	.
C2	C	0.04879(13)	0.3713(2)	0.45010(8)	1.0	.
C3	C	0.09349(14)	0.2419(2)	0.40067(8)	1.0	.
H3	H	0.1657	0.2737	0.3815	1.0	.
C4	C	0.03525(13)	0.0696(2)	0.37915(8)	1.0	.
C5	C	0.08037(15)	-0.0632(3)	0.32912(8)	1.0	.
H5	H	0.1527	-0.0337	0.3098	1.0	.
C6	C	0.02123(15)	-0.2305(3)	0.30904(9)	1.0	.
H6	H	0.0522	-0.3161	0.2755	1.0	.
C7	C	-0.08706(15)	-0.2789(3)	0.33786(9)	1.0	.
H7	H	-0.1274	-0.3966	0.3234	1.0	.
C8	C	-0.13293(14)	-0.1589(2)	0.38557(9)	1.0	.
H8	H	-0.2047	-0.1943	0.4045	1.0	.
C9	C	-0.07459(13)	0.0210(2)	0.40786(8)	1.0	.
C10	C	-0.11968(13)	0.1474(2)	0.45629(8)	1.0	.
H10	H	-0.1918	0.1142	0.4753	1.0	.
C11	C	-0.06193(13)	0.3238(2)	0.47834(8)	1.0	.
C12	C	0.21828(13)	0.5945(2)	0.44416(8)	1.0	.
C13	C	0.30999(14)	0.6352(2)	0.41981(8)	1.0	.
C14	C	0.41630(15)	0.6400(3)	0.28406(9)	1.0	.
H14	H	0.4748	0.6746	0.2533	1.0	.
C15	C	0.32253(16)	0.5489(3)	0.25895(10)	1.0	.
H15A	H	0.2624	0.5122	0.2883	1.0	.
H15B	H	0.3150	0.5197	0.2115	1.0	.
C16	C	0.56990(14)	0.5653(3)	0.41069(9)	1.0	.
H16	H	0.5867	0.5722	0.4586	1.0	.
C17	C	0.63907(16)	0.4575(3)	0.37378(11)	1.0	.
H17A	H	0.6248	0.4474	0.3258	1.0	.
H17B	H	0.7034	0.3897	0.3951	1.0	.
C18	C	0.46443(15)	0.9778(3)	0.38862(9)	1.0	.
H18	H	0.5304	1.0371	0.3692	1.0	.
C19	C	0.39620(17)	1.0942(3)	0.42270(11)	1.0	.
H19A	H	0.3294	1.0401	0.4429	1.0	.
H19B	H	0.4134	1.2329	0.4273	1.0	.
