data_k03230_config-2
loop_
 _symmetry_equiv_pos_as_xyz
'x, y, z'
'-x, y+1/2, -z+1/2'
'-x, -y, -z'
'x, -y-1/2, z-1/2'

_cell_length_a	8.7865(3)
_cell_length_b	17.6967(7)
_cell_length_c	12.1065(5)
_cell_angle_alpha	90.00
_cell_angle_beta	90.4638(18)
_cell_angle_gamma	90.00
loop_
 _atom_site_label
 _atom_site_type_symbol
 _atom_site_fract_x
 _atom_site_fract_y
 _atom_site_fract_z
 _atom_site_occupancy
 _atom_site_disorder_group
Si1	Si	-0.09700(8)	0.17350(3)	0.42917(5)	1.0	.
C1	C	-0.0234(2)	0.42202(12)	0.48099(16)	1.0	.
C2	C	0.1153(2)	0.45546(12)	0.44902(17)	1.0	.
C3	C	0.2296(2)	0.41279(12)	0.39533(17)	1.0	.
C4'	C	0.3882(2)	0.52570(12)	0.38512(17)	1.0	2
S1'	S	0.5644(4)	0.5554(3)	0.3398(5)	1.0	2
C5'	C	0.6006(17)	0.4660(7)	0.2887(18)	1.0	2
H5'	H	0.6917	0.4537	0.2510	1.0	2
C6'	C	0.4875(17)	0.4140(9)	0.3069(15)	1.0	2
H6'	H	0.4921	0.3626	0.2846	1.0	2
C7'	C	0.3621(2)	0.44699(12)	0.36356(17)	1.0	2
C8	C	0.2796(2)	0.56797(12)	0.43678(17)	1.0	.
C9	C	0.1402(2)	0.53451(12)	0.46903(16)	1.0	.
C10	C	-0.0470(2)	0.34222(13)	0.46357(17)	1.0	.
C11	C	-0.0651(2)	0.27537(13)	0.44964(17)	1.0	.
C12'	C	-0.3095(3)	0.15953(13)	0.4266(2)	1.0	2
H12'	H	-0.3312	0.1676	0.3462	1.0	2
C13'	C	-0.362(3)	0.0789(9)	0.439(2)	1.0	2
H13D	H	-0.2890	0.0449	0.4045	1.0	2
H13E	H	-0.4622	0.0728	0.4037	1.0	2
H13F	H	-0.3703	0.0666	0.5179	1.0	2
C14'	C	-0.4217(10)	0.2126(5)	0.4759(8)	1.0	2
H14D	H	-0.3856	0.2646	0.4672	1.0	2
H14E	H	-0.4331	0.2012	0.5546	1.0	2
H14F	H	-0.5202	0.2069	0.4383	1.0	2
C15	C	-0.0091(3)	0.12370(12)	0.55069(18)	1.0	.
H15	H	-0.0258	0.0684	0.5392	1.0	.
C16	C	0.1622(3)	0.13557(13)	0.56246(19)	1.0	.
H16A	H	0.1840	0.1898	0.5680	1.0	.
H16B	H	0.2135	0.1147	0.4977	1.0	.
H16C	H	0.1992	0.1099	0.6292	1.0	.
C17	C	-0.0900(3)	0.14512(13)	0.65845(18)	1.0	.
H17A	H	-0.0465	0.1159	0.7198	1.0	.
H17B	H	-0.1989	0.1339	0.6514	1.0	.
H17C	H	-0.0761	0.1992	0.6728	1.0	.
C18	C	-0.0083(2)	0.14481(12)	0.29477(18)	1.0	.
H18	H	-0.0820	0.1590	0.2350	1.0	.
C19	C	0.0129(3)	0.05854(12)	0.28777(19)	1.0	.
H19A	H	0.0556	0.0453	0.2158	1.0	.
H19B	H	-0.0858	0.0336	0.2965	1.0	.
H19C	H	0.0825	0.0419	0.3466	1.0	.
C20	C	0.1426(3)	0.18460(13)	0.26822(19)	1.0	.
H20A	H	0.2212	0.1683	0.3209	1.0	.
H20B	H	0.1289	0.2394	0.2737	1.0	.
H20C	H	0.1737	0.1714	0.1931	1.0	.
