data_k03017_config-0
loop_
 _symmetry_equiv_pos_as_xyz
'x, y, z'
'-x+1/2, y+1/2, -z+1/2'
'-x, -y, -z'
'x-1/2, -y-1/2, z-1/2'

_cell_length_a	7.6210(3)
_cell_length_b	17.6800(6)
_cell_length_c	15.7460(6)
_cell_angle_alpha	90.00
_cell_angle_beta	98.9260(17)
_cell_angle_gamma	90.00
loop_
 _atom_site_label
 _atom_site_type_symbol
 _atom_site_fract_x
 _atom_site_fract_y
 _atom_site_fract_z
 _atom_site_occupancy
 _atom_site_disorder_group
Si1	Si	0.57596(11)	0.17388(5)	0.43539(5)	1.0	.
Cl1	Cl	-0.43939(11)	0.42162(5)	0.24383(5)	1.0	.
Cl2	Cl	-0.46904(10)	0.59325(5)	0.29774(5)	1.0	.
C1	C	0.5132(4)	0.42175(16)	0.47932(17)	1.0	.
C2	C	0.3520(4)	0.46098(16)	0.45196(16)	1.0	.
C3	C	0.2040(4)	0.42518(17)	0.40336(17)	1.0	.
H3	H	0.2134	0.3736	0.3879	1.0	.
C4	C	0.0455(4)	0.46295(17)	0.37748(17)	1.0	.
C5	C	-0.1056(4)	0.42779(18)	0.32754(17)	1.0	.
H5	H	-0.0979	0.3765	0.3105	1.0	.
C6	C	-0.2590(4)	0.46598(18)	0.30408(18)	1.0	.
C7	C	-0.2738(4)	0.54375(18)	0.32854(18)	1.0	.
C8	C	-0.1342(4)	0.57944(17)	0.37612(18)	1.0	.
H8	H	-0.1466	0.6305	0.3929	1.0	.
C9	C	0.0306(4)	0.54139(17)	0.40127(17)	1.0	.
C10	C	0.1759(4)	0.57743(16)	0.44819(17)	1.0	.
H10	H	0.1652	0.6290	0.4636	1.0	.
C11	C	0.3380(4)	0.54026(16)	0.47368(17)	1.0	.
C12	C	0.5267(4)	0.34285(17)	0.46300(17)	1.0	.
C13	C	0.5414(4)	0.27578(17)	0.45169(18)	1.0	.
C14	C	0.5539(4)	0.12441(17)	0.53915(17)	1.0	.
H14	H	0.5873	0.0703	0.5327	1.0	.
C15	C	0.6814(4)	0.1570(2)	0.61543(19)	1.0	.
H15A	H	0.6508	0.2100	0.6242	1.0	.
H15B	H	0.8035	0.1540	0.6034	1.0	.
H15C	H	0.6712	0.1279	0.6674	1.0	.
C16	C	0.3646(4)	0.1256(2)	0.5593(2)	1.0	.
H16A	H	0.3612	0.1002	0.6144	1.0	.
H16B	H	0.2857	0.0993	0.5137	1.0	.
H16C	H	0.3252	0.1781	0.5629	1.0	.
C17	C	0.3983(4)	0.14262(16)	0.34511(18)	1.0	.
H17	H	0.2814	0.1490	0.3657	1.0	.
C18	C	0.3947(4)	0.19318(18)	0.26548(18)	1.0	.
H18A	H	0.5107	0.1913	0.2460	1.0	.
H18B	H	0.3685	0.2454	0.2802	1.0	.
H18C	H	0.3028	0.1751	0.2195	1.0	.
C19	C	0.4157(4)	0.05860(17)	0.32343(18)	1.0	.
H19A	H	0.3151	0.0435	0.2802	1.0	.
H19B	H	0.4162	0.0282	0.3755	1.0	.
H19C	H	0.5268	0.0504	0.3007	1.0	.
C20	C	0.8054(4)	0.16106(17)	0.4049(2)	1.0	.
H20	H	0.7904	0.1647	0.3408	1.0	.
C21	C	0.9372(4)	0.22291(18)	0.4398(2)	1.0	.
H21A	H	0.9621	0.2196	0.5026	1.0	.
H21B	H	0.8863	0.2726	0.4230	1.0	.
H21C	H	1.0478	0.2162	0.4161	1.0	.
C22	C	0.8823(4)	0.08190(17)	0.4286(2)	1.0	.
H22A	H	0.9926	0.0752	0.4048	1.0	.
H22B	H	0.7962	0.0433	0.4048	1.0	.
H22C	H	0.9069	0.0768	0.4913	1.0	.
