data_k03062_config-0
loop_
 _symmetry_equiv_pos_as_xyz
'x, y, z'
'-x, -y, -z'

_cell_length_a	9.5550(2)
_cell_length_b	9.9090(3)
_cell_length_c	11.7600(4)
_cell_angle_alpha	73.4580(12)
_cell_angle_beta	83.9330(12)
_cell_angle_gamma	73.3320(12)
loop_
 _atom_site_label
 _atom_site_type_symbol
 _atom_site_fract_x
 _atom_site_fract_y
 _atom_site_fract_z
 _atom_site_occupancy
 _atom_site_disorder_group
Si1	Si	-0.20230(4)	0.29392(4)	0.37858(3)	1.0	.
O1	O	0.57989(11)	0.34099(12)	0.04996(9)	1.0	.
O2	O	0.67159(11)	0.25226(12)	-0.16196(9)	1.0	.
C1	C	-0.05050(15)	0.05157(15)	0.10190(12)	1.0	.
C2	C	0.08067(15)	0.07636(15)	0.04226(12)	1.0	.
C3	C	0.16374(15)	0.14964(15)	0.08212(12)	1.0	.
H3	H	0.1316	0.1823	0.1513	1.0	.
C4	C	0.29098(16)	0.17561(15)	0.02359(12)	1.0	.
C5	C	0.37614(16)	0.24895(15)	0.06458(13)	1.0	.
H5	H	0.3455	0.2811	0.1342	1.0	.
C6	C	0.49975(16)	0.27319(15)	0.00547(13)	1.0	.
C7	C	0.70069(16)	0.36848(16)	-0.01833(13)	1.0	.
H7	H	0.7561	0.4198	0.0070	1.0	.
C8	C	0.74324(17)	0.32765(16)	-0.11634(14)	1.0	.
H8	H	0.8276	0.3511	-0.1580	1.0	.
C9	C	0.54635(16)	0.22679(16)	-0.10068(13)	1.0	.
C10	C	0.47073(16)	0.15586(15)	-0.14189(13)	1.0	.
H10	H	0.5045	0.1250	-0.2117	1.0	.
C11	C	0.34010(15)	0.12629(15)	-0.08196(12)	1.0	.
C12	C	0.26059(15)	0.05271(15)	-0.12092(12)	1.0	.
H12	H	0.2942	0.0196	-0.1898	1.0	.
C13	C	0.13103(15)	0.02489(15)	-0.06213(12)	1.0	.
C14	C	-0.10486(15)	0.11363(15)	0.19947(12)	1.0	.
C15	C	-0.15045(15)	0.17612(16)	0.27586(13)	1.0	.
C16	C	-0.39266(16)	0.29627(17)	0.44148(13)	1.0	.
H16	H	-0.4140	0.3580	0.4986	1.0	.
C17	C	-0.50910(18)	0.3676(2)	0.34588(16)	1.0	.
H17A	H	-0.4858	0.3164	0.2834	1.0	.
H17B	H	-0.5105	0.4704	0.3116	1.0	.
H17C	H	-0.6052	0.3614	0.3817	1.0	.
C18	C	-0.40525(19)	0.14407(19)	0.51181(17)	1.0	.
H18A	H	-0.5047	0.1513	0.5452	1.0	.
H18B	H	-0.3354	0.1040	0.5763	1.0	.
H18C	H	-0.3837	0.0796	0.4590	1.0	.
C19	C	-0.06534(16)	0.20871(16)	0.50093(13)	1.0	.
H19	H	-0.0664	0.1039	0.5303	1.0	.
C20	C	-0.10482(18)	0.27055(18)	0.60923(13)	1.0	.
H20A	H	-0.0372	0.2109	0.6730	1.0	.
H20B	H	-0.2050	0.2688	0.6365	1.0	.
H20C	H	-0.0976	0.3715	0.5874	1.0	.
C21	C	0.09247(17)	0.20667(18)	0.45810(14)	1.0	.
H21A	H	0.1026	0.3066	0.4350	1.0	.
H21B	H	0.1162	0.1655	0.3897	1.0	.
H21C	H	0.1593	0.1465	0.5223	1.0	.
C22	C	-0.20123(16)	0.48412(16)	0.28632(13)	1.0	.
H22	H	-0.2855	0.5182	0.2321	1.0	.
C23	C	-0.06480(18)	0.49546(17)	0.20654(15)	1.0	.
H23A	H	-0.0795	0.5956	0.1559	1.0	.
H23B	H	-0.0480	0.4277	0.1568	1.0	.
H23C	H	0.0201	0.4703	0.2560	1.0	.
C24	C	-0.23153(19)	0.59031(17)	0.36468(14)	1.0	.
H24A	H	-0.1501	0.5630	0.4182	1.0	.
H24B	H	-0.3220	0.5856	0.4114	1.0	.
H24C	H	-0.2417	0.6901	0.3144	1.0	.
