data_k03069_config-2
loop_
 _symmetry_equiv_pos_as_xyz
'x, y, z'
'-x, -y, -z'

_cell_length_a	7.6170(10)
_cell_length_b	7.7650(10)
_cell_length_c	17.5390(10)
_cell_angle_alpha	93.790(10)
_cell_angle_beta	101.850(10)
_cell_angle_gamma	93.840(10)
loop_
 _atom_site_label
 _atom_site_type_symbol
 _atom_site_fract_x
 _atom_site_fract_y
 _atom_site_fract_z
 _atom_site_occupancy
 _atom_site_disorder_group
Si1	Si	0.26683(17)	0.34382(16)	0.32535(7)	1.0	.
O1	O	0.8394(4)	0.0826(3)	-0.02453(15)	1.0	.
O2	O	0.7305(4)	0.1017(4)	-0.15692(16)	1.0	.
C1	C	0.0622(5)	0.4760(5)	0.0803(2)	1.0	.
C2	C	0.1624(5)	0.4214(4)	0.0246(2)	1.0	.
C3	C	0.3270(5)	0.3449(5)	0.0472(2)	1.0	.
H3	H	0.3719	0.3340	0.1013	1.0	.
C4	C	0.4249(5)	0.2854(5)	-0.0056(2)	1.0	.
C5	C	0.5906(5)	0.2112(5)	0.0198(2)	1.0	.
H5	H	0.6373	0.2008	0.0737	1.0	.
C6	C	0.6789(6)	0.1565(5)	-0.0349(2)	1.0	.
C7	C	0.8719(6)	0.0393(5)	-0.1011(2)	1.0	.
H7A	H	0.9900	0.0940	-0.1057	1.0	.
H7B	H	0.8728	-0.0878	-0.1105	1.0	.
C8	C	0.6126(6)	0.1682(5)	-0.1153(2)	1.0	.
C9	C	0.4591(6)	0.2381(5)	-0.1439(2)	1.0	.
H9	H	0.4184	0.2451	-0.1984	1.0	.
C10	C	0.3576(5)	0.3024(5)	-0.0881(2)	1.0	.
C11	C	0.1998(5)	0.3826(5)	-0.1109(2)	1.0	.
H11	H	0.1580	0.3974	-0.1647	1.0	.
C12	C	0.0996(5)	0.4430(5)	-0.0568(2)	1.0	.
C13	C	0.1251(5)	0.4436(5)	0.1608(2)	1.0	.
C14	C	0.1783(5)	0.4066(5)	0.2267(2)	1.0	.
C15	C	0.0846(6)	0.2025(5)	0.3530(2)	1.0	.
H15	H	-0.0212	0.2732	0.3501	1.0	.
C16	C	0.0210(6)	0.0416(5)	0.2949(2)	1.0	.
H16A	H	0.1222	-0.0293	0.2936	1.0	.
H16B	H	-0.0243	0.0786	0.2426	1.0	.
H16C	H	-0.0753	-0.0265	0.3116	1.0	.
C17	C	0.1320(6)	0.1499(6)	0.4372(2)	1.0	.
H17A	H	0.0264	0.0884	0.4499	1.0	.
H17B	H	0.1692	0.2538	0.4733	1.0	.
H17C	H	0.2307	0.0739	0.4422	1.0	.
C18	C	0.3148(6)	0.5466(5)	0.3923(2)	1.0	.
H18	H	0.3756	0.5147	0.4451	1.0	.
C19	C	0.1391(6)	0.6260(6)	0.4011(3)	1.0	.
H19A	H	0.1681	0.7361	0.4334	1.0	.
H19B	H	0.0679	0.5460	0.4261	1.0	.
H19C	H	0.0697	0.6462	0.3494	1.0	.
C20	C	0.4431(7)	0.6825(6)	0.3658(3)	1.0	.
H20A	H	0.3880	0.7144	0.3137	1.0	.
H20B	H	0.5576	0.6334	0.3642	1.0	.
H20C	H	0.4647	0.7857	0.4029	1.0	.
C21	C	0.4706(6)	0.2223(6)	0.3228(2)	1.0	.
C22	C	0.5940(6)	0.2151(6)	0.4019(2)	1.0	.
H22A	H	0.6851	0.1339	0.3974	1.0	.
H22B	H	0.5234	0.1762	0.4393	1.0	.
H22C	H	0.6535	0.3306	0.4202	1.0	.
C23'	C	0.576(2)	0.234(3)	0.2582(9)	1.0	2
H23D	H	0.4929	0.2379	0.2079	1.0	2
H23E	H	0.6456	0.1323	0.2564	1.0	2
H23F	H	0.6590	0.3392	0.2688	1.0	2
