data_k03110_config-0
loop_
 _symmetry_equiv_pos_as_xyz
'x, y, z'
'-x, -y, -z'

_cell_length_a	7.2100(2)
_cell_length_b	9.9650(2)
_cell_length_c	11.3890(3)
_cell_angle_alpha	80.5170(10)
_cell_angle_beta	88.8370(11)
_cell_angle_gamma	82.1730(10)
loop_
 _atom_site_label
 _atom_site_type_symbol
 _atom_site_fract_x
 _atom_site_fract_y
 _atom_site_fract_z
 _atom_site_occupancy
 _atom_site_disorder_group
Ge	Ge	0.22866(3)	-0.32434(2)	-0.386043(16)	1.0	.
C1	C	0.0412(2)	-0.07098(17)	-0.09803(15)	1.0	.
C2	C	0.1580(2)	0.02480(17)	-0.07374(15)	1.0	.
C3	C	0.3174(2)	0.05001(17)	-0.14341(15)	1.0	.
H3	H	0.3456	0.0026	-0.2088	1.0	.
C4	C	0.4344(2)	0.14188(17)	-0.11941(15)	1.0	.
C5	C	0.5979(3)	0.16524(18)	-0.18884(16)	1.0	.
H5	H	0.6275	0.1174	-0.2538	1.0	.
C6	C	0.7114(3)	0.25449(18)	-0.16344(16)	1.0	.
H6	H	0.8200	0.2680	-0.2102	1.0	.
C7	C	0.6688(3)	0.32856(18)	-0.06664(16)	1.0	.
H7	H	0.7489	0.3913	-0.0499	1.0	.
C8	C	0.5144(3)	0.30992(18)	0.00159(16)	1.0	.
H8	H	0.4874	0.3605	0.0651	1.0	.
C9	C	0.3918(2)	0.21516(17)	-0.02093(15)	1.0	.
C10	C	0.2352(2)	0.19155(17)	0.04835(15)	1.0	.
H10	H	0.2072	0.2403	0.1129	1.0	.
C11	C	0.1164(2)	0.09728(17)	0.02562(15)	1.0	.
C12	C	0.0863(2)	-0.14374(17)	-0.19557(15)	1.0	.
C13	C	0.1296(3)	-0.20576(18)	-0.27649(16)	1.0	.
C14	C	0.4649(3)	-0.2623(3)	-0.4430(2)	1.0	.
H14A	H	0.5264	-0.3245	-0.4958	1.0	.
H14B	H	0.4390	-0.1691	-0.4904	1.0	.
C15	C	0.5976(3)	-0.2591(3)	-0.3411(2)	1.0	.
H15A	H	0.5334	-0.2043	-0.2846	1.0	.
H15B	H	0.7080	-0.2179	-0.3729	1.0	.
H15C	H	0.6368	-0.3529	-0.3002	1.0	.
C16	C	0.0525(3)	-0.31201(19)	-0.51588(17)	1.0	.
H16A	H	0.1130	-0.3650	-0.5759	1.0	.
H16B	H	-0.0572	-0.3562	-0.4843	1.0	.
C17	C	-0.0166(3)	-0.1668(2)	-0.57786(18)	1.0	.
H17A	H	-0.0838	-0.1147	-0.5206	1.0	.
H17B	H	-0.1010	-0.1708	-0.6432	1.0	.
H17C	H	0.0905	-0.1216	-0.6096	1.0	.
C18	C	0.2588(3)	-0.5093(2)	-0.29304(18)	1.0	.
H18A	H	0.2738	-0.5774	-0.3479	1.0	.
H18B	H	0.3739	-0.5230	-0.2442	1.0	.
C19	C	0.0919(3)	-0.5337(2)	-0.21172(19)	1.0	.
H19A	H	0.0867	-0.4750	-0.1504	1.0	.
H19B	H	0.1054	-0.6303	-0.1738	1.0	.
H19C	H	-0.0238	-0.5117	-0.2588	1.0	.
