data_k03140_config-0
loop_
 _symmetry_equiv_pos_as_xyz
'x, y, z'
'-x, y+1/2, -z+1/2'
'-x, -y, -z'
'x, -y-1/2, z-1/2'

_cell_length_a	8.6750(2)
_cell_length_b	17.6320(4)
_cell_length_c	14.6570(3)
_cell_angle_alpha	90.00
_cell_angle_beta	105.8240(8)
_cell_angle_gamma	90.00
loop_
 _atom_site_label
 _atom_site_type_symbol
 _atom_site_fract_x
 _atom_site_fract_y
 _atom_site_fract_z
 _atom_site_occupancy
 _atom_site_disorder_group
Si1	Si	0.88340(18)	0.32856(9)	-0.05494(11)	1.0	.
Br1	Br	0.26687(7)	0.07238(4)	0.21139(5)	1.0	.
Br2	Br	0.35012(8)	-0.11134(5)	0.26380(5)	1.0	.
C1	C	0.9697(6)	0.0781(3)	-0.0179(4)	1.0	.
C2	C	0.8706(6)	0.0364(3)	0.0253(3)	1.0	.
C3	C	0.7407(6)	0.0701(3)	0.0514(4)	1.0	.
H3	H	0.7167	0.1221	0.0371	1.0	.
C4	C	0.6474(6)	0.0290(3)	0.0972(4)	1.0	.
C5	C	0.5182(6)	0.0640(3)	0.1256(4)	1.0	.
H5	H	0.4927	0.1157	0.1109	1.0	.
C6	C	0.4327(6)	0.0235(4)	0.1733(4)	1.0	.
C7	C	0.4677(7)	-0.0548(4)	0.1950(4)	1.0	.
C8	C	0.5858(7)	-0.0908(3)	0.1673(4)	1.0	.
H8	H	0.6056	-0.1430	0.1812	1.0	.
C9	C	0.6805(6)	-0.0505(3)	0.1171(4)	1.0	.
C10	C	0.8054(6)	-0.0845(3)	0.0903(4)	1.0	.
H10	H	0.8264	-0.1369	0.1030	1.0	.
C11	C	0.9016(6)	-0.0434(3)	0.0448(4)	1.0	.
C12	C	0.9437(6)	0.1578(3)	-0.0317(4)	1.0	.
C13	C	0.9228(6)	0.2252(4)	-0.0420(4)	1.0	.
C14	C	0.8792(8)	0.3575(3)	-0.1788(4)	1.0	.
H14	H	0.7648	0.3537	-0.2169	1.0	.
C15	C	0.9719(8)	0.3072(4)	-0.2269(5)	1.0	.
H15A	H	0.9609	0.3257	-0.2914	1.0	.
H15B	H	0.9301	0.2553	-0.2297	1.0	.
H15C	H	1.0852	0.3075	-0.1911	1.0	.
C16	C	0.9268(7)	0.4414(3)	-0.1838(4)	1.0	.
H16A	H	1.0361	0.4492	-0.1436	1.0	.
H16B	H	0.8527	0.4738	-0.1615	1.0	.
H16C	H	0.9219	0.4546	-0.2495	1.0	.
C17	C	1.0482(6)	0.3770(3)	0.0375(4)	1.0	.
H17	H	1.0320	0.4329	0.0286	1.0	.
C18	C	1.2145(6)	0.3586(4)	0.0275(4)	1.0	.
H18A	H	1.2952	0.3868	0.0753	1.0	.
H18B	H	1.2206	0.3730	-0.0360	1.0	.
H18C	H	1.2347	0.3040	0.0367	1.0	.
C19	C	1.0402(8)	0.3578(4)	0.1379(4)	1.0	.
H19A	H	1.0584	0.3033	0.1493	1.0	.
H19B	H	0.9343	0.3713	0.1447	1.0	.
H19C	H	1.1228	0.3864	0.1840	1.0	.
C20	C	0.6843(7)	0.3432(3)	-0.0307(5)	1.0	.
H20	H	0.6980	0.3278	0.0367	1.0	.
C21	C	0.6310(8)	0.4273(3)	-0.0383(5)	1.0	.
H21A	H	0.6193	0.4455	-0.1030	1.0	.
H21B	H	0.7117	0.4578	0.0064	1.0	.
H21C	H	0.5281	0.4317	-0.0231	1.0	.
C22	C	0.5531(7)	0.2931(4)	-0.0907(5)	1.0	.
H22A	H	0.4549	0.2998	-0.0707	1.0	.
H22B	H	0.5869	0.2399	-0.0825	1.0	.
H22C	H	0.5327	0.3073	-0.1576	1.0	.
