data_k03171_config-0
loop_
 _symmetry_equiv_pos_as_xyz
'x, y, z'
'-x, y+1/2, -z+1/2'
'-x, -y, -z'
'x, -y-1/2, z-1/2'

_cell_length_a	8.5780(2)
_cell_length_b	17.6260(5)
_cell_length_c	14.5790(4)
_cell_angle_alpha	90.00
_cell_angle_beta	105.7450(11)
_cell_angle_gamma	90.00
loop_
 _atom_site_label
 _atom_site_type_symbol
 _atom_site_fract_x
 _atom_site_fract_y
 _atom_site_fract_z
 _atom_site_occupancy
 _atom_site_disorder_group
Si1	Si	0.38418(6)	0.17121(3)	-0.05835(4)	1.0	.
C1	C	0.4696(2)	0.42158(10)	-0.01836(13)	1.0	.
C2	C	0.3697(2)	0.46353(10)	0.02639(13)	1.0	.
C3	C	0.2391(2)	0.42958(10)	0.05285(13)	1.0	.
H3	H	0.2158	0.3775	0.0387	1.0	.
C4	C	0.1442(2)	0.46983(10)	0.09876(13)	1.0	.
C5	C	0.0130(2)	0.43592(11)	0.12762(13)	1.0	.
H5	H	-0.0124	0.3842	0.1125	1.0	.
C6	C	-0.0763(2)	0.47482(11)	0.17567(14)	1.0	.
C7	C	-0.0392(2)	0.55369(11)	0.19984(13)	1.0	.
C8	C	0.0830(2)	0.58793(11)	0.17214(13)	1.0	.
H8	H	0.1057	0.6398	0.1877	1.0	.
C9	C	0.1784(2)	0.54895(10)	0.12076(13)	1.0	.
C10	C	0.3042(2)	0.58356(10)	0.09337(13)	1.0	.
H10	H	0.3253	0.6359	0.1068	1.0	.
C11	C	0.4015(2)	0.54309(10)	0.04610(12)	1.0	.
C12	C	0.4425(2)	0.34175(10)	-0.03373(13)	1.0	.
C13	C	0.4205(2)	0.27430(11)	-0.04503(13)	1.0	.
C14	C	0.3902(2)	0.14075(11)	-0.18152(14)	1.0	.
H14	H	0.2769	0.1455	-0.2232	1.0	.
C15	C	0.4938(3)	0.19071(12)	-0.22549(16)	1.0	.
H15A	H	0.6076	0.1857	-0.1892	1.0	.
H15B	H	0.4597	0.2437	-0.2242	1.0	.
H15C	H	0.4813	0.1751	-0.2916	1.0	.
C16	C	0.4365(2)	0.05695(10)	-0.18440(14)	1.0	.
H16A	H	0.4366	0.0432	-0.2495	1.0	.
H16B	H	0.3578	0.0254	-0.1641	1.0	.
H16C	H	0.5447	0.0487	-0.1414	1.0	.
C17	C	0.5450(2)	0.12272(11)	0.03756(13)	1.0	.
H17	H	0.5295	0.0667	0.0283	1.0	.
C18	C	0.7174(2)	0.14173(12)	0.03260(16)	1.0	.
H18A	H	0.7345	0.1967	0.0388	1.0	.
H18B	H	0.7313	0.1248	-0.0287	1.0	.
H18C	H	0.7962	0.1159	0.0845	1.0	.
C19	C	0.5286(3)	0.14192(12)	0.13674(15)	1.0	.
H19A	H	0.6121	0.1149	0.1849	1.0	.
H19B	H	0.4213	0.1265	0.1414	1.0	.
H19C	H	0.5420	0.1967	0.1475	1.0	.
C20	C	0.1777(2)	0.15533(11)	-0.03994(15)	1.0	.
H20	H	0.1828	0.1726	0.0261	1.0	.
C21	C	0.1288(3)	0.07133(11)	-0.04656(17)	1.0	.
H21A	H	0.0245	0.0657	-0.0319	1.0	.
H21B	H	0.2115	0.0419	-0.0008	1.0	.
H21C	H	0.1193	0.0527	-0.1112	1.0	.
C22	C	0.0475(2)	0.20327(12)	-0.10870(18)	1.0	.
H22A	H	0.0382	0.1874	-0.1744	1.0	.
H22B	H	0.0780	0.2570	-0.1012	1.0	.
H22C	H	-0.0567	0.1960	-0.0944	1.0	.
C23	C	-0.2130(2)	0.43684(12)	0.20447(15)	1.0	.
H23A	H	-0.2238	0.3843	0.1816	1.0	.
H23B	H	-0.3141	0.4643	0.1765	1.0	.
H23C	H	-0.1901	0.4372	0.2741	1.0	.
C24	C	-0.1358(2)	0.59658(12)	0.25509(15)	1.0	.
H24A	H	-0.0976	0.6492	0.2640	1.0	.
H24B	H	-0.1219	0.5726	0.3174	1.0	.
H24C	H	-0.2506	0.5959	0.2198	1.0	.
