data_k04040_config-0
loop_
 _symmetry_equiv_pos_as_xyz
'x, y, z'
'-x, y, -z+1/2'
'x+1/2, y+1/2, z'
'-x+1/2, y+1/2, -z+1/2'
'-x, -y, -z'
'x, -y, z-1/2'
'-x+1/2, -y+1/2, -z'
'x+1/2, -y+1/2, z-1/2'

_cell_length_a	25.6777(6)
_cell_length_b	7.3590(2)
_cell_length_c	22.1035(6)
_cell_angle_alpha	90.00
_cell_angle_beta	97.9757(12)
_cell_angle_gamma	90.00
loop_
 _atom_site_label
 _atom_site_type_symbol
 _atom_site_fract_x
 _atom_site_fract_y
 _atom_site_fract_z
 _atom_site_occupancy
 _atom_site_disorder_group
Si1	Si	0.07390(2)	0.87459(8)	0.14073(2)	1.0	.
C1	C	0.20931(7)	0.7733(3)	0.03690(8)	1.0	.
C2	C	0.24132(7)	0.6166(3)	0.04449(8)	1.0	.
C3	C	0.23415(7)	0.4827(3)	0.08838(8)	1.0	.
H3	H	0.2079	0.5002	0.1142	1.0	.
C4	C	0.26459(7)	0.3262(3)	0.09471(8)	1.0	.
C5	C	0.25711(7)	0.1880(3)	0.13807(9)	1.0	.
H5	H	0.2310	0.2038	0.1641	1.0	.
C6	C	0.28676(7)	0.0342(3)	0.14278(9)	1.0	.
C7	C	0.32724(7)	0.0087(3)	0.10435(8)	1.0	.
C8	C	0.33572(7)	0.1388(3)	0.06286(8)	1.0	.
H8	H	0.3625	0.1210	0.0378	1.0	.
C9	C	0.30514(7)	0.3009(3)	0.05642(9)	1.0	.
C10	C	0.31332(7)	0.4337(3)	0.01427(8)	1.0	.
H10	H	0.3406	0.4173	-0.0103	1.0	.
C11	C	0.28242(7)	0.5921(3)	0.00677(8)	1.0	.
C12	C	0.16745(7)	0.7978(3)	0.07283(9)	1.0	.
C13	C	0.13140(8)	0.8233(3)	0.10166(9)	1.0	.
C14	C	0.05707(8)	1.1207(3)	0.12498(9)	1.0	.
H14	H	0.0367	1.1266	0.0830	1.0	.
C15	C	0.10576(8)	1.2437(3)	0.12472(11)	1.0	.
H15A	H	0.0944	1.3659	0.1110	1.0	.
H15B	H	0.1286	1.1930	0.0969	1.0	.
H15C	H	0.1252	1.2503	0.1661	1.0	.
C16	C	0.02086(8)	1.1942(3)	0.16919(11)	1.0	.
H16A	H	0.0401	1.1978	0.2107	1.0	.
H16B	H	-0.0098	1.1146	0.1684	1.0	.
H16C	H	0.0092	1.3171	0.1567	1.0	.
C17	C	0.02023(7)	0.7179(3)	0.10507(9)	1.0	.
H17	H	0.0359	0.5933	0.1069	1.0	.
C18	C	0.00196(9)	0.7563(3)	0.03728(10)	1.0	.
H18A	H	-0.0216	0.6589	0.0201	1.0	.
H18B	H	0.0326	0.7618	0.0154	1.0	.
H18C	H	-0.0168	0.8726	0.0331	1.0	.
C19	C	-0.02733(8)	0.7070(3)	0.13974(10)	1.0	.
H19A	H	-0.0462	0.8231	0.1361	1.0	.
H19B	H	-0.0153	0.6813	0.1829	1.0	.
H19C	H	-0.0509	0.6097	0.1224	1.0	.
C20	C	0.09103(8)	0.8248(3)	0.22445(9)	1.0	.
H20	H	0.0590	0.8520	0.2440	1.0	.
C21	C	0.10401(8)	0.6240(3)	0.23616(9)	1.0	.
H21A	H	0.1361	0.5931	0.2190	1.0	.
H21B	H	0.0748	0.5491	0.2168	1.0	.
H21C	H	0.1095	0.6009	0.2803	1.0	.
C22	C	0.13576(8)	0.9428(3)	0.25673(10)	1.0	.
H22A	H	0.1416	0.9130	0.3004	1.0	.
H22B	H	0.1263	1.0713	0.2515	1.0	.
H22C	H	0.1680	0.9192	0.2390	1.0	.
C23	C	0.27883(7)	-0.1043(3)	0.18703(9)	1.0	.
N1	N	0.27296(7)	-0.2132(3)	0.22173(9)	1.0	.
C24	C	0.35916(8)	-0.1534(3)	0.10982(9)	1.0	.
N2	N	0.38479(7)	-0.2817(3)	0.11388(8)	1.0	.
