data_k04061_config-0
loop_
 _symmetry_equiv_pos_as_xyz
'x, y, z'
'-x, -y, -z'

_cell_length_a	8.7088(2)
_cell_length_b	10.8846(3)
_cell_length_c	13.1029(4)
_cell_angle_alpha	103.3733(11)
_cell_angle_beta	105.2605(11)
_cell_angle_gamma	96.8142(11)
loop_
 _atom_site_label
 _atom_site_type_symbol
 _atom_site_fract_x
 _atom_site_fract_y
 _atom_site_fract_z
 _atom_site_occupancy
 _atom_site_disorder_group
Si1	Si	-0.17207(8)	0.33183(7)	0.70514(6)	1.0	.
O1	O	0.6033(2)	-0.07978(17)	0.69131(15)	1.0	.
O2	O	0.6762(2)	-0.21569(17)	0.80019(14)	1.0	.
C1	C	-0.0444(3)	0.0824(2)	0.9321(2)	1.0	.
C2	C	0.0862(3)	0.0171(2)	0.9244(2)	1.0	.
C3	C	0.1732(3)	0.0322(2)	0.8504(2)	1.0	.
H3	H	0.1443	0.0877	0.8052	1.0	.
C4	C	0.3003(3)	-0.0316(2)	0.8411(2)	1.0	.
C5	C	0.3867(3)	-0.0131(2)	0.7644(2)	1.0	.
H5	H	0.3604	0.0434	0.7198	1.0	.
C6	C	0.5061(3)	-0.0794(2)	0.7589(2)	1.0	.
C7	C	0.7059(3)	-0.1700(3)	0.7120(2)	1.0	.
H7A	H	0.8211	-0.1280	0.7322	1.0	.
H7B	H	0.6821	-0.2427	0.6452	1.0	.
C8	C	0.5489(3)	-0.1640(2)	0.8243(2)	1.0	.
C9	C	0.4744(3)	-0.1850(2)	0.8978(2)	1.0	.
H9	H	0.5057	-0.2420	0.9410	1.0	.
C10	C	0.3444(3)	-0.1168(2)	0.9084(2)	1.0	.
C11	C	0.2593(3)	-0.1309(2)	0.9824(2)	1.0	.
H11	H	0.2892	-0.1862	1.0277	1.0	.
C12	C	0.1302(3)	-0.0665(2)	0.9931(2)	1.0	.
C13	C	-0.0882(3)	0.1637(2)	0.8614(2)	1.0	.
C14	C	-0.1220(3)	0.2299(2)	0.7995(2)	1.0	.
C15	C	-0.1234(3)	0.2491(2)	0.5732(2)	1.0	.
C16	C	-0.1795(3)	0.1025(2)	0.5405(2)	1.0	.
H16A	H	-0.2978	0.0817	0.5223	1.0	.
H16B	H	-0.1297	0.0689	0.6019	1.0	.
H16C	H	-0.1467	0.0635	0.4762	1.0	.
C17	C	0.0617(3)	0.2723(3)	0.5919(2)	1.0	.
H17A	H	0.0847	0.2231	0.5268	1.0	.
H17B	H	0.1151	0.2444	0.6560	1.0	.
H17C	H	0.1025	0.3642	0.6048	1.0	.
C18	C	-0.2003(3)	0.3007(3)	0.4759(2)	1.0	.
H18A	H	-0.1709	0.2579	0.4113	1.0	.
H18B	H	-0.1605	0.3937	0.4950	1.0	.
H18C	H	-0.3185	0.2835	0.4594	1.0	.
C19	C	-0.0360(3)	0.4971(2)	0.7829(2)	1.0	.
C20	C	0.1392(3)	0.4843(3)	0.8373(2)	1.0	.
H20A	H	0.2006	0.5679	0.8863	1.0	.
H20B	H	0.1909	0.4557	0.7802	1.0	.
H20C	H	0.1376	0.4213	0.8798	1.0	.
C21	C	-0.0297(3)	0.5873(3)	0.7082(2)	1.0	.
H21A	H	-0.1402	0.5942	0.6705	1.0	.
H21B	H	0.0234	0.5522	0.6536	1.0	.
H21C	H	0.0319	0.6727	0.7531	1.0	.
C22	C	-0.0997(3)	0.5629(2)	0.8766(2)	1.0	.
H22A	H	-0.0237	0.6427	0.9213	1.0	.
H22B	H	-0.1099	0.5051	0.9228	1.0	.
H22C	H	-0.2060	0.5827	0.8453	1.0	.
C23	C	-0.4012(3)	0.3320(2)	0.6803(2)	1.0	.
C24	C	-0.4551(3)	0.4414(3)	0.6322(2)	1.0	.
H24A	H	-0.4247	0.4365	0.5647	1.0	.
H24B	H	-0.4019	0.5244	0.6859	1.0	.
H24C	H	-0.5730	0.4330	0.6154	1.0	.
C25	C	-0.4457(3)	0.3437(3)	0.7882(2)	1.0	.
H25A	H	-0.5631	0.3375	0.7728	1.0	.
H25B	H	-0.3897	0.4269	0.8406	1.0	.
H25C	H	-0.4124	0.2741	0.8196	1.0	.
C26	C	-0.5004(3)	0.2035(2)	0.6003(2)	1.0	.
H26A	H	-0.6150	0.1987	0.5965	1.0	.
H26B	H	-0.4610	0.1323	0.6264	1.0	.
H26C	H	-0.4886	0.1975	0.5271	1.0	.
