data_k04226_config-0
loop_
 _symmetry_equiv_pos_as_xyz
'x, y, z'
'-x, y+1/2, -z+1/2'
'-x, -y, -z'
'x, -y-1/2, z-1/2'

_cell_length_a	8.8840(2)
_cell_length_b	22.3240(5)
_cell_length_c	10.7970(3)
_cell_angle_alpha	90.00
_cell_angle_beta	110.1460(10)
_cell_angle_gamma	90.00
loop_
 _atom_site_label
 _atom_site_type_symbol
 _atom_site_fract_x
 _atom_site_fract_y
 _atom_site_fract_z
 _atom_site_occupancy
 _atom_site_disorder_group
Si1	Si	0.58076(6)	0.18214(2)	0.41301(5)	1.0	.
C1	C	0.5154(2)	0.04286(8)	0.10100(16)	1.0	.
C2	C	0.6288(2)	0.04216(7)	0.03425(17)	1.0	.
C3	C	0.7574(2)	0.08286(7)	0.06654(18)	1.0	.
H3	H	0.7706	0.1105	0.1364	1.0	.
C4	C	0.8653(2)	0.08396(8)	-0.00021(18)	1.0	.
C5	C	0.9953(2)	0.12518(8)	0.03257(19)	1.0	.
H5	H	1.0095	0.1529	0.1024	1.0	.
C6	C	1.0991(2)	0.12547(9)	-0.0343(2)	1.0	.
H6	H	1.1856	0.1532	-0.0107	1.0	.
C7	C	1.0798(2)	0.08460(8)	-0.13950(19)	1.0	.
H7	H	1.1533	0.0856	-0.1858	1.0	.
C8	C	0.9590(2)	0.04434(9)	-0.17496(18)	1.0	.
H8	H	0.9484	0.0174	-0.2456	1.0	.
C9	C	0.8459(2)	0.04199(8)	-0.10620(17)	1.0	.
C10	C	0.7219(2)	0.00066(8)	-0.13704(17)	1.0	.
H10	H	0.7109	-0.0274	-0.2057	1.0	.
C11	C	0.6113(2)	-0.00079(8)	-0.06915(17)	1.0	.
C12	C	0.5314(2)	0.08700(8)	0.20024(17)	1.0	.
C13	C	0.5473(2)	0.12519(8)	0.28317(18)	1.0	.
C14	C	0.7955(2)	0.20664(9)	0.45755(19)	1.0	.
H14	H	0.8183	0.2361	0.5315	1.0	.
C15	C	0.9127(2)	0.15434(10)	0.5055(2)	1.0	.
H15A	H	0.8921	0.1244	0.4351	1.0	.
H15B	H	0.8983	0.1360	0.5831	1.0	.
H15C	H	1.0229	0.1691	0.5290	1.0	.
C16	C	0.8237(2)	0.23844(9)	0.3413(2)	1.0	.
H16A	H	0.9373	0.2491	0.3659	1.0	.
H16B	H	0.7582	0.2748	0.3190	1.0	.
H16C	H	0.7938	0.2116	0.2647	1.0	.
C17	C	0.4429(2)	0.24695(8)	0.34208(19)	1.0	.
H17	H	0.4606	0.2589	0.2589	1.0	.
C18	C	0.4842(3)	0.30145(9)	0.4333(2)	1.0	.
H18A	H	0.4132	0.3348	0.3913	1.0	.
H18B	H	0.5958	0.3131	0.4501	1.0	.
H18C	H	0.4700	0.2914	0.5170	1.0	.
C19	C	0.2654(2)	0.23154(9)	0.3045(2)	1.0	.
H19A	H	0.2409	0.2228	0.3844	1.0	.
H19B	H	0.2409	0.1963	0.2467	1.0	.
H19C	H	0.2006	0.2655	0.2581	1.0	.
C20	C	0.5340(2)	0.14616(9)	0.55194(19)	1.0	.
H20A	H	0.6334	0.1280	0.6132	1.0	.
H20B	H	0.4998	0.1777	0.6011	1.0	.
C21	C	0.4024(2)	0.09746(9)	0.50957(19)	1.0	.
H21A	H	0.3083	0.1140	0.4387	1.0	.
H21B	H	0.4432	0.0632	0.4721	1.0	.
C22	C	0.3486(3)	0.07466(9)	0.6187(2)	1.0	.
H22A	H	0.3030	0.1084	0.6539	1.0	.
H22B	H	0.4429	0.0594	0.6912	1.0	.
C23	C	0.2238(3)	0.02507(9)	0.5741(2)	1.0	.
H23A	H	0.1285	0.0403	0.5043	1.0	.
H23B	H	0.1941	0.0117	0.6491	1.0	.
H23C	H	0.2685	-0.0087	0.5402	1.0	.
