data_k04212s_config-2
loop_
 _symmetry_equiv_pos_as_xyz
'x, y, z'
'-x, -y, -z'

_cell_length_a	7.1926(2)
_cell_length_b	10.2859(4)
_cell_length_c	11.1565(5)
_cell_angle_alpha	95.3686(13)
_cell_angle_beta	90.0935(14)
_cell_angle_gamma	98.625(2)
loop_
 _atom_site_label
 _atom_site_type_symbol
 _atom_site_fract_x
 _atom_site_fract_y
 _atom_site_fract_z
 _atom_site_occupancy
 _atom_site_disorder_group
Si1	Si	-0.22717(9)	1.29003(6)	0.58846(5)	1.0	.
C1	C	-0.4498(3)	1.0694(2)	0.89752(18)	1.0	.
C2	C	-0.3413(3)	0.9734(2)	0.93051(18)	1.0	.
C3	C	-0.1826(3)	0.9456(2)	0.86331(19)	1.0	.
C4'	C	-0.0804(3)	0.8529(2)	0.89686(19)	1.0	2
C5'	C	0.0776(12)	0.8068(9)	0.8481(8)	1.0	2
H5'	H	0.1344	0.8368	0.7769	1.0	2
Br1'	Br	0.3415(2)	0.62216(17)	0.86992(17)	1.0	2
C6'	C	0.145(3)	0.716(2)	0.910(3)	1.0	2
S7'	S	0.0071(5)	0.6685(3)	1.0327(3)	1.0	2
C8'	C	-0.1293(3)	0.7829(2)	1.00015(19)	1.0	2
C9	C	-0.2830(3)	0.8070(2)	1.06700(19)	1.0	.
C10	C	-0.3917(3)	0.9033(2)	1.03476(18)	1.0	.
C11	C	-0.3948(3)	1.1396(2)	0.79500(19)	1.0	.
C12	C	-0.3402(3)	1.1971(2)	0.70941(19)	1.0	.
C13	C	-0.1387(3)	1.4612(2)	0.6576(2)	1.0	.
H13A	H	-0.0282	1.4584	0.7098	1.0	.
H13B	H	-0.0967	1.5178	0.5928	1.0	.
C14	C	-0.2867(4)	1.5233(2)	0.7324(2)	1.0	.
H14A	H	-0.3989	1.5228	0.6823	1.0	.
H14B	H	-0.2356	1.6144	0.7616	1.0	.
H14C	H	-0.3205	1.4723	0.8012	1.0	.
C15	C	-0.4027(3)	1.2972(2)	0.4667(2)	1.0	.
H15A	H	-0.5042	1.3433	0.5016	1.0	.
H15B	H	-0.3403	1.3512	0.4051	1.0	.
C16	C	-0.4923(4)	1.1633(3)	0.4039(2)	1.0	.
H16A	H	-0.3940	1.1176	0.3664	1.0	.
H16B	H	-0.5822	1.1773	0.3420	1.0	.
H16C	H	-0.5580	1.1095	0.4633	1.0	.
C17	C	-0.0301(4)	1.2015(2)	0.5324(2)	1.0	.
H17A	H	-0.0823	1.1098	0.5019	1.0	.
H17B	H	0.0304	1.2457	0.4642	1.0	.
C18	C	0.1192(4)	1.1982(3)	0.6299(2)	1.0	.
H18A	H	0.1848	1.2879	0.6518	1.0	.
H18B	H	0.2098	1.1415	0.5991	1.0	.
H18C	H	0.0583	1.1632	0.7011	1.0	.
