data_k05294_config-1
loop_
 _symmetry_equiv_pos_as_xyz
'x, y, z'
'-x, -y, -z'

_cell_length_a	8.68560(10)
_cell_length_b	10.8718(2)
_cell_length_c	12.0016(2)
_cell_angle_alpha	104.8061(7)
_cell_angle_beta	92.8512(7)
_cell_angle_gamma	106.3091(7)
loop_
 _atom_site_label
 _atom_site_type_symbol
 _atom_site_fract_x
 _atom_site_fract_y
 _atom_site_fract_z
 _atom_site_occupancy
 _atom_site_disorder_group
Si1	Si	0.44835(4)	0.63985(3)	0.79574(3)	1.0	.
C1	C	0.50501(15)	0.91924(12)	0.57535(10)	1.0	.
C2	C	0.38576(15)	0.98643(12)	0.58128(10)	1.0	.
C3	C	0.27278(15)	0.97644(12)	0.66112(10)	1.0	.
H3	H	0.2756	0.9221	0.7114	1.0	.
C4	C	0.15741(15)	1.04324(12)	0.66881(10)	1.0	.
C5	C	0.04709(15)	1.03683(13)	0.75350(11)	1.0	.
H5	H	0.0485	0.9830	0.8044	1.0	.
C6	C	-0.05934(15)	1.10805(13)	0.76060(11)	1.0	.
C7	C	-0.18416(16)	1.12264(14)	0.84139(12)	1.0	.
H7A	H	-0.2782	1.0407	0.8210	1.0	1
H7B	H	-0.1376	1.1404	0.9230	1.0	1
O8	O	-0.2312(3)	1.2348(3)	0.8253(2)	1.0	1
C9	C	-0.19747(16)	1.25102(13)	0.71336(12)	1.0	.
H9A	H	-0.1599	1.3468	0.7166	1.0	1
H9B	H	-0.2952	1.2061	0.6552	1.0	1
C10	C	-0.06668(15)	1.18735(12)	0.68321(11)	1.0	.
C11	C	0.03314(15)	1.19513(12)	0.60018(11)	1.0	.
H11	H	0.0252	1.2470	0.5486	1.0	.
C12	C	0.15092(15)	1.12438(12)	0.59081(11)	1.0	.
C13	C	0.26074(15)	1.13380(12)	0.51120(10)	1.0	.
H13	H	0.2554	1.1862	0.4596	1.0	.
C14	C	0.38004(15)	1.06809(11)	0.50433(10)	1.0	.
C15	C	0.50580(15)	0.83479(12)	0.64907(10)	1.0	.
C16	C	0.49867(15)	0.76166(12)	0.71054(11)	1.0	.
C17	C	0.58962(16)	0.70676(13)	0.93614(11)	1.0	.
H17	H	0.5609	0.6382	0.9797	1.0	.
C18	C	0.56673(19)	0.83531(15)	1.01262(12)	1.0	.
H18A	H	0.6404	0.8662	1.0855	1.0	.
H18B	H	0.4547	0.8175	1.0297	1.0	.
H18C	H	0.5904	0.9043	0.9715	1.0	.
C19	C	0.76802(18)	0.72864(17)	0.91819(13)	1.0	.
H19A	H	0.7983	0.7900	0.8701	1.0	.
H19B	H	0.7837	0.6429	0.8792	1.0	.
H19C	H	0.8359	0.7669	0.9938	1.0	.
C20	C	0.46322(16)	0.47552(12)	0.70362(11)	1.0	.
H20	H	0.3621	0.4337	0.6469	1.0	.
C21	C	0.60554(17)	0.48976(14)	0.63183(12)	1.0	.
H21A	H	0.7076	0.5213	0.6840	1.0	.
H21B	H	0.6034	0.5542	0.5881	1.0	.
H21C	H	0.5964	0.4029	0.5776	1.0	.
C22	C	0.46717(17)	0.37832(13)	0.77643(12)	1.0	.
H22A	H	0.4683	0.2926	0.7252	1.0	.
H22B	H	0.3711	0.3647	0.8167	1.0	.
H22C	H	0.5647	0.4158	0.8337	1.0	.
C23	C	0.23434(16)	0.63239(13)	0.82394(12)	1.0	.
H23	H	0.2379	0.7252	0.8669	1.0	.
C24	C	0.16543(18)	0.54360(16)	0.90178(14)	1.0	.
H24A	H	0.0581	0.5504	0.9176	1.0	.
H24B	H	0.2376	0.5730	0.9752	1.0	.
H24C	H	0.1566	0.4506	0.8623	1.0	.
C25	C	0.11901(17)	0.59388(15)	0.71113(13)	1.0	.
H25A	H	0.1058	0.5011	0.6681	1.0	.
H25B	H	0.1640	0.6528	0.6634	1.0	.
H25C	H	0.0136	0.6032	0.7298	1.0	.
