data_k06076_config-0
loop_
 _symmetry_equiv_pos_as_xyz
'x, y, z'
'-x, -y, -z'

_cell_length_a	7.2199(2)
_cell_length_b	10.7106(2)
_cell_length_c	12.3062(4)
_cell_angle_alpha	65.2044(11)
_cell_angle_beta	86.4642(11)
_cell_angle_gamma	77.5778(10)
loop_
 _atom_site_label
 _atom_site_type_symbol
 _atom_site_fract_x
 _atom_site_fract_y
 _atom_site_fract_z
 _atom_site_occupancy
 _atom_site_disorder_group
Si1	Si	0.51312(7)	0.59782(4)	0.21349(4)	1.0	.
C1	C	0.4900(2)	0.14618(16)	0.42997(14)	1.0	.
C2	C	0.6395(2)	0.06718(16)	0.51746(14)	1.0	.
C3	C	0.7809(2)	0.12901(17)	0.53556(14)	1.0	.
H3A	H	0.7751	0.2265	0.4890	1.0	.
C4	C	0.9286(2)	0.05233(17)	0.61921(14)	1.0	.
C5	C	1.0756(3)	0.11427(17)	0.63570(15)	1.0	.
H5A	H	1.0724	0.2113	0.5886	1.0	.
C6	C	1.2197(3)	0.03623(17)	0.71790(15)	1.0	.
H6A	H	1.3166	0.0788	0.7272	1.0	.
C7	C	1.2258(3)	-0.10890(18)	0.79000(15)	1.0	.
H7A	H	1.3263	-0.1620	0.8478	1.0	.
C8	C	1.0908(3)	-0.17229(17)	0.77746(15)	1.0	.
H8A	H	1.0977	-0.2693	0.8267	1.0	.
C9	C	0.9374(2)	-0.09566(17)	0.69111(14)	1.0	.
C10	C	0.7985(2)	-0.15743(16)	0.67386(14)	1.0	.
H10A	H	0.8047	-0.2547	0.7214	1.0	.
C11	C	0.6490(2)	-0.08175(16)	0.58872(14)	1.0	.
C12	C	0.4837(2)	0.29240(16)	0.35893(14)	1.0	.
C13	C	0.4824(2)	0.41581(17)	0.29773(14)	1.0	.
C14	C	0.7144(3)	0.61395(17)	0.28851(15)	1.0	.
H14A	H	0.7427	0.7103	0.2550	1.0	.
C15	C	0.7527(3)	0.53090(19)	0.42312(15)	1.0	.
H15A	H	0.7957	0.5785	0.4677	1.0	.
H15B	H	0.6697	0.4648	0.4680	1.0	.
C16	C	0.8865(3)	0.49457(19)	0.33912(16)	1.0	.
H16A	H	0.8865	0.4058	0.3321	1.0	.
H16B	H	1.0124	0.5196	0.3317	1.0	.
C17	C	0.5694(2)	0.62762(16)	0.05691(14)	1.0	.
H17A	H	0.4676	0.6201	0.0098	1.0	.
C18	C	0.7714(3)	0.58359(18)	0.02361(17)	1.0	.
H18A	H	0.8706	0.5388	0.0884	1.0	.
H18B	H	0.7892	0.5471	-0.0389	1.0	.
C19	C	0.6877(3)	0.73601(18)	-0.01437(16)	1.0	.
H19A	H	0.6536	0.7937	-0.1003	1.0	.
H19B	H	0.7349	0.7854	0.0270	1.0	.
C20	C	0.2962(3)	0.72420(17)	0.21592(15)	1.0	.
H20A	H	0.2529	0.7132	0.2976	1.0	.
C21	C	0.2639(3)	0.87522(18)	0.12130(17)	1.0	.
H21A	H	0.2091	0.9511	0.1471	1.0	.
H21B	H	0.3576	0.8993	0.0575	1.0	.
C22	C	0.1394(3)	0.7822(2)	0.12045(17)	1.0	.
H22A	H	0.1556	0.7488	0.0560	1.0	.
H22B	H	0.0071	0.8005	0.1455	1.0	.
