data_k08037_config-2
loop_
 _symmetry_equiv_pos_as_xyz
'x, y, z'
'-x, -y, -z'

_cell_length_a	9.4078(3)
_cell_length_b	10.7917(3)
_cell_length_c	10.9622(4)
_cell_angle_alpha	67.7671(16)
_cell_angle_beta	82.7812(15)
_cell_angle_gamma	84.5538(15)
loop_
 _atom_site_label
 _atom_site_type_symbol
 _atom_site_fract_x
 _atom_site_fract_y
 _atom_site_fract_z
 _atom_site_occupancy
 _atom_site_disorder_group
Si1	Si	0.57393(5)	0.78046(4)	0.85444(4)	1.0	.
C1	C	0.51117(16)	0.56031(14)	0.59304(14)	1.0	.
C2	C	0.38255(16)	0.58058(14)	0.53170(14)	1.0	.
C3	C	0.26377(17)	0.65621(15)	0.56224(15)	1.0	.
H3	H	0.2693	0.6930	0.6267	1.0	.
C4	C	0.13877(17)	0.67868(15)	0.50098(15)	1.0	.
C5	C	0.01707(19)	0.75566(18)	0.53166(18)	1.0	.
H5	H	0.0205	0.7918	0.5969	1.0	.
C6	C	-0.1023(2)	0.77728(19)	0.46863(19)	1.0	.
H6	H	-0.1808	0.8283	0.4903	1.0	.
C7	C	-0.1109(2)	0.72368(18)	0.36953(18)	1.0	.
H7	H	-0.1948	0.7399	0.3263	1.0	.
C8	C	0.00062(18)	0.64961(16)	0.33721(16)	1.0	.
H8	H	-0.0068	0.6146	0.2718	1.0	.
C9	C	0.12988(17)	0.62371(15)	0.40116(14)	1.0	.
C10	C	0.24484(17)	0.54599(15)	0.37241(14)	1.0	.
H10	H	0.2378	0.5085	0.3089	1.0	.
C11	C	0.37190(16)	0.52118(14)	0.43499(14)	1.0	.
C12	C	0.52545(16)	0.62512(14)	0.68306(15)	1.0	.
C13	C	0.54040(17)	0.68332(15)	0.75487(15)	1.0	.
C14	C	0.70093(18)	0.91211(16)	0.74563(15)	1.0	.
H14	H	0.7906	0.8637	0.7270	1.0	.
C15	C	0.6466(2)	0.99661(18)	0.61160(17)	1.0	.
H15A	H	0.5687	1.0579	0.6235	1.0	.
H15B	H	0.6123	0.9382	0.5738	1.0	.
H15C	H	0.7241	1.0473	0.5524	1.0	.
C16	C	0.7420(2)	1.0032(2)	0.8127(2)	1.0	.
H16A	H	0.8119	1.0649	0.7540	1.0	.
H16B	H	0.7830	0.9490	0.8944	1.0	.
H16C	H	0.6572	1.0536	0.8321	1.0	.
C17	C	0.6562(2)	0.65725(17)	1.00434(18)	1.0	.
H17	H	0.5939	0.5800	1.0405	1.0	.
C18	C	0.8046(3)	0.6020(2)	0.9684(3)	1.0	.
H18A	H	0.8712	0.6734	0.9359	1.0	.
H18B	H	0.7986	0.5664	0.9002	1.0	.
H18C	H	0.8380	0.5311	1.0464	1.0	.
C19	C	0.6593(3)	0.7092(2)	1.11671(19)	1.0	.
H19A	H	0.6930	0.6372	1.1937	1.0	.
H19B	H	0.5634	0.7407	1.1395	1.0	.
H19C	H	0.7233	0.7824	1.0878	1.0	.
C20'	C	0.39707(18)	0.85283(16)	0.90166(16)	1.0	2
H20'	H	0.4080	0.9155	0.9461	1.0	2
C21'	C	0.3040(13)	0.9187(16)	0.7804(13)	1.0	2
H21C	H	0.2982	1.0166	0.7525	1.0	2
H21D	H	0.3463	0.8950	0.7052	1.0	2
C22'	C	0.1564(8)	0.8635(12)	0.8286(8)	1.0	2
H22C	H	0.0845	0.9372	0.8215	1.0	2
H22D	H	0.1323	0.8163	0.7738	1.0	2
C23'	C	0.1561(11)	0.7822(11)	0.9502(12)	1.0	2
H23C	H	0.1009	0.7049	0.9629	1.0	2
H23D	H	0.1076	0.8275	1.0075	1.0	2
C24'	C	0.3037(14)	0.7333(14)	0.9915(16)	1.0	2
H24C	H	0.3351	0.6514	0.9749	1.0	2
H24D	H	0.3075	0.7160	1.0855	1.0	2
