data_k10053_config-0
loop_
 _symmetry_equiv_pos_as_xyz
'x, y, z'
'-x, -y, -z'

_cell_length_a	8.72920(10)
_cell_length_b	11.0409(2)
_cell_length_c	19.4260(3)
_cell_angle_alpha	81.8420(6)
_cell_angle_beta	88.3328(6)
_cell_angle_gamma	75.9651(7)
loop_
 _atom_site_label
 _atom_site_type_symbol
 _atom_site_fract_x
 _atom_site_fract_y
 _atom_site_fract_z
 _atom_site_occupancy
 _atom_site_disorder_group
C1A	C	0.4810(3)	0.8817(2)	0.03296(12)	1.0	.
C2A	C	0.3652(3)	0.9556(2)	-0.01519(12)	1.0	.
C3A	C	0.2312(3)	0.9147(2)	-0.03205(13)	1.0	.
C4A	C	0.1200(3)	0.9855(2)	-0.08024(12)	1.0	.
C5A	C	-0.0152(3)	0.9423(3)	-0.09856(14)	1.0	.
C6A	C	-0.1193(3)	1.0121(3)	-0.14699(15)	1.0	.
C7A	C	-0.1000(3)	1.1323(3)	-0.18164(15)	1.0	.
C8A	C	0.0239(3)	1.1773(3)	-0.16570(14)	1.0	.
C9A	C	0.1387(3)	1.1061(2)	-0.11408(13)	1.0	.
C10A	C	0.2678(3)	1.1498(2)	-0.09730(13)	1.0	.
C11A	C	0.3846(3)	1.0767(2)	-0.04879(12)	1.0	.
C12A	C	0.4627(3)	0.7613(2)	0.06599(12)	1.0	.
C13A	C	0.4451(3)	0.6598(2)	0.09134(12)	1.0	.
C14A	C	0.4002(3)	0.4902(2)	0.22151(13)	1.0	.
C15A	C	0.5095(4)	0.5340(4)	0.26331(16)	1.0	.
C16A	C	0.2772(4)	0.4451(3)	0.25100(16)	1.0	.
C17A	C	0.2565(3)	0.4649(2)	0.08408(13)	1.0	.
C18A	C	0.1213(3)	0.5645(3)	0.06597(15)	1.0	.
C19A	C	0.2607(4)	0.3401(3)	0.07235(19)	1.0	.
C20A	C	0.6176(3)	0.3902(2)	0.10159(14)	1.0	.
C21A	C	0.7624(3)	0.4261(3)	0.12286(16)	1.0	.
C22A	C	0.8646(4)	0.3608(4)	0.1702(2)	1.0	.
Si1B	Si	0.47548(8)	-0.00744(6)	0.63263(3)	1.0	.
C1B	C	0.4953(3)	0.3761(2)	0.52829(12)	1.0	.
C2B	C	0.3693(3)	0.4505(2)	0.48598(12)	1.0	.
C3B	C	0.2399(3)	0.4045(2)	0.46997(12)	1.0	.
C4B	C	0.1170(3)	0.4771(2)	0.42729(12)	1.0	.
C5B	C	-0.0122(3)	0.4268(2)	0.40944(13)	1.0	.
C6B	C	-0.1308(3)	0.5005(3)	0.36726(14)	1.0	.
C7B	C	-0.1315(3)	0.6275(3)	0.34023(14)	1.0	.
C8B	C	-0.0097(3)	0.6786(2)	0.35572(13)	1.0	.
C9B	C	0.1187(3)	0.6046(2)	0.39961(12)	1.0	.
C10B	C	0.2445(3)	0.6522(2)	0.41506(13)	1.0	.
C11B	C	0.3733(3)	0.5780(2)	0.45701(12)	1.0	.
C12B	C	0.4886(3)	0.2507(2)	0.55874(12)	1.0	.
C13B	C	0.4809(3)	0.1479(2)	0.58512(12)	1.0	.
C14B	C	0.4635(3)	0.0084(2)	0.72718(13)	1.0	.
C15B	C	0.5040(3)	0.1055(3)	0.75034(14)	1.0	.
C16B	C	0.4146(5)	-0.0934(3)	0.77773(15)	1.0	.
C17B	C	0.3061(3)	-0.0606(2)	0.60135(13)	1.0	.
C18B	C	0.1861(4)	0.0222(3)	0.56683(15)	1.0	.
C19B	C	0.3104(4)	-0.2012(3)	0.61473(18)	1.0	.
C20B	C	0.6667(3)	-0.1218(2)	0.61502(14)	1.0	.
C21B	C	0.8062(3)	-0.0747(3)	0.63029(15)	1.0	.
C22B	C	0.9010(4)	-0.1155(4)	0.68577(19)	1.0	.
Si1A	Si	0.42902(8)	0.49890(6)	0.12556(3)	1.0	.
