data_k11151_config-1
loop_
 _symmetry_equiv_pos_as_xyz
'x, y, z'
'-x, -y, -z'

_cell_length_a	6.9399(2)
_cell_length_b	10.3228(3)
_cell_length_c	11.5066(3)
_cell_angle_alpha	81.8600(11)
_cell_angle_beta	89.8249(11)
_cell_angle_gamma	82.1271(10)
loop_
 _atom_site_label
 _atom_site_type_symbol
 _atom_site_fract_x
 _atom_site_fract_y
 _atom_site_fract_z
 _atom_site_occupancy
 _atom_site_disorder_group
C1	C	0.4539(2)	0.57083(14)	0.59655(12)	1.0	.
C2	C	0.6156(2)	0.59751(14)	0.52552(12)	1.0	.
C3	C	0.7327(2)	0.69272(14)	0.54792(12)	1.0	.
H3	H	0.7006	0.7420	0.6107	1.0	.
C4	C	0.8942(2)	0.71642(14)	0.48046(13)	1.0	.
C5	C	1.0174(2)	0.81006(15)	0.50477(14)	1.0	.
H5	H	0.9882	0.8592	0.5679	1.0	1
C6	C	1.1773(2)	0.82937(16)	0.43770(15)	1.0	1
C20	C	1.3073(5)	0.9099(3)	0.4653(3)	1.0	1
N1	N	1.4152(5)	0.9791(3)	0.4863(3)	1.0	1
C7	C	1.2236(2)	0.75780(17)	0.34160(14)	1.0	.
H7	H	1.3346	0.7727	0.2957	1.0	1
C8	C	1.1094(2)	0.66824(16)	0.31555(13)	1.0	.
H8	H	1.1412	0.6214	0.2512	1.0	.
C9	C	0.9417(2)	0.64363(14)	0.38400(13)	1.0	.
C10	C	0.8249(2)	0.55185(14)	0.35957(12)	1.0	.
H10	H	0.8555	0.5054	0.2948	1.0	.
C11	C	0.6622(2)	0.52537(14)	0.42786(12)	1.0	.
C12	C	0.4044(2)	0.64199(14)	0.69287(12)	1.0	.
C13	C	0.3546(2)	0.70075(15)	0.77441(13)	1.0	.
Si1	Si	0.24525(11)	0.78972(7)	0.89146(6)	1.0	1
C14	C	0.0358(3)	0.7028(3)	0.94646(18)	1.0	1
H14A	H	0.0853	0.6101	0.9783	1.0	1
H14B	H	-0.0263	0.7459	1.0114	1.0	1
C15	C	-0.1176(3)	0.7041(3)	0.8504(2)	1.0	1
H15A	H	-0.1777	0.7952	0.8246	1.0	1
H15B	H	-0.2177	0.6510	0.8816	1.0	1
H15C	H	-0.0553	0.6671	0.7835	1.0	1
C16	C	0.4227(3)	0.79115(18)	1.01273(14)	1.0	1
H16A	H	0.5319	0.8360	0.9793	1.0	1
H16B	H	0.3578	0.8452	1.0699	1.0	1
C17	C	0.5069(3)	0.6575(2)	1.0790(2)	1.0	1
H17A	H	0.4008	0.6109	1.1120	1.0	1
H17B	H	0.5928	0.6703	1.1426	1.0	1
H17C	H	0.5813	0.6051	1.0251	1.0	1
C18	C	0.1609(4)	0.9639(2)	0.8242(2)	1.0	1
H18A	H	0.0611	0.9631	0.7631	1.0	1
H18B	H	0.0980	1.0126	0.8855	1.0	1
C19	C	0.3196(5)	1.0374(2)	0.7697(2)	1.0	1
H19A	H	0.4187	1.0398	0.8295	1.0	1
H19B	H	0.2641	1.1278	0.7377	1.0	1
H19C	H	0.3793	0.9923	0.7064	1.0	1
