data_k11151_config-2
loop_
 _symmetry_equiv_pos_as_xyz
'x, y, z'
'-x, -y, -z'

_cell_length_a	6.9399(2)
_cell_length_b	10.3228(3)
_cell_length_c	11.5066(3)
_cell_angle_alpha	81.8600(11)
_cell_angle_beta	89.8249(11)
_cell_angle_gamma	82.1271(10)
loop_
 _atom_site_label
 _atom_site_type_symbol
 _atom_site_fract_x
 _atom_site_fract_y
 _atom_site_fract_z
 _atom_site_occupancy
 _atom_site_disorder_group
C1	C	0.4539(2)	0.57083(14)	0.59655(12)	1.0	.
C2	C	0.6156(2)	0.59751(14)	0.52552(12)	1.0	.
C3	C	0.7327(2)	0.69272(14)	0.54792(12)	1.0	.
H3	H	0.7006	0.7420	0.6107	1.0	.
C4	C	0.8942(2)	0.71642(14)	0.48046(13)	1.0	.
C5	C	1.0174(2)	0.81006(15)	0.50477(14)	1.0	.
C6'	C	1.1773(2)	0.82937(16)	0.43770(15)	1.0	2
H6'	H	1.2583	0.8913	0.4554	1.0	2
C7	C	1.2236(2)	0.75780(17)	0.34160(14)	1.0	.
C8	C	1.1094(2)	0.66824(16)	0.31555(13)	1.0	.
H8	H	1.1412	0.6214	0.2512	1.0	.
C9	C	0.9417(2)	0.64363(14)	0.38400(13)	1.0	.
C10	C	0.8249(2)	0.55185(14)	0.35957(12)	1.0	.
H10	H	0.8555	0.5054	0.2948	1.0	.
C11	C	0.6622(2)	0.52537(14)	0.42786(12)	1.0	.
C12	C	0.4044(2)	0.64199(14)	0.69287(12)	1.0	.
C13	C	0.3546(2)	0.70075(15)	0.77441(13)	1.0	.
Si1'	Si	0.243(2)	0.8259(12)	0.8760(11)	1.0	2
C14'	C	-0.023(3)	0.834(2)	0.856(2)	1.0	2
H14C	H	-0.0845	0.8407	0.9332	1.0	2
H14D	H	-0.0708	0.9161	0.8031	1.0	2
C15'	C	-0.091(6)	0.717(4)	0.806(3)	1.0	2
H15D	H	-0.2325	0.7343	0.7925	1.0	2
H15E	H	-0.0596	0.6361	0.8627	1.0	2
H15F	H	-0.0259	0.7054	0.7322	1.0	2
C16'	C	0.296(4)	0.691(3)	1.027(2)	1.0	2
H16C	H	0.2468	0.7359	1.0942	1.0	2
H16D	H	0.2181	0.6189	1.0221	1.0	2
C17'	C	0.507(5)	0.629(4)	1.056(4)	1.0	2
H17D	H	0.5118	0.5721	1.1324	1.0	2
H17E	H	0.5880	0.6987	1.0599	1.0	2
H17F	H	0.5545	0.5759	0.9953	1.0	2
C18'	C	0.360(4)	0.951(3)	0.883(2)	1.0	2
H18C	H	0.2599	1.0277	0.8898	1.0	2
H18D	H	0.4334	0.9320	0.9586	1.0	2
C19'	C	0.502(5)	1.000(3)	0.791(3)	1.0	2
H19D	H	0.5416	1.0825	0.8102	1.0	2
H19E	H	0.4381	1.0167	0.7138	1.0	2
H19F	H	0.6163	0.9334	0.7913	1.0	2
