data_k05142_config-1
loop_
 _symmetry_equiv_pos_as_xyz
'x, y, z'
'-x, -y, -z'

_cell_length_a	7.1419(17)
_cell_length_b	10.321(3)
_cell_length_c	11.240(3)
_cell_angle_alpha	83.808(19)
_cell_angle_beta	89.24(3)
_cell_angle_gamma	81.277(14)
loop_
 _atom_site_label
 _atom_site_type_symbol
 _atom_site_fract_x
 _atom_site_fract_y
 _atom_site_fract_z
 _atom_site_occupancy
 _atom_site_disorder_group
Si1	Si	-0.27205(9)	0.29014(6)	0.40806(5)	1.0	.
C1	C	-0.0517(3)	0.0673(2)	0.10142(17)	1.0	.
C2	C	0.1076(3)	0.0967(2)	0.03358(18)	1.0	.
C3	C	0.2166(3)	0.1920(2)	0.06458(19)	1.0	.
H3	H	0.1822	0.2383	0.1321	1.0	1
C4	C	0.3707(3)	0.2179(2)	-0.00199(19)	1.0	1
C5	C	0.5092(17)	0.3091(11)	0.0071(10)	1.0	1
H5	H	0.5010	0.3645	0.0697	1.0	1
C6	C	0.6444(19)	0.3118(15)	-0.0736(11)	1.0	1
S7	S	0.6255(2)	0.20090(15)	-0.18168(11)	1.0	1
C8	C	0.4230(3)	0.1487(2)	-0.10510(18)	1.0	1
C19	C	0.8024(7)	0.3927(5)	-0.0891(5)	1.0	1
H19A	H	0.8043	0.4443	-0.0210	1.0	1
H19B	H	0.7827	0.4523	-0.1633	1.0	1
H19C	H	0.9234	0.3341	-0.0931	1.0	1
C9	C	0.3210(3)	0.0569(2)	-0.13709(18)	1.0	.
H9	H	0.3579	0.0119	-0.2050	1.0	1
C10	C	0.1604(3)	0.0277(2)	-0.07037(18)	1.0	.
C11	C	-0.1074(3)	0.1372(2)	0.20405(18)	1.0	.
C12	C	-0.1594(3)	0.1957(2)	0.28925(19)	1.0	.
C13	C	-0.4759(3)	0.2061(3)	0.4639(2)	1.0	.
H13A	H	-0.4272	0.1144	0.4965	1.0	.
H13B	H	-0.5386	0.2522	0.5300	1.0	.
C14	C	-0.6218(3)	0.2040(3)	0.3663(2)	1.0	.
H14A	H	-0.6908	0.2932	0.3462	1.0	.
H14B	H	-0.7112	0.1445	0.3951	1.0	.
H14C	H	-0.5571	0.1731	0.2949	1.0	.
C15	C	-0.0994(3)	0.2943(2)	0.53031(19)	1.0	.
H15A	H	0.0037	0.3411	0.4966	1.0	.
H15B	H	-0.1646	0.3467	0.5916	1.0	.
C16	C	-0.0103(3)	0.1598(2)	0.5923(2)	1.0	.
H16A	H	-0.1105	0.1119	0.6262	1.0	.
H16B	H	0.0742	0.1728	0.6566	1.0	.
H16C	H	0.0623	0.1088	0.5339	1.0	.
C17	C	-0.3554(3)	0.4611(2)	0.3370(2)	1.0	.
H17A	H	-0.4605	0.4585	0.2812	1.0	.
H17B	H	-0.4058	0.5168	0.4000	1.0	.
C18	C	-0.1993(4)	0.5249(2)	0.2681(2)	1.0	.
H18A	H	-0.0979	0.5326	0.3236	1.0	.
H18B	H	-0.2528	0.6128	0.2309	1.0	.
H18C	H	-0.1478	0.4700	0.2059	1.0	.
