data_x09191_config-0
loop_
 _symmetry_equiv_pos_as_xyz
'x, y, z'
'-x, -y, -z'

_cell_length_a	7.6758(2)
_cell_length_b	10.4318(2)
_cell_length_c	12.0299(3)
_cell_angle_alpha	67.1570(10)
_cell_angle_beta	88.8990(10)
_cell_angle_gamma	76.4820(10)
loop_
 _atom_site_label
 _atom_site_type_symbol
 _atom_site_fract_x
 _atom_site_fract_y
 _atom_site_fract_z
 _atom_site_occupancy
 _atom_site_disorder_group
Si1	Si	0.51323(6)	1.10051(4)	0.20773(4)	1.0	.
C1	C	0.4880(2)	0.64757(17)	0.42746(14)	1.0	.
C2	C	0.3529(2)	0.58337(17)	0.41063(14)	1.0	.
C3	C	0.2044(2)	0.66190(17)	0.32505(14)	1.0	.
H3	H	0.1960	0.7602	0.2766	1.0	.
C4	C	0.0699(2)	0.60031(18)	0.30926(14)	1.0	.
C5	C	-0.0821(2)	0.67918(19)	0.22357(15)	1.0	.
H5	H	-0.0917	0.7773	0.1736	1.0	.
C6	C	-0.2127(2)	0.61614(19)	0.21243(16)	1.0	.
H6	H	-0.3132	0.6707	0.1553	1.0	.
C7	C	-0.2008(2)	0.46890(19)	0.28556(16)	1.0	.
H7	H	-0.2942	0.4266	0.2775	1.0	.
C8	C	-0.0576(2)	0.38868(18)	0.36651(15)	1.0	.
H8	H	-0.0505	0.2901	0.4134	1.0	.
C9	C	0.0831(2)	0.45073(18)	0.38219(14)	1.0	.
C10	C	0.2293(2)	0.37217(18)	0.46567(14)	1.0	.
H10	H	0.2379	0.2734	0.5125	1.0	.
C11	C	0.3654(2)	0.43347(17)	0.48358(14)	1.0	.
C12	C	0.4823(2)	0.79420(18)	0.35297(14)	1.0	.
C13	C	0.4870(2)	0.91636(17)	0.29088(14)	1.0	.
C14	C	0.6977(2)	1.12032(19)	0.29188(15)	1.0	.
H14	H	0.7222	1.2178	0.2581	1.0	.
C15	C	0.7265(3)	1.0445(2)	0.42911(16)	1.0	.
H15A	H	0.7606	1.0974	0.4746	1.0	.
H15B	H	0.6482	0.9801	0.4708	1.0	.
C16	C	0.8613(2)	0.9981(2)	0.35314(16)	1.0	.
H16A	H	0.8665	0.9049	0.3479	1.0	.
H16B	H	0.9789	1.0221	0.3517	1.0	.
C17	C	0.5730(2)	1.12622(17)	0.05176(15)	1.0	.
H17	H	0.4812	1.1150	0.0006	1.0	.
C18	C	0.7664(2)	1.08385(19)	0.02327(16)	1.0	.
H18A	H	0.8608	1.0415	0.0912	1.0	.
H18B	H	0.7888	1.0447	-0.0401	1.0	.
C19	C	0.6746(2)	1.23905(19)	-0.01583(16)	1.0	.
H19A	H	0.6402	1.2956	-0.1033	1.0	.
H19B	H	0.7122	1.2924	0.0280	1.0	.
C20	C	0.2951(2)	1.23096(18)	0.20299(15)	1.0	.
H20	H	0.2644	1.2108	0.2883	1.0	.
C21	C	0.3119(3)	1.38671(19)	0.14562(17)	1.0	.
H21A	H	0.3483	1.4079	0.0631	1.0	.
H21B	H	0.4024	1.3999	0.1939	1.0	.
H21C	H	0.1957	1.4518	0.1433	1.0	.
C22	C	0.1411(2)	1.2127(2)	0.13660(17)	1.0	.
H22A	H	0.0279	1.2753	0.1433	1.0	.
H22B	H	0.1329	1.1126	0.1729	1.0	.
H22C	H	0.1635	1.2384	0.0511	1.0	.
