data_x17061_config-0
loop_
 _symmetry_equiv_pos_as_xyz
'x, y, z'
'-x, -y, -z'

_cell_length_a	8.5753(2)
_cell_length_b	10.8951(2)
_cell_length_c	10.9628(2)
_cell_angle_alpha	67.029(1)
_cell_angle_beta	87.521(1)
_cell_angle_gamma	87.155(1)
loop_
 _atom_site_label
 _atom_site_type_symbol
 _atom_site_fract_x
 _atom_site_fract_y
 _atom_site_fract_z
 _atom_site_occupancy
 _atom_site_disorder_group
Ge1	Ge	0.71586(3)	0.17429(2)	0.68998(2)	1.0	.
C1	C	0.5510(3)	0.4159(2)	0.9326(2)	1.0	.
C2	C	0.4016(3)	0.4805(2)	0.9086(2)	1.0	.
C3	C	0.3002(3)	0.4628(2)	0.8190(2)	1.0	.
H3	H	0.333376	0.406081	0.774698	1.0	.
C4	C	0.1542(3)	0.5256(2)	0.7939(2)	1.0	.
C5	C	0.0521(3)	0.5096(3)	0.7017(3)	1.0	.
H5	H	0.085063	0.454187	0.655946	1.0	.
C6	C	-0.0903(3)	0.5718(3)	0.6785(3)	1.0	.
H6	H	-0.156140	0.559467	0.616944	1.0	.
C7	C	-0.1428(3)	0.6558(3)	0.7454(3)	1.0	.
H7	H	-0.243497	0.698391	0.728976	1.0	.
C8	C	-0.0489(3)	0.6751(3)	0.8329(3)	1.0	.
H8	H	-0.084906	0.731421	0.876758	1.0	.
C9	C	0.1027(3)	0.6120(2)	0.8597(2)	1.0	.
C10	C	0.2007(3)	0.6299(2)	0.9488(2)	1.0	.
H10	H	0.166384	0.686437	0.992851	1.0	.
C11	C	0.3495(3)	0.5664(2)	0.9752(2)	1.0	.
C12	C	0.6031(3)	0.3345(2)	0.8621(2)	1.0	.
C13	C	0.6454(3)	0.2689(2)	0.7998(2)	1.0	.
C14	C	0.9460(3)	0.1816(3)	0.6765(3)	1.0	.
H14	H	0.970697	0.274120	0.614003	1.0	.
C15	C	1.0224(3)	0.1596(3)	0.8078(3)	1.0	.
H15A	H	1.012718	0.066358	0.868852	1.0	.
H15B	H	0.970036	0.218028	0.847062	1.0	.
H15C	H	1.133079	0.180490	0.791245	1.0	.
C16	C	1.0184(3)	0.0879(4)	0.6149(4)	1.0	.
H16A	H	1.131622	0.098771	0.604448	1.0	.
H16B	H	0.973536	0.109241	0.528020	1.0	.
H16C	H	0.996735	-0.004485	0.672768	1.0	.
C17	C	0.6412(3)	-0.0090(2)	0.7756(3)	1.0	.
H17	H	0.686063	-0.061585	0.724471	1.0	.
C18	C	0.6989(4)	-0.0752(3)	0.9176(3)	1.0	.
H18A	H	0.660807	-0.022556	0.968440	1.0	.
H18B	H	0.813329	-0.079808	0.916182	1.0	.
H18C	H	0.659403	-0.165494	0.959180	1.0	.
C19	C	0.4634(3)	-0.0114(3)	0.7740(3)	1.0	.
H19A	H	0.429697	-0.102759	0.822867	1.0	.
H19B	H	0.429603	0.020225	0.682182	1.0	.
H19C	H	0.416743	0.046851	0.815930	1.0	.
C20	C	0.6279(3)	0.2740(2)	0.5135(2)	1.0	.
H20	H	0.694530	0.352787	0.468754	1.0	.
C21	C	0.6389(4)	0.1932(3)	0.4270(3)	1.0	.
H21A	H	0.577304	0.113229	0.468231	1.0	.
H21B	H	0.748333	0.166835	0.417716	1.0	.
H21C	H	0.598286	0.247516	0.339284	1.0	.
C22	C	0.4620(3)	0.3289(3)	0.5175(3)	1.0	.
H22A	H	0.433332	0.390665	0.428345	1.0	.
H22B	H	0.455792	0.376146	0.577583	1.0	.
H22C	H	0.389950	0.255131	0.549320	1.0	.
