data_x12197_a_config-1
loop_
 _symmetry_equiv_pos_as_xyz
'x, y, z'
'-x, y+1/2, -z+1/2'
'-x, -y, -z'
'x, -y-1/2, z-1/2'

_cell_length_a	17.0557(6)
_cell_length_b	19.0118(4)
_cell_length_c	15.3234(4)
_cell_angle_alpha	90.00
_cell_angle_beta	110.028(2)
_cell_angle_gamma	90.00
loop_
 _atom_site_label
 _atom_site_type_symbol
 _atom_site_fract_x
 _atom_site_fract_y
 _atom_site_fract_z
 _atom_site_occupancy
 _atom_site_disorder_group
I1	I	0.92834(7)	0.80114(4)	0.36069(6)	1.0	.
I2	I	1.0697(2)	1.63195(7)	0.36978(10)	1.0	1
Si03	Si	0.6676(2)	1.2359(3)	0.4265(3)	1.0	.
Si04	Si	1.3392(2)	1.1873(3)	0.3812(3)	1.0	.
S2	S	1.0409(3)	0.9370(2)	0.3647(3)	1.0	.
S1	S	0.9479(4)	1.4988(3)	0.3729(3)	1.0	.
C007	C	0.8686(6)	0.9576(4)	0.3706(5)	1.0	.
C008	C	1.1127(8)	1.4781(4)	0.3774(5)	1.0	.
C009	C	0.9650(8)	1.2851(6)	0.3887(7)	1.0	.
C00A	C	0.9480(7)	1.1566(6)	0.3880(8)	1.0	.
C00B	C	1.0796(7)	1.2081(6)	0.3868(7)	1.0	.
C00C	C	0.9287(7)	1.0300(6)	0.3790(7)	1.0	.
C00D	C	0.8999(7)	1.0970(6)	0.3857(7)	1.0	.
C00E	C	1.0620(7)	1.0789(6)	0.3802(7)	1.0	.
C00F	C	1.0113(7)	1.0221(6)	0.3736(7)	1.0	.
C00G	C	1.0487(7)	1.2760(6)	0.3882(8)	1.0	.
C00H	C	1.0951(8)	1.3362(6)	0.3836(7)	1.0	.
C00I	C	1.0313(7)	1.1476(5)	0.3838(7)	1.0	.
C00J	C	0.9327(7)	1.3547(6)	0.3856(8)	1.0	.
C00K	C	0.9182(7)	1.2262(6)	0.3928(7)	1.0	.
C00L	C	0.9461(8)	0.9086(6)	0.3681(7)	1.0	.
C00M	C	0.8366(7)	1.2329(6)	0.4011(8)	1.0	.
C00N	C	0.9794(8)	1.4122(6)	0.3814(7)	1.0	.
C00O	C	1.1632(7)	1.2014(6)	0.3860(8)	1.0	.
C00P	C	1.0636(8)	1.4026(6)	0.3832(7)	1.0	.
C00Q	C	0.7692(8)	1.2364(7)	0.4084(8)	1.0	.
C00R	C	0.7545(9)	1.1462(9)	0.5847(9)	1.0	.
C00S	C	1.0487(12)	1.5218(7)	0.3753(9)	1.0	.
C00T	C	1.2310(8)	1.1955(8)	0.3845(9)	1.0	.
C00U	C	0.8035(12)	1.2066(9)	0.6417(11)	1.0	.
C00V	C	0.5863(10)	1.2159(12)	0.3101(12)	1.0	.
C00W	C	0.6008(13)	1.1637(12)	0.2505(11)	1.0	.
C00X	C	1.3219(15)	1.3428(12)	0.3490(14)	1.0	.
C00Y	C	1.3336(14)	1.1265(16)	0.285(2)	1.0	.
C00Z	C	0.6678(10)	1.1648(13)	0.5152(13)	1.0	.
C010	C	0.6456(14)	1.3243(14)	0.470(2)	1.0	.
C011	C	1.2658(13)	1.161(3)	0.186(2)	1.0	.
C012	C	1.3763(13)	1.2756(14)	0.363(2)	1.0	.
C013	C	1.4127(11)	1.1442(18)	0.4946(18)	1.0	.
C014	C	0.7441(14)	1.0862(14)	0.6500(14)	1.0	.
C015	C	0.5210(14)	1.1477(15)	0.1633(14)	1.0	.
C016	C	1.3297(12)	1.0710(17)	0.549(2)	1.0	.
C017	C	1.4089(13)	1.0887(17)	0.5364(16)	1.0	.
C018	C	0.6419(15)	1.1012(15)	0.2784(16)	1.0	.
C019	C	1.4834(11)	1.0674(14)	0.6267(15)	1.0	.
C01A	C	1.269(3)	1.080(4)	0.134(4)	1.0	.
C01B	C	1.3283(19)	1.3658(19)	0.450(2)	1.0	.
C01C	C	1.349(3)	1.4021(16)	0.322(3)	1.0	.
C01D	C	1.207(2)	1.131(2)	0.162(2)	1.0	.
C01E	C	0.659(6)	1.386(2)	0.439(5)	1.0	.
C999	C	0.607(4)	1.454(2)	0.468(3)	1.0	.
C998	C	0.667(3)	1.397(2)	0.359(3)	1.0	.
