data_k04014_config-1
loop_
 _symmetry_equiv_pos_as_xyz
'x, y, z'
'-x, -y, -z'

_cell_length_a	6.73180(10)
_cell_length_b	7.2511(2)
_cell_length_c	16.6950(4)
_cell_angle_alpha	98.1442(11)
_cell_angle_beta	94.5289(11)
_cell_angle_gamma	103.9183(10)
loop_
 _atom_site_label
 _atom_site_type_symbol
 _atom_site_fract_x
 _atom_site_fract_y
 _atom_site_fract_z
 _atom_site_occupancy
 _atom_site_disorder_group
Si1	Si	0.78540(7)	0.37747(6)	0.17732(3)	1.0	.
C1	C	0.5723(2)	0.4596(2)	0.42369(9)	1.0	.
C2	C	0.7060(2)	0.5895(2)	0.48776(9)	1.0	.
C3	C	0.9126(2)	0.6774(2)	0.47744(9)	1.0	.
H3	H	0.9643	0.6465	0.4273	1.0	1
C4	C	1.0377(2)	0.8071(2)	0.53988(9)	1.0	1
C5	C	1.2529(10)	0.9082(12)	0.5397(5)	1.0	1
H5	H	1.3305	0.8907	0.4954	1.0	1
C6	C	1.3288(4)	1.0314(4)	0.61125(17)	1.0	1
H6	H	1.4662	1.1098	0.6218	1.0	1
S7	S	1.15012(14)	1.03144(16)	0.68126(6)	1.0	1
C8	C	0.9603(2)	0.8571(2)	0.61500(9)	1.0	1
C9	C	0.7632(2)	0.7714(2)	0.62781(9)	1.0	.
H9	H	0.7146	0.8043	0.6784	1.0	1
C10	C	0.6321(2)	0.6333(2)	0.56504(9)	1.0	.
C11	C	0.6429(2)	0.4231(2)	0.34582(9)	1.0	.
C12	C	0.7007(2)	0.3964(2)	0.27950(9)	1.0	.
C13	C	0.6698(3)	0.1285(3)	0.11970(11)	1.0	.
H13A	H	0.6874	0.1295	0.0614	1.0	.
H13B	H	0.7483	0.0412	0.1394	1.0	.
C14	C	0.4427(4)	0.0459(3)	0.12641(13)	1.0	.
H14A	H	0.4229	0.0419	0.1837	1.0	.
H14B	H	0.3970	-0.0848	0.0951	1.0	.
H14C	H	0.3619	0.1274	0.1047	1.0	.
C15	C	0.6916(2)	0.5613(2)	0.12735(9)	1.0	.
H15A	H	0.5391	0.5217	0.1188	1.0	.
H15B	H	0.7331	0.6859	0.1651	1.0	.
C16	C	0.7711(3)	0.5923(3)	0.04529(10)	1.0	.
H16A	H	0.9218	0.6362	0.0531	1.0	.
H16B	H	0.7138	0.6897	0.0236	1.0	.
H16C	H	0.7282	0.4707	0.0068	1.0	.
C17	C	1.0726(3)	0.4275(3)	0.18698(10)	1.0	.
H17A	H	1.1133	0.3205	0.2090	1.0	.
H17B	H	1.1167	0.4279	0.1318	1.0	.
C18	C	1.1892(3)	0.6167(3)	0.24093(13)	1.0	.
H18A	H	1.1558	0.7248	0.2184	1.0	.
H18B	H	1.3378	0.6289	0.2429	1.0	.
H18C	H	1.1490	0.6179	0.2961	1.0	.
