data_k05076_config-1
loop_
 _symmetry_equiv_pos_as_xyz
'x, y, z'
'-x, -y, -z'

_cell_length_a	7.4155(2)
_cell_length_b	11.2295(3)
_cell_length_c	12.0044(3)
_cell_angle_alpha	73.6103(11)
_cell_angle_beta	76.7960(11)
_cell_angle_gamma	74.4249(11)
loop_
 _atom_site_label
 _atom_site_type_symbol
 _atom_site_fract_x
 _atom_site_fract_y
 _atom_site_fract_z
 _atom_site_occupancy
 _atom_site_disorder_group
Si1	Si	0.20755(8)	0.44236(6)	0.15864(5)	1.0	.
C1	C	0.0575(3)	0.86633(19)	0.03213(18)	1.0	.
C2	C	-0.0274(3)	0.9332(2)	0.12082(18)	1.0	.
C3	C	-0.0549(3)	0.8695(2)	0.24201(18)	1.0	.
H3	H	-0.0195	0.7793	0.2637	1.0	1
C4	C	-0.129(3)	0.9337(10)	0.3257(8)	1.0	1
S5	S	-0.17735(14)	0.87391(8)	0.47876(7)	1.0	1
C6	C	-0.2720(17)	1.0279(8)	0.5031(5)	1.0	1
C7	C	-0.2656(12)	1.1178(6)	0.4020(8)	1.0	1
H7	H	-0.3076	1.2061	0.3994	1.0	1
C8	C	-0.190(2)	1.0696(9)	0.2985(6)	1.0	1
C9	C	-0.1698(3)	1.1373(2)	0.17765(18)	1.0	.
H9	H	-0.2123	1.2272	0.1572	1.0	1
C10	C	-0.0860(3)	1.06977(19)	0.08838(17)	1.0	.
C11	C	0.1137(3)	0.7301(2)	0.06540(18)	1.0	.
C12	C	0.1576(3)	0.6155(2)	0.09722(19)	1.0	.
C13	C	0.3112(3)	0.3586(2)	0.03721(19)	1.0	.
H13A	H	0.2239	0.3870	-0.0210	1.0	.
H13B	H	0.4327	0.3831	-0.0031	1.0	.
C14	C	0.3473(4)	0.2134(2)	0.0796(2)	1.0	.
H14A	H	0.4366	0.1842	0.1355	1.0	.
H14B	H	0.4009	0.1749	0.0120	1.0	.
H14C	H	0.2272	0.1882	0.1182	1.0	.
C15	C	0.3789(3)	0.4045(2)	0.26266(19)	1.0	.
H15A	H	0.4113	0.3110	0.2927	1.0	.
H15B	H	0.4969	0.4310	0.2177	1.0	.
C16	C	0.3128(4)	0.4651(3)	0.3681(2)	1.0	.
H16A	H	0.2812	0.5579	0.3403	1.0	.
H16B	H	0.4145	0.4406	0.4153	1.0	.
H16C	H	0.2003	0.4358	0.4166	1.0	.
C17	C	-0.0258(3)	0.4009(2)	0.2350(2)	1.0	.
H17A	H	-0.0975	0.4025	0.1742	1.0	.
H17B	H	-0.0001	0.3124	0.2830	1.0	.
C18	C	-0.1526(4)	0.4854(3)	0.3146(3)	1.0	.
H18A	H	-0.0888	0.4788	0.3798	1.0	.
H18B	H	-0.2728	0.4579	0.3459	1.0	.
H18C	H	-0.1777	0.5739	0.2691	1.0	.
C19	C	-0.3308(3)	1.0329(3)	0.62867(19)	1.0	.
H19A	H	-0.2227	0.9882	0.6711	1.0	1
H19B	H	-0.4354	0.9876	0.6641	1.0	1
C20	C	-0.3967(4)	1.1693(3)	0.6449(2)	1.0	.
H20A	H	-0.2905	1.2131	0.6097	1.0	1
H20B	H	-0.5016	1.2138	0.5997	1.0	1
C21	C	-0.4632(5)	1.1841(4)	0.7692(3)	1.0	1
H21A	H	-0.5749	1.1471	0.8037	1.0	1
H21B	H	-0.4965	1.2746	0.7694	1.0	1
H21C	H	-0.3615	1.1401	0.8157	1.0	1
