data_k05177_config-2
loop_
 _symmetry_equiv_pos_as_xyz
'x, y, z'
'-x, -y, -z'

_cell_length_a	9.6979(3)
_cell_length_b	10.2742(3)
_cell_length_c	11.4437(4)
_cell_angle_alpha	106.9781(14)
_cell_angle_beta	100.7143(13)
_cell_angle_gamma	90.5583(14)
loop_
 _atom_site_label
 _atom_site_type_symbol
 _atom_site_fract_x
 _atom_site_fract_y
 _atom_site_fract_z
 _atom_site_occupancy
 _atom_site_disorder_group
Si1	Si	0.67279(10)	0.08940(10)	0.25645(9)	1.0	.
C1	C	0.5401(4)	0.4006(3)	0.0601(3)	1.0	.
C2	C	0.6265(4)	0.4319(3)	-0.0165(3)	1.0	.
C3	C	0.7504(4)	0.3657(3)	-0.0350(3)	1.0	.
C4'	C	0.8323(4)	0.3981(4)	-0.1099(3)	1.0	2
C5'	C	0.9595(16)	0.3552(17)	-0.1502(17)	1.0	2
H5'	H	1.0161	0.2945	-0.1169	1.0	2
C6'	C	0.997(3)	0.407(4)	-0.242(3)	1.0	2
S7'	S	0.9096(5)	0.5395(4)	-0.2560(4)	1.0	2
C8'	C	0.7932(4)	0.5023(4)	-0.1676(3)	1.0	2
C9	C	0.6729(4)	0.5655(4)	-0.1531(3)	1.0	.
C10	C	0.5855(4)	0.5345(3)	-0.0779(3)	1.0	.
C11	C	0.5822(4)	0.3003(3)	0.1236(3)	1.0	.
C12	C	0.6178(4)	0.2170(4)	0.1762(3)	1.0	.
C13	C	0.5154(4)	-0.0362(4)	0.2209(3)	1.0	.
H13	H	0.4912	-0.0747	0.1281	1.0	.
C14	C	0.3831(4)	0.0271(4)	0.2609(4)	1.0	.
H14A	H	0.3034	-0.0413	0.2279	1.0	.
H14B	H	0.3631	0.1046	0.2284	1.0	.
H14C	H	0.3981	0.0585	0.3521	1.0	.
C15	C	0.5503(5)	-0.1562(4)	0.2706(4)	1.0	.
H15A	H	0.5708	-0.1245	0.3619	1.0	.
H15B	H	0.6327	-0.1976	0.2406	1.0	.
H15C	H	0.4700	-0.2241	0.2413	1.0	.
C16	C	0.7355(4)	0.1861(4)	0.4253(3)	1.0	.
H16	H	0.8101	0.2550	0.4271	1.0	.
C17	C	0.6244(5)	0.2681(6)	0.4875(4)	1.0	.
H17A	H	0.5566	0.2059	0.5018	1.0	.
H17B	H	0.5754	0.3184	0.4332	1.0	.
H17C	H	0.6700	0.3326	0.5674	1.0	.
C18	C	0.8087(5)	0.0972(5)	0.5033(4)	1.0	.
H18A	H	0.8469	0.1548	0.5884	1.0	.
H18B	H	0.8854	0.0527	0.4654	1.0	.
H18C	H	0.7403	0.0275	0.5056	1.0	.
C19	C	0.8200(4)	0.0023(4)	0.1894(3)	1.0	.
H19	H	0.8458	-0.0707	0.2297	1.0	.
C20	C	0.9515(4)	0.0977(5)	0.2167(4)	1.0	.
H20A	H	1.0249	0.0474	0.1782	1.0	.
H20B	H	0.9852	0.1335	0.3070	1.0	.
H20C	H	0.9286	0.1736	0.1824	1.0	.
C21	C	0.7755(5)	-0.0681(4)	0.0483(4)	1.0	.
H21A	H	0.7446	0.0000	0.0061	1.0	.
H21B	H	0.6980	-0.1368	0.0328	1.0	.
H21C	H	0.8556	-0.1124	0.0161	1.0	.
C22'	C	1.1319(8)	0.3606(9)	-0.2854(8)	1.0	2
H22C	H	1.1249	0.2611	-0.3276	1.0	2
H22D	H	1.2136	0.3838	-0.2150	1.0	2
C23'	C	1.1425(11)	0.4426(12)	-0.3772(12)	1.0	2
H23C	H	1.0544	0.4255	-0.4407	1.0	2
H23D	H	1.1536	0.5412	-0.3315	1.0	2
C24'	C	1.2680(16)	0.4027(17)	-0.4426(15)	1.0	2
H24C	H	1.3555	0.4213	-0.3800	1.0	2
H24D	H	1.2718	0.4560	-0.5004	1.0	2
H24E	H	1.2565	0.3053	-0.4888	1.0	2
