data_k05342_config-2
loop_
 _symmetry_equiv_pos_as_xyz
'x, y, z'
'-x, -y, -z'

_cell_length_a	7.5766(4)
_cell_length_b	8.1796(5)
_cell_length_c	16.1503(10)
_cell_angle_alpha	100.846(3)
_cell_angle_beta	92.621(3)
_cell_angle_gamma	98.790(2)
loop_
 _atom_site_label
 _atom_site_type_symbol
 _atom_site_fract_x
 _atom_site_fract_y
 _atom_site_fract_z
 _atom_site_occupancy
 _atom_site_disorder_group
Si1	Si	0.29358(11)	0.26805(12)	0.17600(5)	1.0	.
C1	C	0.0602(3)	0.4478(3)	0.41930(15)	1.0	.
C2	C	0.1034(3)	0.6188(3)	0.45966(16)	1.0	.
C3	C	0.2025(3)	0.7411(3)	0.42098(16)	1.0	.
C4'	C	0.2454(7)	0.8927(8)	0.4527(3)	1.0	2
C5'	C	0.3377(15)	1.0408(15)	0.4311(10)	1.0	2
H5'	H	0.3795	1.0384	0.3764	1.0	2
C6'	C	0.3651(13)	1.1835(9)	0.4889(7)	1.0	2
S7'	S	0.2644(4)	1.1694(3)	0.5831(2)	1.0	2
C8'	C	0.1947(9)	0.9558(8)	0.5354(4)	1.0	2
F1'	F	0.4450(7)	1.3374(6)	0.4819(4)	1.0	2
C9	C	0.0911(3)	0.8432(3)	0.58415(16)	1.0	.
C10	C	0.0443(3)	0.6717(3)	0.54268(16)	1.0	.
C11	C	0.1278(3)	0.3931(3)	0.33886(16)	1.0	.
C12	C	0.1887(4)	0.3438(4)	0.27288(17)	1.0	.
C13'	C	0.3128(13)	0.0412(8)	0.1805(5)	1.0	2
H13'	H	0.3690	0.0423	0.2378	1.0	2
C14'	C	0.4308(15)	-0.0350(17)	0.1177(7)	1.0	2
H14D	H	0.4695	0.0445	0.0811	1.0	2
H14E	H	0.3644	-0.1397	0.0832	1.0	2
H14F	H	0.5360	-0.0597	0.1477	1.0	2
C15'	C	0.1177(15)	-0.0511(18)	0.1766(8)	1.0	2
H15D	H	0.0456	0.0237	0.2095	1.0	2
H15E	H	0.1160	-0.1531	0.2003	1.0	2
H15F	H	0.0678	-0.0822	0.1177	1.0	2
C16'	C	0.184(2)	0.320(3)	0.0803(7)	1.0	2
H16'	H	0.2416	0.4414	0.0954	1.0	2
C17'	C	0.253(3)	0.298(4)	-0.0060(10)	1.0	2
H17D	H	0.3557	0.2382	-0.0065	1.0	2
H17E	H	0.2898	0.4086	-0.0203	1.0	2
H17F	H	0.1580	0.2318	-0.0477	1.0	2
C18'	C	-0.0026(17)	0.3638(15)	0.0868(10)	1.0	2
H18D	H	-0.0567	0.3219	0.1343	1.0	2
H18E	H	-0.0760	0.3111	0.0343	1.0	2
H18F	H	0.0042	0.4865	0.0959	1.0	2
C19'	C	0.5254(9)	0.3991(12)	0.1936(8)	1.0	2
H19'	H	0.5873	0.3586	0.1421	1.0	2
C20'	C	0.5298(19)	0.5869(15)	0.1964(11)	1.0	2
H20D	H	0.4635	0.6026	0.1457	1.0	2
H20E	H	0.6543	0.6430	0.1985	1.0	2
H20F	H	0.4743	0.6361	0.2468	1.0	2
C21'	C	0.6470(18)	0.3769(15)	0.2687(9)	1.0	2
H21D	H	0.6535	0.2569	0.2646	1.0	2
H21E	H	0.5972	0.4199	0.3219	1.0	2
H21F	H	0.7674	0.4398	0.2673	1.0	2
