data_k06270_config-1
loop_
 _symmetry_equiv_pos_as_xyz
'x, y, z'
'-x, -y, -z'

_cell_length_a	6.7462(2)
_cell_length_b	7.3377(2)
_cell_length_c	16.3372(4)
_cell_angle_alpha	92.2320(11)
_cell_angle_beta	93.7446(10)
_cell_angle_gamma	104.2515(11)
loop_
 _atom_site_label
 _atom_site_type_symbol
 _atom_site_fract_x
 _atom_site_fract_y
 _atom_site_fract_z
 _atom_site_occupancy
 _atom_site_disorder_group
Ge1	Ge	0.17444(3)	0.53713(3)	0.828638(12)	1.0	.
C1	C	0.4187(3)	0.5206(3)	0.57666(11)	1.0	.
C2	C	0.6238(3)	0.6172(3)	0.56533(11)	1.0	.
C3	C	0.7476(3)	0.7387(3)	0.62872(11)	1.0	.
H3	H	0.6932	0.7584	0.6796	1.0	1
C4	C	0.9463(3)	0.8276(3)	0.61608(12)	1.0	1
S5	S	1.12717(13)	0.9832(2)	0.68362(7)	1.0	1
C6	C	1.3127(4)	1.0023(4)	0.61315(18)	1.0	1
H6	H	1.4481	1.0776	0.6263	1.0	1
C7	C	1.2569(8)	0.9028(8)	0.5354(3)	1.0	1
H7	H	1.3396	0.9020	0.4906	1.0	1
C8	C	1.0330(3)	0.7974(3)	0.54064(12)	1.0	1
C9	C	0.9149(3)	0.6843(3)	0.47787(11)	1.0	.
H9	H	0.9722	0.6668	0.4274	1.0	1
C10	C	0.7068(3)	0.5929(2)	0.48790(11)	1.0	.
C11	C	0.3401(3)	0.5370(3)	0.65511(12)	1.0	.
C12	C	0.2757(3)	0.5459(3)	0.72166(12)	1.0	.
C13	C	-0.1240(3)	0.4866(4)	0.81496(14)	1.0	.
H13A	H	-0.1794	0.4572	0.8689	1.0	.
H13B	H	-0.1614	0.6025	0.7978	1.0	.
C14	C	-0.2263(4)	0.3265(4)	0.75300(16)	1.0	.
H14A	H	-0.1748	0.3549	0.6990	1.0	.
H14B	H	-0.3751	0.3114	0.7495	1.0	.
H14C	H	-0.1951	0.2097	0.7704	1.0	.
C15	C	0.2608(4)	0.3319(3)	0.88137(14)	1.0	.
H15A	H	0.2386	0.2234	0.8409	1.0	.
H15B	H	0.4096	0.3733	0.8976	1.0	.
C16	C	0.1488(7)	0.2680(5)	0.95610(19)	1.0	.
H16A	H	0.1737	0.3733	0.9973	1.0	.
H16B	H	0.1986	0.1646	0.9791	1.0	.
H16C	H	0.0014	0.2246	0.9405	1.0	.
C17	C	0.2924(4)	0.7780(3)	0.88992(14)	1.0	.
H17A	H	0.1987	0.8613	0.8809	1.0	.
H17B	H	0.3007	0.7557	0.9493	1.0	.
C18	C	0.5043(4)	0.8794(4)	0.86676(18)	1.0	.
H18A	H	0.5996	0.7997	0.8769	1.0	.
H18B	H	0.5526	0.9981	0.9000	1.0	.
H18C	H	0.4974	0.9056	0.8084	1.0	.
