data_k13047_config-1
loop_
 _symmetry_equiv_pos_as_xyz
'x, y, z'
'-x, -y, -z'

_cell_length_a	7.2274(3)
_cell_length_b	7.2848(3)
_cell_length_c	15.3896(7)
_cell_angle_alpha	89.633(2)
_cell_angle_beta	89.354(2)
_cell_angle_gamma	71.732(2)
loop_
 _atom_site_label
 _atom_site_type_symbol
 _atom_site_fract_x
 _atom_site_fract_y
 _atom_site_fract_z
 _atom_site_occupancy
 _atom_site_disorder_group
C1	C	0.5832(3)	0.5181(3)	0.58096(15)	1.0	.
C2	C	0.3819(3)	0.6131(3)	0.56789(15)	1.0	.
C3	C	0.2631(3)	0.7292(3)	0.63356(15)	1.0	.
H3	H	0.3181	0.7469	0.6874	1.0	1
C4	C	0.0688(3)	0.8156(3)	0.61901(15)	1.0	1
S5	S	-0.10226(18)	0.9635(2)	0.69122(9)	1.0	1
C6	C	-0.2838(5)	0.9805(6)	0.6137(3)	1.0	1
F1	F	-0.4652(3)	1.0865(3)	0.63764(16)	1.0	1
C7	C	-0.2247(14)	0.891(2)	0.5391(10)	1.0	1
H7	H	-0.3081	0.8944	0.4915	1.0	1
C8	C	-0.0180(3)	0.7893(3)	0.53868(15)	1.0	1
C9	C	0.0938(3)	0.6811(3)	0.47383(15)	1.0	.
H9	H	0.0355	0.6654	0.4206	1.0	1
C10	C	0.2970(3)	0.5920(3)	0.48560(15)	1.0	.
C11	C	0.6664(3)	0.5311(3)	0.66414(15)	1.0	.
C12	C	0.7360(3)	0.5362(3)	0.73457(16)	1.0	.
C13	C	1.1032(4)	0.5045(5)	0.83453(19)	1.0	.
H13A	H	1.1154	0.6310	0.8166	1.0	.
H13B	H	1.1623	0.4736	0.8927	1.0	.
C14	C	1.2180(5)	0.3524(6)	0.7712(2)	1.0	.
H14A	H	1.2113	0.2255	0.7894	1.0	.
H14B	H	1.3543	0.3503	0.7701	1.0	.
H14C	H	1.1630	0.3829	0.7130	1.0	.
C15	C	0.7008(4)	0.7528(5)	0.90201(19)	1.0	1
H15A	H	0.7225	0.7310	0.9652	1.0	1
H15B	H	0.7546	0.8570	0.8845	1.0	1
C16	C	0.4817(12)	0.8216(15)	0.8858(6)	1.0	1
H16A	H	0.4582	0.8370	0.8232	1.0	1
H16B	H	0.4223	0.9459	0.9148	1.0	1
H16C	H	0.4241	0.7261	0.9090	1.0	1
Si1	Si	0.83818(10)	0.52842(11)	0.84379(4)	1.0	.
C17	C	0.799(3)	0.304(2)	0.8905(11)	1.0	1
H17	H	0.6766	0.2849	0.8798	1.0	1
C18	C	0.9240(14)	0.1711(11)	0.9363(6)	1.0	1
H18A	H	1.0479	0.1837	0.9487	1.0	1
H18B	H	0.8912	0.0622	0.9573	1.0	1
