data_k13066_config-1
loop_
 _symmetry_equiv_pos_as_xyz
'x, y, z'
'-x, -y, -z'

_cell_length_a	6.9958(2)
_cell_length_b	7.2915(2)
_cell_length_c	17.0802(5)
_cell_angle_alpha	92.9074(11)
_cell_angle_beta	91.3134(11)
_cell_angle_gamma	105.6823(12)
loop_
 _atom_site_label
 _atom_site_type_symbol
 _atom_site_fract_x
 _atom_site_fract_y
 _atom_site_fract_z
 _atom_site_occupancy
 _atom_site_disorder_group
Si1	Si	-0.32138(9)	0.07373(9)	0.81188(3)	1.0	.
C1	C	-0.0830(3)	0.0272(3)	0.57302(11)	1.0	.
C2	C	0.1190(3)	0.1211(3)	0.56134(11)	1.0	.
C3	C	0.2385(3)	0.2459(3)	0.62080(11)	1.0	.
H3	H	0.1830	0.2703	0.6692	1.0	1
C4	C	0.4348(3)	0.3311(3)	0.60806(11)	1.0	1
S5	S	0.60653(15)	0.48940(14)	0.67318(6)	1.0	1
C6	C	0.7902(5)	0.4970(5)	0.60462(19)	1.0	1
F1	F	0.9737(2)	0.6043(2)	0.62594(11)	1.0	1
C7	C	0.736(2)	0.397(2)	0.5383(10)	1.0	1
H7	H	0.8233	0.3902	0.4970	1.0	1
C8	C	0.5224(3)	0.2955(3)	0.53584(12)	1.0	1
C9	C	0.4093(3)	0.1794(3)	0.47714(11)	1.0	.
H9	H	0.4677	0.1577	0.4291	1.0	1
C10	C	0.2041(3)	0.0905(3)	0.48735(11)	1.0	.
C11	C	-0.1646(3)	0.0500(3)	0.64810(12)	1.0	.
C12	C	-0.2297(3)	0.0659(3)	0.71200(12)	1.0	.
C13	C	-0.5960(3)	0.0411(3)	0.80575(13)	1.0	.
H13A	H	-0.6487	0.0173	0.8587	1.0	.
H13B	H	-0.6210	0.1615	0.7899	1.0	.
C14	C	-0.7109(4)	-0.1214(4)	0.74865(16)	1.0	.
H14A	H	-0.6634	-0.0974	0.6956	1.0	.
H14B	H	-0.8528	-0.1289	0.7493	1.0	.
H14C	H	-0.6901	-0.2421	0.7645	1.0	.
C15	C	-0.2663(14)	-0.1305(10)	0.8619(5)	1.0	1
H15A	H	-0.3493	-0.2504	0.8353	1.0	1
H15B	H	-0.1259	-0.1265	0.8530	1.0	1
C16	C	-0.299(2)	-0.1419(16)	0.9506(6)	1.0	1
H16A	H	-0.2341	-0.0179	0.9775	1.0	1
H16B	H	-0.2410	-0.2393	0.9709	1.0	1
H16C	H	-0.4413	-0.1758	0.9599	1.0	1
C17	C	-0.1804(8)	0.3061(8)	0.8630(6)	1.0	1
H17A	H	-0.2239	0.4099	0.8393	1.0	1
H17B	H	-0.2171	0.3049	0.9186	1.0	1
C18	C	0.0452(7)	0.3531(8)	0.8604(3)	1.0	1
H18A	H	0.0896	0.2486	0.8831	1.0	1
H18B	H	0.0832	0.3585	0.8049	1.0	1
C19	C	0.1514(6)	0.5369(6)	0.9033(2)	1.0	1
H19A	H	0.1021	0.6402	0.8837	1.0	1
H19B	H	0.2942	0.5637	0.8951	1.0	1
H19C	H	0.1277	0.5275	0.9595	1.0	1
