data_k14065s_config-2
loop_
 _symmetry_equiv_pos_as_xyz
'x, y, z'
'-x, y+1/2, -z+1/2'
'-x, -y, -z'
'x, -y-1/2, z-1/2'

_cell_length_a	7.3261(1)
_cell_length_b	33.4045(5)
_cell_length_c	7.2059(1)
_cell_angle_alpha	90
_cell_angle_beta	107.5154(6)
_cell_angle_gamma	90
loop_
 _atom_site_label
 _atom_site_type_symbol
 _atom_site_fract_x
 _atom_site_fract_y
 _atom_site_fract_z
 _atom_site_occupancy
 _atom_site_disorder_group
Si1	Si	0.52721(13)	0.65875(3)	0.15717(15)	1.0	.
C1	C	0.5187(4)	0.53727(8)	0.4166(4)	1.0	.
C2	C	0.6113(4)	0.53100(8)	0.6156(4)	1.0	.
C3	C	0.7275(4)	0.56119(8)	0.7338(4)	1.0	.
C4'	C	0.8129(4)	0.55446(8)	0.9271(4)	1.0	2
C5'	C	0.923(3)	0.5821(5)	1.063(2)	1.0	2
H5'	H	0.9492	0.6089	1.0354	1.0	2
F1'	F	1.0903(13)	0.5810(2)	1.4108(11)	1.0	2
C6'	C	0.987(3)	0.5643(4)	1.2414(14)	1.0	2
S7'	S	0.9037(15)	0.5162(3)	1.2608(9)	1.0	2
C8'	C	0.7870(4)	0.51731(8)	1.0158(4)	1.0	2
C9	C	0.6798(4)	0.48769(9)	0.9051(4)	1.0	.
C10	C	0.5905(4)	0.49315(8)	0.7024(4)	1.0	.
C12	C	0.5318(4)	0.57596(9)	0.3315(4)	1.0	.
C13	C	0.5366(4)	0.60840(9)	0.2618(5)	1.0	.
C14	C	0.4969(5)	0.65400(10)	-0.1083(5)	1.0	.
H14A	H	0.4734	0.6810	-0.1679	1.0	.
H14B	H	0.6181	0.6439	-0.1250	1.0	.
C15	C	0.3352(6)	0.62644(12)	-0.2176(6)	1.0	.
H15A	H	0.3585	0.5994	-0.1622	1.0	.
H15B	H	0.3291	0.6256	-0.3552	1.0	.
H15C	H	0.2136	0.6366	-0.2057	1.0	.
C16'	C	0.770(5)	0.6845(11)	0.310(4)	1.0	2
H16C	H	0.8805	0.6690	0.2953	1.0	2
H16D	H	0.7775	0.7120	0.2612	1.0	2
C17'	C	0.777(2)	0.6858(6)	0.523(3)	1.0	2
H17D	H	0.8971	0.6985	0.5995	1.0	2
H17E	H	0.6686	0.7013	0.5366	1.0	2
H17F	H	0.7713	0.6585	0.5705	1.0	2
C18'	C	0.319(5)	0.6856(8)	0.166(4)	1.0	2
H18'	H	0.2044	0.6700	0.0895	1.0	2
C19'	C	0.3125(19)	0.6874(3)	0.3654(19)	1.0	2
H19D	H	0.3243	0.6603	0.4200	1.0	2
H19E	H	0.4184	0.7040	0.4430	1.0	2
H19F	H	0.1906	0.6991	0.3677	1.0	2
C20'	C	0.300(3)	0.7291(5)	0.079(4)	1.0	2
H20D	H	0.3038	0.7279	-0.0556	1.0	2
H20E	H	0.1778	0.7408	0.0814	1.0	2
H20F	H	0.4056	0.7457	0.1567	1.0	2
