data_k06071_config-1
loop_
 _symmetry_equiv_pos_as_xyz
'x, y, z'
'-x, -y, -z'

_cell_length_a	7.9028(3)
_cell_length_b	10.4873(4)
_cell_length_c	10.8412(5)
_cell_angle_alpha	76.3218(18)
_cell_angle_beta	88.4391(17)
_cell_angle_gamma	88.9630(19)
loop_
 _atom_site_label
 _atom_site_type_symbol
 _atom_site_fract_x
 _atom_site_fract_y
 _atom_site_fract_z
 _atom_site_occupancy
 _atom_site_disorder_group
Si1	Si	0.78252(11)	0.29051(8)	0.37881(8)	1.0	1
C13	C	0.9469(6)	0.2994(3)	0.4951(3)	1.0	1
H13A	H	1.0465	0.3452	0.4487	1.0	1
H13B	H	0.9022	0.3529	0.5529	1.0	1
C14	C	1.0049(5)	0.1656(3)	0.5750(3)	1.0	1
H14A	H	0.9087	0.1215	0.6253	1.0	1
H14B	H	1.0939	0.1783	0.6320	1.0	1
H14C	H	1.0492	0.1116	0.5188	1.0	1
C15	C	0.7290(5)	0.4631(3)	0.2876(3)	1.0	1
H15A	H	0.8312	0.5008	0.2386	1.0	1
H15B	H	0.6411	0.4578	0.2257	1.0	1
C16	C	0.6691(5)	0.5531(3)	0.3632(3)	1.0	1
H16A	H	0.5643	0.5197	0.4090	1.0	1
H16B	H	0.6472	0.6396	0.3072	1.0	1
H16C	H	0.7553	0.5607	0.4242	1.0	1
C17	C	0.5903(5)	0.2018(3)	0.4564(3)	1.0	1
H17A	H	0.6249	0.1117	0.5003	1.0	1
H17B	H	0.5467	0.2463	0.5221	1.0	1
C18	C	0.4448(5)	0.1925(5)	0.3678(4)	1.0	1
H18A	H	0.4062	0.2810	0.3257	1.0	1
H18B	H	0.3508	0.1443	0.4176	1.0	1
H18C	H	0.4847	0.1461	0.3037	1.0	1
C1	C	0.9582(3)	0.06873(17)	0.09435(17)	1.0	.
C2	C	0.8428(3)	-0.02270(17)	0.06940(17)	1.0	.
C3	C	0.6857(3)	-0.04674(19)	0.13623(19)	1.0	.
H3	H	0.6562	-0.0009	0.1997	1.0	1
C4	C	0.5761(3)	-0.13580(19)	0.10966(19)	1.0	1
S5	S	0.37696(18)	-0.17472(15)	0.19117(15)	1.0	1
C6	C	0.3409(14)	-0.2780(14)	0.1117(11)	1.0	1
C7	C	0.4716(11)	-0.2945(7)	0.0216(7)	1.0	1
H7	H	0.4648	-0.3566	-0.0292	1.0	1
C8	C	0.6185(3)	-0.20618(19)	0.0147(2)	1.0	1
C9	C	0.7687(3)	-0.18409(19)	-0.0521(2)	1.0	.
H9	H	0.7951	-0.2304	-0.1157	1.0	1
C10	C	0.8854(3)	-0.09262(17)	-0.02716(17)	1.0	.
C11	C	0.9133(3)	0.13996(18)	0.18805(18)	1.0	.
C12	C	0.8680(3)	0.1997(2)	0.2659(2)	1.0	.
C19	C	0.1802(16)	-0.3506(9)	0.1443(7)	1.0	-1
H19A	H	0.1136	-0.3112	0.2049	1.0	-1
H19B	H	0.1136	-0.3396	0.0664	1.0	-1
C20	C	0.2030(6)	-0.4869(4)	0.1987(5)	1.0	-1
H20A	H	0.0922	-0.5290	0.2150	1.0	-1
H20B	H	0.2626	-0.4989	0.2788	1.0	-1
H20C	H	0.2697	-0.5268	0.1398	1.0	-1
