data_k06071_config-2
loop_
 _symmetry_equiv_pos_as_xyz
'x, y, z'
'-x, -y, -z'

_cell_length_a	7.9028(3)
_cell_length_b	10.4873(4)
_cell_length_c	10.8412(5)
_cell_angle_alpha	76.3218(18)
_cell_angle_beta	88.4391(17)
_cell_angle_gamma	88.9630(19)
loop_
 _atom_site_label
 _atom_site_type_symbol
 _atom_site_fract_x
 _atom_site_fract_y
 _atom_site_fract_z
 _atom_site_occupancy
 _atom_site_disorder_group
Si1'	Si	0.7701(15)	0.2323(14)	0.4379(15)	1.0	2
C13'	C	0.959(5)	0.265(5)	0.523(7)	1.0	2
H13C	H	1.0125	0.3476	0.4760	1.0	2
H13D	H	0.9249	0.2751	0.6088	1.0	2
C14'	C	1.084(5)	0.149(4)	0.533(5)	1.0	2
H14D	H	1.0379	0.0714	0.5922	1.0	2
H14E	H	1.1923	0.1716	0.5638	1.0	2
H14F	H	1.1017	0.1305	0.4490	1.0	2
C15'	C	0.778(4)	0.414(2)	0.403(4)	1.0	2
H15C	H	0.7604	0.4479	0.4800	1.0	2
H15D	H	0.8864	0.4480	0.3599	1.0	2
C16'	C	0.626(4)	0.449(3)	0.311(3)	1.0	2
H16D	H	0.5199	0.4245	0.3596	1.0	2
H16E	H	0.6377	0.4005	0.2445	1.0	2
H16F	H	0.6245	0.5434	0.2729	1.0	2
C17'	C	0.562(5)	0.152(6)	0.449(5)	1.0	2
H17C	H	0.5762	0.0551	0.4754	1.0	2
H17D	H	0.4872	0.1806	0.5119	1.0	2
C18'	C	0.482(7)	0.190(7)	0.316(6)	1.0	2
H18D	H	0.4528	0.2840	0.2960	1.0	2
H18E	H	0.3799	0.1390	0.3161	1.0	2
H18F	H	0.5637	0.1726	0.2523	1.0	2
C1	C	0.9582(3)	0.06873(17)	0.09435(17)	1.0	.
C2	C	0.8428(3)	-0.02270(17)	0.06940(17)	1.0	.
C3	C	0.6857(3)	-0.04674(19)	0.13623(19)	1.0	.
C4'	C	0.5761(3)	-0.13580(19)	0.10966(19)	1.0	2
C5'	C	0.4132(10)	-0.1883(7)	0.1492(6)	1.0	2
H5'	H	0.3486	-0.1591	0.2127	1.0	2
C6'	C	0.3483(19)	-0.2877(18)	0.0901(15)	1.0	2
S7'	S	0.4746(3)	-0.3145(3)	-0.0137(2)	1.0	2
C8'	C	0.6185(3)	-0.20618(19)	0.0147(2)	1.0	2
C9	C	0.7687(3)	-0.18409(19)	-0.0521(2)	1.0	.
C10	C	0.8854(3)	-0.09262(17)	-0.02716(17)	1.0	.
C11	C	0.9133(3)	0.13996(18)	0.18805(18)	1.0	.
C12	C	0.8680(3)	0.1997(2)	0.2659(2)	1.0	.
C19'	C	0.188(2)	-0.3671(11)	0.1146(11)	1.0	-2
H19C	H	0.1800	-0.4055	0.2072	1.0	-2
H19D	H	0.0922	-0.3044	0.0936	1.0	-2
C20'	C	0.1616(9)	-0.4643(7)	0.0572(7)	1.0	-2
H20D	H	0.0580	-0.5104	0.0923	1.0	-2
H20E	H	0.2578	-0.5258	0.0713	1.0	-2
H20F	H	0.1495	-0.4278	-0.0341	1.0	-2
