data_x06156_config-1
loop_
 _symmetry_equiv_pos_as_xyz
'x, y, z'
'-x, -y, -z'

_cell_length_a	7.1153(14)
_cell_length_b	7.2342(14)
_cell_length_c	16.626(3)
_cell_angle_alpha	97.522(9)
_cell_angle_beta	91.361(9)
_cell_angle_gamma	107.491(10)
loop_
 _atom_site_label
 _atom_site_type_symbol
 _atom_site_fract_x
 _atom_site_fract_y
 _atom_site_fract_z
 _atom_site_occupancy
 _atom_site_disorder_group
Si1	Si	0.2757(5)	0.8861(5)	0.67669(14)	1.0	.
C1	C	0.0670(11)	0.9607(10)	0.9238(4)	1.0	.
C2	C	-0.1300(11)	0.8699(10)	0.9366(4)	1.0	.
C3	C	-0.2615(11)	0.7402(11)	0.8758(4)	1.0	.
H3	H	-0.2166	0.7098	0.8252	1.0	1
C4	C	-0.4506(10)	0.6594(10)	0.8896(4)	1.0	1
S5	S	-0.6308(5)	0.4927(9)	0.8216(2)	1.0	1
C6	C	-0.7986(16)	0.493(2)	0.8963(8)	1.0	1
F1	F	-0.9835(10)	0.3885(15)	0.8744(5)	1.0	1
C7	C	-0.729(3)	0.617(4)	0.9638(12)	1.0	1
H7	H	-0.8069	0.6436	1.0052	1.0	1
C8	C	-0.5215(10)	0.7031(10)	0.9657(4)	1.0	1
C9	C	-0.4007(10)	0.8282(10)	1.0262(4)	1.0	.
H9	H	-0.4501	0.8600	1.0756	1.0	1
C10	C	-0.2004(11)	0.9096(10)	1.0139(4)	1.0	.
C11	C	0.1359(12)	0.9295(12)	0.8454(5)	1.0	.
C12	C	0.1912(13)	0.9051(12)	0.7788(5)	1.0	.
C13	C	0.5413(18)	0.916(2)	0.6840(6)	1.0	.
H13A	H	0.5597	0.8018	0.7039	1.0	.
H13B	H	0.5881	0.9172	0.6296	1.0	.
C14	C	0.667(2)	1.094(3)	0.7371(10)	1.0	.
H14A	H	0.6489	1.2086	0.7189	1.0	.
H14B	H	0.8034	1.0996	0.7344	1.0	.
H14C	H	0.6308	1.0895	0.7921	1.0	.
C15	C	0.140(3)	0.634(2)	0.6232(7)	1.0	.
H15A	H	0.1721	0.6266	0.5668	1.0	.
H15B	H	0.1891	0.5404	0.6471	1.0	.
C16	C	-0.070(3)	0.573(3)	0.6253(11)	1.0	.
H16A	H	-0.1056	0.5557	0.6798	1.0	.
H16B	H	-0.1259	0.4519	0.5897	1.0	.
H16C	H	-0.1206	0.6716	0.6078	1.0	.
C17	C	0.219(2)	1.0844(19)	0.6293(6)	1.0	.
H17A	H	0.0771	1.0596	0.6264	1.0	.
H17B	H	0.2778	1.2077	0.6645	1.0	.
C18	C	0.290(3)	1.106(3)	0.5457(7)	1.0	.
H18A	H	0.4296	1.1706	0.5498	1.0	.
H18B	H	0.2232	1.1821	0.5200	1.0	.
H18C	H	0.2619	0.9787	0.5141	1.0	.
