data_x06178_config-1
loop_
 _symmetry_equiv_pos_as_xyz
'x, y, z'
'-x, -y, -z'

_cell_length_a	7.5396(6)
_cell_length_b	8.2833(6)
_cell_length_c	16.0480(12)
_cell_angle_alpha	100.793(3)
_cell_angle_beta	92.519(3)
_cell_angle_gamma	98.295(3)
loop_
 _atom_site_label
 _atom_site_type_symbol
 _atom_site_fract_x
 _atom_site_fract_y
 _atom_site_fract_z
 _atom_site_occupancy
 _atom_site_disorder_group
Si1	Si	0.20420(13)	0.73000(12)	0.32403(5)	1.0	.
C1	C	0.4399(3)	0.5511(3)	0.08112(15)	1.0	.
C2	C	0.3979(3)	0.3837(3)	0.04054(15)	1.0	.
C3	C	0.2988(3)	0.2641(3)	0.07999(16)	1.0	.
H3	H	0.2589	0.2968	0.1351	1.0	1
C4	C	0.2608(3)	0.1023(3)	0.03913(17)	1.0	1
S5	S	0.1483(4)	-0.0650(3)	0.07574(19)	1.0	1
C6	C	0.1718(13)	-0.1988(8)	-0.0184(5)	1.0	1
C22	C	0.1054(17)	-0.3668(15)	-0.0246(9)	1.0	1
O1	O	0.0160(12)	-0.4259(12)	0.0266(7)	1.0	1
C7	C	0.262(2)	-0.1207(13)	-0.0755(10)	1.0	1
H7	H	0.2857	-0.1763	-0.1303	1.0	1
C8	C	0.3162(3)	0.0511(3)	-0.04461(17)	1.0	1
C9	C	0.4133(3)	0.1641(3)	-0.08406(16)	1.0	.
H9	H	0.4510	0.1294	-0.1394	1.0	1
C10	C	0.4571(3)	0.3314(3)	-0.04252(15)	1.0	.
C11	C	0.3716(3)	0.6052(3)	0.16111(16)	1.0	.
C12	C	0.3079(4)	0.6535(4)	0.22674(18)	1.0	.
C13	C	0.167(2)	0.9426(16)	0.3178(7)	1.0	1
H13	H	0.0893	0.9276	0.2641	1.0	1
C14	C	0.324(2)	1.0504(16)	0.3044(9)	1.0	1
H14A	H	0.3865	0.9937	0.2580	1.0	1
H14B	H	0.4042	1.0801	0.3565	1.0	1
H14C	H	0.2894	1.1515	0.2894	1.0	1
C15	C	0.056(3)	1.015(2)	0.3854(10)	1.0	1
H15A	H	-0.0499	0.9341	0.3891	1.0	1
H15B	H	0.0178	1.1159	0.3713	1.0	1
H15C	H	0.1273	1.0443	0.4401	1.0	1
C16	C	0.320(3)	0.700(4)	0.4132(14)	1.0	1
H16	H	0.3866	0.8152	0.4326	1.0	1
C17	C	0.479(2)	0.6086(19)	0.4064(9)	1.0	1
H17A	H	0.5342	0.6180	0.3530	1.0	1
H17B	H	0.4393	0.4911	0.4074	1.0	1
H17C	H	0.5672	0.6574	0.4545	1.0	1
C18	C	0.233(4)	0.678(5)	0.4968(15)	1.0	1
H18A	H	0.1285	0.7367	0.5022	1.0	1
H18B	H	0.3201	0.7241	0.5453	1.0	1
H18C	H	0.1934	0.5594	0.4955	1.0	1
C19	C	-0.034(2)	0.6672(16)	0.3115(9)	1.0	1
H19	H	-0.0849	0.7076	0.3666	1.0	1
C20	C	-0.076(2)	0.4810(16)	0.2909(10)	1.0	1
H20A	H	-0.0172	0.4351	0.3349	1.0	1
H20B	H	-0.0324	0.4395	0.2356	1.0	1
H20C	H	-0.2064	0.4467	0.2890	1.0	1
C21	C	-0.1232(13)	0.7361(15)	0.2429(7)	1.0	1
H21A	H	-0.0968	0.8579	0.2561	1.0	1
H21B	H	-0.2535	0.7006	0.2401	1.0	1
H21C	H	-0.0775	0.6946	0.1880	1.0	1
