data_x10174_config-2
loop_
 _symmetry_equiv_pos_as_xyz
'x, y, z'
'-x+1/2, y+1/2, -z+1/2'
'-x, -y, -z'
'x-1/2, -y-1/2, z-1/2'

_cell_length_a	11.6566(5)
_cell_length_b	35.6563(12)
_cell_length_c	14.7698(7)
_cell_angle_alpha	90.00
_cell_angle_beta	103.720(3)
_cell_angle_gamma	90.00
loop_
 _atom_site_label
 _atom_site_type_symbol
 _atom_site_fract_x
 _atom_site_fract_y
 _atom_site_fract_z
 _atom_site_occupancy
 _atom_site_disorder_group
Si2	Si	0.56517(12)	0.39751(3)	0.61581(9)	1.0	.
N1	N	1.2707(3)	0.28182(9)	0.9723(3)	1.0	.
N2	N	-0.0556(3)	0.27131(9)	0.3156(3)	1.0	.
O1	O	1.2576(3)	0.21921(8)	0.9840(2)	1.0	.
O2	O	-0.0388(3)	0.20871(8)	0.3037(2)	1.0	.
C1	C	0.6121(4)	0.19433(10)	0.6470(3)	1.0	.
C2	C	0.7102(4)	0.21497(11)	0.6978(3)	1.0	.
C3	C	0.8123(4)	0.19685(11)	0.7521(3)	1.0	.
H3	H	0.8149	0.1703	0.7567	1.0	.
C4	C	0.9067(4)	0.21783(11)	0.7978(3)	1.0	.
S5	S	1.04049(10)	0.20166(3)	0.86509(8)	1.0	.
C6	C	1.0930(4)	0.24786(11)	0.8890(3)	1.0	.
C7	C	1.0125(4)	0.27390(11)	0.8477(3)	1.0	.
H7	H	1.0261	0.3001	0.8539	1.0	.
C8	C	0.9048(4)	0.25786(11)	0.7936(3)	1.0	.
C9	C	0.8062(4)	0.27608(10)	0.7430(3)	1.0	.
H9	H	0.8040	0.3027	0.7413	1.0	.
C10	C	0.7084(4)	0.25521(11)	0.6935(3)	1.0	.
C11	C	0.6071(4)	0.27361(10)	0.6406(3)	1.0	.
C12	C	0.5088(4)	0.25310(10)	0.5913(3)	1.0	.
C13	C	0.4069(4)	0.27169(10)	0.5395(3)	1.0	.
H13	H	0.4046	0.2983	0.5384	1.0	.
C14	C	0.3120(4)	0.25179(11)	0.4910(3)	1.0	.
C15	C	0.2042(4)	0.26591(11)	0.4355(3)	1.0	.
H15	H	0.1884	0.2919	0.4257	1.0	.
C16	C	0.1253(4)	0.23859(11)	0.3976(3)	1.0	.
S17	S	0.18206(10)	0.19323(3)	0.42753(8)	1.0	.
C18	C	0.3145(4)	0.21168(11)	0.4934(3)	1.0	.
C19	C	0.4114(4)	0.19250(11)	0.5426(3)	1.0	.
H19	H	0.4120	0.1659	0.5428	1.0	.
C20	C	0.5109(4)	0.21283(10)	0.5932(3)	1.0	.
C21	C	0.6166(4)	0.15437(11)	0.6497(3)	1.0	.
C22	C	0.6228(4)	0.12087(12)	0.6533(4)	1.0	.
Si1	Si	0.63399(13)	0.06919(3)	0.65644(11)	1.0	.
C23	C	0.5772(5)	0.05228(14)	0.5331(5)	1.0	.
H23	H	0.5878	0.0244	0.5330	1.0	.
C24	C	0.6527(7)	0.06960(18)	0.4690(5)	1.0	.
H24A	H	0.6277	0.0589	0.4063	1.0	.
H24B	H	0.7363	0.0639	0.4948	1.0	.
H24C	H	0.6414	0.0968	0.4656	1.0	.
C25	C	0.4487(6)	0.06038(17)	0.4954(6)	1.0	.
H25A	H	0.4364	0.0876	0.4910	1.0	.
H25B	H	0.4033	0.0497	0.5372	1.0	.
H25C	H	0.4223	0.0492	0.4334	1.0	.
C26'	C	0.627(3)	0.0503(7)	0.7750(15)	1.0	2
H26'	H	0.7120	0.0490	0.8096	1.0	2
C27'	C	0.572(5)	0.0788(12)	0.832(3)	1.0	2
H27D	H	0.6044	0.1039	0.8264	1.0	2
H27E	H	0.5912	0.0713	0.8978	1.0	2
H27F	H	0.4862	0.0793	0.8082	1.0	2
C28'	C	0.586(4)	0.0105(7)	0.776(3)	1.0	2
H28D	H	0.6257	-0.0051	0.7381	1.0	2
H28E	H	0.5003	0.0094	0.7501	1.0	2
H28F	H	0.6043	0.0012	0.8401	1.0	2
C29'	C	0.7962(17)	0.0593(8)	0.654(3)	1.0	2
H29'	H	0.8104	0.0704	0.5955	1.0	2
C30'	C	0.883(3)	0.0785(12)	0.738(3)	1.0	2
H30D	H	0.8713	0.1057	0.7345	1.0	2
H30E	H	0.9646	0.0726	0.7363	1.0	2
H30F	H	0.8678	0.0692	0.7967	1.0	2
C31'	C	0.820(5)	0.0178(11)	0.653(6)	1.0	2
H31D	H	0.7565	0.0056	0.6072	1.0	2
H31E	H	0.8244	0.0073	0.7149	1.0	2
H31F	H	0.8955	0.0137	0.6358	1.0	2
C32	C	0.6038(4)	0.31365(11)	0.6345(3)	1.0	.
C33	C	0.5951(4)	0.34720(11)	0.6270(3)	1.0	.
C34	C	0.4048(5)	0.40125(15)	0.5534(4)	1.0	.
H34	H	0.3626	0.3859	0.5920	1.0	.
C35	C	0.3722(6)	0.38317(17)	0.4582(5)	1.0	.
H35A	H	0.2862	0.3807	0.4381	1.0	.
H35B	H	0.4086	0.3583	0.4612	1.0	.
H35C	H	0.4007	0.3988	0.4135	1.0	.
C36	C	0.3525(6)	0.44016(18)	0.5536(5)	1.0	.
H36A	H	0.3835	0.4565	0.5116	1.0	.
H36B	H	0.3739	0.4504	0.6169	1.0	.
H36C	H	0.2663	0.4387	0.5324	1.0	.
C37	C	0.6792(5)	0.41886(13)	0.5578(4)	1.0	.
H37	H	0.7578	0.4151	0.6021	1.0	.
C38	C	0.6858(6)	0.39931(16)	0.4676(4)	1.0	.
H38A	H	0.6143	0.4049	0.4193	1.0	.
H38B	H	0.6921	0.3722	0.4780	1.0	.
H38C	H	0.7552	0.4083	0.4474	1.0	.
C39	C	0.6636(8)	0.46149(16)	0.5429(6)	1.0	.
H39A	H	0.7271	0.4713	0.5163	1.0	.
H39B	H	0.6668	0.4738	0.6028	1.0	.
H39C	H	0.5871	0.4666	0.5001	1.0	.
C40	C	0.5868(4)	0.41598(12)	0.7376(3)	1.0	.
H40	H	0.5681	0.4434	0.7335	1.0	.
C41	C	0.5031(5)	0.39703(14)	0.7895(4)	1.0	.
H41A	H	0.5160	0.3699	0.7909	1.0	.
H41B	H	0.4211	0.4025	0.7573	1.0	.
H41C	H	0.5185	0.4067	0.8534	1.0	.
C42	C	0.7127(5)	0.41143(14)	0.7940(4)	1.0	.
H42A	H	0.7202	0.4221	0.8562	1.0	.
H42B	H	0.7664	0.4245	0.7626	1.0	.
H42C	H	0.7330	0.3847	0.7995	1.0	.
C43	C	1.2123(4)	0.24910(11)	0.9513(3)	1.0	.
C44	C	1.3884(4)	0.28156(12)	1.0351(3)	1.0	.
H44A	H	1.4458	0.2685	1.0063	1.0	.
H44B	H	1.3873	0.2691	1.0948	1.0	.
C45	C	1.4192(5)	0.32299(12)	1.0499(3)	1.0	.
H45A	H	1.5055	0.3271	1.0610	1.0	.
H45B	H	1.3913	0.3332	1.1032	1.0	.
C46	C	1.3537(4)	0.34074(12)	0.9583(3)	1.0	.
H46A	H	1.3404	0.3678	0.9663	1.0	.
H46B	H	1.3981	0.3375	0.9095	1.0	.
C47	C	1.2371(4)	0.31940(11)	0.9339(3)	1.0	.
H47A	H	1.1780	0.3310	0.9634	1.0	.
H47B	H	1.2048	0.3184	0.8656	1.0	.
C48	C	0.0050(4)	0.23881(11)	0.3361(3)	1.0	.
C49	C	-0.0243(4)	0.30903(11)	0.3544(3)	1.0	.
H49A	H	0.0343	0.3211	0.3250	1.0	.
H49B	H	0.0081	0.3080	0.4226	1.0	.
C50	C	-0.1425(4)	0.32989(12)	0.3301(3)	1.0	.
H50A	H	-0.1851	0.3270	0.3802	1.0	.
H50B	H	-0.1306	0.3569	0.3201	1.0	.
C51	C	-0.2105(4)	0.31115(13)	0.2399(3)	1.0	.
H51A	H	-0.2968	0.3141	0.2319	1.0	.
H51B	H	-0.1875	0.3219	0.1849	1.0	.
C52	C	-0.1742(4)	0.27020(12)	0.2536(3)	1.0	.
H52A	H	-0.2294	0.2561	0.2825	1.0	.
H52B	H	-0.1725	0.2583	0.1933	1.0	.
C1S	C	0.1773(6)	0.06363(18)	0.6302(5)	1.0	.
C2S	C	0.2060(6)	0.0569(2)	0.7239(5)	1.0	.
H2S	H	0.2299	0.0771	0.7661	1.0	.
C3S	C	0.2003(8)	0.0204(3)	0.7584(6)	1.0	.
H3S	H	0.2205	0.0161	0.8237	1.0	.
C4S	C	0.1662(7)	-0.0086(2)	0.6989(7)	1.0	.
H4S	H	0.1613	-0.0332	0.7219	1.0	.
C5S	C	0.1382(7)	-0.0015(2)	0.6026(6)	1.0	.
H5S	H	0.1169	-0.0217	0.5600	1.0	.
C6S	C	0.1413(6)	0.03343(18)	0.5703(5)	1.0	.
H6S	H	0.1184	0.0378	0.5050	1.0	.
C7S	C	0.1808(8)	0.1018(2)	0.5948(6)	1.0	.
H7S1	H	0.1501	0.1193	0.6345	1.0	.
H7S2	H	0.1322	0.1032	0.5309	1.0	.
H7S3	H	0.2625	0.1085	0.5953	1.0	.
C15S	C	0.5593(14)	0.1235(4)	0.1829(7)	1.0	2
C16S	C	0.6730(14)	0.1374(5)	0.2042(12)	1.0	2
H16S	H	0.7356	0.1215	0.2350	1.0	2
C17S	C	0.699(2)	0.1732(6)	0.1824(16)	1.0	2
H17S	H	0.7781	0.1818	0.1981	1.0	2
C18S	C	0.609(3)	0.1968(6)	0.1376(17)	1.0	2
H18S	H	0.6262	0.2217	0.1221	1.0	2
C19S	C	0.494(2)	0.1835(5)	0.1154(15)	1.0	2
H19S	H	0.4316	0.1994	0.0844	1.0	2
C20S	C	0.4696(16)	0.1479(5)	0.1377(11)	1.0	2
H20S	H	0.3901	0.1393	0.1223	1.0	2
C21S	C	0.5275(16)	0.0840(4)	0.2058(10)	1.0	2
H21A	H	0.5992	0.0686	0.2214	1.0	2
H21B	H	0.4721	0.0731	0.1517	1.0	2
H21C	H	0.4908	0.0846	0.2590	1.0	2
