data_x10196_config-2
loop_
 _symmetry_equiv_pos_as_xyz
'x, y, z'
'-x, -y, -z'

_cell_length_a	8.7194(2)
_cell_length_b	9.5036(2)
_cell_length_c	16.9072(3)
_cell_angle_alpha	92.701(1)
_cell_angle_beta	101.738(1)
_cell_angle_gamma	107.103(1)
loop_
 _atom_site_label
 _atom_site_type_symbol
 _atom_site_fract_x
 _atom_site_fract_y
 _atom_site_fract_z
 _atom_site_occupancy
 _atom_site_disorder_group
Si1	Si	0.15407(11)	0.25852(10)	0.16358(5)	1.0	.
C1	C	0.4277(3)	0.4475(3)	0.41737(17)	1.0	.
C2	C	0.5745(3)	0.4186(3)	0.45430(17)	1.0	.
C3	C	0.6492(3)	0.3380(3)	0.41085(18)	1.0	.
C4'	C	0.7913(3)	0.3105(3)	0.44900(18)	1.0	2
C5'	C	0.895(2)	0.232(2)	0.4328(10)	1.0	2
H5'	H	0.8781	0.1844	0.3796	1.0	2
C6'	C	1.020(4)	0.223(5)	0.4922(17)	1.0	2
S7'	S	1.0258(9)	0.3156(8)	0.5882(4)	1.0	2
C8'	C	0.8625(3)	0.3614(3)	0.53341(18)	1.0	2
C9	C	0.7926(3)	0.4410(3)	0.57655(17)	1.0	.
C10	C	0.6477(3)	0.4726(3)	0.53884(17)	1.0	.
C11	C	0.3508(3)	0.3924(3)	0.33393(18)	1.0	.
C12	C	0.2799(4)	0.3458(3)	0.26486(18)	1.0	.
C13	C	-0.0617(5)	0.2599(5)	0.1638(3)	1.0	.
H13	H	-0.0861	0.2134	0.2135	1.0	.
C14	C	-0.1923(6)	0.1584(6)	0.0933(4)	1.0	.
H14A	H	-0.3020	0.1583	0.0989	1.0	.
H14B	H	-0.1853	0.0574	0.0942	1.0	.
H14C	H	-0.1733	0.1944	0.0417	1.0	.
C15	C	-0.0778(5)	0.4120(5)	0.1764(3)	1.0	.
H15A	H	-0.0765	0.4563	0.1246	1.0	.
H15B	H	0.0210	0.4737	0.2170	1.0	.
C16	C	-0.2283(6)	0.4226(7)	0.2043(3)	1.0	.
H16A	H	-0.3278	0.3595	0.1660	1.0	.
H16B	H	-0.2292	0.5256	0.2066	1.0	.
H16C	H	-0.2257	0.3896	0.2585	1.0	.
C17'	C	0.250(8)	0.341(4)	0.0829(18)	1.0	2
H17'	H	0.3669	0.3432	0.1011	1.0	2
C18'	C	0.263(6)	0.502(4)	0.076(2)	1.0	2
H18D	H	0.3018	0.5577	0.1307	1.0	2
H18E	H	0.1539	0.5099	0.0514	1.0	2
H18F	H	0.3402	0.5436	0.0425	1.0	2
C19'	C	0.191(4)	0.246(3)	0.0008(15)	1.0	2
H19C	H	0.1843	0.1419	0.0097	1.0	2
H19D	H	0.0790	0.2469	-0.0249	1.0	2
C20'	C	0.305(2)	0.298(2)	-0.0568(11)	1.0	2
H20D	H	0.2612	0.2334	-0.1085	1.0	2
H20E	H	0.4150	0.2943	-0.0324	1.0	2
H20F	H	0.3102	0.4000	-0.0667	1.0	2
C21	C	0.1630(5)	0.0626(4)	0.1545(2)	1.0	.
H21	H	0.0868	0.0104	0.1020	1.0	.
C22	C	0.3356(6)	0.0571(5)	0.1515(3)	1.0	.
H22A	H	0.4121	0.1012	0.2037	1.0	.
H22B	H	0.3731	0.1128	0.1080	1.0	.
H22C	H	0.3322	-0.0462	0.1409	1.0	.
C23	C	0.1008(6)	-0.0198(5)	0.2230(3)	1.0	.
H23A	H	0.1766	0.0299	0.2753	1.0	.
H23B	H	-0.0085	-0.0092	0.2238	1.0	.
C24	C	0.0850(8)	-0.1821(6)	0.2187(3)	1.0	.
H24A	H	-0.0063	-0.2366	0.1734	1.0	.
H24B	H	0.0633	-0.2193	0.2697	1.0	.
H24C	H	0.1876	-0.1961	0.2102	1.0	.
C25'	C	1.1831(19)	0.167(2)	0.5024(7)	1.0	2
O1'	O	1.1862(16)	0.1108(17)	0.4362(7)	1.0	2
N1'	N	1.2936(17)	0.1744(19)	0.5716(6)	1.0	2
C26'	C	1.2864(17)	0.2125(19)	0.6544(6)	1.0	2
H26C	H	1.1726	0.1754	0.6624	1.0	2
H26D	H	1.3304	0.3209	0.6704	1.0	2
C27'	C	1.3978(10)	0.1313(10)	0.7011(5)	1.0	2
H27C	H	1.4517	0.1832	0.7564	1.0	2
H27D	H	1.3333	0.0284	0.7056	1.0	2
C28'	C	1.5204(12)	0.1326(13)	0.6532(6)	1.0	2
H28C	H	1.5718	0.0540	0.6665	1.0	2
H28D	H	1.6078	0.2298	0.6633	1.0	2
C29'	C	1.4237(15)	0.1042(15)	0.5671(6)	1.0	2
H29C	H	1.4927	0.1513	0.5299	1.0	2
H29D	H	1.3753	-0.0033	0.5490	1.0	2
