data_x12198_config-2
loop_
 _symmetry_equiv_pos_as_xyz
'x, y, z'
'-x, y+1/2, -z+1/2'
'-x, -y, -z'
'x, -y-1/2, z-1/2'

_cell_length_a	17.0799(7)
_cell_length_b	19.0092(5)
_cell_length_c	15.3411(4)
_cell_angle_alpha	90
_cell_angle_beta	109.984(2)
_cell_angle_gamma	90
loop_
 _atom_site_label
 _atom_site_type_symbol
 _atom_site_fract_x
 _atom_site_fract_y
 _atom_site_fract_z
 _atom_site_occupancy
 _atom_site_disorder_group
Si1	Si	-0.3383(2)	0.1880(3)	0.1214(3)	1.0	.
Si2	Si	0.33167(19)	0.2355(2)	0.0747(2)	1.0	.
C1	C	-0.0786(5)	0.2070(5)	0.1144(6)	1.0	.
C2	C	-0.0326(5)	0.1471(5)	0.1171(6)	1.0	.
C3	C	-0.0607(6)	0.0786(6)	0.1215(6)	1.0	.
C4'	C	-0.0097(6)	0.0221(5)	0.1258(6)	1.0	2
C5'	C	-0.0205(18)	-0.0488(12)	0.130(4)	1.0	2
H5'	H	-0.0718	-0.0681	0.1297	1.0	2
I1'	I	0.0566(10)	-0.1986(7)	0.1418(11)	1.0	2
C6'	C	0.045(3)	-0.0906(9)	0.133(6)	1.0	2
S7'	S	0.1391(6)	-0.0449(4)	0.1310(7)	1.0	2
C8'	C	0.0718(6)	0.0301(4)	0.1223(6)	1.0	2
C9	C	0.0996(6)	0.0958(5)	0.1143(6)	1.0	.
C10	C	0.0503(6)	0.1560(5)	0.1113(6)	1.0	.
C11	C	0.0824(6)	0.2252(5)	0.1104(6)	1.0	.
C12	C	0.0357(6)	0.2846(5)	0.1124(6)	1.0	.
C13	C	0.0660(6)	0.3542(6)	0.1162(6)	1.0	.
C14'	C	0.0191(6)	0.4108(5)	0.1194(7)	1.0	2
C15'	C	0.040(2)	0.4828(14)	0.125(6)	1.0	2
H15'	H	0.0925	0.5008	0.1274	1.0	2
I2'	I	-0.0184(4)	0.6331(2)	0.1312(3)	1.0	2
C16'	C	-0.026(2)	0.5230(9)	0.125(4)	1.0	2
S17'	S	-0.1191(8)	0.4798(6)	0.1242(13)	1.0	2
C18'	C	-0.0635(6)	0.4021(5)	0.1186(7)	1.0	2
C19	C	-0.0943(6)	0.3356(5)	0.1160(6)	1.0	.
C20	C	-0.0472(6)	0.2750(6)	0.1126(6)	1.0	.
C21	C	-0.1627(7)	0.2002(6)	0.1160(7)	1.0	.
C22	C	-0.2320(7)	0.1939(8)	0.1163(8)	1.0	.
C23'	C	-0.386(3)	0.2773(13)	0.085(3)	1.0	2
H23C	H	-0.3811	0.2868	0.0239	1.0	2
H23D	H	-0.4461	0.2720	0.0747	1.0	2
C24'	C	-0.359(2)	0.3430(18)	0.140(3)	1.0	2
H24'	H	-0.3048	0.3586	0.1364	1.0	2
C25'	C	-0.420(3)	0.4005(19)	0.108(3)	1.0	2
H25D	H	-0.3955	0.4393	0.0847	1.0	2
H25E	H	-0.4363	0.4172	0.1603	1.0	2
H25F	H	-0.4700	0.3833	0.0588	1.0	2
C26'	C	-0.350(3)	0.329(3)	0.242(2)	1.0	2
H26D	H	-0.3585	0.2786	0.2497	1.0	2
H26E	H	-0.3910	0.3564	0.2582	1.0	2
H26F	H	-0.2936	0.3422	0.2815	1.0	2
C27'	C	-0.402(3)	0.118(2)	0.038(2)	1.0	2
H27C	H	-0.3782	0.0719	0.0643	1.0	2
H27D	H	-0.4588	0.1202	0.0406	1.0	2
C28'	C	-0.409(2)	0.118(3)	-0.059(2)	1.0	2
H28'	H	-0.4132	0.1698	-0.0721	1.0	2
C29'	C	-0.483(3)	0.094(4)	-0.133(3)	1.0	2
H29D	H	-0.4750	0.1010	-0.1931	1.0	2
H29E	H	-0.5313	0.1204	-0.1319	1.0	2
H29F	H	-0.4911	0.0437	-0.1247	1.0	2
C30'	C	-0.330(3)	0.101(4)	-0.079(4)	1.0	2
H30D	H	-0.3422	0.1006	-0.1460	1.0	2
H30E	H	-0.3098	0.0547	-0.0531	1.0	2
H30F	H	-0.2880	0.1367	-0.0501	1.0	2
C31'	C	-0.331(3)	0.141(3)	0.2329(19)	1.0	2
H31C	H	-0.3870	0.1417	0.2382	1.0	2
H31D	H	-0.3172	0.0911	0.2260	1.0	2
C32'	C	-0.272(2)	0.166(3)	0.321(2)	1.0	2
H32'	H	-0.2578	0.2153	0.3081	1.0	2
C33'	C	-0.295(3)	0.172(4)	0.404(3)	1.0	2
H33D	H	-0.2470	0.1871	0.4560	1.0	2
H33E	H	-0.3139	0.1255	0.4175	1.0	2
H33F	H	-0.3406	0.2058	0.3927	1.0	2
C34'	C	-0.190(2)	0.126(3)	0.348(3)	1.0	2
H34D	H	-0.1757	0.1158	0.2927	1.0	2
H34E	H	-0.1954	0.0814	0.3781	1.0	2
H34F	H	-0.1455	0.1541	0.3915	1.0	2
C35	C	0.1640(6)	0.2332(6)	0.1001(7)	1.0	.
C36	C	0.2301(6)	0.2352(7)	0.0939(7)	1.0	.
C37'	C	0.346(6)	0.308(3)	0.010(5)	1.0	2
H37C	H	0.4064	0.3151	0.0208	1.0	2
H37D	H	0.3173	0.3002	-0.0571	1.0	2
C38'	C	0.312(3)	0.371(2)	0.040(4)	1.0	2
H38'	H	0.2529	0.3605	0.0328	1.0	2
C39'	C	0.356(4)	0.388(4)	0.139(3)	1.0	2
H39D	H	0.3320	0.4314	0.1551	1.0	2
H39E	H	0.4151	0.3954	0.1501	1.0	2
H39F	H	0.3485	0.3495	0.1778	1.0	2
C40'	C	0.311(4)	0.434(3)	-0.023(4)	1.0	2
H40D	H	0.3211	0.4171	-0.0789	1.0	2
H40E	H	0.3540	0.4675	0.0097	1.0	2
H40F	H	0.2561	0.4567	-0.0416	1.0	2
C41	C	0.4121(9)	0.2144(11)	0.1861(11)	1.0	.
H41A	H	0.4625	0.2012	0.1719	1.0	.
H41B	H	0.4254	0.2590	0.2214	1.0	.
C42	C	0.4024(11)	0.1620(9)	0.2493(11)	1.0	.
H42	H	0.3618	0.1863	0.2732	1.0	.
C43	C	0.3610(13)	0.0965(11)	0.2211(15)	1.0	.
H43A	H	0.3146	0.0926	0.2447	1.0	.
H43B	H	0.4004	0.0579	0.2460	1.0	.
H43C	H	0.3396	0.0939	0.1532	1.0	.
C44	C	0.4769(12)	0.1554(16)	0.3385(11)	1.0	.
H44A	H	0.4796	0.1074	0.3625	1.0	.
H44B	H	0.4708	0.1887	0.3845	1.0	.
H44C	H	0.5281	0.1659	0.3257	1.0	.
C45	C	0.3299(7)	0.1684(11)	-0.0160(10)	1.0	.
H45A	H	0.3640	0.1867	-0.0517	1.0	.
H45B	H	0.3578	0.1253	0.0164	1.0	.
C46	C	0.2473(7)	0.1476(7)	-0.0833(8)	1.0	.
H46	H	0.2138	0.1291	-0.0460	1.0	.
C47	C	0.1992(9)	0.2051(7)	-0.1399(9)	1.0	.
H47A	H	0.1910	0.2421	-0.0993	1.0	.
H47B	H	0.1449	0.1874	-0.1798	1.0	.
H47C	H	0.2295	0.2244	-0.1784	1.0	.
C48	C	0.2572(11)	0.0870(11)	-0.1439(12)	1.0	.
H48A	H	0.2023	0.0728	-0.1865	1.0	.
H48B	H	0.2838	0.0471	-0.1046	1.0	.
H48C	H	0.2919	0.1023	-0.1798	1.0	.
