# generated using pymatgen
data_SiH32C25SNO
_symmetry_space_group_name_H-M   'P 1'
_cell_length_a   20.62060000
_cell_length_b   18.68120000
_cell_length_c   24.27360000
_cell_angle_alpha   90.00000000
_cell_angle_beta   100.43300000
_cell_angle_gamma   90.00000000
_symmetry_Int_Tables_number   1
_chemical_formula_structural   SiH32C25SNO
_chemical_formula_sum   'Si16 H512 C400 S16 N16 O16'
_cell_volume   9196.02618325
_cell_formula_units_Z   16
loop_
 _symmetry_equiv_pos_site_id
 _symmetry_equiv_pos_as_xyz
  1  'x, y, z'
loop_
 _atom_site_type_symbol
 _atom_site_label
 _atom_site_symmetry_multiplicity
 _atom_site_fract_x
 _atom_site_fract_y
 _atom_site_fract_z
 _atom_site_occupancy
  C  C1  1  0.759070  0.154340  0.277240  1
  C  C2  1  0.776500  -0.001000  0.286270  1
  C  C3  1  0.743400  0.068800  0.169530  1
  C  C4  1  0.881300  0.093900  0.241750  1
  C  C5  1  0.733590  0.192370  0.307830  1
  C  C6  1  0.704700  -0.010600  0.290800  1
  C  C7  1  0.742500  -0.006500  0.140200  1
  C  C8  1  0.922900  0.113600  0.297020  1
  C  C9  1  0.702450  0.230720  0.346460  1
  C  C10  1  0.695800  -0.078700  0.322400  1
  C  C11  1  0.807000  -0.023800  0.125600  1
  C  C12  1  0.996000  0.125800  0.295160  1
  C  C13  1  0.741170  0.274090  0.387700  1
  C  C14  1  0.634210  0.222250  0.345480  1
  C  C15  1  0.809210  0.284570  0.388040  1
  C  C16  1  0.711040  0.307040  0.430570  1
  C  C17  1  0.603770  0.255370  0.388370  1
  C  C18  1  0.595160  0.181010  0.302820  1
  C  C19  1  0.845720  0.324600  0.429390  1
  C  C20  1  0.750150  0.347900  0.473170  1
  C  C21  1  0.642850  0.297190  0.429830  1
  C  C22  1  0.535740  0.245320  0.386560  1
  C  C23  1  0.529060  0.174550  0.302150  1
  C  C24  1  0.817030  0.356120  0.473160  1
  C  C25  1  0.612860  0.328790  0.473210  1
  C  C26  1  0.498190  0.206170  0.344740  1
  C  C27  1  0.867400  0.390600  0.513100  1
  C  C28  1  0.928270  0.389010  0.498980  1
  C  C29  1  0.585980  0.353720  0.508920  1
  C  C30  1  0.429900  0.190400  0.332700  1
  C  C31  1  0.408050  0.153420  0.286310  1
  C  C32  1  0.993620  0.416660  0.524720  1
  C  C33  1  0.343320  0.125070  0.255980  1
  C  C34  1  0.455030  0.412300  0.521160  1
  C  C35  1  0.529500  0.304400  0.608080  1
  C  C36  1  0.583730  0.456890  0.604470  1
  C  C37  1  1.067720  0.474800  0.600110  1
  C  C38  1  0.952190  0.471900  0.608450  1
  C  C39  1  0.425770  0.362200  0.473400  1
  C  C40  1  0.595200  0.271300  0.635100  1
  C  C41  1  0.559900  0.478200  0.658960  1
  C  C42  1  0.274420  0.183310  0.320190  1
  C  C43  1  0.226530  0.103910  0.244530  1
  C  C44  1  1.058720  0.498800  0.658540  1
  C  C45  1  0.989100  0.524400  0.650450  1
  C  C46  1  0.356000  0.383000  0.445300  1
  C  C47  1  0.588000  0.209800  0.674270  1
  C  C48  1  0.493600  0.512300  0.650260  1
  C  C49  1  0.201120  0.196000  0.305910  1
  C  C50  1  0.174010  0.126000  0.277960  1
  C  C51  1  0.759070  0.845660  -0.222760  1
  C  C52  1  0.776500  1.001000  -0.213730  1
  C  C53  1  0.743400  0.931200  -0.330470  1
  C  C54  1  0.881300  0.906100  -0.258250  1
  C  C55  1  0.733590  0.807630  -0.192170  1
  C  C56  1  0.704700  1.010600  -0.209200  1
  C  C57  1  0.742500  1.006500  -0.359800  1
  C  C58  1  0.922900  0.886400  -0.202980  1
  C  C59  1  0.702450  0.769280  -0.153540  1
  C  C60  1  0.695800  1.078700  -0.177600  1
  C  C61  1  0.807000  1.023800  -0.374400  1
  C  C62  1  0.996000  0.874200  -0.204840  1
  C  C63  1  0.741170  0.725910  -0.112300  1
  C  C64  1  0.634210  0.777750  -0.154520  1
  C  C65  1  0.809210  0.715430  -0.111960  1
  C  C66  1  0.711040  0.692960  -0.069430  1
  C  C67  1  0.603770  0.744630  -0.111630  1
  C  C68  1  0.595160  0.818990  -0.197180  1
  C  C69  1  0.845720  0.675400  -0.070610  1
  C  C70  1  0.750150  0.652100  -0.026830  1
  C  C71  1  0.642850  0.702810  -0.070170  1
  C  C72  1  0.535740  0.754680  -0.113440  1
  C  C73  1  0.529060  0.825450  -0.197850  1
  C  C74  1  0.817030  0.643880  -0.026840  1
  C  C75  1  0.612860  0.671210  -0.026790  1
  C  C76  1  0.498190  0.793830  -0.155260  1
  C  C77  1  0.867400  0.609400  0.013100  1
  C  C78  1  0.928270  0.610990  -0.001020  1
  C  C79  1  0.585980  0.646280  0.008920  1
  C  C80  1  0.429900  0.809600  -0.167300  1
  C  C81  1  0.408050  0.846580  -0.213690  1
  C  C82  1  0.993620  0.583340  0.024720  1
  C  C83  1  0.343320  0.874930  -0.244020  1
  C  C84  1  0.455030  0.587700  0.021160  1
  C  C85  1  0.529500  0.695600  0.108080  1
  C  C86  1  0.583730  0.543110  0.104470  1
  C  C87  1  1.067720  0.525200  0.100110  1
  C  C88  1  0.952190  0.528100  0.108450  1
  C  C89  1  0.425770  0.637800  -0.026600  1
  C  C90  1  0.595200  0.728700  0.135100  1
  C  C91  1  0.559900  0.521800  0.158960  1
  C  C92  1  0.274420  0.816690  -0.179810  1
  C  C93  1  0.226530  0.896090  -0.255470  1
  C  C94  1  1.058720  0.501200  0.158540  1
  C  C95  1  0.989100  0.475600  0.150450  1
  C  C96  1  0.356000  0.617000  -0.054700  1
  C  C97  1  0.588000  0.790200  0.174270  1
  C  C98  1  0.493600  0.487700  0.150260  1
  C  C99  1  0.201120  0.804000  -0.194090  1
  C  C100  1  0.174010  0.874000  -0.222040  1
  C  C101  1  1.259070  -0.345660  0.277240  1
  C  C102  1  1.276500  -0.501000  0.286270  1
  C  C103  1  1.243400  -0.431200  0.169530  1
  C  C104  1  1.381300  -0.406100  0.241750  1
  C  C105  1  1.233590  -0.307630  0.307830  1
  C  C106  1  1.204700  -0.510600  0.290800  1
  C  C107  1  1.242500  -0.506500  0.140200  1
  C  C108  1  1.422900  -0.386400  0.297020  1
  C  C109  1  1.202450  -0.269280  0.346460  1
  C  C110  1  1.195800  -0.578700  0.322400  1
  C  C111  1  1.307000  -0.523800  0.125600  1
  C  C112  1  1.496000  -0.374200  0.295160  1
  C  C113  1  1.241170  -0.225910  0.387700  1
  C  C114  1  1.134210  -0.277750  0.345480  1
  C  C115  1  1.309210  -0.215430  0.388040  1
  C  C116  1  1.211040  -0.192960  0.430570  1
  C  C117  1  1.103770  -0.244630  0.388370  1
  C  C118  1  1.095160  -0.318990  0.302820  1
  C  C119  1  1.345720  -0.175400  0.429390  1
  C  C120  1  1.250150  -0.152100  0.473170  1
  C  C121  1  1.142850  -0.202810  0.429830  1
  C  C122  1  1.035740  -0.254680  0.386560  1
  C  C123  1  1.029060  -0.325450  0.302150  1
  C  C124  1  1.317030  -0.143880  0.473160  1
  C  C125  1  1.112860  -0.171210  0.473210  1
  C  C126  1  0.998190  -0.293830  0.344740  1
  C  C127  1  1.367400  -0.109400  0.513100  1
  C  C128  1  1.428270  -0.110990  0.498980  1
  C  C129  1  1.085980  -0.146280  0.508920  1
  C  C130  1  0.929900  -0.309600  0.332700  1
  C  C131  1  0.908050  -0.346580  0.286310  1
  C  C132  1  1.493620  -0.083340  0.524720  1
  C  C133  1  0.843320  -0.374930  0.255980  1
  C  C134  1  0.955030  -0.087700  0.521160  1
  C  C135  1  1.029500  -0.195600  0.608080  1
  C  C136  1  1.083730  -0.043110  0.604470  1
  C  C137  1  1.567720  -0.025200  0.600110  1
  C  C138  1  1.452190  -0.028100  0.608450  1
  C  C139  1  0.925770  -0.137800  0.473400  1
  C  C140  1  1.095200  -0.228700  0.635100  1
  C  C141  1  1.059900  -0.021800  0.658960  1
  C  C142  1  0.774420  -0.316690  0.320190  1
  C  C143  1  0.726530  -0.396090  0.244530  1
  C  C144  1  1.558720  -0.001200  0.658540  1
  C  C145  1  1.489100  0.024400  0.650450  1
  C  C146  1  0.856000  -0.117000  0.445300  1
  C  C147  1  1.088000  -0.290200  0.674270  1
  C  C148  1  0.993600  0.012300  0.650260  1
  C  C149  1  0.701120  -0.304000  0.305910  1
  C  C150  1  0.674010  -0.374000  0.277960  1
  C  C151  1  1.259070  0.345660  0.777240  1
  C  C152  1  1.276500  0.501000  0.786270  1
  C  C153  1  1.243400  0.431200  0.669530  1
  C  C154  1  1.381300  0.406100  0.741750  1
  C  C155  1  1.233590  0.307630  0.807830  1
  C  C156  1  1.204700  0.510600  0.790800  1
  C  C157  1  1.242500  0.506500  0.640200  1
  C  C158  1  1.422900  0.386400  0.797020  1
  C  C159  1  1.202450  0.269280  0.846460  1
  C  C160  1  1.195800  0.578700  0.822400  1
  C  C161  1  1.307000  0.523800  0.625600  1
  C  C162  1  1.496000  0.374200  0.795160  1
  C  C163  1  1.241170  0.225910  0.887700  1
  C  C164  1  1.134210  0.277750  0.845480  1
  C  C165  1  1.309210  0.215430  0.888040  1
  C  C166  1  1.211040  0.192960  0.930570  1
  C  C167  1  1.103770  0.244630  0.888370  1
  C  C168  1  1.095160  0.318990  0.802820  1
  C  C169  1  1.345720  0.175400  0.929390  1
  C  C170  1  1.250150  0.152100  0.973170  1
  C  C171  1  1.142850  0.202810  0.929830  1
  C  C172  1  1.035740  0.254680  0.886560  1
  C  C173  1  1.029060  0.325450  0.802150  1
  C  C174  1  1.317030  0.143880  0.973160  1
  C  C175  1  1.112860  0.171210  0.973210  1
  C  C176  1  0.998190  0.293830  0.844740  1
  C  C177  1  1.367400  0.109400  1.013100  1
  C  C178  1  1.428270  0.110990  0.998980  1
  C  C179  1  1.085980  0.146280  1.008920  1
  C  C180  1  0.929900  0.309600  0.832700  1
  C  C181  1  0.908050  0.346580  0.786310  1
  C  C182  1  1.493620  0.083340  1.024720  1
  C  C183  1  0.843320  0.374930  0.755980  1
  C  C184  1  0.955030  0.087700  1.021160  1
  C  C185  1  1.029500  0.195600  1.108080  1
  C  C186  1  1.083730  0.043110  1.104470  1
  C  C187  1  1.567720  0.025200  1.100110  1
  C  C188  1  1.452190  0.028100  1.108450  1
  C  C189  1  0.925770  0.137800  0.973400  1
  C  C190  1  1.095200  0.228700  1.135100  1
  C  C191  1  1.059900  0.021800  1.158960  1
  C  C192  1  0.774420  0.316690  0.820190  1
  C  C193  1  0.726530  0.396090  0.744530  1
  C  C194  1  1.558720  0.001200  1.158540  1
  C  C195  1  1.489100  -0.024400  1.150450  1
  C  C196  1  0.856000  0.117000  0.945300  1
  C  C197  1  1.088000  0.290200  1.174270  1
  C  C198  1  0.993600  -0.012300  1.150260  1
  C  C199  1  0.701120  0.304000  0.805910  1
  C  C200  1  0.674010  0.374000  0.777960  1
  C  C201  1  0.095590  0.081890  0.477530  1
  C  C202  1  0.075580  0.235250  0.458560  1
  C  C203  1  0.095770  0.182360  0.579320  1
  C  C204  1  -0.032500  0.143230  0.501290  1
  C  C205  1  0.121500  0.044160  0.446960  1
  C  C206  1  0.149400  0.247600  0.461200  1
  C  C207  1  0.062100  0.248800  0.599170  1
  C  C208  1  -0.071480  0.121000  0.444810  1
  C  C209  1  0.152320  0.004340  0.408180  1
  C  C210  1  0.162100  0.314200  0.429200  1
  C  C211  1  0.094900  0.276200  0.656120  1
  C  C212  1  -0.144400  0.108200  0.445910  1
  C  C213  1  0.113240  -0.039010  0.367200  1
  C  C214  1  0.220260  0.013930  0.408740  1
  C  C215  1  0.044920  -0.048180  0.366660  1
  C  C216  1  0.143380  -0.073720  0.325140  1
  C  C217  1  0.250750  -0.021480  0.367080  1
  C  C218  1  0.259910  0.057500  0.449630  1
  C  C219  1  0.008420  -0.088900  0.325320  1
  C  C220  1  0.103300  -0.115270  0.283200  1
  C  C221  1  0.211240  -0.064470  0.325430  1
  C  C222  1  0.318900  -0.012200  0.368090  1
  C  C223  1  0.326370  0.064250  0.450210  1
  C  C224  1  0.037160  -0.123120  0.283150  1
  C  C225  1  0.241860  -0.097540  0.283970  1
  C  C226  1  0.356160  0.028370  0.408760  1
  C  C227  1  -0.013200  -0.161500  0.244400  1
  C  C228  1  -0.074930  -0.153450  0.257790  1
  C  C229  1  0.269990  -0.122850  0.249380  1
  C  C230  1  0.425300  0.044400  0.420430  1
  C  C231  1  0.446580  0.084930  0.465110  1
  C  C232  1  -0.142240  -0.179900  0.233100  1
  C  C233  1  0.511430  0.113840  0.494050  1
  C  C234  1  0.405610  -0.168700  0.234970  1
  C  C235  1  0.317410  -0.070990  0.147960  1
  C  C236  1  0.281400  -0.229300  0.157520  1
  C  C237  1  -0.222480  -0.231400  0.158420  1
  C  C238  1  -0.111400  -0.213800  0.139730  1
  C  C239  1  0.432200  -0.117000  0.280680  1
  C  C240  1  0.247840  -0.050970  0.118060  1
  C  C241  1  0.295700  -0.243400  0.100100  1
  C  C242  1  0.580540  0.046900  0.434040  1
  C  C243  1  0.629400  0.130500  0.507410  1
  C  C244  1  -0.215300  -0.268000  0.104500  1
  C  C245  1  -0.159400  -0.227000  0.084600  1
  C  C246  1  0.504500  -0.129500  0.305700  1
  C  C247  1  0.249340  0.014300  0.081450  1
  C  C248  1  0.360300  -0.261600  0.099800  1
  C  C249  1  0.655200  0.035400  0.449500  1
  C  C250  1  0.681200  0.105600  0.474740  1
  C  C251  1  1.095590  -0.081890  0.977530  1
  C  C252  1  1.075580  -0.235250  0.958560  1
  C  C253  1  1.095770  -0.182360  1.079320  1
  C  C254  1  0.967500  -0.143230  1.001290  1
  C  C255  1  1.121500  -0.044160  0.946960  1
  C  C256  1  1.149400  -0.247600  0.961200  1
  C  C257  1  1.062100  -0.248800  1.099170  1
  C  C258  1  0.928520  -0.121000  0.944810  1
  C  C259  1  1.152320  -0.004340  0.908180  1
  C  C260  1  1.162100  -0.314200  0.929200  1
  C  C261  1  1.094900  -0.276200  1.156120  1
  C  C262  1  0.855600  -0.108200  0.945910  1
  C  C263  1  1.113240  0.039010  0.867200  1
  C  C264  1  1.220260  -0.013930  0.908740  1
  C  C265  1  1.044920  0.048180  0.866660  1
  C  C266  1  1.143380  0.073720  0.825140  1
  C  C267  1  1.250750  0.021480  0.867080  1
  C  C268  1  1.259910  -0.057500  0.949630  1
  C  C269  1  1.008420  0.088900  0.825320  1
  C  C270  1  1.103300  0.115270  0.783200  1
  C  C271  1  1.211240  0.064470  0.825430  1
  C  C272  1  1.318900  0.012200  0.868090  1
  C  C273  1  1.326370  -0.064250  0.950210  1
  C  C274  1  1.037160  0.123120  0.783150  1
  C  C275  1  1.241860  0.097540  0.783970  1
  C  C276  1  1.356160  -0.028370  0.908760  1
  C  C277  1  0.986800  0.161500  0.744400  1
  C  C278  1  0.925070  0.153450  0.757790  1
  C  C279  1  1.269990  0.122850  0.749380  1
  C  C280  1  1.425300  -0.044400  0.920430  1
  C  C281  1  1.446580  -0.084930  0.965110  1
  C  C282  1  0.857760  0.179900  0.733100  1
  C  C283  1  1.511430  -0.113840  0.994050  1
  C  C284  1  1.405610  0.168700  0.734970  1
  C  C285  1  1.317410  0.070990  0.647960  1
  C  C286  1  1.281400  0.229300  0.657520  1
  C  C287  1  0.777520  0.231400  0.658420  1
  C  C288  1  0.888600  0.213800  0.639730  1
  C  C289  1  1.432200  0.117000  0.780680  1
  C  C290  1  1.247840  0.050970  0.618060  1
  C  C291  1  1.295700  0.243400  0.600100  1
  C  C292  1  1.580540  -0.046900  0.934040  1
  C  C293  1  1.629400  -0.130500  1.007410  1
  C  C294  1  0.784700  0.268000  0.604500  1
  C  C295  1  0.840600  0.227000  0.584600  1
  C  C296  1  1.504500  0.129500  0.805700  1
  C  C297  1  1.249340  -0.014300  0.581450  1
  C  C298  1  1.360300  0.261600  0.599800  1
  C  C299  1  1.655200  -0.035400  0.949500  1
  C  C300  1  1.681200  -0.105600  0.974740  1
  C  C301  1  0.595590  0.581890  0.477530  1
  C  C302  1  0.575580  0.735250  0.458560  1
  C  C303  1  0.595770  0.682360  0.579320  1
  C  C304  1  0.467500  0.643230  0.501290  1
  C  C305  1  0.621500  0.544160  0.446960  1
  C  C306  1  0.649400  0.747600  0.461200  1
  C  C307  1  0.562100  0.748800  0.599170  1
  C  C308  1  0.428520  0.621000  0.444810  1
  C  C309  1  0.652320  0.504340  0.408180  1
  C  C310  1  0.662100  0.814200  0.429200  1
  C  C311  1  0.594900  0.776200  0.656120  1
  C  C312  1  0.355600  0.608200  0.445910  1
  C  C313  1  0.613240  0.460990  0.367200  1
  C  C314  1  0.720260  0.513930  0.408740  1
  C  C315  1  0.544920  0.451820  0.366660  1
  C  C316  1  0.643380  0.426280  0.325140  1
  C  C317  1  0.750750  0.478520  0.367080  1
  C  C318  1  0.759910  0.557500  0.449630  1
  C  C319  1  0.508420  0.411100  0.325320  1
  C  C320  1  0.603300  0.384730  0.283200  1
  C  C321  1  0.711240  0.435530  0.325430  1
  C  C322  1  0.818900  0.487800  0.368090  1
  C  C323  1  0.826370  0.564250  0.450210  1
  C  C324  1  0.537160  0.376880  0.283150  1
  C  C325  1  0.741860  0.402460  0.283970  1
  C  C326  1  0.856160  0.528370  0.408760  1
  C  C327  1  0.486800  0.338500  0.244400  1
  C  C328  1  0.425070  0.346550  0.257790  1
  C  C329  1  0.769990  0.377150  0.249380  1
  C  C330  1  0.925300  0.544400  0.420430  1
  C  C331  1  0.946580  0.584930  0.465110  1
  C  C332  1  0.357760  0.320100  0.233100  1
  C  C333  1  1.011430  0.613840  0.494050  1
  C  C334  1  0.905610  0.331300  0.234970  1
  C  C335  1  0.817410  0.429010  0.147960  1
  C  C336  1  0.781400  0.270700  0.157520  1
  C  C337  1  0.277520  0.268600  0.158420  1
  C  C338  1  0.388600  0.286200  0.139730  1
  C  C339  1  0.932200  0.383000  0.280680  1
  C  C340  1  0.747840  0.449030  0.118060  1
  C  C341  1  0.795700  0.256600  0.100100  1
  C  C342  1  1.080540  0.546900  0.434040  1
  C  C343  1  1.129400  0.630500  0.507410  1
  C  C344  1  0.284700  0.232000  0.104500  1
  C  C345  1  0.340600  0.273000  0.084600  1
  C  C346  1  1.004500  0.370500  0.305700  1
  C  C347  1  0.749340  0.514300  0.081450  1
  C  C348  1  0.860300  0.238400  0.099800  1
  C  C349  1  1.155200  0.535400  0.449500  1
  C  C350  1  1.181200  0.605600  0.474740  1
  C  C351  1  0.595590  0.418110  0.977530  1
  C  C352  1  0.575580  0.264750  0.958560  1
  C  C353  1  0.595770  0.317640  1.079320  1
  C  C354  1  0.467500  0.356770  1.001290  1
  C  C355  1  0.621500  0.455840  0.946960  1
  C  C356  1  0.649400  0.252400  0.961200  1
  C  C357  1  0.562100  0.251200  1.099170  1
  C  C358  1  0.428520  0.379000  0.944810  1
  C  C359  1  0.652320  0.495660  0.908180  1
  C  C360  1  0.662100  0.185800  0.929200  1
  C  C361  1  0.594900  0.223800  1.156120  1
  C  C362  1  0.355600  0.391800  0.945910  1
  C  C363  1  0.613240  0.539010  0.867200  1
  C  C364  1  0.720260  0.486070  0.908740  1
  C  C365  1  0.544920  0.548180  0.866660  1
  C  C366  1  0.643380  0.573720  0.825140  1
  C  C367  1  0.750750  0.521480  0.867080  1
  C  C368  1  0.759910  0.442500  0.949630  1
  C  C369  1  0.508420  0.588900  0.825320  1
  C  C370  1  0.603300  0.615270  0.783200  1
  C  C371  1  0.711240  0.564470  0.825430  1
  C  C372  1  0.818900  0.512200  0.868090  1
  C  C373  1  0.826370  0.435750  0.950210  1
  C  C374  1  0.537160  0.623120  0.783150  1
  C  C375  1  0.741860  0.597540  0.783970  1
  C  C376  1  0.856160  0.471630  0.908760  1
  C  C377  1  0.486800  0.661500  0.744400  1
  C  C378  1  0.425070  0.653450  0.757790  1
  C  C379  1  0.769990  0.622850  0.749380  1
  C  C380  1  0.925300  0.455600  0.920430  1
  C  C381  1  0.946580  0.415070  0.965110  1
  C  C382  1  0.357760  0.679900  0.733100  1
  C  C383  1  1.011430  0.386160  0.994050  1
  C  C384  1  0.905610  0.668700  0.734970  1
  C  C385  1  0.817410  0.570990  0.647960  1
  C  C386  1  0.781400  0.729300  0.657520  1
  C  C387  1  0.277520  0.731400  0.658420  1
  C  C388  1  0.388600  0.713800  0.639730  1
  C  C389  1  0.932200  0.617000  0.780680  1
  C  C390  1  0.747840  0.550970  0.618060  1
  C  C391  1  0.795700  0.743400  0.600100  1
  C  C392  1  1.080540  0.453100  0.934040  1
  C  C393  1  1.129400  0.369500  1.007410  1
  C  C394  1  0.284700  0.768000  0.604500  1
  C  C395  1  0.340600  0.727000  0.584600  1
  C  C396  1  1.004500  0.629500  0.805700  1
  C  C397  1  0.749340  0.485700  0.581450  1
  C  C398  1  0.860300  0.761600  0.599800  1
  C  C399  1  1.155200  0.464600  0.949500  1
  C  C400  1  1.181200  0.394400  0.974740  1
  H  H401  1  0.791900  -0.044700  0.269600  1
  H  H402  1  0.802800  0.004300  0.324400  1
  H  H403  1  0.697200  0.082500  0.170400  1
  H  H404  1  0.761000  0.104200  0.145700  1
  H  H405  1  0.899900  0.050100  0.227600  1
  H  H406  1  0.884300  0.132800  0.214700  1
  H  H407  1  0.689700  0.030900  0.310600  1
  H  H408  1  0.677400  -0.012900  0.252800  1
  H  H409  1  0.730700  -0.043800  0.165700  1
  H  H410  1  0.708400  -0.006600  0.105800  1
  H  H411  1  0.919400  0.075100  0.324300  1
  H  H412  1  0.904900  0.157900  0.310900  1
  H  H413  1  0.716800  -0.118600  0.306200  1
  H  H414  1  0.648700  -0.088600  0.319600  1
  H  H415  1  0.716300  -0.072900  0.361800  1
  H  H416  1  0.801900  -0.063500  0.098800  1
  H  H417  1  0.837900  -0.037600  0.159600  1
  H  H418  1  0.824000  0.018200  0.108800  1
  H  H419  1  1.015100  0.081500  0.283400  1
  H  H420  1  1.019400  0.139500  0.332500  1
  H  H421  1  1.000200  0.164000  0.268400  1
  H  H422  1  0.829300  0.263800  0.359600  1
  H  H423  1  0.614800  0.158100  0.275000  1
  H  H424  1  0.730700  0.369600  0.501600  1
  H  H425  1  0.515400  0.266100  0.414900  1
  H  H426  1  0.858900  0.412500  0.546400  1
  H  H427  1  0.401000  0.205500  0.356800  1
  H  H428  1  0.423600  0.416300  0.547400  1
  H  H429  1  0.459800  0.460500  0.505500  1
  H  H430  1  0.505700  0.319800  0.638100  1
  H  H431  1  0.502400  0.267300  0.585700  1
  H  H432  1  0.630500  0.442200  0.614400  1
  H  H433  1  0.582100  0.500000  0.580600  1
  H  H434  1  1.082000  0.515100  0.578700  1
  H  H435  1  1.100400  0.435600  0.602300  1
  H  H436  1  0.936600  0.430200  0.627500  1
  H  H437  1  0.913900  0.495100  0.584600  1
  H  H438  1  0.454600  0.362200  0.445000  1
  H  H439  1  0.425000  0.312900  0.488200  1
  H  H440  1  0.618100  0.253800  0.605200  1
  H  H441  1  0.623100  0.308800  0.656300  1
  H  H442  1  0.559000  0.434800  0.682200  1
  H  H443  1  0.592300  0.511800  0.680200  1
  H  H444  1  0.299100  0.228900  0.320800  1
  H  H445  1  0.286700  0.159500  0.357000  1
  H  H446  1  0.230700  0.051100  0.243500  1
  H  H447  1  0.215800  0.122200  0.205700  1
  H  H448  1  1.065900  0.458400  0.685300  1
  H  H449  1  1.089800  0.537800  0.672600  1
  H  H450  1  0.985200  0.573800  0.635500  1
  H  H451  1  0.972200  0.523000  0.686100  1
  H  H452  1  0.327200  0.383600  0.473200  1
  H  H453  1  0.339300  0.348200  0.415900  1
  H  H454  1  0.356700  0.430800  0.428600  1
  H  H455  1  0.565600  0.226700  0.704100  1
  H  H456  1  0.631800  0.191500  0.690800  1
  H  H457  1  0.562100  0.171500  0.653300  1
  H  H458  1  0.494400  0.556600  0.628800  1
  H  H459  1  0.481700  0.523200  0.686700  1
  H  H460  1  0.460900  0.479400  0.629600  1
  H  H461  1  0.190800  0.236900  0.279900  1
  H  H462  1  0.182600  0.205400  0.340100  1
  H  H463  1  0.168700  0.089400  0.306300  1
  H  H464  1  0.131000  0.133900  0.253100  1
  H  H465  1  0.791900  1.044700  -0.230400  1
  H  H466  1  0.802800  0.995700  -0.175600  1
  H  H467  1  0.697200  0.917500  -0.329600  1
  H  H468  1  0.761000  0.895800  -0.354300  1
  H  H469  1  0.899900  0.949900  -0.272400  1
  H  H470  1  0.884300  0.867200  -0.285300  1
  H  H471  1  0.689700  0.969100  -0.189400  1
  H  H472  1  0.677400  1.012900  -0.247200  1
  H  H473  1  0.730700  1.043800  -0.334300  1
  H  H474  1  0.708400  1.006600  -0.394200  1
  H  H475  1  0.919400  0.924900  -0.175700  1
  H  H476  1  0.904900  0.842100  -0.189100  1
  H  H477  1  0.716800  1.118600  -0.193800  1
  H  H478  1  0.648700  1.088600  -0.180400  1
  H  H479  1  0.716300  1.072900  -0.138200  1
  H  H480  1  0.801900  1.063500  -0.401200  1
  H  H481  1  0.837900  1.037600  -0.340400  1
  H  H482  1  0.824000  0.981800  -0.391200  1
  H  H483  1  1.015100  0.918500  -0.216600  1
  H  H484  1  1.019400  0.860500  -0.167500  1
  H  H485  1  1.000200  0.836000  -0.231600  1
  H  H486  1  0.829300  0.736200  -0.140400  1
  H  H487  1  0.614800  0.841900  -0.225000  1
  H  H488  1  0.730700  0.630400  0.001600  1
  H  H489  1  0.515400  0.733900  -0.085100  1
  H  H490  1  0.858900  0.587500  0.046400  1
  H  H491  1  0.401000  0.794500  -0.143200  1
  H  H492  1  0.423600  0.583700  0.047400  1
  H  H493  1  0.459800  0.539500  0.005500  1
  H  H494  1  0.505700  0.680200  0.138100  1
  H  H495  1  0.502400  0.732700  0.085700  1
  H  H496  1  0.630500  0.557800  0.114400  1
  H  H497  1  0.582100  0.500000  0.080600  1
  H  H498  1  1.082000  0.484900  0.078700  1
  H  H499  1  1.100400  0.564400  0.102300  1
  H  H500  1  0.936600  0.569800  0.127500  1
  H  H501  1  0.913900  0.504900  0.084600  1
  H  H502  1  0.454600  0.637800  -0.055000  1
  H  H503  1  0.425000  0.687100  -0.011800  1
  H  H504  1  0.618100  0.746200  0.105200  1
  H  H505  1  0.623100  0.691200  0.156300  1
  H  H506  1  0.559000  0.565200  0.182200  1
  H  H507  1  0.592300  0.488200  0.180200  1
  H  H508  1  0.299100  0.771100  -0.179200  1
  H  H509  1  0.286700  0.840500  -0.143000  1
  H  H510  1  0.230700  0.948900  -0.256500  1
  H  H511  1  0.215800  0.877800  -0.294300  1
  H  H512  1  1.065900  0.541600  0.185300  1
  H  H513  1  1.089800  0.462200  0.172600  1
  H  H514  1  0.985200  0.426200  0.135500  1
  H  H515  1  0.972200  0.477000  0.186100  1
  H  H516  1  0.327200  0.616400  -0.026800  1
  H  H517  1  0.339300  0.651800  -0.084100  1
  H  H518  1  0.356700  0.569200  -0.071400  1
  H  H519  1  0.565600  0.773300  0.204100  1
  H  H520  1  0.631800  0.808500  0.190800  1
  H  H521  1  0.562100  0.828500  0.153300  1
  H  H522  1  0.494400  0.443400  0.128800  1
  H  H523  1  0.481700  0.476800  0.186700  1
  H  H524  1  0.460900  0.520600  0.129600  1
  H  H525  1  0.190800  0.763100  -0.220100  1
  H  H526  1  0.182600  0.794600  -0.159900  1
  H  H527  1  0.168700  0.910600  -0.193700  1
  H  H528  1  0.131000  0.866100  -0.246900  1
  H  H529  1  1.291900  -0.544700  0.269600  1
  H  H530  1  1.302800  -0.495700  0.324400  1
  H  H531  1  1.197200  -0.417500  0.170400  1
  H  H532  1  1.261000  -0.395800  0.145700  1
  H  H533  1  1.399900  -0.449900  0.227600  1
  H  H534  1  1.384300  -0.367200  0.214700  1
  H  H535  1  1.189700  -0.469100  0.310600  1
  H  H536  1  1.177400  -0.512900  0.252800  1
  H  H537  1  1.230700  -0.543800  0.165700  1
  H  H538  1  1.208400  -0.506600  0.105800  1
  H  H539  1  1.419400  -0.424900  0.324300  1
  H  H540  1  1.404900  -0.342100  0.310900  1
  H  H541  1  1.216800  -0.618600  0.306200  1
  H  H542  1  1.148700  -0.588600  0.319600  1
  H  H543  1  1.216300  -0.572900  0.361800  1
  H  H544  1  1.301900  -0.563500  0.098800  1
  H  H545  1  1.337900  -0.537600  0.159600  1
  H  H546  1  1.324000  -0.481800  0.108800  1
  H  H547  1  1.515100  -0.418500  0.283400  1
  H  H548  1  1.519400  -0.360500  0.332500  1
  H  H549  1  1.500200  -0.336000  0.268400  1
  H  H550  1  1.329300  -0.236200  0.359600  1
  H  H551  1  1.114800  -0.341900  0.275000  1
  H  H552  1  1.230700  -0.130400  0.501600  1
  H  H553  1  1.015400  -0.233900  0.414900  1
  H  H554  1  1.358900  -0.087500  0.546400  1
  H  H555  1  0.901000  -0.294500  0.356800  1
  H  H556  1  0.923600  -0.083700  0.547400  1
  H  H557  1  0.959800  -0.039500  0.505500  1
  H  H558  1  1.005700  -0.180200  0.638100  1
  H  H559  1  1.002400  -0.232700  0.585700  1
  H  H560  1  1.130500  -0.057800  0.614400  1
  H  H561  1  1.082100  -0.000000  0.580600  1
  H  H562  1  1.582000  0.015100  0.578700  1
  H  H563  1  1.600400  -0.064400  0.602300  1
  H  H564  1  1.436600  -0.069800  0.627500  1
  H  H565  1  1.413900  -0.004900  0.584600  1
  H  H566  1  0.954600  -0.137800  0.445000  1
  H  H567  1  0.925000  -0.187100  0.488200  1
  H  H568  1  1.118100  -0.246200  0.605200  1
  H  H569  1  1.123100  -0.191200  0.656300  1
  H  H570  1  1.059000  -0.065200  0.682200  1
  H  H571  1  1.092300  0.011800  0.680200  1
  H  H572  1  0.799100  -0.271100  0.320800  1
  H  H573  1  0.786700  -0.340500  0.357000  1
  H  H574  1  0.730700  -0.448900  0.243500  1
  H  H575  1  0.715800  -0.377800  0.205700  1
  H  H576  1  1.565900  -0.041600  0.685300  1
  H  H577  1  1.589800  0.037800  0.672600  1
  H  H578  1  1.485200  0.073800  0.635500  1
  H  H579  1  1.472200  0.023000  0.686100  1
  H  H580  1  0.827200  -0.116400  0.473200  1
  H  H581  1  0.839300  -0.151800  0.415900  1
  H  H582  1  0.856700  -0.069200  0.428600  1
  H  H583  1  1.065600  -0.273300  0.704100  1
  H  H584  1  1.131800  -0.308500  0.690800  1
  H  H585  1  1.062100  -0.328500  0.653300  1
  H  H586  1  0.994400  0.056600  0.628800  1
  H  H587  1  0.981700  0.023200  0.686700  1
  H  H588  1  0.960900  -0.020600  0.629600  1
  H  H589  1  0.690800  -0.263100  0.279900  1
  H  H590  1  0.682600  -0.294600  0.340100  1
  H  H591  1  0.668700  -0.410600  0.306300  1
  H  H592  1  0.631000  -0.366100  0.253100  1
  H  H593  1  1.291900  0.544700  0.769600  1
  H  H594  1  1.302800  0.495700  0.824400  1
  H  H595  1  1.197200  0.417500  0.670400  1
  H  H596  1  1.261000  0.395800  0.645700  1
  H  H597  1  1.399900  0.449900  0.727600  1
  H  H598  1  1.384300  0.367200  0.714700  1
  H  H599  1  1.189700  0.469100  0.810600  1
  H  H600  1  1.177400  0.512900  0.752800  1
  H  H601  1  1.230700  0.543800  0.665700  1
  H  H602  1  1.208400  0.506600  0.605800  1
  H  H603  1  1.419400  0.424900  0.824300  1
  H  H604  1  1.404900  0.342100  0.810900  1
  H  H605  1  1.216800  0.618600  0.806200  1
  H  H606  1  1.148700  0.588600  0.819600  1
  H  H607  1  1.216300  0.572900  0.861800  1
  H  H608  1  1.301900  0.563500  0.598800  1
  H  H609  1  1.337900  0.537600  0.659600  1
  H  H610  1  1.324000  0.481800  0.608800  1
  H  H611  1  1.515100  0.418500  0.783400  1
  H  H612  1  1.519400  0.360500  0.832500  1
  H  H613  1  1.500200  0.336000  0.768400  1
  H  H614  1  1.329300  0.236200  0.859600  1
  H  H615  1  1.114800  0.341900  0.775000  1
  H  H616  1  1.230700  0.130400  1.001600  1
  H  H617  1  1.015400  0.233900  0.914900  1
  H  H618  1  1.358900  0.087500  1.046400  1
  H  H619  1  0.901000  0.294500  0.856800  1
  H  H620  1  0.923600  0.083700  1.047400  1
  H  H621  1  0.959800  0.039500  1.005500  1
  H  H622  1  1.005700  0.180200  1.138100  1
  H  H623  1  1.002400  0.232700  1.085700  1
  H  H624  1  1.130500  0.057800  1.114400  1
  H  H625  1  1.082100  0.000000  1.080600  1
  H  H626  1  1.582000  -0.015100  1.078700  1
  H  H627  1  1.600400  0.064400  1.102300  1
  H  H628  1  1.436600  0.069800  1.127500  1
  H  H629  1  1.413900  0.004900  1.084600  1
  H  H630  1  0.954600  0.137800  0.945000  1
  H  H631  1  0.925000  0.187100  0.988200  1
  H  H632  1  1.118100  0.246200  1.105200  1
  H  H633  1  1.123100  0.191200  1.156300  1
  H  H634  1  1.059000  0.065200  1.182200  1
  H  H635  1  1.092300  -0.011800  1.180200  1
  H  H636  1  0.799100  0.271100  0.820800  1
  H  H637  1  0.786700  0.340500  0.857000  1
  H  H638  1  0.730700  0.448900  0.743500  1
  H  H639  1  0.715800  0.377800  0.705700  1
  H  H640  1  1.565900  0.041600  1.185300  1
  H  H641  1  1.589800  -0.037800  1.172600  1
  H  H642  1  1.485200  -0.073800  1.135500  1
  H  H643  1  1.472200  -0.023000  1.186100  1
  H  H644  1  0.827200  0.116400  0.973200  1
  H  H645  1  0.839300  0.151800  0.915900  1
  H  H646  1  0.856700  0.069200  0.928600  1
  H  H647  1  1.065600  0.273300  1.204100  1
  H  H648  1  1.131800  0.308500  1.190800  1
  H  H649  1  1.062100  0.328500  1.153300  1
  H  H650  1  0.994400  -0.056600  1.128800  1
  H  H651  1  0.981700  -0.023200  1.186700  1
  H  H652  1  0.960900  0.020600  1.129600  1
  H  H653  1  0.690800  0.263100  0.779900  1
  H  H654  1  0.682600  0.294600  0.840100  1
  H  H655  1  0.668700  0.410600  0.806300  1
  H  H656  1  0.631000  0.366100  0.753100  1
  H  H657  1  0.054800  0.224400  0.419400  1
  H  H658  1  0.055400  0.279800  0.469800  1
  H  H659  1  0.090700  0.141100  0.603800  1
  H  H660  1  0.143500  0.191700  0.581900  1
  H  H661  1  -0.037400  0.105300  0.528700  1
  H  H662  1  -0.052700  0.187300  0.513300  1
  H  H663  1  0.171300  0.252500  0.500800  1
  H  H664  1  0.168700  0.205500  0.445200  1
  H  H665  1  0.062000  0.287500  0.571300  1
  H  H666  1  0.015700  0.236800  0.600500  1
  H  H667  1  -0.052100  0.076600  0.432500  1
  H  H668  1  -0.067600  0.158900  0.417000  1
  H  H669  1  0.138800  0.310300  0.390300  1
  H  H670  1  0.209500  0.319000  0.429700  1
  H  H671  1  0.146100  0.356300  0.446700  1
  H  H672  1  0.097700  0.237400  0.683600  1
  H  H673  1  0.068900  0.315700  0.667400  1
  H  H674  1  0.139400  0.293300  0.654200  1
  H  H675  1  -0.148700  0.070500  0.473100  1
  H  H676  1  -0.167000  0.093300  0.408600  1
  H  H677  1  -0.164300  0.152500  0.456700  1
  H  H678  1  0.024700  -0.026400  0.394600  1
  H  H679  1  0.240300  0.082100  0.476700  1
  H  H680  1  0.122500  -0.137800  0.254900  1
  H  H681  1  0.339000  -0.034400  0.340200  1
  H  H682  1  -0.004600  -0.188900  0.213500  1
  H  H683  1  0.454400  0.027000  0.397400  1
  H  H684  1  0.406100  -0.217200  0.251400  1
  H  H685  1  0.435700  -0.169300  0.207500  1
  H  H686  1  0.337400  -0.029100  0.169600  1
  H  H687  1  0.344700  -0.082200  0.119400  1
  H  H688  1  0.295100  -0.272100  0.180800  1
  H  H689  1  0.233000  -0.224800  0.154200  1
  H  H690  1  -0.253300  -0.190400  0.151300  1
  H  H691  1  -0.238500  -0.265200  0.184400  1
  H  H692  1  -0.080600  -0.254500  0.148900  1
  H  H693  1  -0.085700  -0.169400  0.137800  1
  H  H694  1  0.405800  -0.120800  0.310800  1
  H  H695  1  0.427000  -0.067700  0.265500  1
  H  H696  1  0.228300  -0.091700  0.094700  1
  H  H697  1  0.219800  -0.041100  0.146200  1
  H  H698  1  0.266800  -0.282700  0.082800  1
  H  H699  1  0.284600  -0.200100  0.076800  1
  H  H700  1  0.568000  0.067700  0.396100  1
  H  H701  1  0.556100  0.001600  0.436000  1
  H  H702  1  0.639600  0.113800  0.546700  1
  H  H703  1  0.625800  0.183400  0.507000  1
  H  H704  1  -0.256700  -0.264600  0.076600  1
  H  H705  1  -0.203700  -0.319100  0.111000  1
  H  H706  1  -0.138700  -0.256000  0.058400  1
  H  H707  1  -0.175300  -0.181300  0.066200  1
  H  H708  1  0.510100  -0.178000  0.321100  1
  H  H709  1  0.518700  -0.094600  0.335700  1
  H  H710  1  0.531300  -0.123800  0.276500  1
  H  H711  1  0.266000  0.055400  0.104900  1
  H  H712  1  0.204700  0.024600  0.061400  1
  H  H713  1  0.278400  0.005200  0.054400  1
  H  H714  1  0.389300  -0.222600  0.116200  1
  H  H715  1  0.366300  -0.269800  0.061100  1
  H  H716  1  0.371400  -0.305400  0.121800  1
  H  H717  1  0.665700  -0.004100  0.476900  1
  H  H718  1  0.674100  0.024100  0.415800  1
  H  H719  1  0.686400  0.140500  0.445200  1
  H  H720  1  0.724300  0.099000  0.499800  1
  H  H721  1  1.054800  -0.224400  0.919400  1
  H  H722  1  1.055400  -0.279800  0.969800  1
  H  H723  1  1.090700  -0.141100  1.103800  1
  H  H724  1  1.143500  -0.191700  1.081900  1
  H  H725  1  0.962600  -0.105300  1.028700  1
  H  H726  1  0.947300  -0.187300  1.013300  1
  H  H727  1  1.171300  -0.252500  1.000800  1
  H  H728  1  1.168700  -0.205500  0.945200  1
  H  H729  1  1.062000  -0.287500  1.071300  1
  H  H730  1  1.015700  -0.236800  1.100500  1
  H  H731  1  0.947900  -0.076600  0.932500  1
  H  H732  1  0.932400  -0.158900  0.917000  1
  H  H733  1  1.138800  -0.310300  0.890300  1
  H  H734  1  1.209500  -0.319000  0.929700  1
  H  H735  1  1.146100  -0.356300  0.946700  1
  H  H736  1  1.097700  -0.237400  1.183600  1
  H  H737  1  1.068900  -0.315700  1.167400  1
  H  H738  1  1.139400  -0.293300  1.154200  1
  H  H739  1  0.851300  -0.070500  0.973100  1
  H  H740  1  0.833000  -0.093300  0.908600  1
  H  H741  1  0.835700  -0.152500  0.956700  1
  H  H742  1  1.024700  0.026400  0.894600  1
  H  H743  1  1.240300  -0.082100  0.976700  1
  H  H744  1  1.122500  0.137800  0.754900  1
  H  H745  1  1.339000  0.034400  0.840200  1
  H  H746  1  0.995400  0.188900  0.713500  1
  H  H747  1  1.454400  -0.027000  0.897400  1
  H  H748  1  1.406100  0.217200  0.751400  1
  H  H749  1  1.435700  0.169300  0.707500  1
  H  H750  1  1.337400  0.029100  0.669600  1
  H  H751  1  1.344700  0.082200  0.619400  1
  H  H752  1  1.295100  0.272100  0.680800  1
  H  H753  1  1.233000  0.224800  0.654200  1
  H  H754  1  0.746700  0.190400  0.651300  1
  H  H755  1  0.761500  0.265200  0.684400  1
  H  H756  1  0.919400  0.254500  0.648900  1
  H  H757  1  0.914300  0.169400  0.637800  1
  H  H758  1  1.405800  0.120800  0.810800  1
  H  H759  1  1.427000  0.067700  0.765500  1
  H  H760  1  1.228300  0.091700  0.594700  1
  H  H761  1  1.219800  0.041100  0.646200  1
  H  H762  1  1.266800  0.282700  0.582800  1
  H  H763  1  1.284600  0.200100  0.576800  1
  H  H764  1  1.568000  -0.067700  0.896100  1
  H  H765  1  1.556100  -0.001600  0.936000  1
  H  H766  1  1.639600  -0.113800  1.046700  1
  H  H767  1  1.625800  -0.183400  1.007000  1
  H  H768  1  0.743300  0.264600  0.576600  1
  H  H769  1  0.796300  0.319100  0.611000  1
  H  H770  1  0.861300  0.256000  0.558400  1
  H  H771  1  0.824700  0.181300  0.566200  1
  H  H772  1  1.510100  0.178000  0.821100  1
  H  H773  1  1.518700  0.094600  0.835700  1
  H  H774  1  1.531300  0.123800  0.776500  1
  H  H775  1  1.266000  -0.055400  0.604900  1
  H  H776  1  1.204700  -0.024600  0.561400  1
  H  H777  1  1.278400  -0.005200  0.554400  1
  H  H778  1  1.389300  0.222600  0.616200  1
  H  H779  1  1.366300  0.269800  0.561100  1
  H  H780  1  1.371400  0.305400  0.621800  1
  H  H781  1  1.665700  0.004100  0.976900  1
  H  H782  1  1.674100  -0.024100  0.915800  1
  H  H783  1  1.686400  -0.140500  0.945200  1
  H  H784  1  1.724300  -0.099000  0.999800  1
  H  H785  1  0.554800  0.724400  0.419400  1
  H  H786  1  0.555400  0.779800  0.469800  1
  H  H787  1  0.590700  0.641100  0.603800  1
  H  H788  1  0.643500  0.691700  0.581900  1
  H  H789  1  0.462600  0.605300  0.528700  1
  H  H790  1  0.447300  0.687300  0.513300  1
  H  H791  1  0.671300  0.752500  0.500800  1
  H  H792  1  0.668700  0.705500  0.445200  1
  H  H793  1  0.562000  0.787500  0.571300  1
  H  H794  1  0.515700  0.736800  0.600500  1
  H  H795  1  0.447900  0.576600  0.432500  1
  H  H796  1  0.432400  0.658900  0.417000  1
  H  H797  1  0.638800  0.810300  0.390300  1
  H  H798  1  0.709500  0.819000  0.429700  1
  H  H799  1  0.646100  0.856300  0.446700  1
  H  H800  1  0.597700  0.737400  0.683600  1
  H  H801  1  0.568900  0.815700  0.667400  1
  H  H802  1  0.639400  0.793300  0.654200  1
  H  H803  1  0.351300  0.570500  0.473100  1
  H  H804  1  0.333000  0.593300  0.408600  1
  H  H805  1  0.335700  0.652500  0.456700  1
  H  H806  1  0.524700  0.473600  0.394600  1
  H  H807  1  0.740300  0.582100  0.476700  1
  H  H808  1  0.622500  0.362200  0.254900  1
  H  H809  1  0.839000  0.465600  0.340200  1
  H  H810  1  0.495400  0.311100  0.213500  1
  H  H811  1  0.954400  0.527000  0.397400  1
  H  H812  1  0.906100  0.282800  0.251400  1
  H  H813  1  0.935700  0.330700  0.207500  1
  H  H814  1  0.837400  0.470900  0.169600  1
  H  H815  1  0.844700  0.417800  0.119400  1
  H  H816  1  0.795100  0.227900  0.180800  1
  H  H817  1  0.733000  0.275200  0.154200  1
  H  H818  1  0.246700  0.309600  0.151300  1
  H  H819  1  0.261500  0.234800  0.184400  1
  H  H820  1  0.419400  0.245500  0.148900  1
  H  H821  1  0.414300  0.330600  0.137800  1
  H  H822  1  0.905800  0.379200  0.310800  1
  H  H823  1  0.927000  0.432300  0.265500  1
  H  H824  1  0.728300  0.408300  0.094700  1
  H  H825  1  0.719800  0.458900  0.146200  1
  H  H826  1  0.766800  0.217300  0.082800  1
  H  H827  1  0.784600  0.299900  0.076800  1
  H  H828  1  1.068000  0.567700  0.396100  1
  H  H829  1  1.056100  0.501600  0.436000  1
  H  H830  1  1.139600  0.613800  0.546700  1
  H  H831  1  1.125800  0.683400  0.507000  1
  H  H832  1  0.243300  0.235400  0.076600  1
  H  H833  1  0.296300  0.180900  0.111000  1
  H  H834  1  0.361300  0.244000  0.058400  1
  H  H835  1  0.324700  0.318700  0.066200  1
  H  H836  1  1.010100  0.322000  0.321100  1
  H  H837  1  1.018700  0.405400  0.335700  1
  H  H838  1  1.031300  0.376200  0.276500  1
  H  H839  1  0.766000  0.555400  0.104900  1
  H  H840  1  0.704700  0.524600  0.061400  1
  H  H841  1  0.778400  0.505200  0.054400  1
  H  H842  1  0.889300  0.277400  0.116200  1
  H  H843  1  0.866300  0.230200  0.061100  1
  H  H844  1  0.871400  0.194600  0.121800  1
  H  H845  1  1.165700  0.495900  0.476900  1
  H  H846  1  1.174100  0.524100  0.415800  1
  H  H847  1  1.186400  0.640500  0.445200  1
  H  H848  1  1.224300  0.599000  0.499800  1
  H  H849  1  0.554800  0.275600  0.919400  1
  H  H850  1  0.555400  0.220200  0.969800  1
  H  H851  1  0.590700  0.358900  1.103800  1
  H  H852  1  0.643500  0.308300  1.081900  1
  H  H853  1  0.462600  0.394700  1.028700  1
  H  H854  1  0.447300  0.312700  1.013300  1
  H  H855  1  0.671300  0.247500  1.000800  1
  H  H856  1  0.668700  0.294500  0.945200  1
  H  H857  1  0.562000  0.212500  1.071300  1
  H  H858  1  0.515700  0.263200  1.100500  1
  H  H859  1  0.447900  0.423400  0.932500  1
  H  H860  1  0.432400  0.341100  0.917000  1
  H  H861  1  0.638800  0.189700  0.890300  1
  H  H862  1  0.709500  0.181000  0.929700  1
  H  H863  1  0.646100  0.143700  0.946700  1
  H  H864  1  0.597700  0.262600  1.183600  1
  H  H865  1  0.568900  0.184300  1.167400  1
  H  H866  1  0.639400  0.206700  1.154200  1
  H  H867  1  0.351300  0.429500  0.973100  1
  H  H868  1  0.333000  0.406700  0.908600  1
  H  H869  1  0.335700  0.347500  0.956700  1
  H  H870  1  0.524700  0.526400  0.894600  1
  H  H871  1  0.740300  0.417900  0.976700  1
  H  H872  1  0.622500  0.637800  0.754900  1
  H  H873  1  0.839000  0.534400  0.840200  1
  H  H874  1  0.495400  0.688900  0.713500  1
  H  H875  1  0.954400  0.473000  0.897400  1
  H  H876  1  0.906100  0.717200  0.751400  1
  H  H877  1  0.935700  0.669300  0.707500  1
  H  H878  1  0.837400  0.529100  0.669600  1
  H  H879  1  0.844700  0.582200  0.619400  1
  H  H880  1  0.795100  0.772100  0.680800  1
  H  H881  1  0.733000  0.724800  0.654200  1
  H  H882  1  0.246700  0.690400  0.651300  1
  H  H883  1  0.261500  0.765200  0.684400  1
  H  H884  1  0.419400  0.754500  0.648900  1
  H  H885  1  0.414300  0.669400  0.637800  1
  H  H886  1  0.905800  0.620800  0.810800  1
  H  H887  1  0.927000  0.567700  0.765500  1
  H  H888  1  0.728300  0.591700  0.594700  1
  H  H889  1  0.719800  0.541100  0.646200  1
  H  H890  1  0.766800  0.782700  0.582800  1
  H  H891  1  0.784600  0.700100  0.576800  1
  H  H892  1  1.068000  0.432300  0.896100  1
  H  H893  1  1.056100  0.498400  0.936000  1
  H  H894  1  1.139600  0.386200  1.046700  1
  H  H895  1  1.125800  0.316600  1.007000  1
  H  H896  1  0.243300  0.764600  0.576600  1
  H  H897  1  0.296300  0.819100  0.611000  1
  H  H898  1  0.361300  0.756000  0.558400  1
  H  H899  1  0.324700  0.681300  0.566200  1
  H  H900  1  1.010100  0.678000  0.821100  1
  H  H901  1  1.018700  0.594600  0.835700  1
  H  H902  1  1.031300  0.623800  0.776500  1
  H  H903  1  0.766000  0.444600  0.604900  1
  H  H904  1  0.704700  0.475400  0.561400  1
  H  H905  1  0.778400  0.494800  0.554400  1
  H  H906  1  0.889300  0.722600  0.616200  1
  H  H907  1  0.866300  0.769800  0.561100  1
  H  H908  1  0.871400  0.805400  0.621800  1
  H  H909  1  1.165700  0.504100  0.976900  1
  H  H910  1  1.174100  0.475900  0.915800  1
  H  H911  1  1.186400  0.359500  0.945200  1
  H  H912  1  1.224300  0.401000  0.999800  1
  N  N913  1  1.002310  0.450440  0.575140  1
  N  N914  1  0.287520  0.136650  0.274840  1
  N  N915  1  1.002310  0.549560  0.075140  1
  N  N916  1  0.287520  0.863350  -0.225160  1
  N  N917  1  1.502310  -0.049560  0.575140  1
  N  N918  1  0.787520  -0.363350  0.274840  1
  N  N919  1  1.502310  0.049560  1.075140  1
  N  N920  1  0.787520  0.363350  0.774840  1
  N  N921  1  -0.155200  -0.207020  0.181230  1
  N  N922  1  0.568760  0.097440  0.477330  1
  N  N923  1  0.844800  0.207020  0.681230  1
  N  N924  1  1.568760  -0.097440  0.977330  1
  N  N925  1  0.344800  0.292980  0.181230  1
  N  N926  1  1.068760  0.597440  0.477330  1
  N  N927  1  0.344800  0.707020  0.681230  1
  N  N928  1  1.068760  0.402560  0.977330  1
  O  O929  1  1.040170  0.406580  0.499910  1
  O  O930  1  0.344780  0.089680  0.213000  1
  O  O931  1  1.040170  0.593420  -0.000090  1
  O  O932  1  0.344780  0.910320  -0.287000  1
  O  O933  1  1.540170  -0.093420  0.499910  1
  O  O934  1  0.844780  -0.410320  0.213000  1
  O  O935  1  1.540170  0.093420  0.999910  1
  O  O936  1  0.844780  0.410320  0.713000  1
  O  O937  1  -0.185780  -0.174440  0.261560  1
  O  O938  1  0.510710  0.153430  0.534430  1
  O  O939  1  0.814220  0.174440  0.761560  1
  O  O940  1  1.510710  -0.153430  1.034430  1
  O  O941  1  0.314220  0.325560  0.261560  1
  O  O942  1  1.010710  0.653430  0.534430  1
  O  O943  1  0.314220  0.674440  0.761560  1
  O  O944  1  1.010710  0.346570  1.034430  1
  S  S945  1  0.929350  0.343040  0.436430  1
  S  S946  1  0.472300  0.129870  0.251360  1
  S  S947  1  0.929350  0.656960  -0.063570  1
  S  S948  1  0.472300  0.870130  -0.248640  1
  S  S949  1  1.429350  -0.156960  0.436430  1
  S  S950  1  0.972300  -0.370130  0.251360  1
  S  S951  1  1.429350  0.156960  0.936430  1
  S  S952  1  0.972300  0.370130  0.751360  1
  S  S953  1  -0.075920  -0.104990  0.319330  1
  S  S954  1  0.382190  0.112780  0.498150  1
  S  S955  1  0.924080  0.104990  0.819330  1
  S  S956  1  1.382190  -0.112780  0.998150  1
  S  S957  1  0.424080  0.395010  0.319330  1
  S  S958  1  0.882190  0.612780  0.498150  1
  S  S959  1  0.424080  0.604990  0.819330  1
  S  S960  1  0.882190  0.387220  0.998150  1
  Si  Si961  1  0.792410  0.077540  0.243530  1.0
  Si  Si962  1  0.537150  0.383410  0.561550  1
  Si  Si963  1  0.792410  0.922460  -0.256470  1.0
  Si  Si964  1  0.537150  0.616590  0.061550  1
  Si  Si965  1  1.292410  -0.422460  0.243530  1.0
  Si  Si966  1  1.037150  -0.116590  0.561550  1
  Si  Si967  1  1.292410  0.422460  0.743530  1.0
  Si  Si968  1  1.037150  0.116590  1.061550  1
  Si  Si969  1  0.057750  0.160340  0.504920  1.0
  Si  Si970  1  0.319940  -0.149290  0.196630  1
  Si  Si971  1  1.057750  -0.160340  1.004920  1.0
  Si  Si972  1  1.319940  0.149290  0.696630  1
  Si  Si973  1  0.557750  0.660340  0.504920  1.0
  Si  Si974  1  0.819940  0.350710  0.196630  1
  Si  Si975  1  0.557750  0.339660  1.004920  1.0
  Si  Si976  1  0.819940  0.649290  0.696630  1
