# generated using pymatgen
data_SiH37C30
_symmetry_space_group_name_H-M   'P 1'
_cell_length_a   34.85000000
_cell_length_b   18.37040000
_cell_length_c   15.16240000
_cell_angle_alpha   90.00000000
_cell_angle_beta   98.20100000
_cell_angle_gamma   90.00000000
_symmetry_Int_Tables_number   1
_chemical_formula_structural   SiH37C30
_chemical_formula_sum   'Si16 H592 C480'
_cell_volume   9607.82917222
_cell_formula_units_Z   16
loop_
 _symmetry_equiv_pos_site_id
 _symmetry_equiv_pos_as_xyz
  1  'x, y, z'
loop_
 _atom_site_type_symbol
 _atom_site_label
 _atom_site_symmetry_multiplicity
 _atom_site_fract_x
 _atom_site_fract_y
 _atom_site_fract_z
 _atom_site_occupancy
  C  C1  1  0.109390  0.017600  0.442800  1
  C  C2  1  0.164070  0.086200  0.330100  1
  C  C3  1  0.190080  0.047300  0.526900  1
  C  C4  1  0.171190  -0.074000  0.387800  1
  C  C5  1  0.076760  0.012400  0.460500  1
  C  C6  1  0.139600  0.071000  0.239200  1
  C  C7  1  0.153270  0.164100  0.347700  1
  C  C8  1  0.175650  0.113400  0.574500  1
  C  C9  1  0.232280  0.067100  0.518900  1
  C  C10  1  0.171370  -0.129800  0.461900  1
  C  C11  1  0.140740  -0.108600  0.315500  1
  C  C12  1  0.038230  0.006300  0.480200  1
  C  C13  1  0.141880  0.141400  0.187600  1
  C  C14  1  0.149360  0.202300  0.256900  1
  C  C15  1  0.211000  0.165900  0.602100  1
  C  C16  1  0.243100  0.136900  0.572900  1
  C  C17  1  0.166700  -0.202300  0.418500  1
  C  C18  1  0.146300  -0.190200  0.328300  1
  C  C19  1  0.022100  -0.063600  0.489300  1
  C  C20  1  0.016780  0.069400  0.490700  1
  C  C21  1  0.042880  -0.127300  0.478300  1
  C  C22  1  -0.016780  -0.069400  0.509300  1
  C  C23  1  -0.022100  0.063600  0.510700  1
  C  C24  1  0.032300  0.139000  0.481800  1
  C  C25  1  0.027080  -0.195500  0.487000  1
  C  C26  1  -0.038230  -0.006300  0.519800  1
  C  C27  1  -0.032300  -0.139000  0.518200  1
  C  C28  1  -0.042880  0.127300  0.521700  1
  C  C29  1  0.011540  0.202000  0.492100  1
  C  C30  1  0.047690  -0.261100  0.476100  1
  C  C31  1  -0.011540  -0.202000  0.507900  1
  C  C32  1  -0.076760  -0.012400  0.539500  1
  C  C33  1  -0.027080  0.195500  0.513000  1
  C  C34  1  0.026970  0.272100  0.482800  1
  C  C35  1  0.032110  -0.327900  0.484500  1
  C  C36  1  -0.026970  -0.272100  0.517200  1
  C  C37  1  -0.109390  -0.017600  0.557200  1
  C  C38  1  -0.047690  0.261100  0.523900  1
  C  C39  1  0.006710  0.333800  0.493900  1
  C  C40  1  -0.006710  -0.333800  0.506100  1
  C  C41  1  0.054380  -0.394900  0.472500  1
  C  C42  1  -0.032110  0.327900  0.515500  1
  C  C43  1  0.024440  0.406500  0.484100  1
  C  C44  1  -0.024440  -0.406500  0.515900  1
  C  C45  1  -0.164070  -0.086200  0.669900  1
  C  C46  1  -0.190080  -0.047300  0.473100  1
  C  C47  1  -0.171190  0.074000  0.612200  1
  C  C48  1  -0.054380  0.394900  0.527500  1
  C  C49  1  -0.139600  -0.071000  0.760800  1
  C  C50  1  -0.153270  -0.164100  0.652300  1
  C  C51  1  -0.175650  -0.113400  0.425500  1
  C  C52  1  -0.232280  -0.067100  0.481100  1
  C  C53  1  -0.171370  0.129800  0.538100  1
  C  C54  1  -0.140740  0.108600  0.684500  1
  C  C55  1  -0.141880  -0.141400  0.812400  1
  C  C56  1  -0.149360  -0.202300  0.743100  1
  C  C57  1  -0.211000  -0.165900  0.397900  1
  C  C58  1  -0.243100  -0.136900  0.427100  1
  C  C59  1  -0.166700  0.202300  0.581500  1
  C  C60  1  -0.146300  0.190200  0.671700  1
  C  C61  1  -0.109390  0.017600  0.057200  1
  C  C62  1  -0.164070  0.086200  0.169900  1
  C  C63  1  -0.190080  0.047300  -0.026900  1
  C  C64  1  -0.171190  -0.074000  0.112200  1
  C  C65  1  -0.076760  0.012400  0.039500  1
  C  C66  1  -0.139600  0.071000  0.260800  1
  C  C67  1  -0.153270  0.164100  0.152300  1
  C  C68  1  -0.175650  0.113400  -0.074500  1
  C  C69  1  -0.232280  0.067100  -0.018900  1
  C  C70  1  -0.171370  -0.129800  0.038100  1
  C  C71  1  -0.140740  -0.108600  0.184500  1
  C  C72  1  -0.038230  0.006300  0.019800  1
  C  C73  1  -0.141880  0.141400  0.312400  1
  C  C74  1  -0.149360  0.202300  0.243100  1
  C  C75  1  -0.211000  0.165900  -0.102100  1
  C  C76  1  -0.243100  0.136900  -0.072900  1
  C  C77  1  -0.166700  -0.202300  0.081500  1
  C  C78  1  -0.146300  -0.190200  0.171700  1
  C  C79  1  -0.022100  -0.063600  0.010700  1
  C  C80  1  -0.016780  0.069400  0.009300  1
  C  C81  1  -0.042880  -0.127300  0.021700  1
  C  C82  1  0.016780  -0.069400  -0.009300  1
  C  C83  1  0.022100  0.063600  -0.010700  1
  C  C84  1  -0.032300  0.139000  0.018200  1
  C  C85  1  -0.027080  -0.195500  0.013000  1
  C  C86  1  0.038230  -0.006300  -0.019800  1
  C  C87  1  0.032300  -0.139000  -0.018200  1
  C  C88  1  0.042880  0.127300  -0.021700  1
  C  C89  1  -0.011540  0.202000  0.007900  1
  C  C90  1  -0.047690  -0.261100  0.023900  1
  C  C91  1  0.011540  -0.202000  -0.007900  1
  C  C92  1  0.076760  -0.012400  -0.039500  1
  C  C93  1  0.027080  0.195500  -0.013000  1
  C  C94  1  -0.026970  0.272100  0.017200  1
  C  C95  1  -0.032110  -0.327900  0.015500  1
  C  C96  1  0.026970  -0.272100  -0.017200  1
  C  C97  1  0.109390  -0.017600  -0.057200  1
  C  C98  1  0.047690  0.261100  -0.023900  1
  C  C99  1  -0.006710  0.333800  0.006100  1
  C  C100  1  0.006710  -0.333800  -0.006100  1
  C  C101  1  -0.054380  -0.394900  0.027500  1
  C  C102  1  0.032110  0.327900  -0.015500  1
  C  C103  1  -0.024440  0.406500  0.015900  1
  C  C104  1  0.024440  -0.406500  -0.015900  1
  C  C105  1  0.164070  -0.086200  -0.169900  1
  C  C106  1  0.190080  -0.047300  0.026900  1
  C  C107  1  0.171190  0.074000  -0.112200  1
  C  C108  1  0.054380  0.394900  -0.027500  1
  C  C109  1  0.139600  -0.071000  -0.260800  1
  C  C110  1  0.153270  -0.164100  -0.152300  1
  C  C111  1  0.175650  -0.113400  0.074500  1
  C  C112  1  0.232280  -0.067100  0.018900  1
  C  C113  1  0.171370  0.129800  -0.038100  1
  C  C114  1  0.140740  0.108600  -0.184500  1
  C  C115  1  0.141880  -0.141400  -0.312400  1
  C  C116  1  0.149360  -0.202300  -0.243100  1
  C  C117  1  0.211000  -0.165900  0.102100  1
  C  C118  1  0.243100  -0.136900  0.072900  1
  C  C119  1  0.166700  0.202300  -0.081500  1
  C  C120  1  0.146300  0.190200  -0.171700  1
  C  C121  1  0.609390  -0.482400  0.442800  1
  C  C122  1  0.664070  -0.413800  0.330100  1
  C  C123  1  0.690080  -0.452700  0.526900  1
  C  C124  1  0.671190  -0.574000  0.387800  1
  C  C125  1  0.576760  -0.487600  0.460500  1
  C  C126  1  0.639600  -0.429000  0.239200  1
  C  C127  1  0.653270  -0.335900  0.347700  1
  C  C128  1  0.675650  -0.386600  0.574500  1
  C  C129  1  0.732280  -0.432900  0.518900  1
  C  C130  1  0.671370  -0.629800  0.461900  1
  C  C131  1  0.640740  -0.608600  0.315500  1
  C  C132  1  0.538230  -0.493700  0.480200  1
  C  C133  1  0.641880  -0.358600  0.187600  1
  C  C134  1  0.649360  -0.297700  0.256900  1
  C  C135  1  0.711000  -0.334100  0.602100  1
  C  C136  1  0.743100  -0.363100  0.572900  1
  C  C137  1  0.666700  -0.702300  0.418500  1
  C  C138  1  0.646300  -0.690200  0.328300  1
  C  C139  1  0.522100  -0.563600  0.489300  1
  C  C140  1  0.516780  -0.430600  0.490700  1
  C  C141  1  0.542880  -0.627300  0.478300  1
  C  C142  1  0.483220  -0.569400  0.509300  1
  C  C143  1  0.477900  -0.436400  0.510700  1
  C  C144  1  0.532300  -0.361000  0.481800  1
  C  C145  1  0.527080  -0.695500  0.487000  1
  C  C146  1  0.461770  -0.506300  0.519800  1
  C  C147  1  0.467700  -0.639000  0.518200  1
  C  C148  1  0.457120  -0.372700  0.521700  1
  C  C149  1  0.511540  -0.298000  0.492100  1
  C  C150  1  0.547690  -0.761100  0.476100  1
  C  C151  1  0.488460  -0.702000  0.507900  1
  C  C152  1  0.423240  -0.512400  0.539500  1
  C  C153  1  0.472920  -0.304500  0.513000  1
  C  C154  1  0.526970  -0.227900  0.482800  1
  C  C155  1  0.532110  -0.827900  0.484500  1
  C  C156  1  0.473030  -0.772100  0.517200  1
  C  C157  1  0.390610  -0.517600  0.557200  1
  C  C158  1  0.452310  -0.238900  0.523900  1
  C  C159  1  0.506710  -0.166200  0.493900  1
  C  C160  1  0.493290  -0.833800  0.506100  1
  C  C161  1  0.554380  -0.894900  0.472500  1
  C  C162  1  0.467890  -0.172100  0.515500  1
  C  C163  1  0.524440  -0.093500  0.484100  1
  C  C164  1  0.475560  -0.906500  0.515900  1
  C  C165  1  0.335930  -0.586200  0.669900  1
  C  C166  1  0.309920  -0.547300  0.473100  1
  C  C167  1  0.328810  -0.426000  0.612200  1
  C  C168  1  0.445620  -0.105100  0.527500  1
  C  C169  1  0.360400  -0.571000  0.760800  1
  C  C170  1  0.346730  -0.664100  0.652300  1
  C  C171  1  0.324350  -0.613400  0.425500  1
  C  C172  1  0.267720  -0.567100  0.481100  1
  C  C173  1  0.328630  -0.370200  0.538100  1
  C  C174  1  0.359260  -0.391400  0.684500  1
  C  C175  1  0.358120  -0.641400  0.812400  1
  C  C176  1  0.350640  -0.702300  0.743100  1
  C  C177  1  0.289000  -0.665900  0.397900  1
  C  C178  1  0.256900  -0.636900  0.427100  1
  C  C179  1  0.333300  -0.297700  0.581500  1
  C  C180  1  0.353700  -0.309800  0.671700  1
  C  C181  1  0.390610  -0.482400  1.057200  1
  C  C182  1  0.335930  -0.413800  1.169900  1
  C  C183  1  0.309920  -0.452700  0.973100  1
  C  C184  1  0.328810  -0.574000  1.112200  1
  C  C185  1  0.423240  -0.487600  1.039500  1
  C  C186  1  0.360400  -0.429000  1.260800  1
  C  C187  1  0.346730  -0.335900  1.152300  1
  C  C188  1  0.324350  -0.386600  0.925500  1
  C  C189  1  0.267720  -0.432900  0.981100  1
  C  C190  1  0.328630  -0.629800  1.038100  1
  C  C191  1  0.359260  -0.608600  1.184500  1
  C  C192  1  0.461770  -0.493700  1.019800  1
  C  C193  1  0.358120  -0.358600  1.312400  1
  C  C194  1  0.350640  -0.297700  1.243100  1
  C  C195  1  0.289000  -0.334100  0.897900  1
  C  C196  1  0.256900  -0.363100  0.927100  1
  C  C197  1  0.333300  -0.702300  1.081500  1
  C  C198  1  0.353700  -0.690200  1.171700  1
  C  C199  1  0.477900  -0.563600  1.010700  1
  C  C200  1  0.483220  -0.430600  1.009300  1
  C  C201  1  0.457120  -0.627300  1.021700  1
  C  C202  1  0.516780  -0.569400  0.990700  1
  C  C203  1  0.522100  -0.436400  0.989300  1
  C  C204  1  0.467700  -0.361000  1.018200  1
  C  C205  1  0.472920  -0.695500  1.013000  1
  C  C206  1  0.538230  -0.506300  0.980200  1
  C  C207  1  0.532300  -0.639000  0.981800  1
  C  C208  1  0.542880  -0.372700  0.978300  1
  C  C209  1  0.488460  -0.298000  1.007900  1
  C  C210  1  0.452310  -0.761100  1.023900  1
  C  C211  1  0.511540  -0.702000  0.992100  1
  C  C212  1  0.576760  -0.512400  0.960500  1
  C  C213  1  0.527080  -0.304500  0.987000  1
  C  C214  1  0.473030  -0.227900  1.017200  1
  C  C215  1  0.467890  -0.827900  1.015500  1
  C  C216  1  0.526970  -0.772100  0.982800  1
  C  C217  1  0.609390  -0.517600  0.942800  1
  C  C218  1  0.547690  -0.238900  0.976100  1
  C  C219  1  0.493290  -0.166200  1.006100  1
  C  C220  1  0.506710  -0.833800  0.993900  1
  C  C221  1  0.445620  -0.894900  1.027500  1
  C  C222  1  0.532110  -0.172100  0.984500  1
  C  C223  1  0.475560  -0.093500  1.015900  1
  C  C224  1  0.524440  -0.906500  0.984100  1
  C  C225  1  0.664070  -0.586200  0.830100  1
  C  C226  1  0.690080  -0.547300  1.026900  1
  C  C227  1  0.671190  -0.426000  0.887800  1
  C  C228  1  0.554380  -0.105100  0.972500  1
  C  C229  1  0.639600  -0.571000  0.739200  1
  C  C230  1  0.653270  -0.664100  0.847700  1
  C  C231  1  0.675650  -0.613400  1.074500  1
  C  C232  1  0.732280  -0.567100  1.018900  1
  C  C233  1  0.671370  -0.370200  0.961900  1
  C  C234  1  0.640740  -0.391400  0.815500  1
  C  C235  1  0.641880  -0.641400  0.687600  1
  C  C236  1  0.649360  -0.702300  0.756900  1
  C  C237  1  0.711000  -0.665900  1.102100  1
  C  C238  1  0.743100  -0.636900  1.072900  1
  C  C239  1  0.666700  -0.297700  0.918500  1
  C  C240  1  0.646300  -0.309800  0.828300  1
  C  C241  1  0.109330  0.441900  0.690800  1
  C  C242  1  0.186770  0.375700  0.740100  1
  C  C243  1  0.158310  0.418600  0.547600  1
  C  C244  1  0.178340  0.538100  0.688900  1
  C  C245  1  0.076690  0.440000  0.707600  1
  C  C246  1  0.187720  0.389400  0.841100  1
  C  C247  1  0.229500  0.365300  0.729000  1
  C  C248  1  0.140960  0.343800  0.521700  1
  C  C249  1  0.133880  0.469000  0.481300  1
  C  C250  1  0.215400  0.557500  0.648900  1
  C  C251  1  0.149490  0.599900  0.656100  1
  C  C252  1  0.038130  0.439600  0.728200  1
  C  C253  1  0.227430  0.364400  0.884900  1
  C  C254  1  0.245990  0.327000  0.814100  1
  C  C255  1  0.133180  0.346100  0.420100  1
  C  C256  1  0.125500  0.425400  0.395000  1
  C  C257  1  0.213970  0.639500  0.640300  1
  C  C258  1  0.171630  0.653000  0.603800  1
  C  C259  1  0.019510  0.506100  0.739400  1
  C  C260  1  0.019300  0.372900  0.738200  1
  C  C261  1  -0.019510  0.506100  0.760600  1
  C  C262  1  0.037490  0.572900  0.729000  1
  C  C263  1  0.036960  0.305900  0.725500  1
  C  C264  1  -0.019300  0.372900  0.761800  1
  C  C265  1  -0.038130  0.439600  0.771800  1
  C  C266  1  -0.037490  0.572900  0.771000  1
  C  C267  1  0.019310  0.638600  0.739200  1
  C  C268  1  0.018990  0.240800  0.736600  1
  C  C269  1  -0.036960  0.305900  0.774500  1
  C  C270  1  -0.076690  0.440000  0.792400  1
  C  C271  1  -0.019310  0.638600  0.760800  1
  C  C272  1  0.037450  0.706600  0.729800  1
  C  C273  1  0.036260  0.172700  0.722600  1
  C  C274  1  -0.018990  0.240800  0.763400  1
  C  C275  1  -0.109330  0.441900  0.809200  1
  C  C276  1  -0.037450  0.706600  0.770200  1
  C  C277  1  0.019540  0.770700  0.739900  1
  C  C278  1  0.018840  0.108500  0.735300  1
  C  C279  1  -0.036260  0.172700  0.777400  1
  C  C280  1  -0.019540  0.770700  0.760100  1
  C  C281  1  0.039500  0.841100  0.729800  1
  C  C282  1  -0.018840  0.108500  0.764700  1
  C  C283  1  0.037980  0.037700  0.720100  1
  C  C284  1  -0.186770  0.375700  0.759900  1
  C  C285  1  -0.158310  0.418600  0.952400  1
  C  C286  1  -0.178340  0.538100  0.811100  1
  C  C287  1  -0.039500  0.841100  0.770200  1
  C  C288  1  -0.037980  0.037700  0.779900  1
  C  C289  1  -0.187720  0.389400  0.658900  1
  C  C290  1  -0.229500  0.365300  0.771000  1
  C  C291  1  -0.140960  0.343800  0.978300  1
  C  C292  1  -0.133880  0.469000  1.018700  1
  C  C293  1  -0.215400  0.557500  0.851100  1
  C  C294  1  -0.149490  0.599900  0.843900  1
  C  C295  1  -0.227430  0.364400  0.615100  1
  C  C296  1  -0.245990  0.327000  0.685900  1
  C  C297  1  -0.133180  0.346100  1.079900  1
  C  C298  1  -0.125500  0.425400  1.105000  1
  C  C299  1  -0.213970  0.639500  0.859700  1
  C  C300  1  -0.171630  0.653000  0.896200  1
  C  C301  1  0.609330  -0.058100  0.690800  1
  C  C302  1  0.686770  -0.124300  0.740100  1
  C  C303  1  0.658310  -0.081400  0.547600  1
  C  C304  1  0.678340  0.038100  0.688900  1
  C  C305  1  0.576690  -0.060000  0.707600  1
  C  C306  1  0.687720  -0.110600  0.841100  1
  C  C307  1  0.729500  -0.134700  0.729000  1
  C  C308  1  0.640960  -0.156200  0.521700  1
  C  C309  1  0.633880  -0.031000  0.481300  1
  C  C310  1  0.715400  0.057500  0.648900  1
  C  C311  1  0.649490  0.099900  0.656100  1
  C  C312  1  0.538130  -0.060400  0.728200  1
  C  C313  1  0.727430  -0.135600  0.884900  1
  C  C314  1  0.745990  -0.173000  0.814100  1
  C  C315  1  0.633180  -0.153900  0.420100  1
  C  C316  1  0.625500  -0.074600  0.395000  1
  C  C317  1  0.713970  0.139500  0.640300  1
  C  C318  1  0.671630  0.153000  0.603800  1
  C  C319  1  0.519510  0.006100  0.739400  1
  C  C320  1  0.519300  -0.127100  0.738200  1
  C  C321  1  0.480490  0.006100  0.760600  1
  C  C322  1  0.537490  0.072900  0.729000  1
  C  C323  1  0.536960  -0.194100  0.725500  1
  C  C324  1  0.480700  -0.127100  0.761800  1
  C  C325  1  0.461870  -0.060400  0.771800  1
  C  C326  1  0.462510  0.072900  0.771000  1
  C  C327  1  0.519310  0.138600  0.739200  1
  C  C328  1  0.518990  -0.259200  0.736600  1
  C  C329  1  0.463040  -0.194100  0.774500  1
  C  C330  1  0.423310  -0.060000  0.792400  1
  C  C331  1  0.480690  0.138600  0.760800  1
  C  C332  1  0.537450  0.206600  0.729800  1
  C  C333  1  0.536260  -0.327300  0.722600  1
  C  C334  1  0.481010  -0.259200  0.763400  1
  C  C335  1  0.390670  -0.058100  0.809200  1
  C  C336  1  0.462550  0.206600  0.770200  1
  C  C337  1  0.519540  0.270700  0.739900  1
  C  C338  1  0.518840  -0.391500  0.735300  1
  C  C339  1  0.463740  -0.327300  0.777400  1
  C  C340  1  0.480460  0.270700  0.760100  1
  C  C341  1  0.539500  0.341100  0.729800  1
  C  C342  1  0.481160  -0.391500  0.764700  1
  C  C343  1  0.537980  -0.462300  0.720100  1
  C  C344  1  0.313230  -0.124300  0.759900  1
  C  C345  1  0.341690  -0.081400  0.952400  1
  C  C346  1  0.321660  0.038100  0.811100  1
  C  C347  1  0.460500  0.341100  0.770200  1
  C  C348  1  0.462020  -0.462300  0.779900  1
  C  C349  1  0.312280  -0.110600  0.658900  1
  C  C350  1  0.270500  -0.134700  0.771000  1
  C  C351  1  0.359040  -0.156200  0.978300  1
  C  C352  1  0.366120  -0.031000  1.018700  1
  C  C353  1  0.284600  0.057500  0.851100  1
  C  C354  1  0.350510  0.099900  0.843900  1
  C  C355  1  0.272570  -0.135600  0.615100  1
  C  C356  1  0.254010  -0.173000  0.685900  1
  C  C357  1  0.366820  -0.153900  1.079900  1
  C  C358  1  0.374500  -0.074600  1.105000  1
  C  C359  1  0.286030  0.139500  0.859700  1
  C  C360  1  0.328370  0.153000  0.896200  1
  C  C361  1  -0.109330  -0.441900  0.309200  1
  C  C362  1  -0.186770  -0.375700  0.259900  1
  C  C363  1  -0.158310  -0.418600  0.452400  1
  C  C364  1  -0.178340  -0.538100  0.311100  1
  C  C365  1  -0.076690  -0.440000  0.292400  1
  C  C366  1  -0.187720  -0.389400  0.158900  1
  C  C367  1  -0.229500  -0.365300  0.271000  1
  C  C368  1  -0.140960  -0.343800  0.478300  1
  C  C369  1  -0.133880  -0.469000  0.518700  1
  C  C370  1  -0.215400  -0.557500  0.351100  1
  C  C371  1  -0.149490  -0.599900  0.343900  1
  C  C372  1  -0.038130  -0.439600  0.271800  1
  C  C373  1  -0.227430  -0.364400  0.115100  1
  C  C374  1  -0.245990  -0.327000  0.185900  1
  C  C375  1  -0.133180  -0.346100  0.579900  1
  C  C376  1  -0.125500  -0.425400  0.605000  1
  C  C377  1  -0.213970  -0.639500  0.359700  1
  C  C378  1  -0.171630  -0.653000  0.396200  1
  C  C379  1  -0.019510  -0.506100  0.260600  1
  C  C380  1  -0.019300  -0.372900  0.261800  1
  C  C381  1  0.019510  -0.506100  0.239400  1
  C  C382  1  -0.037490  -0.572900  0.271000  1
  C  C383  1  -0.036960  -0.305900  0.274500  1
  C  C384  1  0.019300  -0.372900  0.238200  1
  C  C385  1  0.038130  -0.439600  0.228200  1
  C  C386  1  0.037490  -0.572900  0.229000  1
  C  C387  1  -0.019310  -0.638600  0.260800  1
  C  C388  1  -0.018990  -0.240800  0.263400  1
  C  C389  1  0.036960  -0.305900  0.225500  1
  C  C390  1  0.076690  -0.440000  0.207600  1
  C  C391  1  0.019310  -0.638600  0.239200  1
  C  C392  1  -0.037450  -0.706600  0.270200  1
  C  C393  1  -0.036260  -0.172700  0.277400  1
  C  C394  1  0.018990  -0.240800  0.236600  1
  C  C395  1  0.109330  -0.441900  0.190800  1
  C  C396  1  0.037450  -0.706600  0.229800  1
  C  C397  1  -0.019540  -0.770700  0.260100  1
  C  C398  1  -0.018840  -0.108500  0.264700  1
  C  C399  1  0.036260  -0.172700  0.222600  1
  C  C400  1  0.019540  -0.770700  0.239900  1
  C  C401  1  -0.039500  -0.841100  0.270200  1
  C  C402  1  0.018840  -0.108500  0.235300  1
  C  C403  1  -0.037980  -0.037700  0.279900  1
  C  C404  1  0.186770  -0.375700  0.240100  1
  C  C405  1  0.158310  -0.418600  0.047600  1
  C  C406  1  0.178340  -0.538100  0.188900  1
  C  C407  1  0.039500  -0.841100  0.229800  1
  C  C408  1  0.037980  -0.037700  0.220100  1
  C  C409  1  0.187720  -0.389400  0.341100  1
  C  C410  1  0.229500  -0.365300  0.229000  1
  C  C411  1  0.140960  -0.343800  0.021700  1
  C  C412  1  0.133880  -0.469000  -0.018700  1
  C  C413  1  0.215400  -0.557500  0.148900  1
  C  C414  1  0.149490  -0.599900  0.156100  1
  C  C415  1  0.227430  -0.364400  0.384900  1
  C  C416  1  0.245990  -0.327000  0.314100  1
  C  C417  1  0.133180  -0.346100  -0.079900  1
  C  C418  1  0.125500  -0.425400  -0.105000  1
  C  C419  1  0.213970  -0.639500  0.140300  1
  C  C420  1  0.171630  -0.653000  0.103800  1
  C  C421  1  -0.609330  0.058100  0.309200  1
  C  C422  1  -0.686770  0.124300  0.259900  1
  C  C423  1  -0.658310  0.081400  0.452400  1
  C  C424  1  -0.678340  -0.038100  0.311100  1
  C  C425  1  -0.576690  0.060000  0.292400  1
  C  C426  1  -0.687720  0.110600  0.158900  1
  C  C427  1  -0.729500  0.134700  0.271000  1
  C  C428  1  -0.640960  0.156200  0.478300  1
  C  C429  1  -0.633880  0.031000  0.518700  1
  C  C430  1  -0.715400  -0.057500  0.351100  1
  C  C431  1  -0.649490  -0.099900  0.343900  1
  C  C432  1  -0.538130  0.060400  0.271800  1
  C  C433  1  -0.727430  0.135600  0.115100  1
  C  C434  1  -0.745990  0.173000  0.185900  1
  C  C435  1  -0.633180  0.153900  0.579900  1
  C  C436  1  -0.625500  0.074600  0.605000  1
  C  C437  1  -0.713970  -0.139500  0.359700  1
  C  C438  1  -0.671630  -0.153000  0.396200  1
  C  C439  1  -0.519510  -0.006100  0.260600  1
  C  C440  1  -0.519300  0.127100  0.261800  1
  C  C441  1  -0.480490  -0.006100  0.239400  1
  C  C442  1  -0.537490  -0.072900  0.271000  1
  C  C443  1  -0.536960  0.194100  0.274500  1
  C  C444  1  -0.480700  0.127100  0.238200  1
  C  C445  1  -0.461870  0.060400  0.228200  1
  C  C446  1  -0.462510  -0.072900  0.229000  1
  C  C447  1  -0.519310  -0.138600  0.260800  1
  C  C448  1  -0.518990  0.259200  0.263400  1
  C  C449  1  -0.463040  0.194100  0.225500  1
  C  C450  1  -0.423310  0.060000  0.207600  1
  C  C451  1  -0.480690  -0.138600  0.239200  1
  C  C452  1  -0.537450  -0.206600  0.270200  1
  C  C453  1  -0.536260  0.327300  0.277400  1
  C  C454  1  -0.481010  0.259200  0.236600  1
  C  C455  1  -0.390670  0.058100  0.190800  1
  C  C456  1  -0.462550  -0.206600  0.229800  1
  C  C457  1  -0.519540  -0.270700  0.260100  1
  C  C458  1  -0.518840  0.391500  0.264700  1
  C  C459  1  -0.463740  0.327300  0.222600  1
  C  C460  1  -0.480460  -0.270700  0.239900  1
  C  C461  1  -0.539500  -0.341100  0.270200  1
  C  C462  1  -0.481160  0.391500  0.235300  1
  C  C463  1  -0.537980  0.462300  0.279900  1
  C  C464  1  -0.313230  0.124300  0.240100  1
  C  C465  1  -0.341690  0.081400  0.047600  1
  C  C466  1  -0.321660  -0.038100  0.188900  1
  C  C467  1  -0.460500  -0.341100  0.229800  1
  C  C468  1  -0.462020  0.462300  0.220100  1
  C  C469  1  -0.312280  0.110600  0.341100  1
  C  C470  1  -0.270500  0.134700  0.229000  1
  C  C471  1  -0.359040  0.156200  0.021700  1
  C  C472  1  -0.366120  0.031000  -0.018700  1
  C  C473  1  -0.284600  -0.057500  0.148900  1
  C  C474  1  -0.350510  -0.099900  0.156100  1
  C  C475  1  -0.272570  0.135600  0.384900  1
  C  C476  1  -0.254010  0.173000  0.314100  1
  C  C477  1  -0.366820  0.153900  -0.079900  1
  C  C478  1  -0.374500  0.074600  -0.105000  1
  C  C479  1  -0.286030  -0.139500  0.140300  1
  C  C480  1  -0.328370  -0.153000  0.103800  1
  H  H481  1  0.191900  0.086200  0.320500  1
  H  H482  1  0.190800  0.005100  0.568700  1
  H  H483  1  0.197100  -0.074000  0.366500  1
  H  H484  1  0.150500  0.029800  0.208600  1
  H  H485  1  0.112400  0.059600  0.246300  1
  H  H486  1  0.173700  0.187600  0.390400  1
  H  H487  1  0.128500  0.166100  0.372400  1
  H  H488  1  0.164700  0.097400  0.628000  1
  H  H489  1  0.155100  0.138900  0.534200  1
  H  H490  1  0.249700  0.026800  0.542100  1
  H  H491  1  0.235100  0.075100  0.455500  1
  H  H492  1  0.196100  -0.127500  0.503000  1
  H  H493  1  0.149800  -0.120300  0.496400  1
  H  H494  1  0.114200  -0.094100  0.324100  1
  H  H495  1  0.145300  -0.093700  0.255200  1
  H  H496  1  0.117300  0.150200  0.147700  1
  H  H497  1  0.163200  0.139000  0.151100  1
  H  H498  1  0.127500  0.237200  0.250500  1
  H  H499  1  0.173400  0.228900  0.250000  1
  H  H500  1  0.205300  0.214500  0.575100  1
  H  H501  1  0.215600  0.171600  0.667700  1
  H  H502  1  0.262800  0.125500  0.624700  1
  H  H503  1  0.254300  0.172900  0.535200  1
  H  H504  1  0.192300  -0.224800  0.416200  1
  H  H505  1  0.151400  -0.234900  0.452200  1
  H  H506  1  0.120900  -0.215200  0.320700  1
  H  H507  1  0.161800  -0.209900  0.283700  1
  H  H508  1  0.068600  -0.123600  0.464500  1
  H  H509  1  0.058000  0.143200  0.468300  1
  H  H510  1  -0.058000  -0.143200  0.531700  1
  H  H511  1  -0.068600  0.123600  0.535500  1
  H  H512  1  0.073400  -0.258000  0.462400  1
  H  H513  1  0.052500  0.276400  0.468300  1
  H  H514  1  -0.052500  -0.276400  0.531700  1
  H  H515  1  -0.073400  0.258000  0.537600  1
  H  H516  1  0.079800  -0.381800  0.456700  1
  H  H517  1  0.040200  -0.424400  0.424600  1
  H  H518  1  0.057900  -0.422900  0.528000  1
  H  H519  1  0.050600  0.400300  0.468500  1
  H  H520  1  0.008500  0.433900  0.436900  1
  H  H521  1  0.025900  0.433200  0.540400  1
  H  H522  1  -0.050600  -0.400300  0.531500  1
  H  H523  1  -0.008500  -0.433900  0.563100  1
  H  H524  1  -0.025900  -0.433200  0.459600  1
  H  H525  1  -0.191900  -0.086200  0.679500  1
  H  H526  1  -0.190800  -0.005100  0.431300  1
  H  H527  1  -0.197100  0.074000  0.633500  1
  H  H528  1  -0.079800  0.381800  0.543300  1
  H  H529  1  -0.040200  0.424400  0.575400  1
  H  H530  1  -0.057900  0.422900  0.472000  1
  H  H531  1  -0.150500  -0.029800  0.791400  1
  H  H532  1  -0.112400  -0.059600  0.753700  1
  H  H533  1  -0.173700  -0.187600  0.609600  1
  H  H534  1  -0.128500  -0.166100  0.627600  1
  H  H535  1  -0.164700  -0.097400  0.372000  1
  H  H536  1  -0.155100  -0.138900  0.465800  1
  H  H537  1  -0.249700  -0.026800  0.457900  1
  H  H538  1  -0.235100  -0.075100  0.544500  1
  H  H539  1  -0.196100  0.127500  0.497000  1
  H  H540  1  -0.149800  0.120300  0.503600  1
  H  H541  1  -0.114200  0.094100  0.675900  1
  H  H542  1  -0.145300  0.093700  0.744800  1
  H  H543  1  -0.117300  -0.150200  0.852300  1
  H  H544  1  -0.163200  -0.139000  0.848900  1
  H  H545  1  -0.127500  -0.237200  0.749500  1
  H  H546  1  -0.173400  -0.228900  0.750000  1
  H  H547  1  -0.205300  -0.214500  0.424900  1
  H  H548  1  -0.215600  -0.171600  0.332300  1
  H  H549  1  -0.262800  -0.125500  0.375300  1
  H  H550  1  -0.254300  -0.172900  0.464800  1
  H  H551  1  -0.192300  0.224800  0.583800  1
  H  H552  1  -0.151400  0.234900  0.547800  1
  H  H553  1  -0.120900  0.215200  0.679300  1
  H  H554  1  -0.161800  0.209900  0.716300  1
  H  H555  1  -0.191900  0.086200  0.179500  1
  H  H556  1  -0.190800  0.005100  -0.068700  1
  H  H557  1  -0.197100  -0.074000  0.133500  1
  H  H558  1  -0.150500  0.029800  0.291400  1
  H  H559  1  -0.112400  0.059600  0.253700  1
  H  H560  1  -0.173700  0.187600  0.109600  1
  H  H561  1  -0.128500  0.166100  0.127600  1
  H  H562  1  -0.164700  0.097400  -0.128000  1
  H  H563  1  -0.155100  0.138900  -0.034200  1
  H  H564  1  -0.249700  0.026800  -0.042100  1
  H  H565  1  -0.235100  0.075100  0.044500  1
  H  H566  1  -0.196100  -0.127500  -0.003000  1
  H  H567  1  -0.149800  -0.120300  0.003600  1
  H  H568  1  -0.114200  -0.094100  0.175900  1
  H  H569  1  -0.145300  -0.093700  0.244800  1
  H  H570  1  -0.117300  0.150200  0.352300  1
  H  H571  1  -0.163200  0.139000  0.348900  1
  H  H572  1  -0.127500  0.237200  0.249500  1
  H  H573  1  -0.173400  0.228900  0.250000  1
  H  H574  1  -0.205300  0.214500  -0.075100  1
  H  H575  1  -0.215600  0.171600  -0.167700  1
  H  H576  1  -0.262800  0.125500  -0.124700  1
  H  H577  1  -0.254300  0.172900  -0.035200  1
  H  H578  1  -0.192300  -0.224800  0.083800  1
  H  H579  1  -0.151400  -0.234900  0.047800  1
  H  H580  1  -0.120900  -0.215200  0.179300  1
  H  H581  1  -0.161800  -0.209900  0.216300  1
  H  H582  1  -0.068600  -0.123600  0.035500  1
  H  H583  1  -0.058000  0.143200  0.031700  1
  H  H584  1  0.058000  -0.143200  -0.031700  1
  H  H585  1  0.068600  0.123600  -0.035500  1
  H  H586  1  -0.073400  -0.258000  0.037600  1
  H  H587  1  -0.052500  0.276400  0.031700  1
  H  H588  1  0.052500  -0.276400  -0.031700  1
  H  H589  1  0.073400  0.258000  -0.037600  1
  H  H590  1  -0.079800  -0.381800  0.043300  1
  H  H591  1  -0.040200  -0.424400  0.075400  1
  H  H592  1  -0.057900  -0.422900  -0.028000  1
  H  H593  1  -0.050600  0.400300  0.031500  1
  H  H594  1  -0.008500  0.433900  0.063100  1
  H  H595  1  -0.025900  0.433200  -0.040400  1
  H  H596  1  0.050600  -0.400300  -0.031500  1
  H  H597  1  0.008500  -0.433900  -0.063100  1
  H  H598  1  0.025900  -0.433200  0.040400  1
  H  H599  1  0.191900  -0.086200  -0.179500  1
  H  H600  1  0.190800  -0.005100  0.068700  1
  H  H601  1  0.197100  0.074000  -0.133500  1
  H  H602  1  0.079800  0.381800  -0.043300  1
  H  H603  1  0.040200  0.424400  -0.075400  1
  H  H604  1  0.057900  0.422900  0.028000  1
  H  H605  1  0.150500  -0.029800  -0.291400  1
  H  H606  1  0.112400  -0.059600  -0.253700  1
  H  H607  1  0.173700  -0.187600  -0.109600  1
  H  H608  1  0.128500  -0.166100  -0.127600  1
  H  H609  1  0.164700  -0.097400  0.128000  1
  H  H610  1  0.155100  -0.138900  0.034200  1
  H  H611  1  0.249700  -0.026800  0.042100  1
  H  H612  1  0.235100  -0.075100  -0.044500  1
  H  H613  1  0.196100  0.127500  0.003000  1
  H  H614  1  0.149800  0.120300  -0.003600  1
  H  H615  1  0.114200  0.094100  -0.175900  1
  H  H616  1  0.145300  0.093700  -0.244800  1
  H  H617  1  0.117300  -0.150200  -0.352300  1
  H  H618  1  0.163200  -0.139000  -0.348900  1
  H  H619  1  0.127500  -0.237200  -0.249500  1
  H  H620  1  0.173400  -0.228900  -0.250000  1
  H  H621  1  0.205300  -0.214500  0.075100  1
  H  H622  1  0.215600  -0.171600  0.167700  1
  H  H623  1  0.262800  -0.125500  0.124700  1
  H  H624  1  0.254300  -0.172900  0.035200  1
  H  H625  1  0.192300  0.224800  -0.083800  1
  H  H626  1  0.151400  0.234900  -0.047800  1
  H  H627  1  0.120900  0.215200  -0.179300  1
  H  H628  1  0.161800  0.209900  -0.216300  1
  H  H629  1  0.691900  -0.413800  0.320500  1
  H  H630  1  0.690800  -0.494900  0.568700  1
  H  H631  1  0.697100  -0.574000  0.366500  1
  H  H632  1  0.650500  -0.470200  0.208600  1
  H  H633  1  0.612400  -0.440400  0.246300  1
  H  H634  1  0.673700  -0.312400  0.390400  1
  H  H635  1  0.628500  -0.333900  0.372400  1
  H  H636  1  0.664700  -0.402600  0.628000  1
  H  H637  1  0.655100  -0.361100  0.534200  1
  H  H638  1  0.749700  -0.473200  0.542100  1
  H  H639  1  0.735100  -0.424900  0.455500  1
  H  H640  1  0.696100  -0.627500  0.503000  1
  H  H641  1  0.649800  -0.620300  0.496400  1
  H  H642  1  0.614200  -0.594100  0.324100  1
  H  H643  1  0.645300  -0.593700  0.255200  1
  H  H644  1  0.617300  -0.349800  0.147700  1
  H  H645  1  0.663200  -0.361000  0.151100  1
  H  H646  1  0.627500  -0.262800  0.250500  1
  H  H647  1  0.673400  -0.271100  0.250000  1
  H  H648  1  0.705300  -0.285500  0.575100  1
  H  H649  1  0.715600  -0.328400  0.667700  1
  H  H650  1  0.762800  -0.374500  0.624700  1
  H  H651  1  0.754300  -0.327100  0.535200  1
  H  H652  1  0.692300  -0.724800  0.416200  1
  H  H653  1  0.651400  -0.734900  0.452200  1
  H  H654  1  0.620900  -0.715200  0.320700  1
  H  H655  1  0.661800  -0.709900  0.283700  1
  H  H656  1  0.568600  -0.623600  0.464500  1
  H  H657  1  0.558000  -0.356800  0.468300  1
  H  H658  1  0.442000  -0.643200  0.531700  1
  H  H659  1  0.431400  -0.376400  0.535500  1
  H  H660  1  0.573400  -0.758000  0.462400  1
  H  H661  1  0.552500  -0.223600  0.468300  1
  H  H662  1  0.447500  -0.776400  0.531700  1
  H  H663  1  0.426600  -0.242000  0.537600  1
  H  H664  1  0.579800  -0.881800  0.456700  1
  H  H665  1  0.540200  -0.924400  0.424600  1
  H  H666  1  0.557900  -0.922900  0.528000  1
  H  H667  1  0.550600  -0.099700  0.468500  1
  H  H668  1  0.508500  -0.066100  0.436900  1
  H  H669  1  0.525900  -0.066800  0.540400  1
  H  H670  1  0.449400  -0.900300  0.531500  1
  H  H671  1  0.491500  -0.933900  0.563100  1
  H  H672  1  0.474100  -0.933200  0.459600  1
  H  H673  1  0.308100  -0.586200  0.679500  1
  H  H674  1  0.309200  -0.505100  0.431300  1
  H  H675  1  0.302900  -0.426000  0.633500  1
  H  H676  1  0.420200  -0.118200  0.543300  1
  H  H677  1  0.459800  -0.075600  0.575400  1
  H  H678  1  0.442100  -0.077100  0.472000  1
  H  H679  1  0.349500  -0.529800  0.791400  1
  H  H680  1  0.387600  -0.559600  0.753700  1
  H  H681  1  0.326300  -0.687600  0.609600  1
  H  H682  1  0.371500  -0.666100  0.627600  1
  H  H683  1  0.335300  -0.597400  0.372000  1
  H  H684  1  0.344900  -0.638900  0.465800  1
  H  H685  1  0.250300  -0.526800  0.457900  1
  H  H686  1  0.264900  -0.575100  0.544500  1
  H  H687  1  0.303900  -0.372500  0.497000  1
  H  H688  1  0.350200  -0.379700  0.503600  1
  H  H689  1  0.385800  -0.405900  0.675900  1
  H  H690  1  0.354700  -0.406300  0.744800  1
  H  H691  1  0.382700  -0.650200  0.852300  1
  H  H692  1  0.336800  -0.639000  0.848900  1
  H  H693  1  0.372500  -0.737200  0.749500  1
  H  H694  1  0.326600  -0.728900  0.750000  1
  H  H695  1  0.294700  -0.714500  0.424900  1
  H  H696  1  0.284400  -0.671600  0.332300  1
  H  H697  1  0.237200  -0.625500  0.375300  1
  H  H698  1  0.245700  -0.672900  0.464800  1
  H  H699  1  0.307700  -0.275200  0.583800  1
  H  H700  1  0.348600  -0.265100  0.547800  1
  H  H701  1  0.379100  -0.284800  0.679300  1
  H  H702  1  0.338200  -0.290100  0.716300  1
  H  H703  1  0.308100  -0.413800  1.179500  1
  H  H704  1  0.309200  -0.494900  0.931300  1
  H  H705  1  0.302900  -0.574000  1.133500  1
  H  H706  1  0.349500  -0.470200  1.291400  1
  H  H707  1  0.387600  -0.440400  1.253700  1
  H  H708  1  0.326300  -0.312400  1.109600  1
  H  H709  1  0.371500  -0.333900  1.127600  1
  H  H710  1  0.335300  -0.402600  0.872000  1
  H  H711  1  0.344900  -0.361100  0.965800  1
  H  H712  1  0.250300  -0.473200  0.957900  1
  H  H713  1  0.264900  -0.424900  1.044500  1
  H  H714  1  0.303900  -0.627500  0.997000  1
  H  H715  1  0.350200  -0.620300  1.003600  1
  H  H716  1  0.385800  -0.594100  1.175900  1
  H  H717  1  0.354700  -0.593700  1.244800  1
  H  H718  1  0.382700  -0.349800  1.352300  1
  H  H719  1  0.336800  -0.361000  1.348900  1
  H  H720  1  0.372500  -0.262800  1.249500  1
  H  H721  1  0.326600  -0.271100  1.250000  1
  H  H722  1  0.294700  -0.285500  0.924900  1
  H  H723  1  0.284400  -0.328400  0.832300  1
  H  H724  1  0.237200  -0.374500  0.875300  1
  H  H725  1  0.245700  -0.327100  0.964800  1
  H  H726  1  0.307700  -0.724800  1.083800  1
  H  H727  1  0.348600  -0.734900  1.047800  1
  H  H728  1  0.379100  -0.715200  1.179300  1
  H  H729  1  0.338200  -0.709900  1.216300  1
  H  H730  1  0.431400  -0.623600  1.035500  1
  H  H731  1  0.442000  -0.356800  1.031700  1
  H  H732  1  0.558000  -0.643200  0.968300  1
  H  H733  1  0.568600  -0.376400  0.964500  1
  H  H734  1  0.426600  -0.758000  1.037600  1
  H  H735  1  0.447500  -0.223600  1.031700  1
  H  H736  1  0.552500  -0.776400  0.968300  1
  H  H737  1  0.573400  -0.242000  0.962400  1
  H  H738  1  0.420200  -0.881800  1.043300  1
  H  H739  1  0.459800  -0.924400  1.075400  1
  H  H740  1  0.442100  -0.922900  0.972000  1
  H  H741  1  0.449400  -0.099700  1.031500  1
  H  H742  1  0.491500  -0.066100  1.063100  1
  H  H743  1  0.474100  -0.066800  0.959600  1
  H  H744  1  0.550600  -0.900300  0.968500  1
  H  H745  1  0.508500  -0.933900  0.936900  1
  H  H746  1  0.525900  -0.933200  1.040400  1
  H  H747  1  0.691900  -0.586200  0.820500  1
  H  H748  1  0.690800  -0.505100  1.068700  1
  H  H749  1  0.697100  -0.426000  0.866500  1
  H  H750  1  0.579800  -0.118200  0.956700  1
  H  H751  1  0.540200  -0.075600  0.924600  1
  H  H752  1  0.557900  -0.077100  1.028000  1
  H  H753  1  0.650500  -0.529800  0.708600  1
  H  H754  1  0.612400  -0.559600  0.746300  1
  H  H755  1  0.673700  -0.687600  0.890400  1
  H  H756  1  0.628500  -0.666100  0.872400  1
  H  H757  1  0.664700  -0.597400  1.128000  1
  H  H758  1  0.655100  -0.638900  1.034200  1
  H  H759  1  0.749700  -0.526800  1.042100  1
  H  H760  1  0.735100  -0.575100  0.955500  1
  H  H761  1  0.696100  -0.372500  1.003000  1
  H  H762  1  0.649800  -0.379700  0.996400  1
  H  H763  1  0.614200  -0.405900  0.824100  1
  H  H764  1  0.645300  -0.406300  0.755200  1
  H  H765  1  0.617300  -0.650200  0.647700  1
  H  H766  1  0.663200  -0.639000  0.651100  1
  H  H767  1  0.627500  -0.737200  0.750500  1
  H  H768  1  0.673400  -0.728900  0.750000  1
  H  H769  1  0.705300  -0.714500  1.075100  1
  H  H770  1  0.715600  -0.671600  1.167700  1
  H  H771  1  0.762800  -0.625500  1.124700  1
  H  H772  1  0.754300  -0.672900  1.035200  1
  H  H773  1  0.692300  -0.275200  0.916200  1
  H  H774  1  0.651400  -0.265100  0.952200  1
  H  H775  1  0.620900  -0.284800  0.820700  1
  H  H776  1  0.661800  -0.290100  0.783700  1
  H  H777  1  0.173600  0.327900  0.726400  1
  H  H778  1  0.185500  0.419300  0.533900  1
  H  H779  1  0.184700  0.543300  0.755000  1
  H  H780  1  0.184000  0.441700  0.852900  1
  H  H781  1  0.167100  0.361300  0.864200  1
  H  H782  1  0.232100  0.334900  0.676200  1
  H  H783  1  0.242500  0.412600  0.723300  1
  H  H784  1  0.159500  0.304400  0.542600  1
  H  H785  1  0.116600  0.336000  0.547100  1
  H  H786  1  0.109500  0.482500  0.503400  1
  H  H787  1  0.148400  0.514000  0.471800  1
  H  H788  1  0.238900  0.541800  0.688900  1
  H  H789  1  0.215200  0.534200  0.589900  1
  H  H790  1  0.126600  0.580000  0.617300  1
  H  H791  1  0.140500  0.624900  0.707300  1
  H  H792  1  0.243200  0.406600  0.908900  1
  H  H793  1  0.224900  0.330400  0.934400  1
  H  H794  1  0.239300  0.274600  0.811100  1
  H  H795  1  0.274500  0.332200  0.825500  1
  H  H796  1  0.155900  0.327700  0.394500  1
  H  H797  1  0.110400  0.315700  0.397700  1
  H  H798  1  0.098200  0.432100  0.367600  1
  H  H799  1  0.142600  0.441400  0.351900  1
  H  H800  1  0.231300  0.657100  0.598600  1
  H  H801  1  0.221200  0.663400  0.698900  1
  H  H802  1  0.166500  0.642600  0.539100  1
  H  H803  1  0.164200  0.704000  0.614100  1
  H  H804  1  0.063100  0.573200  0.714500  1
  H  H805  1  0.062200  0.305600  0.708600  1
  H  H806  1  -0.063100  0.573200  0.785500  1
  H  H807  1  -0.062200  0.305600  0.791400  1
  H  H808  1  0.063200  0.707200  0.715900  1
  H  H809  1  0.061100  0.172100  0.703500  1
  H  H810  1  -0.063200  0.707200  0.784100  1
  H  H811  1  -0.061100  0.172100  0.796500  1
  H  H812  1  0.065600  0.831800  0.715300  1
  H  H813  1  0.041400  0.868500  0.785700  1
  H  H814  1  0.024700  0.869400  0.681800  1
  H  H815  1  0.061600  0.046900  0.693500  1
  H  H816  1  0.020200  0.007400  0.679700  1
  H  H817  1  0.044800  0.012400  0.777100  1
  H  H818  1  -0.173600  0.327900  0.773600  1
  H  H819  1  -0.185500  0.419300  0.966100  1
  H  H820  1  -0.184700  0.543300  0.745000  1
  H  H821  1  -0.065600  0.831800  0.784700  1
  H  H822  1  -0.041400  0.868500  0.714300  1
  H  H823  1  -0.024700  0.869400  0.818200  1
  H  H824  1  -0.061600  0.046900  0.806500  1
  H  H825  1  -0.020200  0.007400  0.820300  1
  H  H826  1  -0.044800  0.012400  0.722900  1
  H  H827  1  -0.184000  0.441700  0.647100  1
  H  H828  1  -0.167100  0.361300  0.635800  1
  H  H829  1  -0.232100  0.334900  0.823800  1
  H  H830  1  -0.242500  0.412600  0.776700  1
  H  H831  1  -0.159500  0.304400  0.957400  1
  H  H832  1  -0.116600  0.336000  0.952900  1
  H  H833  1  -0.109500  0.482500  0.996600  1
  H  H834  1  -0.148400  0.514000  1.028200  1
  H  H835  1  -0.238900  0.541800  0.811100  1
  H  H836  1  -0.215200  0.534200  0.910100  1
  H  H837  1  -0.126600  0.580000  0.882700  1
  H  H838  1  -0.140500  0.624900  0.792700  1
  H  H839  1  -0.243200  0.406600  0.591100  1
  H  H840  1  -0.224900  0.330400  0.565600  1
  H  H841  1  -0.239300  0.274600  0.688900  1
  H  H842  1  -0.274500  0.332200  0.674500  1
  H  H843  1  -0.155900  0.327700  1.105500  1
  H  H844  1  -0.110400  0.315700  1.102300  1
  H  H845  1  -0.098200  0.432100  1.132400  1
  H  H846  1  -0.142600  0.441400  1.148100  1
  H  H847  1  -0.231300  0.657100  0.901400  1
  H  H848  1  -0.221200  0.663400  0.801100  1
  H  H849  1  -0.166500  0.642600  0.960900  1
  H  H850  1  -0.164200  0.704000  0.885900  1
  H  H851  1  0.673600  -0.172100  0.726400  1
  H  H852  1  0.685500  -0.080700  0.533900  1
  H  H853  1  0.684700  0.043300  0.755000  1
  H  H854  1  0.684000  -0.058300  0.852900  1
  H  H855  1  0.667100  -0.138700  0.864200  1
  H  H856  1  0.732100  -0.165100  0.676200  1
  H  H857  1  0.742500  -0.087400  0.723300  1
  H  H858  1  0.659500  -0.195600  0.542600  1
  H  H859  1  0.616600  -0.164000  0.547100  1
  H  H860  1  0.609500  -0.017500  0.503400  1
  H  H861  1  0.648400  0.014000  0.471800  1
  H  H862  1  0.738900  0.041800  0.688900  1
  H  H863  1  0.715200  0.034200  0.589900  1
  H  H864  1  0.626600  0.080000  0.617300  1
  H  H865  1  0.640500  0.124900  0.707300  1
  H  H866  1  0.743200  -0.093400  0.908900  1
  H  H867  1  0.724900  -0.169600  0.934400  1
  H  H868  1  0.739300  -0.225400  0.811100  1
  H  H869  1  0.774500  -0.167800  0.825500  1
  H  H870  1  0.655900  -0.172300  0.394500  1
  H  H871  1  0.610400  -0.184300  0.397700  1
  H  H872  1  0.598200  -0.067900  0.367600  1
  H  H873  1  0.642600  -0.058600  0.351900  1
  H  H874  1  0.731300  0.157100  0.598600  1
  H  H875  1  0.721200  0.163400  0.698900  1
  H  H876  1  0.666500  0.142600  0.539100  1
  H  H877  1  0.664200  0.204000  0.614100  1
  H  H878  1  0.563100  0.073200  0.714500  1
  H  H879  1  0.562200  -0.194400  0.708600  1
  H  H880  1  0.436900  0.073200  0.785500  1
  H  H881  1  0.437800  -0.194400  0.791400  1
  H  H882  1  0.563200  0.207200  0.715900  1
  H  H883  1  0.561100  -0.327900  0.703500  1
  H  H884  1  0.436800  0.207200  0.784100  1
  H  H885  1  0.438900  -0.327900  0.796500  1
  H  H886  1  0.565600  0.331800  0.715300  1
  H  H887  1  0.541400  0.368500  0.785700  1
  H  H888  1  0.524700  0.369400  0.681800  1
  H  H889  1  0.561600  -0.453100  0.693500  1
  H  H890  1  0.520200  -0.492600  0.679700  1
  H  H891  1  0.544800  -0.487600  0.777100  1
  H  H892  1  0.326400  -0.172100  0.773600  1
  H  H893  1  0.314500  -0.080700  0.966100  1
  H  H894  1  0.315300  0.043300  0.745000  1
  H  H895  1  0.434400  0.331800  0.784700  1
  H  H896  1  0.458600  0.368500  0.714300  1
  H  H897  1  0.475300  0.369400  0.818200  1
  H  H898  1  0.438400  -0.453100  0.806500  1
  H  H899  1  0.479800  -0.492600  0.820300  1
  H  H900  1  0.455200  -0.487600  0.722900  1
  H  H901  1  0.316000  -0.058300  0.647100  1
  H  H902  1  0.332900  -0.138700  0.635800  1
  H  H903  1  0.267900  -0.165100  0.823800  1
  H  H904  1  0.257500  -0.087400  0.776700  1
  H  H905  1  0.340500  -0.195600  0.957400  1
  H  H906  1  0.383400  -0.164000  0.952900  1
  H  H907  1  0.390500  -0.017500  0.996600  1
  H  H908  1  0.351600  0.014000  1.028200  1
  H  H909  1  0.261100  0.041800  0.811100  1
  H  H910  1  0.284800  0.034200  0.910100  1
  H  H911  1  0.373400  0.080000  0.882700  1
  H  H912  1  0.359500  0.124900  0.792700  1
  H  H913  1  0.256800  -0.093400  0.591100  1
  H  H914  1  0.275100  -0.169600  0.565600  1
  H  H915  1  0.260700  -0.225400  0.688900  1
  H  H916  1  0.225500  -0.167800  0.674500  1
  H  H917  1  0.344100  -0.172300  1.105500  1
  H  H918  1  0.389600  -0.184300  1.102300  1
  H  H919  1  0.401800  -0.067900  1.132400  1
  H  H920  1  0.357400  -0.058600  1.148100  1
  H  H921  1  0.268700  0.157100  0.901400  1
  H  H922  1  0.278800  0.163400  0.801100  1
  H  H923  1  0.333500  0.142600  0.960900  1
  H  H924  1  0.335800  0.204000  0.885900  1
  H  H925  1  -0.173600  -0.327900  0.273600  1
  H  H926  1  -0.185500  -0.419300  0.466100  1
  H  H927  1  -0.184700  -0.543300  0.245000  1
  H  H928  1  -0.184000  -0.441700  0.147100  1
  H  H929  1  -0.167100  -0.361300  0.135800  1
  H  H930  1  -0.232100  -0.334900  0.323800  1
  H  H931  1  -0.242500  -0.412600  0.276700  1
  H  H932  1  -0.159500  -0.304400  0.457400  1
  H  H933  1  -0.116600  -0.336000  0.452900  1
  H  H934  1  -0.109500  -0.482500  0.496600  1
  H  H935  1  -0.148400  -0.514000  0.528200  1
  H  H936  1  -0.238900  -0.541800  0.311100  1
  H  H937  1  -0.215200  -0.534200  0.410100  1
  H  H938  1  -0.126600  -0.580000  0.382700  1
  H  H939  1  -0.140500  -0.624900  0.292700  1
  H  H940  1  -0.243200  -0.406600  0.091100  1
  H  H941  1  -0.224900  -0.330400  0.065600  1
  H  H942  1  -0.239300  -0.274600  0.188900  1
  H  H943  1  -0.274500  -0.332200  0.174500  1
  H  H944  1  -0.155900  -0.327700  0.605500  1
  H  H945  1  -0.110400  -0.315700  0.602300  1
  H  H946  1  -0.098200  -0.432100  0.632400  1
  H  H947  1  -0.142600  -0.441400  0.648100  1
  H  H948  1  -0.231300  -0.657100  0.401400  1
  H  H949  1  -0.221200  -0.663400  0.301100  1
  H  H950  1  -0.166500  -0.642600  0.460900  1
  H  H951  1  -0.164200  -0.704000  0.385900  1
  H  H952  1  -0.063100  -0.573200  0.285500  1
  H  H953  1  -0.062200  -0.305600  0.291400  1
  H  H954  1  0.063100  -0.573200  0.214500  1
  H  H955  1  0.062200  -0.305600  0.208600  1
  H  H956  1  -0.063200  -0.707200  0.284100  1
  H  H957  1  -0.061100  -0.172100  0.296500  1
  H  H958  1  0.063200  -0.707200  0.215900  1
  H  H959  1  0.061100  -0.172100  0.203500  1
  H  H960  1  -0.065600  -0.831800  0.284700  1
  H  H961  1  -0.041400  -0.868500  0.214300  1
  H  H962  1  -0.024700  -0.869400  0.318200  1
  H  H963  1  -0.061600  -0.046900  0.306500  1
  H  H964  1  -0.020200  -0.007400  0.320300  1
  H  H965  1  -0.044800  -0.012400  0.222900  1
  H  H966  1  0.173600  -0.327900  0.226400  1
  H  H967  1  0.185500  -0.419300  0.033900  1
  H  H968  1  0.184700  -0.543300  0.255000  1
  H  H969  1  0.065600  -0.831800  0.215300  1
  H  H970  1  0.041400  -0.868500  0.285700  1
  H  H971  1  0.024700  -0.869400  0.181800  1
  H  H972  1  0.061600  -0.046900  0.193500  1
  H  H973  1  0.020200  -0.007400  0.179700  1
  H  H974  1  0.044800  -0.012400  0.277100  1
  H  H975  1  0.184000  -0.441700  0.352900  1
  H  H976  1  0.167100  -0.361300  0.364200  1
  H  H977  1  0.232100  -0.334900  0.176200  1
  H  H978  1  0.242500  -0.412600  0.223300  1
  H  H979  1  0.159500  -0.304400  0.042600  1
  H  H980  1  0.116600  -0.336000  0.047100  1
  H  H981  1  0.109500  -0.482500  0.003400  1
  H  H982  1  0.148400  -0.514000  -0.028200  1
  H  H983  1  0.238900  -0.541800  0.188900  1
  H  H984  1  0.215200  -0.534200  0.089900  1
  H  H985  1  0.126600  -0.580000  0.117300  1
  H  H986  1  0.140500  -0.624900  0.207300  1
  H  H987  1  0.243200  -0.406600  0.408900  1
  H  H988  1  0.224900  -0.330400  0.434400  1
  H  H989  1  0.239300  -0.274600  0.311100  1
  H  H990  1  0.274500  -0.332200  0.325500  1
  H  H991  1  0.155900  -0.327700  -0.105500  1
  H  H992  1  0.110400  -0.315700  -0.102300  1
  H  H993  1  0.098200  -0.432100  -0.132400  1
  H  H994  1  0.142600  -0.441400  -0.148100  1
  H  H995  1  0.231300  -0.657100  0.098600  1
  H  H996  1  0.221200  -0.663400  0.198900  1
  H  H997  1  0.166500  -0.642600  0.039100  1
  H  H998  1  0.164200  -0.704000  0.114100  1
  H  H999  1  -0.673600  0.172100  0.273600  1
  H  H1000  1  -0.685500  0.080700  0.466100  1
  H  H1001  1  -0.684700  -0.043300  0.245000  1
  H  H1002  1  -0.684000  0.058300  0.147100  1
  H  H1003  1  -0.667100  0.138700  0.135800  1
  H  H1004  1  -0.732100  0.165100  0.323800  1
  H  H1005  1  -0.742500  0.087400  0.276700  1
  H  H1006  1  -0.659500  0.195600  0.457400  1
  H  H1007  1  -0.616600  0.164000  0.452900  1
  H  H1008  1  -0.609500  0.017500  0.496600  1
  H  H1009  1  -0.648400  -0.014000  0.528200  1
  H  H1010  1  -0.738900  -0.041800  0.311100  1
  H  H1011  1  -0.715200  -0.034200  0.410100  1
  H  H1012  1  -0.626600  -0.080000  0.382700  1
  H  H1013  1  -0.640500  -0.124900  0.292700  1
  H  H1014  1  -0.743200  0.093400  0.091100  1
  H  H1015  1  -0.724900  0.169600  0.065600  1
  H  H1016  1  -0.739300  0.225400  0.188900  1
  H  H1017  1  -0.774500  0.167800  0.174500  1
  H  H1018  1  -0.655900  0.172300  0.605500  1
  H  H1019  1  -0.610400  0.184300  0.602300  1
  H  H1020  1  -0.598200  0.067900  0.632400  1
  H  H1021  1  -0.642600  0.058600  0.648100  1
  H  H1022  1  -0.731300  -0.157100  0.401400  1
  H  H1023  1  -0.721200  -0.163400  0.301100  1
  H  H1024  1  -0.666500  -0.142600  0.460900  1
  H  H1025  1  -0.664200  -0.204000  0.385900  1
  H  H1026  1  -0.563100  -0.073200  0.285500  1
  H  H1027  1  -0.562200  0.194400  0.291400  1
  H  H1028  1  -0.436900  -0.073200  0.214500  1
  H  H1029  1  -0.437800  0.194400  0.208600  1
  H  H1030  1  -0.563200  -0.207200  0.284100  1
  H  H1031  1  -0.561100  0.327900  0.296500  1
  H  H1032  1  -0.436800  -0.207200  0.215900  1
  H  H1033  1  -0.438900  0.327900  0.203500  1
  H  H1034  1  -0.565600  -0.331800  0.284700  1
  H  H1035  1  -0.541400  -0.368500  0.214300  1
  H  H1036  1  -0.524700  -0.369400  0.318200  1
  H  H1037  1  -0.561600  0.453100  0.306500  1
  H  H1038  1  -0.520200  0.492600  0.320300  1
  H  H1039  1  -0.544800  0.487600  0.222900  1
  H  H1040  1  -0.326400  0.172100  0.226400  1
  H  H1041  1  -0.314500  0.080700  0.033900  1
  H  H1042  1  -0.315300  -0.043300  0.255000  1
  H  H1043  1  -0.434400  -0.331800  0.215300  1
  H  H1044  1  -0.458600  -0.368500  0.285700  1
  H  H1045  1  -0.475300  -0.369400  0.181800  1
  H  H1046  1  -0.438400  0.453100  0.193500  1
  H  H1047  1  -0.479800  0.492600  0.179700  1
  H  H1048  1  -0.455200  0.487600  0.277100  1
  H  H1049  1  -0.316000  0.058300  0.352900  1
  H  H1050  1  -0.332900  0.138700  0.364200  1
  H  H1051  1  -0.267900  0.165100  0.176200  1
  H  H1052  1  -0.257500  0.087400  0.223300  1
  H  H1053  1  -0.340500  0.195600  0.042600  1
  H  H1054  1  -0.383400  0.164000  0.047100  1
  H  H1055  1  -0.390500  0.017500  0.003400  1
  H  H1056  1  -0.351600  -0.014000  -0.028200  1
  H  H1057  1  -0.261100  -0.041800  0.188900  1
  H  H1058  1  -0.284800  -0.034200  0.089900  1
  H  H1059  1  -0.373400  -0.080000  0.117300  1
  H  H1060  1  -0.359500  -0.124900  0.207300  1
  H  H1061  1  -0.256800  0.093400  0.408900  1
  H  H1062  1  -0.275100  0.169600  0.434400  1
  H  H1063  1  -0.260700  0.225400  0.311100  1
  H  H1064  1  -0.225500  0.167800  0.325500  1
  H  H1065  1  -0.344100  0.172300  -0.105500  1
  H  H1066  1  -0.389600  0.184300  -0.102300  1
  H  H1067  1  -0.401800  0.067900  -0.132400  1
  H  H1068  1  -0.357400  0.058600  -0.148100  1
  H  H1069  1  -0.268700  -0.157100  0.098600  1
  H  H1070  1  -0.278800  -0.163400  0.198900  1
  H  H1071  1  -0.333500  -0.142600  0.039100  1
  H  H1072  1  -0.335800  -0.204000  0.114100  1
  Si  Si1073  1  0.159450  0.019920  0.420690  1.0
  Si  Si1074  1  -0.159450  -0.019920  0.579310  1
  Si  Si1075  1  -0.159450  0.019920  0.079310  1.0
  Si  Si1076  1  0.159450  -0.019920  -0.079310  1
  Si  Si1077  1  0.659450  -0.480080  0.420690  1.0
  Si  Si1078  1  0.340550  -0.519920  0.579310  1
  Si  Si1079  1  0.340550  -0.480080  1.079310  1.0
  Si  Si1080  1  0.659450  -0.519920  0.920690  1
  Si  Si1081  1  0.159380  0.444450  0.666750  1.0
  Si  Si1082  1  -0.159380  0.444450  0.833250  1
  Si  Si1083  1  0.659380  -0.055550  0.666750  1.0
  Si  Si1084  1  0.340620  -0.055550  0.833250  1
  Si  Si1085  1  -0.159380  -0.444450  0.333250  1.0
  Si  Si1086  1  0.159380  -0.444450  0.166750  1
  Si  Si1087  1  -0.659380  0.055550  0.333250  1.0
  Si  Si1088  1  -0.340620  0.055550  0.166750  1
