data_x17059_config-1
loop_
 _symmetry_equiv_pos_as_xyz
'x, y, z'
'-x, -y, -z'

_cell_length_a	7.7283(6)
_cell_length_b	7.7628(6)
_cell_length_c	16.8805(13)
_cell_angle_alpha	78.077(4)
_cell_angle_beta	89.228(4)
_cell_angle_gamma	81.788(4)
loop_
 _atom_site_label
 _atom_site_type_symbol
 _atom_site_fract_x
 _atom_site_fract_y
 _atom_site_fract_z
 _atom_site_occupancy
 _atom_site_disorder_group
Ge1	Ge	0.20816(4)	0.24935(4)	0.82517(2)	1.0	.
C1	C	0.4378(3)	0.4465(4)	0.57991(15)	1.0	.
C2	C	0.5457(3)	0.3218(4)	0.54311(16)	1.0	.
C3	C	0.5907(3)	0.1427(4)	0.58395(17)	1.0	.
H3A	H	0.550294	0.106600	0.636710	1.0	.
C4	C	0.6927(3)	0.0194(4)	0.54816(17)	1.0	.
C5	C	0.7370(4)	-0.1624(4)	0.5894(2)	1.0	.
H5A	H	0.697807	-0.199216	0.642338	1.0	.
C6	C	0.8355(4)	-0.2821(5)	0.5525(2)	1.0	.
H6A	H	0.864498	-0.400666	0.580291	1.0	.
C7	C	0.8938(4)	-0.2300(5)	0.4736(2)	1.0	.
H7A	H	0.960874	-0.314793	0.449039	1.0	.
C8	C	0.8558(4)	-0.0603(4)	0.43192(19)	1.0	.
H8A	H	0.897709	-0.028471	0.379140	1.0	.
C9	C	0.7517(3)	0.0722(4)	0.46769(17)	1.0	.
C10	C	0.7098(3)	0.2471(4)	0.42684(17)	1.0	.
H10A	H	0.750806	0.281650	0.374082	1.0	.
C11	C	0.6073(3)	0.3741(4)	0.46258(16)	1.0	.
C12	C	0.3707(4)	0.3896(4)	0.65838(17)	1.0	.
C13	C	0.3119(4)	0.3385(4)	0.72389(18)	1.0	.
C14	C	-0.0445(4)	0.3252(6)	0.8126(2)	1.0	.
H14A	H	-0.099678	0.278895	0.864435	1.0	.
C15	C	-0.1223(6)	0.2512(9)	0.7469(3)	1.0	.
H15A	H	-0.245250	0.299354	0.739260	1.0	.
H15B	H	-0.109994	0.122606	0.762748	1.0	.
H15C	H	-0.061420	0.284477	0.696647	1.0	.
C16	C	-0.0824(6)	0.5279(7)	0.7957(3)	1.0	.
H16A	H	-0.206889	0.565456	0.786120	1.0	.
H16B	H	-0.019202	0.576569	0.748199	1.0	.
H16C	H	-0.045287	0.570411	0.841926	1.0	.
C17	C	0.3072(5)	0.3601(5)	0.9070(2)	1.0	.
H17A	H	0.275652	0.490259	0.888294	1.0	.
C18	C	0.2239(6)	0.3127(7)	0.9883(2)	1.0	.
H18A	H	0.267758	0.377282	1.025337	1.0	.
H18B	H	0.252313	0.185821	1.009571	1.0	.
H18C	H	0.098035	0.344368	0.982397	1.0	.
C19	C	0.5012(6)	0.3246(9)	0.9106(3)	1.0	.
H19A	H	0.544348	0.384947	0.949493	1.0	.
H19B	H	0.547058	0.367996	0.857554	1.0	.
H19C	H	0.538836	0.197557	0.926971	1.0	.
C20	C	0.2906(17)	-0.0126(10)	0.8613(6)	1.0	1
H20'	H	0.399670	-0.026151	0.893462	1.0	1
C21	C	0.160(2)	-0.103(3)	0.9153(10)	1.0	1
H21A	H	0.202323	-0.229448	0.930727	1.0	1
H21B	H	0.049117	-0.085470	0.886522	1.0	1
H21C	H	0.144792	-0.053050	0.963420	1.0	1
C22	C	0.333(3)	-0.1048(16)	0.7906(7)	1.0	1
H22A	H	0.372788	-0.230195	0.811104	1.0	1
H22B	H	0.423944	-0.051434	0.758477	1.0	1
H22C	H	0.228786	-0.091392	0.757118	1.0	1
