data_config1
loop_
 _symmetry_equiv_pos_as_xyz
'x, y, z'
'-x, y+1/2, -z+1/2'
'-x, -y, -z'
'x, -y-1/2, z-1/2'

_cell_length_a	7.2312(2)
_cell_length_b	32.8894(8)
_cell_length_c	7.1873(2)
_cell_angle_alpha	90.00
_cell_angle_beta	107.398(1)
_cell_angle_gamma	90.00
loop_
 _atom_site_label
 _atom_site_type_symbol
 _atom_site_fract_x
 _atom_site_fract_y
 _atom_site_fract_z
 _atom_site_occupancy
 _atom_site_disorder_group
Si1	Si	0.47055(14)	0.33916(2)	0.84501(13)	1.0	.
C1	C	0.4833(4)	0.46183(8)	0.5828(4)	1.0	.
C2	C	0.3885(4)	0.46828(8)	0.3824(4)	1.0	.
C3	C	0.2752(4)	0.43753(8)	0.2633(4)	1.0	.
H3	H	0.2590	0.4120	0.3183	1.0	1
C4	C	0.1895(4)	0.44462(8)	0.0698(4)	1.0	1
S5	S	0.0428(3)	0.41075(5)	-0.0995(2)	1.0	1
C6	C	0.0238(10)	0.44733(15)	-0.2816(7)	1.0	1
F1	F	-0.0810(5)	0.43647(10)	-0.4614(4)	1.0	1
C7	C	0.113(2)	0.4831(5)	-0.2215(15)	1.0	1
H7	H	0.1106	0.5057	-0.3045	1.0	1
C8	C	0.2136(4)	0.48266(8)	-0.0166(4)	1.0	1
C9	C	0.3198(4)	0.51301(8)	0.0949(4)	1.0	.
H9	H	0.3343	0.5383	0.0365	1.0	1
C10	C	0.4087(4)	0.50712(8)	0.2976(4)	1.0	.
C11	C	0.4703(4)	0.42277(8)	0.6662(4)	1.0	.
C12	C	0.4629(4)	0.38974(9)	0.7360(4)	1.0	.
C13	C	0.6840(6)	0.31226(10)	0.8076(6)	1.0	.
H13A	H	0.6601	0.3076	0.6663	1.0	.
H13B	H	0.7993	0.3300	0.8533	1.0	.
C14	C	0.7281(9)	0.27138(14)	0.9143(8)	1.0	.
H14A	H	0.7563	0.2758	1.0549	1.0	.
H14B	H	0.8405	0.2588	0.8879	1.0	.
H14C	H	0.6156	0.2534	0.8683	1.0	.
C15	C	0.4992(6)	0.34461(10)	1.1088(5)	1.0	1
H15A	H	0.3778	0.3562	1.1231	1.0	1
H15B	H	0.5148	0.3171	1.1676	1.0	1
C16	C	0.6646(7)	0.37042(14)	1.2234(6)	1.0	1
H16A	H	0.6661	0.3711	1.3602	1.0	1
H16B	H	0.6491	0.3981	1.1704	1.0	1
H16C	H	0.7867	0.3589	1.2147	1.0	1
C17	C	0.239(3)	0.3141(5)	0.735(2)	1.0	1
C18	C	0.208(2)	0.2765(4)	0.822(2)	1.0	1
H18A	H	0.3100	0.2726	0.9454	1.0	1
H18B	H	0.2111	0.2540	0.7330	1.0	1
H18C	H	0.0814	0.2771	0.8453	1.0	1
C18"	C	0.1140(12)	0.3244(3)	0.5740(14)	1.0	1
H18D	H	0.0060	0.3073	0.5167	1.0	1
H18E	H	0.1295	0.3492	0.5121	1.0	1
