data_k15158 
 
_audit_creation_method            'SHELXL-2014/7 and CIFFIX' 
# CIF edited on-the-fly by script CIFFIX (S. Parkin, 2000-2014). 
# CIFFIX: http://xray.uky.edu/people/parkin/programs/ciffix 
_audit_update_record              ? 
 
_shelx_SHELXL_version_number      '2014/7' 
 
_publ_section_exptl_refinement 
; 
H atoms were found in difference Fourier maps, but subsequently included 
in the refinement using riding models, with constrained distances set to 
0.95 %A (C~sp2~H), 0.98 %A (RCH~3~) and 1.00 %A (R~3~CH).  U~iso~(H) 
parameters were set to values of either 1.2U~eq~ or 1.5U~eq~ (RCH~3~ only) 
of the attached atom. 
 
To ensure satisfactory refinement for disordered groups in the structure, 
a combination of constraints and restraints were employed. The constraints 
(SHELXL command EADP) were used to fix overlapping fragments.  Restraints 
were used to ensure the integrity of ill-defined or disordered groups 
(SHELXL commands SAME, SADI, and RIGU). 
; 
 
_publ_section_references 
; 
Hope, H. (1994). 
  <i>Prog. Inorg. Chem.</i> <b>41</b>, 1--19. 
 
Krause, L., Herbst-Irmer, R., Sheldrick, G.M. & Stalke, D. (2015). 
  <i>J. Appl. Cryst.</i> <b>48</b>, 3--10. 
 
Nonius (1998). 
  <i>Collect</i> Nonius BV, Delft, The Netherlands. 
 
Otwinowski, Z. & Minor, W. (2006). 
  <i>International Tables for Crystallography</i>, Vol. F, ch. 11.4, 226--235. 
 
Parkin, S. & Hope, H. (1998). 
  <i>J. Appl. Cryst.</i> <b>31</b>, 945--953. 
 
Parkin, S. (2000). 
  <i>Acta Cryst.</i> A<b>56</b>, 157--162. 
 
Parkin, S. (2013). 
  <i>CIFFIX</i>, http://xray.uky.edu/people/parkin/programs/ciffix 
 
Sheldrick, G.M. (2008). 
  <i>Acta Cryst.</i> A<b>64</b>, 112--122. 
 
Sheldrick, G.M. (2015a). 
  <i>Acta Cryst.</i> A<b>71</b>, 3--8. 
 
Sheldrick, G.M. (2015b). 
  <i>Acta Cryst.</i> C<b>71</b>, 3--8. 
 
Spek, A.L. (2009). 
  <i>Acta Cryst.</i> D<b>65</b>, 148--155. 
; 
 
_publ_section_acknowledgements 
; 
The kappaCCD diffractometer was funded by the University of Kentucky. 
; 
 
_chemical_name_systematic         ? 
_chemical_name_common             ? 
_chemical_melting_point           ? 
_chemical_formula_moiety          'C36 H48 I2 Si2' 
_chemical_formula_sum             'C36 H48 I2 Si2' 
_chemical_formula_weight          790.72 
 
loop_ 
 _atom_type_symbol 
 _atom_type_description 
 _atom_type_scat_dispersion_real 
 _atom_type_scat_dispersion_imag 
 _atom_type_scat_source 
 'C'  'C'   0.0033   0.0016 
 'International Tables Vol C Tables 4.2.6.8 and 6.1.1.4' 
 'H'  'H'   0.0000   0.0000 
 'International Tables Vol C Tables 4.2.6.8 and 6.1.1.4' 
 'Si'  'Si'   0.0817   0.0704 
 'International Tables Vol C Tables 4.2.6.8 and 6.1.1.4' 
 'I'  'I'  -0.4742   1.8119 
 'International Tables Vol C Tables 4.2.6.8 and 6.1.1.4' 
 
_space_group_crystal_system       triclinic 
_space_group_IT_number            2 
_space_group_name_H-M_alt         'P -1' 
_space_group_name_Hall            '-P 1' 
 
_shelx_space_group_comment 
; 
The symmetry employed for this shelxl refinement is uniquely defined 
by the following loop, which should always be used as a source of 
symmetry information in preference to the above space-group names. 
They are only intended as comments. 
; 
 
loop_ 
 _space_group_symop_operation_xyz 
 'x, y, z' 
 '-x, -y, -z' 
 
_cell_length_a                    9.3678(3) 
_cell_length_b                    10.3910(3) 
_cell_length_c                    10.4510(4) 
_cell_angle_alpha                 64.4912(18) 
_cell_angle_beta                  89.139(2) 
_cell_angle_gamma                 79.154(2) 
_cell_volume                      899.24(5) 
_cell_formula_units_Z             1 
_cell_measurement_temperature     90.0(2) 
_cell_measurement_reflns_used     4095 
_cell_measurement_theta_min       1.00 
_cell_measurement_theta_max       27.48 
 
_exptl_crystal_description        'cut block' 
_exptl_crystal_colour             orange 
_exptl_crystal_density_meas       ? 
_exptl_crystal_density_method     ? 
_exptl_crystal_density_diffrn     1.460 
_exptl_crystal_F_000              398 
_exptl_transmission_factor_min    ? 
_exptl_transmission_factor_max    ? 
_exptl_crystal_size_max           0.260 
_exptl_crystal_size_mid           0.200 
_exptl_crystal_size_min           0.150 
_exptl_absorpt_coefficient_mu     1.838 
_shelx_estimated_absorpt_T_min    0.647 
_shelx_estimated_absorpt_T_max    0.770 
_exptl_absorpt_correction_type    multi-scan 
_exptl_absorpt_correction_T_min   0.669 
_exptl_absorpt_correction_T_max   0.790 
_exptl_absorpt_process_details    '<i>SADABS</i> (Krause et al., 2015)' 
_exptl_absorpt_special_details 
; 
In addition to absorption, multi-scan techniques also correct other slowly 
varying changes in scale factor over reciprocal space, such as those caused 
by x-ray beam inhomogeneity, goniometer imperfection, crystal decomposition, 
crystal longer than the x-ray beam cross section, absorption by the crystal 
mount etc.  These account, by and large, for much of the difference between 
estimated values of Tmin and Tmax and the _exptl_absorpt_correction_ values. 
; 
 
_exptl_special_details 
; 
The crystal was mounted using polyisobutene oil on the tip of a fine glass 
fibre, which was fastened in a copper mounting pin with electrical solder. 
It was placed directly into the cold gas stream of a liquid-nitrogen based 
cryostat (Hope, 1994; Parkin & Hope, 1998). 
 
Diffraction data were collected with the crystal at 90K, which is standard 
practice in this laboratory for the majority of flash-cooled crystals. 
; 
 
_diffrn_ambient_temperature       90.0(2) 
_diffrn_radiation_wavelength      0.71073 
_diffrn_radiation_type            MoK\a 
_diffrn_source                    'fine-focus sealed-tube' 
_diffrn_measurement_device_type   'Nonius KappaCCD diffractometer' 
_diffrn_measurement_method        '\f and \w scans at fixed \c = 55\%' 
_diffrn_detector_area_resol_mean  9.1 
_diffrn_reflns_number             22116 
_diffrn_reflns_av_unetI/netI      0.0205 
_diffrn_reflns_av_R_equivalents   0.0247 
_diffrn_reflns_limit_h_min        -12 
_diffrn_reflns_limit_h_max        12 
_diffrn_reflns_limit_k_min        -13 
_diffrn_reflns_limit_k_max        13 
_diffrn_reflns_limit_l_min        -13 
_diffrn_reflns_limit_l_max        13 
_diffrn_reflns_theta_min          2.165 
_diffrn_reflns_theta_max          27.486 
_diffrn_reflns_theta_full         25.242 
_diffrn_measured_fraction_theta_max                0.999 
_diffrn_measured_fraction_theta_full               1.000 
_diffrn_reflns_Laue_measured_fraction_max          0.999 
_diffrn_reflns_Laue_measured_fraction_full         1.000 
_diffrn_reflns_point_group_measured_fraction_max   0.999 
_diffrn_reflns_point_group_measured_fraction_full  1.000 
 
_reflns_number_total              4132 
_reflns_number_gt                 3473 
_reflns_threshold_expression      'I > 2\s(I)' 
_reflns_Friedel_coverage          0.000 
_reflns_Friedel_fraction_max      . 
_reflns_Friedel_fraction_full     . 
_reflns_special_details 
; 
Reflections were merged by SHELXL according to the crystal 
class for the calculation of statistics and refinement. 
 
_reflns_Friedel_fraction is defined as the number of unique 
Friedel pairs measured divided by the number that would be 
possible theoretically, ignoring centric projections and 
systematic absences. 
; 
 
_computing_data_collection        '<i>COLLECT</i> (Nonius, 1998)' 
_computing_cell_refinement        '<i>SCALEPACK</i> (Otwinowski & Minor, 2006)' 
_computing_data_reduction         '<i>DENZO-SMN</i> (Otwinowski & Minor, 2006)' 
_computing_structure_solution     '<i>SHELXT</i> (Sheldrick, 2015a)' 
_computing_structure_refinement   '<i>SHELXL-2014/7</i> (Sheldrick, 2015b)' 
_computing_molecular_graphics     '<i>XP in SHELXTL</i> (Sheldrick, 2008)' 
_computing_publication_material 
'<i>SHELX</i> (Sheldrick, 2008) and <i>CIFFIX</i> (Parkin, 2013)' 
 
_refine_special_details 
; 
Refinement progress was checked using <i>Platon</i> (Spek, 2009) and by 
an <i>R</i>-tensor (Parkin, 2000). The final model was further checked 
with the IUCr utility <i>checkCIF</i>. 
; 
_refine_ls_structure_factor_coef  Fsqd 
_refine_ls_matrix_type            full 
_refine_ls_weighting_scheme       calc 
_refine_ls_weighting_details 
'w=1/[\s^2^(Fo^2^)+(0.0309P)^2^+0.8411P] where P=(Fo^2^+2Fc^2^)/3' 
_atom_sites_solution_primary      direct 
_atom_sites_solution_secondary    difmap 
_atom_sites_solution_hydrogens    difmap 
_refine_ls_hydrogen_treatment     constr 
_refine_ls_extinction_method      'SHELXL-2014/7 (Sheldrick 2008)' 
_refine_ls_extinction_coef        0.0080(9) 
_refine_ls_extinction_expression 
 'Fc^*^=kFc[1+0.001xFc^2^\l^3^/sin(2\q)]^-1/4^' 
_refine_ls_number_reflns          4132 
_refine_ls_number_parameters      273 
_refine_ls_number_restraints      148 
_refine_ls_R_factor_all           0.0414 
_refine_ls_R_factor_gt            0.0320 
_refine_ls_wR_factor_ref          0.0765 
_refine_ls_wR_factor_gt           0.0722 
_refine_ls_goodness_of_fit_ref    1.115 
_refine_ls_restrained_S_all       1.103 
_refine_ls_shift/su_max           0.001 
_refine_ls_shift/su_mean          0.000 
 
loop_ 
 _atom_site_label 
 _atom_site_type_symbol 
 _atom_site_fract_x 
 _atom_site_fract_y 
 _atom_site_fract_z 
 _atom_site_U_iso_or_equiv 
 _atom_site_adp_type 
 _atom_site_occupancy 
 _atom_site_site_symmetry_order 
 _atom_site_calc_flag 
 _atom_site_refinement_flags_posn 
 _atom_site_refinement_flags_adp 
 _atom_site_refinement_flags_occupancy 
 _atom_site_disorder_assembly 
 _atom_site_disorder_group 
I1 I -0.00431(2) 0.51904(2) 0.18334(2) 0.05099(10) Uani 1 1 d . . . . . 
C1 C 0.5441(3) 0.4104(3) 0.4295(3) 0.0306(5) Uani 1 1 d . . . . . 
C2 C 0.3971(3) 0.4842(3) 0.4126(3) 0.0304(5) Uani 1 1 d . . . . . 
C3 C 0.2909(3) 0.4704(3) 0.3258(3) 0.0337(5) Uani 1 1 d . . . . . 
H3 H 0.3189 0.4127 0.2761 0.040 Uiso 1 1 calc R U . . . 
C4 C 0.1497(3) 0.5393(3) 0.3136(3) 0.0378(6) Uani 1 1 d . . . . . 
C5 C 0.1043(3) 0.6257(3) 0.3868(3) 0.0413(6) Uani 1 1 d . . . . . 
H5 H 0.0048 0.6712 0.3790 0.050 Uiso 1 1 calc R U . . . 
C6 C 0.2034(3) 0.6431(3) 0.4680(3) 0.0360(6) Uani 1 1 d . . . . . 
H6 H 0.1726 0.7029 0.5151 0.043 Uiso 1 1 calc R U . . . 
C7 C 0.3532(3) 0.5735(3) 0.4846(3) 0.0307(5) Uani 1 1 d . . . . . 
C8 C 0.5853(3) 0.3180(3) 0.3605(3) 0.0340(5) Uani 1 1 d . . . . . 
C9 C 0.6171(3) 0.2393(3) 0.3023(3) 0.0387(6) Uani 1 1 d D . . . . 
Si1 Si 0.6544(6) 0.1292(3) 0.2043(4) 0.0288(5) Uani 0.658(3) 1 d D U P A 1 
C10 C 0.8123(4) 0.1787(5) 0.0913(4) 0.0367(9) Uani 0.658(3) 1 d D U P A 1 
H10 H 0.7930 0.2875 0.0421 0.044 Uiso 0.658(3) 1 calc R U P A 1 
C11 C 0.8198(6) 0.1276(6) -0.0271(5) 0.0513(12) Uani 0.658(3) 1 d D U P A 1 
H11A H 0.9011 0.1591 -0.0847 0.077 Uiso 0.658(3) 1 calc R U P A 1 
H11B H 0.7284 0.1701 -0.0874 0.077 Uiso 0.658(3) 1 calc R U P A 1 
H11C H 0.8347 0.0212 0.0156 0.077 Uiso 0.658(3) 1 calc R U P A 1 
C12 C 0.9591(7) 0.1316(8) 0.1754(7) 0.0468(14) Uani 0.658(3) 1 d D U P A 1 
H12A H 0.9875 0.0252 0.2194 0.070 Uiso 0.658(3) 1 calc R U P A 1 
H12B H 0.9517 0.1660 0.2495 0.070 Uiso 0.658(3) 1 calc R U P A 1 
H12C H 1.0327 0.1734 0.1113 0.070 Uiso 0.658(3) 1 calc R U P A 1 
C13 C 0.6810(5) -0.0634(4) 0.3462(4) 0.0397(10) Uani 0.658(3) 1 d D U P A 1 
H13 H 0.5882 -0.0725 0.3949 0.048 Uiso 0.658(3) 1 calc R U P A 1 
C14 C 0.7018(6) -0.1733(5) 0.2816(5) 0.0435(10) Uani 0.658(3) 1 d D U P A 1 
H14A H 0.7904 -0.1665 0.2300 0.065 Uiso 0.658(3) 1 calc R U P A 1 
H14B H 0.6175 -0.1513 0.2159 0.065 Uiso 0.658(3) 1 calc R U P A 1 
H14C H 0.7107 -0.2721 0.3578 0.065 Uiso 0.658(3) 1 calc R U P A 1 
C15 C 0.8025(8) -0.1039(6) 0.4615(6) 0.0533(14) Uani 0.658(3) 1 d D U P A 1 
H15A H 0.8015 -0.2010 0.5374 0.080 Uiso 0.658(3) 1 calc R U P A 1 
H15B H 0.7866 -0.0326 0.5009 0.080 Uiso 0.658(3) 1 calc R U P A 1 
H15C H 0.8969 -0.1040 0.4200 0.080 Uiso 0.658(3) 1 calc R U P A 1 
C16 C 0.4846(5) 0.1771(5) 0.0864(5) 0.0432(10) Uani 0.658(3) 1 d D U P A 1 
H16 H 0.5025 0.1190 0.0304 0.052 Uiso 0.658(3) 1 calc R U P A 1 
C17 C 0.4509(11) 0.3385(10) -0.0206(11) 0.051(2) Uani 0.658(3) 1 d D U P A 1 
H17A H 0.3688 0.3564 -0.0871 0.076 Uiso 0.658(3) 1 calc R U P A 1 
H17B H 0.5368 0.3634 -0.0734 0.076 Uiso 0.658(3) 1 calc R U P A 1 
H17C H 0.4257 0.3988 0.0304 0.076 Uiso 0.658(3) 1 calc R U P A 1 
C18 C 0.3496(5) 0.1388(6) 0.1688(7) 0.0627(15) Uani 0.658(3) 1 d D U P A 1 
H18A H 0.3331 0.1883 0.2306 0.094 Uiso 0.658(3) 1 calc R U P A 1 
H18B H 0.3653 0.0333 0.2267 0.094 Uiso 0.658(3) 1 calc R U P A 1 
H18C H 0.2643 0.1703 0.1015 0.094 Uiso 0.658(3) 1 calc R U P A 1 
Si1' Si 0.6572(12) 0.0981(8) 0.2295(8) 0.0288(5) Uani 0.342(3) 1 d D U P A 2 
C10' C 0.5449(8) -0.0475(8) 0.3007(8) 0.0316(15) Uani 0.342(3) 1 d D U P A 2 
H10' H 0.5570 -0.0893 0.4068 0.038 Uiso 0.342(3) 1 calc R U P A 2 
C11' C 0.3809(8) 0.0099(11) 0.2590(11) 0.048(2) Uani 0.342(3) 1 d D U P A 2 
H11D H 0.3467 0.0896 0.2855 0.072 Uiso 0.342(3) 1 calc R U P A 2 
H11E H 0.3630 0.0456 0.1561 0.072 Uiso 0.342(3) 1 calc R U P A 2 
H11F H 0.3283 -0.0689 0.3088 0.072 Uiso 0.342(3) 1 calc R U P A 2 
C12' C 0.6039(11) -0.1736(8) 0.2610(9) 0.0372(18) Uani 0.342(3) 1 d D U P A 2 
H12D H 0.7085 -0.2079 0.2889 0.056 Uiso 0.342(3) 1 calc R U P A 2 
H12E H 0.5529 -0.2537 0.3108 0.056 Uiso 0.342(3) 1 calc R U P A 2 
H12F H 0.5876 -0.1393 0.1581 0.056 Uiso 0.342(3) 1 calc R U P A 2 
C13' C 0.6343(8) 0.2176(8) 0.0304(7) 0.0314(16) Uani 0.342(3) 1 d D U P A 2 
H13' H 0.6971 0.2907 0.0125 0.038 Uiso 0.342(3) 1 calc R U P A 2 
C14' C 0.6933(10) 0.1341(9) -0.0591(8) 0.0387(19) Uani 0.342(3) 1 d D U P A 2 
H14D H 0.7920 0.0781 -0.0211 0.058 Uiso 0.342(3) 1 calc R U P A 2 
H14E H 0.6293 0.0677 -0.0541 0.058 Uiso 0.342(3) 1 calc R U P A 2 
H14F H 0.6957 0.2040 -0.1584 0.058 Uiso 0.342(3) 1 calc R U P A 2 
C15' C 0.4793(16) 0.3066(18) -0.027(2) 0.040(3) Uani 0.342(3) 1 d D U P A 2 
H15D H 0.4441 0.3582 0.0306 0.060 Uiso 0.342(3) 1 calc R U P A 2 
H15E H 0.4807 0.3774 -0.1259 0.060 Uiso 0.342(3) 1 calc R U P A 2 
H15F H 0.4143 0.2411 -0.0216 0.060 Uiso 0.342(3) 1 calc R U P A 2 
C16' C 0.8549(7) 0.0091(8) 0.2901(8) 0.0322(16) Uani 0.342(3) 1 d D U P A 2 
H16' H 0.8848 -0.0625 0.2497 0.039 Uiso 0.342(3) 1 calc R U P A 2 
C17' C 0.8737(10) -0.0734(11) 0.4516(9) 0.037(2) Uani 0.342(3) 1 d D U P A 2 
H17D H 0.8092 -0.1437 0.4843 0.056 Uiso 0.342(3) 1 calc R U P A 2 
H17E H 0.9751 -0.1251 0.4811 0.056 Uiso 0.342(3) 1 calc R U P A 2 
H17F H 0.8489 -0.0045 0.4934 0.056 Uiso 0.342(3) 1 calc R U P A 2 
C18' C 0.9556(12) 0.1189(14) 0.2392(12) 0.043(3) Uani 0.342(3) 1 d D U P A 2 
H18D H 0.9435 0.1719 0.1353 0.065 Uiso 0.342(3) 1 calc R U P A 2 
H18E H 0.9308 0.1877 0.2809 0.065 Uiso 0.342(3) 1 calc R U P A 2 
H18F H 1.0570 0.0672 0.2686 0.065 Uiso 0.342(3) 1 calc R U P A 2 
 
loop_ 
 _atom_site_aniso_label 
 _atom_site_aniso_U_11 
 _atom_site_aniso_U_22 
 _atom_site_aniso_U_33 
 _atom_site_aniso_U_23 
 _atom_site_aniso_U_13 
 _atom_site_aniso_U_12 
I1 0.04364(13) 0.06302(16) 0.05308(15) -0.03573(12) -0.00694(9) 0.00051(9) 
C1 0.0370(13) 0.0252(12) 0.0245(11) -0.0093(10) 0.0037(10) 0.0015(10) 
C2 0.0346(12) 0.0272(12) 0.0257(12) -0.0102(10) 0.0043(10) -0.0009(10) 
C3 0.0386(13) 0.0321(13) 0.0291(12) -0.0147(11) 0.0025(10) -0.0007(10) 
C4 0.0366(13) 0.0405(15) 0.0362(14) -0.0191(12) -0.0013(11) -0.0017(11) 
C5 0.0353(14) 0.0444(15) 0.0448(16) -0.0252(13) -0.0003(12) 0.0051(12) 
C6 0.0360(13) 0.0330(13) 0.0392(14) -0.0196(12) 0.0037(11) 0.0019(11) 
C7 0.0334(12) 0.0270(12) 0.0260(12) -0.0095(10) 0.0045(9) 0.002(1) 
C8 0.0336(13) 0.0351(13) 0.0285(12) -0.0137(11) 0.001(1) 0.0039(10) 
C9 0.0363(14) 0.0431(15) 0.0340(14) -0.0199(12) -0.0013(11) 0.0059(11) 
Si1 0.0296(4) 0.0308(14) 0.0274(13) -0.0157(11) 0.004(1) -0.0017(11) 
C10 0.0349(19) 0.037(2) 0.037(2) -0.0178(17) 0.0053(16) -0.0026(16) 
C11 0.058(3) 0.060(3) 0.041(2) -0.027(2) 0.016(2) -0.013(2) 
C12 0.034(2) 0.053(3) 0.053(4) -0.023(3) 0.000(3) -0.005(2) 
C13 0.054(2) 0.031(2) 0.034(2) -0.0155(17) 0.0108(17) -0.0059(17) 
C14 0.054(3) 0.037(2) 0.041(2) -0.0198(19) 0.002(2) -0.003(2) 
C15 0.089(5) 0.031(2) 0.035(2) -0.0128(19) -0.007(3) -0.004(3) 
C16 0.036(2) 0.046(2) 0.049(2) -0.026(2) -0.0005(17) -0.0006(17) 
C17 0.044(4) 0.052(4) 0.050(3) -0.023(3) -0.007(3) 0.007(3) 
C18 0.039(2) 0.066(4) 0.092(4) -0.044(3) 0.014(3) -0.009(2) 
Si1' 0.0296(4) 0.0308(14) 0.0274(13) -0.0157(11) 0.004(1) -0.0017(11) 
C10' 0.032(3) 0.034(3) 0.032(4) -0.017(3) 0.003(3) -0.006(3) 
C11' 0.025(3) 0.056(5) 0.057(6) -0.016(4) 0.002(3) -0.013(3) 
C12' 0.052(5) 0.031(4) 0.032(4) -0.016(3) 0.004(4) -0.009(3) 
C13' 0.034(3) 0.036(4) 0.031(3) -0.019(3) 0.005(3) -0.010(3) 
C14' 0.054(5) 0.035(4) 0.030(4) -0.019(3) 0.006(3) -0.004(3) 
C15' 0.037(6) 0.045(7) 0.039(5) -0.019(5) 0.004(4) -0.006(4) 
C16' 0.032(3) 0.031(3) 0.035(3) -0.019(3) -0.003(3) 0.002(3) 
C17' 0.036(4) 0.037(5) 0.036(4) -0.017(3) -0.008(3) 0.003(3) 
C18' 0.030(4) 0.053(6) 0.049(6) -0.024(5) -0.002(4) -0.008(4) 
 
_geom_special_details 
; 
 All esds (except the esd in the dihedral angle between two l.s. planes) 
 are estimated using the full covariance matrix.  The cell esds are taken 
 into account individually in the estimation of esds in distances, angles 
 and torsion angles; correlations between esds in cell parameters are only 
 used when they are defined by crystal symmetry.  An approximate (isotropic) 
 treatment of cell esds is used for estimating esds involving l.s. planes. 
; 
 
loop_ 
 _geom_bond_atom_site_label_1 
 _geom_bond_atom_site_label_2 
 _geom_bond_distance 
 _geom_bond_site_symmetry_2 
 _geom_bond_publ_flag 
I1 C4 2.097(3) . ? 
C1 C7 1.405(4) 2_666 ? 
C1 C2 1.417(3) . ? 
C1 C8 1.428(3) . ? 
C2 C3 1.423(4) . ? 
C2 C7 1.431(3) . ? 
C3 C4 1.360(4) . ? 
C3 H3 0.9500 . ? 
C4 C5 1.418(4) . ? 
C5 C6 1.354(4) . ? 
C5 H5 0.9500 . ? 
C6 C7 1.428(3) . ? 
C6 H6 0.9500 . ? 
C7 C1 1.405(4) 2_666 ? 
C8 C9 1.207(4) . ? 
C9 Si1 1.824(5) . ? 
C9 Si1' 1.902(9) . ? 
Si1 C16 1.879(6) . ? 
Si1 C13 1.880(5) . ? 
Si1 C10 1.886(6) . ? 
C10 C12 1.522(7) . ? 
C10 C11 1.538(6) . ? 
C10 H10 1.0000 . ? 
C11 H11A 0.9800 . ? 
C11 H11B 0.9800 . ? 
C11 H11C 0.9800 . ? 
C12 H12A 0.9800 . ? 
C12 H12B 0.9800 . ? 
C12 H12C 0.9800 . ? 
C13 C15 1.533(7) . ? 
C13 C14 1.541(6) . ? 
C13 H13 1.0000 . ? 
C14 H14A 0.9800 . ? 
C14 H14B 0.9800 . ? 
C14 H14C 0.9800 . ? 
C15 H15A 0.9800 . ? 
C15 H15B 0.9800 . ? 
C15 H15C 0.9800 . ? 
C16 C17 1.536(10) . ? 
C16 C18 1.536(7) . ? 
C16 H16 1.0000 . ? 
C17 H17A 0.9800 . ? 
C17 H17B 0.9800 . ? 
C17 H17C 0.9800 . ? 
C18 H18A 0.9800 . ? 
C18 H18B 0.9800 . ? 
C18 H18C 0.9800 . ? 
Si1' C10' 1.886(11) . ? 
Si1' C16' 1.890(12) . ? 
Si1' C13' 1.899(10) . ? 
C10' C11' 1.536(9) . ? 
C10' C12' 1.544(9) . ? 
C10' H10' 1.0000 . ? 
C11' H11D 0.9800 . ? 
C11' H11E 0.9800 . ? 
C11' H11F 0.9800 . ? 
C12' H12D 0.9800 . ? 
C12' H12E 0.9800 . ? 
C12' H12F 0.9800 . ? 
C13' C15' 1.538(13) . ? 
C13' C14' 1.561(9) . ? 
C13' H13' 1.0000 . ? 
C14' H14D 0.9800 . ? 
C14' H14E 0.9800 . ? 
C14' H14F 0.9800 . ? 
C15' H15D 0.9800 . ? 
C15' H15E 0.9800 . ? 
C15' H15F 0.9800 . ? 
C16' C17' 1.524(11) . ? 
C16' C18' 1.530(12) . ? 
C16' H16' 1.0000 . ? 
C17' H17D 0.9800 . ? 
C17' H17E 0.9800 . ? 
C17' H17F 0.9800 . ? 
C18' H18D 0.9800 . ? 
C18' H18E 0.9800 . ? 
C18' H18F 0.9800 . ? 
 
loop_ 
 _geom_angle_atom_site_label_1 
 _geom_angle_atom_site_label_2 
 _geom_angle_atom_site_label_3 
 _geom_angle 
 _geom_angle_site_symmetry_1 
 _geom_angle_site_symmetry_3 
 _geom_angle_publ_flag 
C7 C1 C2 120.1(2) 2_666 . ? 
C7 C1 C8 120.7(2) 2_666 . ? 
C2 C1 C8 119.2(2) . . ? 
C1 C2 C3 121.3(2) . . ? 
C1 C2 C7 119.8(2) . . ? 
C3 C2 C7 118.9(2) . . ? 
C4 C3 C2 120.4(2) . . ? 
C4 C3 H3 119.8 . . ? 
C2 C3 H3 119.8 . . ? 
C3 C4 C5 121.2(3) . . ? 
C3 C4 I1 119.7(2) . . ? 
C5 C4 I1 119.13(19) . . ? 
C6 C5 C4 119.7(2) . . ? 
C6 C5 H5 120.1 . . ? 
C4 C5 H5 120.1 . . ? 
C5 C6 C7 121.5(2) . . ? 
C5 C6 H6 119.3 . . ? 
C7 C6 H6 119.3 . . ? 
C1 C7 C6 121.6(2) 2_666 . ? 
C1 C7 C2 120.1(2) 2_666 . ? 
C6 C7 C2 118.3(2) . . ? 
C9 C8 C1 178.6(3) . . ? 
C8 C9 Si1 175.8(3) . . ? 
C8 C9 Si1' 172.9(4) . . ? 
C9 Si1 C16 105.5(3) . . ? 
C9 Si1 C13 104.0(2) . . ? 
C16 Si1 C13 110.8(3) . . ? 
C9 Si1 C10 110.1(3) . . ? 
C16 Si1 C10 109.5(3) . . ? 
C13 Si1 C10 116.3(3) . . ? 
C12 C10 C11 111.0(4) . . ? 
C12 C10 Si1 114.3(4) . . ? 
C11 C10 Si1 112.7(3) . . ? 
C12 C10 H10 106.0 . . ? 
C11 C10 H10 106.0 . . ? 
Si1 C10 H10 106.0 . . ? 
C10 C11 H11A 109.5 . . ? 
C10 C11 H11B 109.5 . . ? 
H11A C11 H11B 109.5 . . ? 
C10 C11 H11C 109.5 . . ? 
H11A C11 H11C 109.5 . . ? 
H11B C11 H11C 109.5 . . ? 
C10 C12 H12A 109.5 . . ? 
C10 C12 H12B 109.5 . . ? 
H12A C12 H12B 109.5 . . ? 
C10 C12 H12C 109.5 . . ? 
H12A C12 H12C 109.5 . . ? 
H12B C12 H12C 109.5 . . ? 
C15 C13 C14 111.1(4) . . ? 
C15 C13 Si1 114.3(4) . . ? 
C14 C13 Si1 111.5(3) . . ? 
C15 C13 H13 106.5 . . ? 
C14 C13 H13 106.5 . . ? 
Si1 C13 H13 106.5 . . ? 
C13 C14 H14A 109.5 . . ? 
C13 C14 H14B 109.5 . . ? 
H14A C14 H14B 109.5 . . ? 
C13 C14 H14C 109.5 . . ? 
H14A C14 H14C 109.5 . . ? 
H14B C14 H14C 109.5 . . ? 
C13 C15 H15A 109.5 . . ? 
C13 C15 H15B 109.5 . . ? 
H15A C15 H15B 109.5 . . ? 
C13 C15 H15C 109.5 . . ? 
H15A C15 H15C 109.5 . . ? 
H15B C15 H15C 109.5 . . ? 
C17 C16 C18 109.2(5) . . ? 
C17 C16 Si1 112.1(5) . . ? 
C18 C16 Si1 113.5(4) . . ? 
C17 C16 H16 107.2 . . ? 
C18 C16 H16 107.2 . . ? 
Si1 C16 H16 107.2 . . ? 
C16 C17 H17A 109.5 . . ? 
C16 C17 H17B 109.5 . . ? 
H17A C17 H17B 109.5 . . ? 
C16 C17 H17C 109.5 . . ? 
H17A C17 H17C 109.5 . . ? 
H17B C17 H17C 109.5 . . ? 
C16 C18 H18A 109.5 . . ? 
C16 C18 H18B 109.5 . . ? 
H18A C18 H18B 109.5 . . ? 
C16 C18 H18C 109.5 . . ? 
H18A C18 H18C 109.5 . . ? 
H18B C18 H18C 109.5 . . ? 
C10' Si1' C16' 108.3(5) . . ? 
C10' Si1' C13' 116.6(6) . . ? 
C16' Si1' C13' 111.0(6) . . ? 
C10' Si1' C9 114.4(5) . . ? 
C16' Si1' C9 104.1(5) . . ? 
C13' Si1' C9 101.6(4) . . ? 
C11' C10' C12' 111.4(7) . . ? 
C11' C10' Si1' 113.9(6) . . ? 
C12' C10' Si1' 111.3(6) . . ? 
C11' C10' H10' 106.6 . . ? 
C12' C10' H10' 106.6 . . ? 
Si1' C10' H10' 106.6 . . ? 
C10' C11' H11D 109.5 . . ? 
C10' C11' H11E 109.5 . . ? 
H11D C11' H11E 109.5 . . ? 
C10' C11' H11F 109.5 . . ? 
H11D C11' H11F 109.5 . . ? 
H11E C11' H11F 109.5 . . ? 
C10' C12' H12D 109.5 . . ? 
C10' C12' H12E 109.5 . . ? 
H12D C12' H12E 109.5 . . ? 
C10' C12' H12F 109.5 . . ? 
H12D C12' H12F 109.5 . . ? 
H12E C12' H12F 109.5 . . ? 
C15' C13' C14' 110.7(9) . . ? 
C15' C13' Si1' 114.8(9) . . ? 
C14' C13' Si1' 113.4(6) . . ? 
C15' C13' H13' 105.7 . . ? 
C14' C13' H13' 105.7 . . ? 
Si1' C13' H13' 105.7 . . ? 
C13' C14' H14D 109.5 . . ? 
C13' C14' H14E 109.5 . . ? 
H14D C14' H14E 109.5 . . ? 
C13' C14' H14F 109.5 . . ? 
H14D C14' H14F 109.5 . . ? 
H14E C14' H14F 109.5 . . ? 
C13' C15' H15D 109.5 . . ? 
C13' C15' H15E 109.5 . . ? 
H15D C15' H15E 109.5 . . ? 
C13' C15' H15F 109.5 . . ? 
H15D C15' H15F 109.5 . . ? 
H15E C15' H15F 109.5 . . ? 
C17' C16' C18' 109.5(7) . . ? 
C17' C16' Si1' 110.4(6) . . ? 
C18' C16' Si1' 112.5(7) . . ? 
C17' C16' H16' 108.1 . . ? 
C18' C16' H16' 108.1 . . ? 
Si1' C16' H16' 108.1 . . ? 
C16' C17' H17D 109.5 . . ? 
C16' C17' H17E 109.5 . . ? 
H17D C17' H17E 109.5 . . ? 
C16' C17' H17F 109.5 . . ? 
H17D C17' H17F 109.5 . . ? 
H17E C17' H17F 109.5 . . ? 
C16' C18' H18D 109.5 . . ? 
C16' C18' H18E 109.5 . . ? 
H18D C18' H18E 109.5 . . ? 
C16' C18' H18F 109.5 . . ? 
H18D C18' H18F 109.5 . . ? 
H18E C18' H18F 109.5 . . ? 
 
_refine_diff_density_max    1.039 
_refine_diff_density_min   -0.914 
_refine_diff_density_rms    0.073 
 
_shelx_res_file 
; 
 
    k15158.res created by SHELXL-2014/7 
 
 
TITL k15158 
CELL 0.71073   9.3678  10.3910  10.4510  64.4912  89.139  79.154 
ZERR       1   0.0003   0.0003   0.0004   0.0018   0.002   0.002 
LATT  1 
SFAC C  H  Si I 
UNIT    36   48    2    2 
REM COLR orange 
REM FORM cut block 
SIZE 0.26 0.20 0.15 
TEMP -183 
REM MERG 0 
LIST 4 
ACTA 
BOND $H 
FMAP 2 
PLAN 5 
L.S.  8 
OMIT  -3.0000 55 
WGHT    0.030900    0.841100 
EXTI    0.008045 
FVAR       0.67913   0.65836 
I1    4   -0.004313    0.519037    0.183336    11.00000    0.04364    0.06302 = 
         0.05308   -0.03573   -0.00694    0.00051 
C1    1    0.544088    0.410446    0.429481    11.00000    0.03701    0.02524 = 
         0.02451   -0.00929    0.00368    0.00153 
C2    1    0.397142    0.484173    0.412561    11.00000    0.03457    0.02719 = 
         0.02565   -0.01018    0.00430   -0.00094 
C3    1    0.290920    0.470371    0.325814    11.00000    0.03864    0.03206 = 
         0.02911   -0.01474    0.00254   -0.00068 
AFIX  43 
H3    2    0.318853    0.412682    0.276124    11.00000   -1.20000 
AFIX   0 
C4    1    0.149684    0.539259    0.313621    11.00000    0.03659    0.04055 = 
         0.03624   -0.01913   -0.00133   -0.00169 
C5    1    0.104293    0.625691    0.386841    11.00000    0.03526    0.04439 = 
         0.04483   -0.02519   -0.00032    0.00510 
AFIX  43 
H5    2    0.004766    0.671199    0.378954    11.00000   -1.20000 
AFIX   0 
C6    1    0.203395    0.643080    0.468033    11.00000    0.03599    0.03304 = 
         0.03920   -0.01964    0.00373    0.00193 
AFIX  43 
H6    2    0.172574    0.702902    0.515051    11.00000   -1.20000 
AFIX   0 
C7    1    0.353199    0.573532    0.484591    11.00000    0.03337    0.02700 = 
         0.02605   -0.00950    0.00455    0.00197 
C8    1    0.585313    0.317961    0.360525    11.00000    0.03359    0.03511 = 
         0.02849   -0.01367    0.00096    0.00394 
C9    1    0.617109    0.239308    0.302346    11.00000    0.03625    0.04311 = 
         0.03403   -0.01988   -0.00126    0.00592 
EADP Si1 Si1' 
SAME Si1' > C18' 
SADI Si1 C9 Si1' C9 
RIGU Si1 > C18 
RIGU Si1' > C18' 
PART 1 
SI1   3    0.654370    0.129231    0.204325    21.00000    0.02956    0.03079 = 
         0.02743   -0.01569    0.00401   -0.00165 
C10   1    0.812260    0.178677    0.091292    21.00000    0.03487    0.03743 = 
         0.03730   -0.01778    0.00534   -0.00261 
AFIX  13 
H10   2    0.792985    0.287455    0.042085    21.00000   -1.20000 
AFIX   0 
C11   1    0.819788    0.127636   -0.027050    21.00000    0.05819    0.06014 = 
         0.04099   -0.02682    0.01585   -0.01318 
AFIX 137 
H11A  2    0.901111    0.159099   -0.084686    21.00000   -1.50000 
H11B  2    0.728387    0.170069   -0.087445    21.00000   -1.50000 
H11C  2    0.834666    0.021210    0.015553    21.00000   -1.50000 
AFIX   0 
C12   1    0.959098    0.131636    0.175369    21.00000    0.03399    0.05271 = 
         0.05272   -0.02340    0.00014   -0.00531 
AFIX 137 
H12A  2    0.987453    0.025193    0.219389    21.00000   -1.50000 
H12B  2    0.951707    0.165978    0.249543    21.00000   -1.50000 
H12C  2    1.032679    0.173449    0.111312    21.00000   -1.50000 
AFIX   0 
C13   1    0.680996   -0.063447    0.346167    21.00000    0.05392    0.03141 = 
         0.03366   -0.01546    0.01084   -0.00591 
AFIX  13 
H13   2    0.588230   -0.072460    0.394943    21.00000   -1.20000 
AFIX   0 
C14   1    0.701818   -0.173343    0.281592    21.00000    0.05371    0.03670 = 
         0.04082   -0.01983    0.00151   -0.00314 
AFIX 137 
H14A  2    0.790443   -0.166527    0.230038    21.00000   -1.50000 
H14B  2    0.617538   -0.151293    0.215860    21.00000   -1.50000 
H14C  2    0.710717   -0.272114    0.357801    21.00000   -1.50000 
AFIX   0 
C15   1    0.802453   -0.103901    0.461499    21.00000    0.08912    0.03098 = 
         0.03514   -0.01277   -0.00739   -0.00420 
AFIX 137 
H15A  2    0.801484   -0.200951    0.537383    21.00000   -1.50000 
H15B  2    0.786597   -0.032575    0.500894    21.00000   -1.50000 
H15C  2    0.896942   -0.104042    0.419968    21.00000   -1.50000 
AFIX   0 
C16   1    0.484553    0.177130    0.086391    21.00000    0.03584    0.04649 = 
         0.04927   -0.02577   -0.00048   -0.00060 
AFIX  13 
H16   2    0.502489    0.118955    0.030375    21.00000   -1.20000 
AFIX   0 
C17   1    0.450945    0.338513   -0.020620    21.00000    0.04375    0.05243 = 
         0.04956   -0.02302   -0.00683    0.00705 
AFIX 137 
H17A  2    0.368832    0.356360   -0.087114    21.00000   -1.50000 
H17B  2    0.536818    0.363367   -0.073418    21.00000   -1.50000 
H17C  2    0.425739    0.398794    0.030385    21.00000   -1.50000 
AFIX   0 
C18   1    0.349605    0.138794    0.168770    21.00000    0.03898    0.06577 = 
         0.09205   -0.04366    0.01388   -0.00851 
AFIX 137 
H18A  2    0.333115    0.188312    0.230642    21.00000   -1.50000 
H18B  2    0.365323    0.033291    0.226722    21.00000   -1.50000 
H18C  2    0.264280    0.170321    0.101504    21.00000   -1.50000 
AFIX   0 
PART 2 
SI1'  3    0.657166    0.098132    0.229500   -21.00000    0.02956    0.03079 = 
         0.02743   -0.01569    0.00401   -0.00165 
C10'  1    0.544907   -0.047549    0.300740   -21.00000    0.03187    0.03394 = 
         0.03173   -0.01730    0.00316   -0.00569 
AFIX  13 
H10'  2    0.557029   -0.089323    0.406760   -21.00000   -1.20000 
AFIX   0 
C11'  1    0.380897    0.009891    0.259024   -21.00000    0.02482    0.05584 = 
         0.05726   -0.01614    0.00223   -0.01309 
AFIX  33 
H11D  2    0.346718    0.089622    0.285498   -21.00000   -1.50000 
H11E  2    0.362998    0.045568    0.156140   -21.00000   -1.50000 
H11F  2    0.328301   -0.068859    0.308811   -21.00000   -1.50000 
AFIX   0 
C12'  1    0.603869   -0.173639    0.261013   -21.00000    0.05184    0.03063 = 
         0.03213   -0.01641    0.00432   -0.00871 
AFIX  33 
H12D  2    0.708512   -0.207913    0.288861   -21.00000   -1.50000 
H12E  2    0.552913   -0.253735    0.310816   -21.00000   -1.50000 
H12F  2    0.587610   -0.139309    0.158145   -21.00000   -1.50000 
AFIX   0 
C13'  1    0.634281    0.217573    0.030382   -21.00000    0.03364    0.03563 = 
         0.03098   -0.01884    0.00463   -0.01017 
AFIX  13 
H13'  2    0.697056    0.290652    0.012531   -21.00000   -1.20000 
AFIX   0 
C14'  1    0.693322    0.134093   -0.059116   -21.00000    0.05368    0.03539 = 
         0.03016   -0.01920    0.00645   -0.00385 
AFIX  33 
H14D  2    0.792005    0.078091   -0.021140   -21.00000   -1.50000 
H14E  2    0.629340    0.067749   -0.054051   -21.00000   -1.50000 
H14F  2    0.695692    0.204021   -0.158352   -21.00000   -1.50000 
AFIX   0 
C15'  1    0.479279    0.306626   -0.026815   -21.00000    0.03666    0.04481 = 
         0.03949   -0.01936    0.00361   -0.00585 
AFIX  33 
H15D  2    0.444128    0.358178    0.030626   -21.00000   -1.50000 
H15E  2    0.480653    0.377355   -0.125906   -21.00000   -1.50000 
H15F  2    0.414302    0.241083   -0.021605   -21.00000   -1.50000 
AFIX   0 
C16'  1    0.854874    0.009101    0.290127   -21.00000    0.03244    0.03095 = 
         0.03547   -0.01946   -0.00258    0.00156 
AFIX  13 
H16'  2    0.884819   -0.062545    0.249714   -21.00000   -1.20000 
AFIX   0 
C17'  1    0.873703   -0.073423    0.451643   -21.00000    0.03574    0.03684 = 
         0.03618   -0.01677   -0.00799    0.00314 
AFIX  33 
H17D  2    0.809203   -0.143725    0.484299   -21.00000   -1.50000 
H17E  2    0.975137   -0.125091    0.481117   -21.00000   -1.50000 
H17F  2    0.848881   -0.004536    0.493410   -21.00000   -1.50000 
AFIX   0 
C18'  1    0.955582    0.118858    0.239159   -21.00000    0.02960    0.05306 = 
         0.04895   -0.02425   -0.00187   -0.00752 
AFIX  33 
H18D  2    0.943478    0.171947    0.135265   -21.00000   -1.50000 
H18E  2    0.930759    0.187740    0.280931   -21.00000   -1.50000 
H18F  2    1.057015    0.067185    0.268638   -21.00000   -1.50000 
PART 0 
AFIX   0 
HKLF 4 
 
REM  k15158 
REM R1 =  0.0320 for    3473 Fo > 4sig(Fo)  and  0.0414 for all    4132 data 
REM    273 parameters refined using    148 restraints 
 
END 
 
WGHT      0.0342      0.8140 
 
REM Highest difference peak  1.039,  deepest hole -0.914,  1-sigma level  0.073 
Q1    1  -0.0106  0.5641  0.5491  11.00000  0.05    1.04 
Q2    1   0.6654  0.0815 -0.1575  11.00000  0.05    0.80 
Q3    1   0.3543 -0.1551  0.4230  11.00000  0.05    0.76 
Q4    1   0.0167  0.4818  0.2280  11.00000  0.05    0.36 
Q5    1   0.0179  0.5579  0.1533  11.00000  0.05    0.36 
; 
_shelx_res_checksum   70560 
 
_shelx_hkl_file
;
  -1   0   0 631.355 22.2261   3
  -1   0   0 626.538 15.8576   4
  -1   0   0 621.444 19.0262  10
  -1   0   0 613.406 21.6845   1
  -1   0   0 624.105 17.7520   8
  -1   0   0 616.221 19.0589   5
   1   0   0 621.349 24.4648   3
   1   0   0 611.462 20.1760   1
   1   0   0 630.906 20.0744   9
   1   0   0 622.335 26.0053   8
   1   0   0 632.410 21.6994   4
   1   0   0 633.020 18.4269   5
   1   0   0 612.921 27.1562  10
  -2   0   0 2749.20 101.178   5
  -2   0   0 2663.61 78.6657  10
  -2   0   0 2615.81 89.7853   1
  -2   0   0 2626.56 75.3237   8
  -2   0   0 2658.55 51.6937   4
  -2   0   0 2681.12 80.3111   2
  -2   0   0 2757.40 87.0553   3
   2   0   0 2627.83 93.0900   4
   2   0   0 2608.71 96.2883   8
   2   0   0 2619.03 76.9642   5
   2   0   0 2641.10 103.442  10
   2   0   0 2615.07 89.4683   3
   2   0   0 2606.29 54.0736   9
   2   0   0 2612.30 73.3442   1
  -3   0   0 4112.44 152.945  10
  -3   0   0 4287.47 130.131   5
  -3   0   0 4192.97 129.163   4
  -3   0   0 4176.03 116.952   2
  -3   0   0 4164.58 124.188   1
  -3   0   0 4307.61 145.627   3
  -3   0   0 4114.20 144.280   8
   3   0   0 4025.25 106.485   9
   3   0   0 4101.22 99.3903   8
   3   0   0 4089.83 118.189   1
   3   0   0 4050.53 133.006   3
   3   0   0 4108.88 96.9410   4
   3   0   0 4119.97 102.820  10
   3   0   0 4036.68 119.155   5
  -4   0   0 483.746 29.9125   1
  -4   0   0 526.592 18.1912   5
  -4   0   0 515.472 23.1929  10
  -4   0   0 520.655 12.2696   3
  -4   0   0 501.042 20.1278   8
  -4   0   0 515.546 12.2924   2
  -4   0   0 515.775 15.8504   4
   4   0   0 494.521 11.7369   8
   4   0   0 479.346 9.34400   5
   4   0   0 509.174 12.3335   4
   4   0   0 495.091 12.7196   3
   4   0   0 488.808 9.43016   9
   4   0   0 497.962 11.2155  10
   4   0   0 506.760 19.6515   1
  -5   0   0 1970.98 40.3131   5
  -5   0   0 1966.61 52.3533  10
  -5   0   0 1957.11 48.3935   8
  -5   0   0 1979.18 32.1410   3
  -5   0   0 1972.34 54.0309   2
  -5   0   0 1971.57 51.3928   4
  -5   0   0 1886.04 78.1855   1
   5   0   0 1927.20 49.3123  10
   5   0   0 1794.10 32.7053   5
   5   0   0 1953.44 47.6827   4
   5   0   0 1817.45 61.4707   3
   5   0   0 1818.72 24.8429   9
   5   0   0 1915.15 80.5323   1
   5   0   0 1902.19 44.0063   8
  -6   0   0 2145.97 60.3261   5
  -6   0   0 2154.73 85.4515   2
  -6   0   0 2150.36 67.3872   3
  -6   0   0 2109.91 39.0588   1
   6   0   0 1990.24 62.4733   5
   6   0   0 2047.95 44.4584   8
   6   0   0 2049.02 39.7658  10
   6   0   0 1997.89 54.1859   9
   6   0   0 2000.29 50.2081   3
   6   0   0 2010.30 44.2179   4
  -7   0   0 392.334 18.8434   3
  -7   0   0 426.557 19.8354   5
  -7   0   0 411.542 12.8705   1
   7   0   0 408.593 15.0059   9
   7   0   0 418.875 19.5488   5
   7   0   0 406.385 15.1393   8
   7   0   0 397.544 12.3900   4
   7   0   0 414.844 8.79949   3
   7   0   0 401.502 18.2983  10
  -8   0   0 398.719 19.2696   3
  -8   0   0 406.266 16.0228   1
   8   0   0 389.313 11.2320   4
   8   0   0 396.835 15.0032   8
   8   0   0 410.168 21.2222   5
   8   0   0 411.510 19.2789   9
   8   0   0 397.186 17.8541  10
  -9   0   0 376.853 19.9361   1
   9   0   0 357.239 18.4243  10
   9   0   0 351.178 15.5731   8
 -10   0   0 94.6297 7.53338   1
  10   0   0 89.2160 5.87869   8
  10   0   0 102.231 6.42280  10
 -11   0   0 117.189 10.7165   1
  11   0   0 132.550 10.7819   8
  11   0   0 104.639 9.37002  10
  11  -1   0 60.7860 7.72699  10
  11  -1   0 58.6338 7.43277   8
 -11   1   0 58.5175 6.51529   1
  10  -1   0 272.982 12.6767  10
  10  -1   0 262.244 10.8753   8
 -10   1   0 274.867 16.2194   1
   9  -1   0 179.745 7.25932  10
   9  -1   0 190.947 8.74495   8
  -9   1   0 195.481 9.66995   1
   8  -1   0 307.438 12.6579   4
   8  -1   0 310.773 13.0076  10
   8  -1   0 329.772 12.8558   5
   8  -1   0 307.935 12.4048   8
   8  -1   0 321.645 11.9984   9
  -8   1   0 308.049 10.7833   1
   7  -1   0 1105.52 29.6712   9
   7  -1   0 1066.60 28.3477   8
   7  -1   0 1072.12 36.2422   3
   7  -1   0 1083.75 33.1687   5
   7  -1   0 1099.20 31.7472  10
   7  -1   0 1083.05 28.5830   4
  -7   1   0 1099.88 40.5683   3
  -7   1   0 1107.56 39.4363   1
   6  -1   0 936.767 23.7690   4
   6  -1   0 938.065 38.4108   3
   6  -1   0 961.873 25.4315   8
   6  -1   0 955.316 22.7784   5
   6  -1   0 948.345 12.9455   9
   6  -1   0 942.778 24.0820  10
  -6   1   0 956.872 55.3986   1
  -6   1   0 963.187 25.4380   3
   5  -1   0 772.462 19.5076   9
   5  -1   0 835.533 22.2896   4
   5  -1   0 832.993 20.7615   8
   5  -1   0 796.597 18.5149   5
   5  -1   0 794.585 25.6612   3
   5  -1   0 810.431 21.7143  10
   5  -1   0 863.015 29.7632   1
  -5   1   0 867.351 39.1449  10
  -5   1   0 859.357 38.8790   8
  -5   1   0 861.063 26.1593   5
  -5   1   0 825.623 53.2876   2
  -5   1   0 825.768 18.8670   3
  -5   1   0 846.122 23.6452   4
  -5   1   0 845.651 16.6919   1
   4  -1   0 1947.22 73.2804   1
   4  -1   0 1934.89 62.0309   3
   4  -1   0 1976.51 66.3985   4
   4  -1   0 1945.90 52.8817  10
   4  -1   0 1957.02 44.3444   8
   4  -1   0 1935.66 39.3522   5
  -4   1   0 1919.11 89.5178   3
  -4   1   0 2002.82 51.3353   2
  -4   1   0 2005.20 70.9252  10
  -4   1   0 1997.78 92.2764   4
  -4   1   0 1925.56 43.8257   1
  -4   1   0 2004.40 67.9660   8
  -4   1   0 2008.09 72.1313   5
   3  -1   0 2294.34 69.3494   1
   3  -1   0 2315.78 74.4093   4
   3  -1   0 2301.69 55.9602   8
   3  -1   0 2228.37 71.0735   3
   3  -1   0 2259.07 59.6337   5
   3  -1   0 2330.81 62.5045  10
  -3   1   0 2238.76 101.981   1
  -3   1   0 2322.43 62.3237   4
  -3   1   0 2405.80 50.2901   5
  -3   1   0 2341.52 57.5128   2
  -3   1   0 2324.18 74.0436   3
  -3   1   0 2289.44 95.7019   8
  -3   1   0 2276.54 106.714  10
   2  -1   0 4114.55 108.773  10
   2  -1   0 4062.35 116.472   5
   2  -1   0 4120.03 139.903   4
   2  -1   0 4095.34 109.081   3
   2  -1   0 4255.98 158.433   2
   2  -1   0 4240.77 128.205   1
   2  -1   0 4150.38 104.490   8
  -2   1   0 4124.04 66.7929   4
  -2   1   0 4203.41 122.970   1
  -2   1   0 4145.58 91.4575   8
  -2   1   0 4147.18 99.5797  10
  -2   1   0 4259.57 146.985   3
  -2   1   0 4250.00 113.715   2
   1  -1   0 5761.23 213.197   1
   1  -1   0 5740.95 163.063   4
   1  -1   0 5823.33 158.751   6
   1  -1   0 5795.45 184.349   2
   1  -1   0 5699.98 166.602   8
   1  -1   0 5662.10 186.991  10
  -1   1   0 5718.78 147.194   4
  -1   1   0 5701.60 131.559   8
  -1   1   0 5792.97 187.777   1
  -1   1   0 5805.60 152.784   2
  -1   1   0 5830.65 185.792   6
  -1   1   0 5723.45 148.135  10
   0  -1   0 2913.51 139.481   6
   0  -1   0 2920.58 95.3394   2
   0  -1   0 2796.65 117.484   1
   0   1   0 2838.12 89.8710   2
   0   1   0 2907.82 104.311   7
   0   1   0 2873.50 142.995   1
   0   1   0 2945.95 140.110   6
  -1  -1   0 1103.52 31.0874  10
  -1  -1   0 1090.65 48.2191   3
  -1  -1   0 1142.74 52.3317   7
  -1  -1   0 1097.74 48.4217   2
  -1  -1   0 1127.04 33.7526   4
  -1  -1   0 1121.95 27.6870   9
  -1  -1   0 1116.20 31.1251   8
  -1  -1   0 1127.20 44.3454   6
   1   1   0 1089.43 23.4330   4
   1   1   0 1080.21 23.3273   8
   1   1   0 1072.02 42.9919   3
   1   1   0 1046.40 35.9161   2
   1   1   0 1141.71 48.7591   6
   1   1   0 1120.08 48.4449   7
   1   1   0 1078.50 25.6440  10
  -2  -1   0 4120.49 106.465   9
  -2  -1   0 4141.53 93.8408   4
  -2  -1   0 4083.22 143.026   7
  -2  -1   0 4154.68 145.387   3
  -2  -1   0 4093.85 167.186  10
  -2  -1   0 4116.98 131.951   8
  -2  -1   0 4156.38 193.857   5
   2   1   0 4084.53 147.956  10
   2   1   0 4138.19 190.474   9
   2   1   0 4072.96 105.178   4
   2   1   0 4057.12 131.767   8
   2   1   0 4207.05 148.103   7
   2   1   0 3987.09 161.803   3
  -3  -1   0 756.541 17.5731   8
  -3  -1   0 728.516 21.6678   1
  -3  -1   0 782.830 23.7577   3
  -3  -1   0 735.525 21.2022   5
  -3  -1   0 746.090 25.9772   9
  -3  -1   0 747.023 18.3314   4
  -3  -1   0 757.922 19.7721   7
  -3  -1   0 729.226 19.0250  10
   3   1   0 737.835 17.5834  10
   3   1   0 723.251 37.4319   9
   3   1   0 735.947 16.5696   8
   3   1   0 727.377 22.8296   3
   3   1   0 737.649 18.2833   4
  -4  -1   0 2418.13 65.7986   3
  -4  -1   0 2405.45 75.7362  10
  -4  -1   0 2386.58 63.7140   4
  -4  -1   0 2361.17 69.0265   8
  -4  -1   0 2387.57 76.6278   9
  -4  -1   0 2419.86 63.9820   7
  -4  -1   0 2369.21 59.6814   5
  -4  -1   0 2342.48 49.7944   1
   4   1   0 2305.54 51.4282   8
   4   1   0 2288.10 67.8670   3
   4   1   0 2265.92 54.2968  10
   4   1   0 2308.74 57.4997   4
   4   1   0 2268.74 36.7548   9
  -5  -1   0 2426.88 77.6997  10
  -5  -1   0 2452.76 84.8269   9
  -5  -1   0 2416.49 66.1507   4
  -5  -1   0 2492.05 76.5249   2
  -5  -1   0 2493.84 128.421   7
  -5  -1   0 2442.62 60.7168   3
  -5  -1   0 2335.60 58.6201   1
  -5  -1   0 2410.28 72.1317   8
  -5  -1   0 2440.84 73.7873   5
   5   1   0 2255.46 62.0363   3
   5   1   0 2358.31 43.4532   8
   5   1   0 2344.00 43.7223  10
   5   1   0 2326.34 46.5070   4
   5   1   0 2275.40 58.0431   9
  -6  -1   0 114.746 6.00329   7
  -6  -1   0 129.529 4.77314   5
  -6  -1   0 122.340 4.58950   1
  -6  -1   0 131.024 5.65836   2
  -6  -1   0 116.965 3.99801   3
   6   1   0 123.538 4.43380  10
   6   1   0 123.434 4.32256   4
   6   1   0 131.667 4.31977   8
   6   1   0 129.476 4.11941   9
   6   1   0 128.099 5.77210   3
  -7  -1   0 1193.47 66.5241   5
  -7  -1   0 1146.13 53.5677   3
  -7  -1   0 1188.72 77.9869   1
   7   1   0 1136.54 39.1593   3
   7   1   0 1100.39 33.3560  10
   7   1   0 1123.50 42.3525   9
   7   1   0 1105.47 32.8186   8
   7   1   0 1109.98 30.3972   4
  -8  -1   0 628.231 19.2027   1
  -8  -1   0 635.629 37.2339   3
   8   1   0 608.404 25.9392  10
   8   1   0 611.600 33.4052   9
   8   1   0 620.495 21.0728   8
   8   1   0 614.134 16.1915   4
  -9  -1   0 199.047 12.6247   3
  -9  -1   0 201.342 11.3966   1
   9   1   0 195.569 9.44345   8
   9   1   0 191.736 9.45594  10
   9   1   0 201.517 9.23782   4
   9   1   0 208.664 13.8994   9
 -10  -1   0 262.156 15.1510   1
  10   1   0 230.937 12.3270   8
  10   1   0 205.937 12.5033  10
 -11  -1   0 115.715 11.5810   1
  11   1   0 133.995 8.13118  10
  11   1   0 152.681 8.44683   8
 -12  -1   0 7.83322 5.55436   1
  12   1   0 9.32855 4.78647   8
  12   1   0 7.81480 5.05814  10
  11  -2   0 81.8694 6.68470   8
  11  -2   0 92.4476 7.35753  10
 -11   2   0 116.883 9.61569   1
 -11   2   0 64.6216 13.4064   6
  10  -2   0 58.5841 5.75602  10
  10  -2   0 62.1393 5.66640   8
 -10   2   0 73.2337 7.79933   1
 -10   2   0 61.7056 6.49142   6
   9  -2   0 146.989 6.93701  10
   9  -2   0 130.968 6.88979   8
  -9   2   0 125.030 6.73759   6
  -9   2   0 123.843 7.93440   1
   8  -2   0 349.998 18.9599   9
   8  -2   0 341.309 22.4566   5
   8  -2   0 350.850 12.5982  10
   8  -2   0 348.088 10.3100   8
  -8   2   0 375.739 15.5298   1
  -8   2   0 347.890 14.4924   6
   7  -2   0 406.125 14.1796   9
   7  -2   0 415.542 19.6721   3
   7  -2   0 410.083 11.0254   8
   7  -2   0 409.342 12.9010   4
   7  -2   0 398.277 11.0502  10
   7  -2   0 416.528 21.2981   5
  -7   2   0 408.185 26.6284   1
  -7   2   0 403.934 12.1870   6
   6  -2   0 577.927 15.2894   8
   6  -2   0 557.408 12.1820   4
   6  -2   0 569.133 14.5864   9
   6  -2   0 561.209 17.3818  10
   6  -2   0 570.193 19.3388   5
   6  -2   0 569.224 28.8751   3
  -6   2   0 573.296 18.0107   1
  -6   2   0 562.589 15.8202   6
   5  -2   0 1049.76 34.8935   3
   5  -2   0 1071.22 33.5865   4
   5  -2   0 1029.10 26.7550   5
   5  -2   0 1059.33 20.8111  10
   5  -2   0 1065.53 21.4116   8
  -5   2   0 1091.88 47.7427  10
  -5   2   0 1075.53 28.6628   6
  -5   2   0 1066.33 58.2308   1
  -5   2   0 1062.38 59.4355   4
  -5   2   0 1088.12 44.7467   8
   4  -2   0 449.648 12.3416   2
   4  -2   0 419.127 10.2181   3
   4  -2   0 441.383 9.53335   4
   4  -2   0 424.957 9.23823   8
   4  -2   0 430.785 10.5169   5
   4  -2   0 436.664 13.0458   1
   4  -2   0 440.320 9.68796  10
  -4   2   0 455.277 11.1782   2
  -4   2   0 431.291 16.4657  10
  -4   2   0 452.040 9.65427   1
  -4   2   0 437.320 16.0984   4
  -4   2   0 433.820 16.8725   8
  -4   2   0 448.756 14.4963   6
   3  -2   0 2473.58 65.4688   3
   3  -2   0 2554.27 166.796   1
   3  -2   0 2542.28 58.8650  10
   3  -2   0 2436.76 77.0184   5
   3  -2   0 2499.08 58.9677   8
   3  -2   0 2432.31 90.4400   2
   3  -2   0 2513.42 61.7970   4
  -3   2   0 2600.38 42.5268   2
  -3   2   0 2515.75 86.5236   6
  -3   2   0 2495.64 64.6114   4
  -3   2   0 2516.73 90.8444   8
  -3   2   0 2482.16 57.1301   1
  -3   2   0 2544.14 94.2703  10
   2  -2   0 2567.83 99.0538   1
   2  -2   0 2498.54 96.7456   6
   2  -2   0 2555.42 69.0671   2
   2  -2   0 2569.62 58.6910   8
   2  -2   0 2508.40 70.4001   5
   2  -2   0 2612.40 56.4691   4
   2  -2   0 2560.45 62.2217  10
  -2   2   0 2530.02 55.3976   1
  -2   2   0 2559.34 103.049   2
  -2   2   0 2607.71 55.4736   6
  -2   2   0 2561.25 55.5467  10
  -2   2   0 2608.99 151.129   4
  -2   2   0 2565.57 56.3812   8
   1  -2   0 4532.14 167.862   1
   1  -2   0 4577.25 194.674   6
   1  -2   0 4595.72 122.491   8
   1  -2   0 4565.68 164.808   2
   1  -2   0 4550.34 123.575  10
   1  -2   0 4649.75 151.864   4
  -1   2   0 4539.77 116.573   8
  -1   2   0 4526.09 76.1131   4
  -1   2   0 4477.36 141.398  10
  -1   2   0 4488.19 111.487   2
  -1   2   0 4551.10 139.740   1
  -1   2   0 4759.85 148.010   6
   0  -2   0 4140.34 103.753   2
   0  -2   0 4170.27 137.078   1
   0  -2   0 4169.50 161.986   6
   0   2   0 4174.83 123.674  10
   0   2   0 4009.59 100.764   2
   0   2   0 4220.80 131.680   7
   0   2   0 4178.34 130.609   1
   0   2   0 4154.11 115.121   8
   0   2   0 4143.48 111.923   4
   0   2   0 4252.77 185.795   6
  -1  -2   0 2742.85 85.2594   4
  -1  -2   0 2584.59 88.1336   7
  -1  -2   0 2565.61 95.1166   1
  -1  -2   0 2703.07 93.9725  10
  -1  -2   0 2783.94 84.2741   2
  -1  -2   0 2698.25 109.946   3
  -1  -2   0 2606.95 89.5102   6
  -1  -2   0 2744.64 91.1086   8
   1   2   0 2662.63 110.663   7
   1   2   0 2586.53 81.6730   2
   1   2   0 2593.32 75.6582  10
   1   2   0 2666.02 92.3842   4
   1   2   0 2674.66 111.404   6
   1   2   0 2593.53 71.6065   8
  -2  -2   0 1721.58 44.9265  10
  -2  -2   0 1698.60 55.6978   3
  -2  -2   0 1715.94 43.4872   8
  -2  -2   0 1694.90 44.4203   4
  -2  -2   0 1691.52 63.3133   2
  -2  -2   0 1681.49 55.3846   6
  -2  -2   0 1676.72 61.5432   7
  -2  -2   0 1676.65 40.7859   9
   2   2   0 1628.79 53.0376   3
   2   2   0 1671.40 32.4449  10
   2   2   0 1678.79 29.4683   8
   2   2   0 1737.91 69.5720   7
   2   2   0 1673.50 29.9022   4
   2   2   0 1743.76 70.0619   6
  -3  -2   0 2142.89 71.8407   3
  -3  -2   0 2200.24 95.0118  10
  -3  -2   0 2152.73 37.7226   9
  -3  -2   0 2248.09 55.8935   6
  -3  -2   0 2200.54 88.7295   8
  -3  -2   0 2172.39 32.2191   7
  -3  -2   0 2179.01 40.9491   4
   3   2   0 2111.40 46.9378   4
   3   2   0 2050.47 64.9558   7
   3   2   0 2146.11 39.8300   8
   3   2   0 2100.51 42.6777  10
   3   2   0 2108.86 68.9301   3
  -4  -2   0 2450.32 61.6601   8
  -4  -2   0 2537.28 89.9426   7
  -4  -2   0 2450.54 57.2809   4
  -4  -2   0 2454.30 95.8286   5
  -4  -2   0 2399.28 58.9463  10
  -4  -2   0 2435.91 78.1338   3
  -4  -2   0 2460.84 41.9286   9
   4   2   0 2437.42 100.072   9
   4   2   0 2373.87 36.0725   8
   4   2   0 2310.14 52.3646   3
   4   2   0 2370.36 36.2963  10
   4   2   0 2389.57 39.6752   4
  -5  -2   0 829.236 32.5841   8
  -5  -2   0 823.558 28.5039   7
  -5  -2   0 808.477 26.7754   9
  -5  -2   0 811.151 27.2267   4
  -5  -2   0 791.361 33.2728  10
  -5  -2   0 829.701 19.2495   5
  -5  -2   0 810.250 16.9722   1
  -5  -2   0 816.512 17.2659   3
   5   2   0 789.630 13.5415   8
   5   2   0 793.401 34.5970   9
   5   2   0 802.614 18.9151   4
   5   2   0 794.311 30.5583   3
   5   2   0 784.755 13.8080  10
  -6  -2   0 1692.34 85.3328   9
  -6  -2   0 1721.17 55.0883   3
  -6  -2   0 1711.49 24.6945   1
  -6  -2   0 1694.29 71.7705   5
   6   2   0 1646.28 50.3977  10
   6   2   0 1619.35 45.7912   8
   6   2   0 1656.02 70.4720   9
   6   2   0 1586.23 64.3838   3
   6   2   0 1653.74 46.9952   4
  -7  -2   0 1321.27 72.6133   3
  -7  -2   0 1311.39 63.8698   1
  -7  -2   0 1353.85 58.0249   5
  -7  -2   0 1393.05 33.9235   9
   7   2   0 1294.04 33.8423   9
   7   2   0 1304.21 46.7997   3
   7   2   0 1268.17 32.3709  10
   7   2   0 1263.62 28.2699   4
   7   2   0 1277.71 31.2018   8
  -8  -2   0 445.145 26.0167   3
  -8  -2   0 457.227 14.9838   1
   8   2   0 439.684 13.0815   8
   8   2   0 420.298 13.3550  10
   8   2   0 436.669 14.1906   4
  -9  -2   0 402.101 14.4631   1
  -9  -2   0 367.978 26.3199   3
   9   2   0 387.741 15.5356   4
   9   2   0 370.004 18.3899   8
   9   2   0 363.108 17.9374  10
 -10  -2   0 115.708 6.89025   1
  10   2   0 113.727 18.8583  10
  10   2   0 116.099 17.9890   8
 -11  -2   0 26.0943 6.74162   1
  11   2   0 30.4174 5.07202  10
  11   2   0 28.1161 4.84875   8
 -12  -2   0 49.9540 30.4016   1
  12   2   0 45.4821 6.30155  10
  12   2   0 49.8000 6.04477   8
  10  -3   0 47.7405 5.74668  10
  10  -3   0 67.3097 5.90690   8
 -10   3   0 62.2217 8.15898   1
 -10   3   0 53.6789 5.49750   6
   9  -3   0 155.535 7.99480  10
   9  -3   0 141.647 6.75778   8
  -9   3   0 149.601 8.51926   1
  -9   3   0 148.130 8.07223   6
   8  -3   0 70.1936 5.05710  10
   8  -3   0 88.7958 3.58586   9
   8  -3   0 78.3422 4.97310   8
   8  -3   0 88.2811 5.01927   5
  -8   3   0 79.9750 5.13698   6
  -8   3   0 82.8340 5.53725   1
   7  -3   0 430.549 11.8049   8
   7  -3   0 436.554 14.9469  10
   7  -3   0 443.359 10.9468   5
  -7   3   0 438.745 20.5451   1
  -7   3   0 455.044 13.8775   6
   6  -3   0 1004.90 39.3585  10
   6  -3   0 1004.10 31.1756   4
   6  -3   0 956.764 53.2843   3
   6  -3   0 990.923 38.2133   8
   6  -3   0 991.872 23.7840   5
  -6   3   0 978.837 30.0806   1
  -6   3   0 1033.80 36.6335   6
   5  -3   0 487.017 18.0006  10
   5  -3   0 479.314 11.4975   4
   5  -3   0 461.945 13.3328   5
   5  -3   0 464.872 13.7391   8
   5  -3   0 481.171 20.6373   3
  -5   3   0 492.013 11.7642   6
  -5   3   0 481.428 26.7160   1
   4  -3   0 1005.29 19.8014   3
   4  -3   0 981.927 32.9901   5
   4  -3   0 1035.15 39.1697   1
   4  -3   0 1045.35 40.1541  10
   4  -3   0 1035.96 15.7283   4
   4  -3   0 1030.15 39.3654   8
   4  -3   0 985.755 32.2730   2
  -4   3   0 1058.07 46.3476   8
  -4   3   0 1037.74 17.9230   1
  -4   3   0 1045.85 18.4248   6
  -4   3   0 1047.74 54.1682  10
  -4   3   0 1006.12 60.6894   4
   3  -3   0 3219.59 87.1351   8
   3  -3   0 3244.03 67.7749   1
   3  -3   0 3197.42 83.6073   4
   3  -3   0 3140.53 69.5359   2
   3  -3   0 3224.55 88.8302   3
   3  -3   0 3152.63 88.0471  10
   3  -3   0 3124.70 94.0621   5
  -3   3   0 3170.36 57.1643   6
  -3   3   0 3174.55 89.7476   8
  -3   3   0 3235.91 113.974   2
  -3   3   0 3180.11 95.5351  10
  -3   3   0 3184.50 97.0612   4
  -3   3   0 3129.74 48.1930   1
   2  -3   0 1194.61 34.0889   4
   2  -3   0 1220.12 36.8332   2
   2  -3   0 1213.38 22.2189   6
   2  -3   0 1219.11 31.5293   1
   2  -3   0 1196.89 31.5017  10
   2  -3   0 1190.91 31.9400   8
  -2   3   0 1183.07 30.7930   8
  -2   3   0 1188.08 59.9347   4
  -2   3   0 1227.85 21.6100   6
  -2   3   0 1204.31 34.4881  10
  -2   3   0 1215.36 29.7056   1
  -2   3   0 1192.68 17.3044   2
   1  -3   0 2192.45 63.0521   8
   1  -3   0 2171.66 68.9643   6
   1  -3   0 2197.42 51.5599   2
   1  -3   0 2198.66 65.3829  10
   1  -3   0 2157.86 72.8963   1
   1  -3   0 2215.07 72.3215   4
  -1   3   0 2217.30 115.781   6
  -1   3   0 2165.16 86.0303   1
  -1   3   0 2147.13 67.8317   8
  -1   3   0 2173.57 82.6885   4
  -1   3   0 2120.19 78.6625   2
  -1   3   0 2159.71 67.3780  10
   0  -3   0 4949.87 97.3712   2
   0  -3   0 4782.09 227.921   6
   0  -3   0 4676.56 158.275   1
   0   3   0 4770.06 183.933   1
   0   3   0 4880.13 131.725   7
   0   3   0 4649.65 120.503   4
   0   3   0 4924.80 108.429   6
   0   3   0 4690.28 136.999   2
  -1  -3   0 1587.97 37.2994   2
  -1  -3   0 1608.99 46.3954   6
  -1  -3   0 1623.44 48.6906   7
  -1  -3   0 1600.69 57.2584   3
  -1  -3   0 1621.93 55.5936   1
  -1  -3   0 1592.40 41.6382   4
   1   3   0 1505.30 53.5966   2
   1   3   0 1603.24 47.3047   1
   1   3   0 1569.31 72.2384  10
   1   3   0 1566.85 43.0758   7
   1   3   0 1562.98 61.5790   8
   1   3   0 1588.45 74.7345   6
  -2  -3   0 796.041 23.2194   2
  -2  -3   0 794.401 25.5602   6
  -2  -3   0 799.054 27.3832   7
  -2  -3   0 826.303 25.7597   4
  -2  -3   0 799.341 23.6962  10
  -2  -3   0 810.675 26.0525   3
  -2  -3   0 820.960 23.0398   8
   2   3   0 794.247 19.4944   6
   2   3   0 795.836 18.4574   4
   2   3   0 822.173 26.8095   7
   2   3   0 800.489 25.6262   2
   2   3   0 783.015 14.5642   8
   2   3   0 781.080 14.8000  10
  -3  -3   0 3176.43 79.6730  10
  -3  -3   0 3241.64 103.955   9
  -3  -3   0 3115.11 79.8995   7
  -3  -3   0 3225.42 72.2341   6
  -3  -3   0 3092.96 82.2612   2
  -3  -3   0 3222.23 74.1331   8
  -3  -3   0 3274.74 58.1410   4
  -3  -3   0 3163.13 115.877   3
   3   3   0 3096.53 76.0397   4
   3   3   0 3230.89 111.391   7
   3   3   0 3117.13 45.1906   8
   3   3   0 3098.84 44.5354  10
   3   3   0 3084.84 47.9292   3
  -4  -3   0 802.608 24.1849   2
  -4  -3   0 843.718 27.0708   8
  -4  -3   0 843.594 23.0570   3
  -4  -3   0 865.882 17.8503   4
  -4  -3   0 771.396 32.5002   7
  -4  -3   0 835.504 21.3529   6
  -4  -3   0 841.182 15.7521   9
  -4  -3   0 865.570 29.2734  10
   4   3   0 825.306 12.1958   8
   4   3   0 811.201 14.0197   4
   4   3   0 836.859 11.6633   3
   4   3   0 865.327 22.5864   7
   4   3   0 828.599 14.0260  10
  -5  -3   0 1241.72 33.5630   9
  -5  -3   0 1248.69 46.3961   7
  -5  -3   0 1273.46 50.0816   4
  -5  -3   0 1295.49 36.3165   3
  -5  -3   0 1231.63 32.0936   5
  -5  -3   0 1285.87 62.4233  10
  -5  -3   0 1276.74 50.6082   6
  -5  -3   0 1270.79 61.0744   8
   5   3   0 1206.43 23.3811   3
   5   3   0 1275.17 28.6608   7
   5   3   0 1223.33 23.2358  10
   5   3   0 1204.60 22.1360   8
   5   3   0 1192.42 18.8489   4
  -6  -3   0 1519.52 51.1578   3
  -6  -3   0 1433.01 20.1110   1
  -6  -3   0 1445.86 44.0500   9
  -6  -3   0 1443.91 63.5832   5
   6   3   0 1374.47 42.0201   8
   6   3   0 1410.11 62.8865   3
   6   3   0 1405.98 37.6207   4
   6   3   0 1394.21 37.1308  10
  -7  -3   0 144.868 8.85899   1
  -7  -3   0 138.999 5.30604   3
  -7  -3   0 131.174 8.28570   9
  -7  -3   0 156.524 6.31414   5
   7   3   0 147.804 5.54787   4
   7   3   0 142.688 5.11405   8
   7   3   0 123.084 5.39148  10
  -8  -3   0 677.831 25.5197   1
  -8  -3   0 697.922 35.4896   3
   8   3   0 697.298 26.9059  10
   8   3   0 698.690 25.0602   8
   8   3   0 648.610 24.1063   4
  -9  -3   0 51.2920 4.73842   1
  -9  -3   0 39.0377 4.30614   3
   9   3   0 43.9807 4.19835  10
   9   3   0 47.2747 4.07198   8
 -10  -3   0 68.6920 6.91317   1
 -10  -3   0 47.3121 4.94539   3
  10   3   0 61.8596 5.27544  10
  10   3   0 53.3848 4.80459   8
 -11  -3   0 131.338 9.73346   1
  11   3   0 124.651 9.00768  10
  11   3   0 121.380 7.61854   8
 -12  -3   0 16.9784 5.71263   1
  12   3   0 27.5940 7.48507  10
  12   3   0 14.7535 6.98740   8
  10  -4   0 79.0180 6.45713   8
  10  -4   0 81.6369 6.70623  10
 -10   4   0 66.6527 7.72328   6
 -10   4   0 74.9306 9.16272   1
   9  -4   0 27.3746 4.67281  10
   9  -4   0 23.8377 4.29412   8
  -9   4   0 23.3562 4.88343   1
  -9   4   0 27.0245 6.09323   6
   8  -4   0 150.996 6.72646  10
   8  -4   0 163.849 8.26229   9
   8  -4   0 164.230 11.0563   5
   8  -4   0 154.395 6.74896   8
  -8   4   0 148.721 12.2992   6
  -8   4   0 174.584 8.92638   1
   7  -4   0 669.882 23.3828  10
   7  -4   0 698.931 22.7705   8
   7  -4   0 688.733 19.9460   5
  -7   4   0 678.721 51.8332   1
  -7   4   0 732.370 51.3562   6
   6  -4   0 109.459 4.99647   5
   6  -4   0 98.0894 5.11507  10
   6  -4   0 104.091 5.05617   3
   6  -4   0 102.490 4.92868   8
   6  -4   0 114.357 6.66937   3
  -6   4   0 107.815 5.63304   6
  -6   4   0 107.636 7.39922   1
   5  -4   0 536.064 13.8314   8
   5  -4   0 533.991 13.2545  10
   5  -4   0 502.678 13.0291   2
   5  -4   0 503.763 28.8285   3
   5  -4   0 519.422 11.5097   5
  -5   4   0 507.551 13.7890   6
  -5   4   0 538.809 15.1359   1
   4  -4   0 562.888 21.1510   3
   4  -4   0 523.355 17.5665   2
   4  -4   0 595.231 10.3160   4
   4  -4   0 546.192 16.3525   5
   4  -4   0 542.376 22.0543  10
   4  -4   0 548.513 19.8433   8
  -4   4   0 581.709 28.6951   4
  -4   4   0 571.668 23.4334   8
  -4   4   0 574.988 25.7375  10
  -4   4   0 595.071 15.2905   1
  -4   4   0 561.816 12.3206   6
   3  -4   0 1022.64 25.0153   8
   3  -4   0 1018.10 21.1423   5
   3  -4   0 1037.09 24.8431   1
   3  -4   0 1014.11 30.4398  10
   3  -4   0 1011.96 38.8618   6
   3  -4   0 993.476 28.7018   2
   3  -4   0 1049.36 26.8764   4
  -3   4   0 1003.39 34.4140   8
  -3   4   0 1002.73 55.6927   1
  -3   4   0 1034.51 37.9456  10
  -3   4   0 1005.81 19.1469   6
  -3   4   0 998.825 43.1395   2
  -3   4   0 1027.57 48.0447   4
   2  -4   0 1486.41 42.0189  10
   2  -4   0 1496.87 39.1185   8
   2  -4   0 1505.27 29.5313   2
   2  -4   0 1467.73 59.8469   6
   2  -4   0 1524.94 41.0173   1
  -2   4   0 1502.07 44.8613   6
  -2   4   0 1506.12 40.0628   8
  -2   4   0 1491.77 42.2870   4
  -2   4   0 1520.11 22.5266   1
  -2   4   0 1525.24 41.7557  10
  -2   4   0 1479.90 40.1292   2
   1  -4   0 1404.45 33.8563   2
   1  -4   0 1462.85 34.5531   6
   1  -4   0 1389.07 35.0355   8
   1  -4   0 1386.85 36.2917  10
   1  -4   0 1395.19 34.1268   1
  -1   4   0 1394.61 52.8242   4
  -1   4   0 1404.39 31.6170   8
  -1   4   0 1389.54 34.3125  10
  -1   4   0 1376.44 39.0798   1
  -1   4   0 1384.20 28.9267   2
  -1   4   0 1407.32 29.8193   6
   0  -4   0 217.878 6.29208   2
   0  -4   0 224.190 7.49596   3
   0  -4   0 235.972 10.4940   6
   0  -4   0 216.370 6.28233   1
   0   4   0 207.189 6.63874   2
   0   4   0 234.182 5.46582   6
   0   4   0 209.521 4.11802   1
   0   4   0 215.393 5.46401   4
   0   4   0 223.261 4.84936   7
  -1  -4   0 1156.52 18.0391   2
  -1  -4   0 1146.25 29.4011   7
  -1  -4   0 1188.52 34.4061   3
  -1  -4   0 1152.85 34.4633   6
  -1  -4   0 1170.74 31.3353   1
   1   4   0 1171.00 57.2435   7
   1   4   0 1181.32 57.9834   1
   1   4   0 1177.69 42.4499   2
   1   4   0 1202.66 26.0955   6
  -2  -4   0 1161.51 28.7652   4
  -2  -4   0 1149.31 32.0677   3
  -2  -4   0 1141.63 26.4334   2
  -2  -4   0 1147.59 32.7654   7
  -2  -4   0 1144.52 33.3067   6
  -2  -4   0 1167.99 38.9718   1
   2   4   0 1141.31 29.6063   7
   2   4   0 1093.41 35.2018  10
   2   4   0 1110.05 33.1573   8
   2   4   0 1115.23 30.0572   6
   2   4   0 1102.65 36.7373   2
  -3  -4   0 709.691 25.8597   6
  -3  -4   0 689.698 17.6411   2
  -3  -4   0 722.310 18.5309   4
  -3  -4   0 711.409 20.3146   8
  -3  -4   0 710.320 15.9826   9
  -3  -4   0 679.053 18.7756   7
  -3  -4   0 701.996 19.8460  10
  -3  -4   0 707.886 27.4134   3
   3   4   0 705.588 27.1848   6
   3   4   0 687.298 27.0007   7
   3   4   0 670.324 19.3522   4
   3   4   0 679.260 20.4616  10
   3   4   0 675.439 25.1073   2
   3   4   0 687.092 18.1715   8
  -4  -4   0 1257.96 42.6184  10
  -4  -4   0 1230.42 38.8626   7
  -4  -4   0 1229.84 65.1466   9
  -4  -4   0 1230.52 40.8510   6
  -4  -4   0 1241.63 30.7040   3
  -4  -4   0 1262.24 39.7939   4
  -4  -4   0 1257.76 28.6641   2
  -4  -4   0 1284.66 42.2664   8
   4   4   0 1190.49 26.6008  10
   4   4   0 1213.49 32.2848   8
   4   4   0 1227.73 34.5587   7
   4   4   0 1197.47 31.9167   4
  -5  -4   0 1264.88 57.6991   8
  -5  -4   0 1230.51 33.6779   9
  -5  -4   0 1227.71 56.2182  10
  -5  -4   0 1241.33 60.6893   4
  -5  -4   0 1235.81 32.8703   3
  -5  -4   0 1165.23 46.8791   2
   5   4   0 1231.19 47.1530   7
   5   4   0 1148.53 19.6563   4
   5   4   0 1191.95 38.3082   8
   5   4   0 1153.03 41.7292  10
  -6  -4   0 271.792 9.91316   2
  -6  -4   0 268.445 15.6116   8
  -6  -4   0 296.561 10.4648   3
  -6  -4   0 293.010 15.1210   9
  -6  -4   0 275.346 14.4381   4
  -6  -4   0 299.151 14.0729   5
  -6  -4   0 264.590 14.5179  10
   6   4   0 289.194 17.1095  10
   6   4   0 303.638 16.5812   4
   6   4   0 303.406 16.3526   8
   6   4   0 287.621 13.9277   7
  -7  -4   0 710.655 14.5434   1
  -7  -4   0 742.192 30.6410   5
  -7  -4   0 698.460 30.4355   9
  -7  -4   0 644.275 29.4975   2
  -7  -4   0 703.082 26.3341   3
   7   4   0 662.627 26.1768   4
   7   4   0 673.801 23.6245  10
   7   4   0 684.262 18.7683   8
  -8  -4   0 622.390 36.9966   1
  -8  -4   0 638.480 32.0401   3
  -8  -4   0 578.121 44.0570   2
   8   4   0 627.132 33.4105  10
   8   4   0 601.310 28.1132   8
   8   4   0 585.116 21.3127   4
  -9  -4   0 4.46935 4.38947   1
  -9  -4   0 -1.7739 3.63713   3
   9   4   0 -0.2394 3.74545   8
   9   4   0 -1.5010 3.88583  10
 -10  -4   0 246.615 14.9032   1
 -10  -4   0 216.242 16.2204   3
  10   4   0 225.433 12.2992  10
  10   4   0 221.196 12.2315   8
 -11  -4   0 38.3831 7.24181   1
  11   4   0 29.6024 6.06846   8
  11   4   0 37.6710 6.55048  10
 -12  -4   0 15.1451 8.46209   1
  12   4   0 12.8622 7.64283   8
  12   4   0 27.2493 7.51821  10
   9  -5   0 107.412 7.86858   8
   9  -5   0 112.236 8.15450  10
  -9   5   0 113.176 9.02447   1
  -9   5   0 99.0990 9.25411   6
   8  -5   0 68.0685 6.22317  10
   8  -5   0 64.6611 5.90854   8
  -8   5   0 56.2260 6.63313   6
  -8   5   0 58.6635 5.99137   1
   7  -5   0 73.0639 4.92786  10
   7  -5   0 78.2292 5.38781   5
   7  -5   0 79.8370 4.78404   8
  -7   5   0 72.7875 5.31091   6
  -7   5   0 80.4941 6.09972   1
   6  -5   0 206.634 18.1023   3
   6  -5   0 208.389 7.36609   8
   6  -5   0 207.923 7.41329   5
   6  -5   0 215.655 8.46646  10
  -6   5   0 194.757 7.50282   6
  -6   5   0 208.709 9.71996   1
   5  -5   0 332.539 11.2903   2
   5  -5   0 327.619 11.1196   5
   5  -5   0 331.788 10.3309  10
   5  -5   0 347.882 18.1575   3
   5  -5   0 329.145 21.8758   3
   5  -5   0 323.698 9.75165   8
  -5   5   0 326.408 11.6586   6
  -5   5   0 342.032 12.3161   1
   4  -5   0 175.616 8.74961   3
   4  -5   0 169.805 5.09706   5
   4  -5   0 181.380 6.41244  10
   4  -5   0 167.018 6.40409   2
   4  -5   0 176.449 8.60772   3
   4  -5   0 175.267 4.71855   8
  -4   5   0 185.438 10.1747   6
  -4   5   0 163.890 9.97176   4
  -4   5   0 157.756 8.06333  10
  -4   5   0 159.983 8.70016   8
  -4   5   0 170.870 6.07273   1
   3  -5   0 1009.18 28.3970  10
   3  -5   0 1051.60 27.3964   2
   3  -5   0 992.648 26.3533   8
   3  -5   0 1049.11 23.9895   3
   3  -5   0 1027.28 64.2837   1
   3  -5   0 1009.78 21.3831   5
  -3   5   0 1004.75 24.5868   1
  -3   5   0 1015.75 26.8363   6
  -3   5   0 1049.83 40.7652   8
  -3   5   0 1071.56 48.0569   4
  -3   5   0 1059.52 39.1457  10
   2  -5   0 378.500 12.1742  10
   2  -5   0 380.867 9.76563   2
   2  -5   0 397.872 13.1746   1
   2  -5   0 408.783 10.7083   3
   2  -5   0 399.184 10.9320   8
  -2   5   0 370.236 17.5539  10
  -2   5   0 377.022 10.2910   1
  -2   5   0 375.489 21.7121   2
  -2   5   0 373.307 10.7561   6
  -2   5   0 385.632 17.8324   4
  -2   5   0 369.968 17.0740   8
   1  -5   0 338.494 7.20209   8
   1  -5   0 325.122 8.74761   1
   1  -5   0 340.273 13.3600   6
   1  -5   0 335.012 7.59811  10
   1  -5   0 341.683 8.29260   2
   1  -5   0 322.733 8.97372   3
  -1   5   0 321.410 6.92603   7
  -1   5   0 320.755 7.68582   1
  -1   5   0 338.127 8.37827   4
  -1   5   0 325.921 12.9938   6
  -1   5   0 340.862 12.7257   8
  -1   5   0 335.597 10.7626   2
  -1   5   0 341.052 13.3930  10
   0  -5   0 1296.89 39.7892   1
   0  -5   0 1337.21 31.0582   6
   0  -5   0 1302.66 40.0374   3
   0  -5   0 1268.58 41.5878   2
   0   5   0 1237.03 31.0762   2
   0   5   0 1295.17 27.3501   6
   0   5   0 1250.23 54.3177   1
   0   5   0 1335.83 31.8134   7
  -1  -5   0 1370.54 36.2941   3
  -1  -5   0 1355.15 28.8433   2
  -1  -5   0 1365.98 40.9771   6
  -1  -5   0 1331.77 39.0423   1
   1   5   0 1342.47 30.2789   6
   1   5   0 1324.43 34.2604   7
   1   5   0 1349.00 29.1904   1
   1   5   0 1324.54 29.2168   2
  -2  -5   0 807.527 20.7734   2
  -2  -5   0 805.180 20.5514   1
  -2  -5   0 805.384 28.5439   7
  -2  -5   0 809.725 22.0241   4
  -2  -5   0 823.343 30.1847   6
  -2  -5   0 803.760 17.5433   3
   2   5   0 764.608 39.4846   2
   2   5   0 811.156 36.7111   6
   2   5   0 782.259 31.5228   7
  -3  -5   0 1129.57 26.7119   2
  -3  -5   0 1165.31 56.7893   7
  -3  -5   0 1135.90 71.5961   6
  -3  -5   0 1178.86 45.4905   9
  -3  -5   0 1116.38 23.7197   3
  -3  -5   0 1136.89 51.1732   1
  -3  -5   0 1173.92 23.2677   4
   3   5   0 1076.26 30.6720   8
   3   5   0 1052.41 29.4692  10
   3   5   0 1090.48 41.5871   6
   3   5   0 1055.36 49.9953   2
   3   5   0 1130.65 44.5614   7
  -4  -5   0 714.521 42.4495   9
  -4  -5   0 763.668 32.0419   4
  -4  -5   0 734.486 24.3453   3
  -4  -5   0 726.115 20.2950   2
  -4  -5   0 753.853 34.9707  10
  -4  -5   0 747.930 31.5267   8
   4   5   0 723.612 38.0261   6
   4   5   0 717.342 28.1599   8
   4   5   0 718.327 29.6460  10
   4   5   0 724.977 32.2064   7
  -5  -5   0 680.489 38.6848  10
  -5  -5   0 696.534 40.9008   4
  -5  -5   0 614.808 23.2242   2
  -5  -5   0 708.398 29.0410   9
  -5  -5   0 690.135 17.5642   3
  -5  -5   0 685.235 38.3507   8
   5   5   0 672.659 24.0001   8
   5   5   0 674.879 22.5724  10
   5   5   0 708.657 26.4306   7
  -6  -5   0 609.013 37.4102  10
  -6  -5   0 607.912 30.8396   4
  -6  -5   0 601.457 28.1729   9
  -6  -5   0 580.508 32.0136   2
  -6  -5   0 602.303 26.0631   3
  -6  -5   0 604.666 37.0329   8
   6   5   0 603.568 28.0292  10
   6   5   0 583.553 25.6459   8
   6   5   0 607.791 45.9625   7
  -7  -5   0 308.515 27.2949   5
  -7  -5   0 333.675 14.9601   3
  -7  -5   0 326.950 19.6850   2
  -7  -5   0 309.661 20.5067   9
   7   5   0 350.467 13.5674   8
   7   5   0 335.322 14.7313  10
   7   5   0 362.519 21.3054   7
  -8  -5   0 99.0779 7.19865   2
  -8  -5   0 101.062 6.58603   1
  -8  -5   0 98.9973 6.08301   3
   8   5   0 117.175 5.86486  10
   8   5   0 103.721 5.26482   8
  -9  -5   0 36.4527 4.43137   2
  -9  -5   0 39.2323 4.44980   1
   9   5   0 56.6969 5.20422  10
 -10  -5   0 66.2532 5.97210   1
 -10  -5   0 61.7615 6.84350   3
  10   5   0 66.0354 5.96682   8
  10   5   0 56.0599 6.18352  10
 -11  -5   0 12.5151 5.17239   1
  11   5   0 20.0237 4.38713   8
  11   5   0 22.7598 4.74432  10
   9  -6   0 22.4940 14.0036   8
   9  -6   0 21.1739 10.4508  10
  -9   6   0 37.7333 8.40047   6
  -9   6   0 32.7373 12.3572   1
   8  -6   0 6.75427 4.95804   8
   8  -6   0 5.95187 5.28432  10
  -8   6   0 14.4406 5.27290   1
  -8   6   0 10.6830 6.65015   6
   7  -6   0 222.368 10.9449   5
   7  -6   0 222.221 10.6524  10
   7  -6   0 227.713 11.0669   8
  -7   6   0 223.692 12.2196   6
  -7   6   0 207.946 14.3619   1
   6  -6   0 72.4769 4.91634   5
   6  -6   0 69.3080 5.24632   8
   6  -6   0 74.7198 5.44299  10
  -6   6   0 80.7456 7.03179   1
  -6   6   0 76.2178 5.42873   6
   5  -6   0 100.096 3.88751   3
   5  -6   0 76.3673 4.27570   8
   5  -6   0 90.7120 5.32073   2
   5  -6   0 91.5820 4.91050   5
   5  -6   0 75.9746 4.39080  10
  -5   6   0 98.8882 5.54780   6
  -5   6   0 90.5833 5.95673   1
   4  -6   0 429.452 15.1221   2
   4  -6   0 421.384 10.7493   8
   4  -6   0 414.891 10.7017  10
   4  -6   0 439.981 16.4924   3
   4  -6   0 422.786 14.6425   5
   4  -6   0 413.164 37.4540   3
  -4   6   0 410.154 25.1869   4
  -4   6   0 407.060 31.8599  10
  -4   6   0 422.595 18.7174   1
  -4   6   0 416.158 22.9027   6
  -4   6   0 405.844 31.1653   8
   3  -6   0 235.254 8.33106  10
   3  -6   0 230.877 7.04225   2
   3  -6   0 242.888 6.85421   8
   3  -6   0 236.290 7.74013   3
   3  -6   0 242.290 7.36329   5
  -3   6   0 241.351 10.3023   1
  -3   6   0 231.345 9.88956  10
  -3   6   0 235.617 13.5974   4
  -3   6   0 204.610 10.5764   6
  -3   6   0 241.814 10.9454   8
   2  -6   0 169.362 6.34480   2
   2  -6   0 166.728 5.54956  10
   2  -6   0 178.723 5.91803   3
   2  -6   0 160.708 5.22822   8
  -2   6   0 168.564 7.43443   6
  -2   6   0 179.707 17.8933   1
  -2   6   0 167.815 9.00675   4
  -2   6   0 155.842 8.88941   8
  -2   6   0 163.827 10.5356  10
   1  -6   0 572.699 15.2719   2
   1  -6   0 598.546 12.5296   3
   1  -6   0 577.912 27.9322   1
  -1   6   0 569.573 25.6966   7
  -1   6   0 589.015 23.9455   6
  -1   6   0 579.630 21.0848   4
  -1   6   0 580.032 33.3244   1
   0  -6   0 715.001 13.8391   2
   0  -6   0 693.849 18.9609   3
   0  -6   0 696.866 26.0566   1
   0   6   0 706.383 24.9210   7
   0   6   0 704.766 35.8918   2
   0   6   0 706.278 22.4592   6
   0   6   0 666.404 27.6337   1
  -1  -6   0 319.928 16.1627   1
  -1  -6   0 341.809 13.1286   3
  -1  -6   0 343.189 9.15721   2
   1   6   0 334.807 8.36601   1
   1   6   0 317.143 20.0152   7
   1   6   0 338.626 15.3350   2
   1   6   0 344.246 14.7378   6
  -2  -6   0 732.175 20.4206   2
  -2  -6   0 740.992 29.6212   1
  -2  -6   0 734.164 29.2883   3
   2   6   0 728.754 32.9681   2
   2   6   0 730.354 31.1206   6
   2   6   0 729.844 27.6635   7
  -3  -6   0 177.781 7.10827   3
  -3  -6   0 191.473 7.70197   2
  -3  -6   0 170.297 9.25709   1
  -3  -6   0 183.342 4.66095   4
   3   6   0 149.483 5.39461   8
   3   6   0 164.637 8.61346   7
   3   6   0 144.849 5.45748  10
   3   6   0 180.980 6.91084   2
   3   6   0 183.039 8.80427   6
  -4  -6   0 280.522 24.2822   1
  -4  -6   0 290.504 10.8556   2
  -4  -6   0 289.688 10.3054   3
  -4  -6   0 295.096 11.5110   4
   4   6   0 293.456 15.9574   7
   4   6   0 308.492 32.4200   8
   4   6   0 318.625 34.2390  10
   4   6   0 288.263 13.7203   2
   4   6   0 289.115 16.4928   6
  -5  -6   0 707.901 53.7172   8
  -5  -6   0 710.899 30.3132   3
  -5  -6   0 704.989 39.1307   4
  -5  -6   0 684.797 56.2428  10
  -5  -6   0 690.780 29.8248   2
   5   6   0 699.770 28.2436   8
   5   6   0 681.905 27.2111  10
   5   6   0 685.837 32.1290   7
  -6  -6   0 115.890 7.80194  10
  -6  -6   0 105.817 8.92058   4
  -6  -6   0 108.024 5.87989   2
  -6  -6   0 107.428 5.53739   3
  -6  -6   0 110.963 6.17318   8
   6   6   0 119.859 4.95190  10
   6   6   0 122.737 5.21927   8
   6   6   0 118.834 8.54439   7
  -7  -6   0 79.0062 5.15440   2
  -7  -6   0 84.0326 5.89824   3
   7   6   0 98.0960 4.96870   8
   7   6   0 83.9301 7.77890   7
   7   6   0 102.396 5.76754  10
  -8  -6   0 109.232 7.33060   1
  -8  -6   0 112.008 7.93254   3
  -8  -6   0 99.7144 8.16903   2
   8   6   0 113.885 5.85946  10
   8   6   0 105.247 5.78892   8
  -9  -6   0 -3.1844 3.32793   1
  -9  -6   0 -0.0301 3.54478   3
   9   6   0 1.91186 5.75343   8
   9   6   0 6.01292 6.18954  10
 -10  -6   0 62.6792 7.31624   3
 -10  -6   0 53.5507 6.85046   1
  10   6   0 64.7461 5.97053   8
  10   6   0 56.8921 6.16007  10
 -11  -6   0 40.0360 5.83206   3
 -11  -6   0 39.6471 7.93309   1
  11   6   0 58.9398 6.72537   8
  -8   7   0 34.6904 8.22539   6
  -8   7   0 51.6346 8.49201   1
   7  -7   0 13.7014 3.47513   8
   7  -7   0 23.3978 5.98820   5
   7  -7   0 12.1890 3.61648  10
  -7   7   0 22.6006 5.06174   1
  -7   7   0 29.5739 5.48805   6
   6  -7   0 5.24671 2.67919   8
   6  -7   0 6.33041 4.03757   5
   6  -7   0 5.02300 2.80626  10
  -6   7   0 10.3731 5.76812   6
  -6   7   0 7.09465 3.98832   1
   5  -7   0 79.4031 5.61211  10
   5  -7   0 68.0202 5.60855   3
   5  -7   0 70.2890 5.26092   2
   5  -7   0 86.8440 6.22579   5
   5  -7   0 77.0560 4.70922   8
  -5   7   0 73.3016 6.57737   6
  -5   7   0 81.6051 6.87133   1
   4  -7   0 20.5353 2.88908   3
   4  -7   0 18.3214 3.37197   2
   4  -7   0 16.4934 2.57732   8
   4  -7   0 11.7710 2.58840  10
   4  -7   0 21.8675 3.97529   5
  -4   7   0 14.6148 4.40584   1
  -4   7   0 12.6241 3.63766   6
   3  -7   0 11.8508 4.17321   5
   3  -7   0 11.0604 2.86591   2
   3  -7   0 9.27233 2.71008   3
   3  -7   0 6.55274 1.86165  10
   3  -7   0 9.59993 1.83753   8
  -3   7   0 11.5475 3.31725   6
  -3   7   0 11.3285 2.49588   4
  -3   7   0 10.9329 3.83479   1
   2  -7   0 534.204 23.8169   3
   2  -7   0 542.476 11.7153   2
  -2   7   0 529.632 21.7902   4
  -2   7   0 515.459 29.5979   7
  -2   7   0 528.093 20.3557   1
  -2   7   0 537.015 25.5739   6
   1  -7   0 83.9541 4.74471   3
   1  -7   0 75.9291 19.5713   2
  -1   7   0 82.9216 3.00937   4
  -1   7   0 79.7739 5.05070   1
  -1   7   0 77.8945 5.26827   7
  -1   7   0 77.3723 4.77749   6
   0  -7   0 125.770 5.76800   3
   0  -7   0 125.505 6.25316   2
   0   7   0 116.325 6.96845   1
   0   7   0 111.576 9.25266   7
   0   7   0 124.929 9.66047   6
  -1  -7   0 671.852 26.5078   3
  -1  -7   0 623.578 22.4778   2
  -1  -7   0 584.397 33.5692   1
   1   7   0 641.533 85.8674   7
   1   7   0 626.018 33.8476   2
   1   7   0 646.969 90.1555   6
   1   7   0 589.235 25.2575   1
  -2  -7   0 4.72659 2.20885   2
  -2  -7   0 5.68814 3.24214   3
  -2  -7   0 3.95166 1.91321   1
   2   7   0 1.91201 2.37370   7
   2   7   0 4.78694 2.26561   2
   2   7   0 5.95005 2.78242   6
  -3  -7   0 201.029 9.01494   2
  -3  -7   0 205.080 6.90173   3
   3   7   0 217.873 14.2429   2
   3   7   0 191.453 10.4655   6
   3   7   0 191.616 11.6861   7
  -4  -7   0 519.970 19.3607   4
  -4  -7   0 508.422 24.8249   2
  -4  -7   0 501.502 20.1747   3
   4   7   0 455.504 27.7045   7
   4   7   0 491.934 25.0525   6
   4   7   0 416.242 28.4224   2
  -5  -7   0 156.358 10.1545   3
  -5  -7   0 160.238 8.25530   2
  -5  -7   0 153.811 8.69895   4
   5   7   0 160.487 9.53176   7
   5   7   0 176.435 9.44391  10
   5   7   0 177.900 12.3118   6
   5   7   0 175.310 8.45988   8
  -6  -7   0 19.3359 2.69477   2
  -6  -7   0 21.5038 3.81589   3
   6   7   0 29.6124 2.47505  10
   6   7   0 21.8495 3.77463   7
   6   7   0 29.7531 2.31420   8
  -7  -7   0 181.886 12.7094   2
  -7  -7   0 181.403 11.2375   3
   7   7   0 205.812 10.1193   8
   7   7   0 192.115 10.3957  10
   7   7   0 189.538 12.9109   7
  -8  -7   0 10.9653 5.42287   3
   8   7   0 21.6911 3.63700   8
   8   7   0 10.8852 5.67563   7
   8   7   0 21.7328 3.76622  10
  -9  -7   0 60.4037 6.38682   3
  -9  -7   0 58.2166 5.67711   1
   9   7   0 65.3674 5.47002   8
   9   7   0 72.6009 6.43591  10
 -10  -7   0 56.8762 6.23285   1
 -10  -7   0 49.6072 6.69154   3
  10   7   0 66.7563 5.65912  10
  10   7   0 68.4689 5.72723   8
 -11  -7   0 12.8476 7.66307   1
 -11  -7   0 25.8650 8.42149   3
  11   7   0 18.7431 5.84157   8
  11   7   0 18.7882 6.24589  10
  -7   8   0 8.41610 7.73544   6
  -7   8   0 1.83022 5.39734   1
   6  -8   0 35.0930 5.59114   5
  -6   8   0 40.7770 5.57079   1
  -6   8   0 36.8767 6.00114   6
   5  -8   0 9.62426 5.35548   2
   5  -8   0 12.1883 4.47493   5
  -5   8   0 10.9390 5.71813   1
  -5   8   0 8.82193 4.44364   6
   4  -8   0 3.94630 2.86810   3
   4  -8   0 7.54990 4.20418   5
   4  -8   0 5.04442 4.42269   2
  -4   8   0 9.47490 3.77717   1
  -4   8   0 4.21222 5.46672   6
   3  -8   0 127.751 5.86230   3
   3  -8   0 100.908 6.98697   2
   3  -8   0 109.658 6.50632   5
  -3   8   0 108.197 7.20463   7
  -3   8   0 99.5017 6.93094   6
  -3   8   0 105.529 7.81470   1
   2  -8   0 38.7606 3.49382   3
   2  -8   0 35.5216 4.54084   2
  -2   8   0 44.3547 5.94801   7
  -2   8   0 38.1152 5.60605   6
  -2   8   0 36.7393 5.94588   1
   1  -8   0 105.687 5.56597   2
   1  -8   0 113.233 6.30769   3
  -1   8   0 95.7410 6.50135   7
  -1   8   0 105.891 7.61205   6
  -1   8   0 109.062 7.01112   1
   0  -8   0 182.088 11.9912   3
   0  -8   0 168.194 6.24130   2
   0   8   0 212.389 130.517   1
   0   8   0 164.502 10.0981   7
   0   8   0 150.559 9.64528   6
  -1  -8   0 133.783 5.90056   3
  -1  -8   0 142.154 6.44247   2
   1   8   0 125.316 7.40808   6
   1   8   0 125.083 7.69633   7
   1   8   0 124.870 7.14640   1
  -2  -8   0 59.9054 3.99717   2
  -2  -8   0 49.5898 5.00848   3
   2   8   0 57.5186 5.48143   6
   2   8   0 63.9035 5.16133   7
  -3  -8   0 195.581 7.96539   2
  -3  -8   0 217.412 12.9998   3
   3   8   0 199.788 15.3863   6
   3   8   0 201.977 14.0026   7
   3   8   0 190.139 12.2647   2
  -4  -8   0 7.72569 3.23118   3
  -4  -8   0 13.3585 2.68869   2
   4   8   0 20.3824 3.46510   2
   4   8   0 21.0551 3.90886   7
   4   8   0 15.3216 3.72939   6
  -5  -8   0 189.929 11.9991   3
  -5  -8   0 185.658 12.5856   2
   5   8   0 175.571 12.3325   7
   5   8   0 180.528 14.0747   6
  -6  -8   0 43.2423 5.02798   3
   6   8   0 37.0254 4.72047   7
   6   8   0 45.6278 3.91823   8
   6   8   0 38.5663 3.64918  10
  -7  -8   0 7.23356 5.30815   3
   7   8   0 8.22505 2.94538  10
   7   8   0 11.5858 4.18131   7
   7   8   0 9.69144 2.83878   8
  -8  -8   0 48.2044 7.21532   3
   8   8   0 60.4510 4.14216   8
   8   8   0 45.1959 5.81192   7
   8   8   0 57.8067 4.81658  10
  -9  -8   0 5.26216 6.81136   3
  -9  -8   0 15.2738 5.92400   1
   9   8   0 12.8954 5.26964   7
   9   8   0 11.3895 4.04591   8
   9   8   0 14.2493 4.38606  10
 -10  -8   0 8.42158 12.4082   1
 -10  -8   0 4.92467 7.64460   3
   6  -9   0 -1.5410 5.56803   5
  -6   9   0 -2.6660 7.36640   1
  -6   9   0 10.8291 8.39563   6
   5  -9   0 -0.3257 5.01471   5
   5  -9   0 4.72005 4.42177   2
  -5   9   0 7.43343 7.31570   7
  -5   9   0 2.73672 7.41043   6
  -5   9   0 0.78199 4.50299   1
   4  -9   0 34.2370 4.89333   2
   4  -9   0 46.8780 6.39727   5
  -4   9   0 42.3910 5.89940   7
  -4   9   0 34.1720 7.31434   6
   3  -9   0 0.97001 3.27634   2
   3  -9   0 0.83867 4.68118   5
   3  -9   0 -0.1376 3.61701   3
  -3   9   0 -2.3290 4.26126   6
  -3   9   0 0.02777 3.45823   1
  -3   9   0 0.26052 6.15169   7
   2  -9   0 109.435 7.77429   3
   2  -9   0 102.410 6.26797   2
  -2   9   0 116.836 7.02458   7
  -2   9   0 103.889 7.42132   6
  -2   9   0 107.490 7.34852   1
   1  -9   0 43.9773 4.27452   2
   1  -9   0 65.5884 5.44197   3
  -1   9   0 52.6058 5.67869   6
  -1   9   0 53.0796 6.84432   7
   0  -9   0 3.38296 2.62758   2
   0  -9   0 6.01064 4.07608   3
   0   9   0 3.98676 3.94562   6
   0   9   0 4.38766 3.65950   7
   0   9   0 7.44866 3.80201   1
  -1  -9   0 13.8320 3.67883   2
  -1  -9   0 16.6216 3.53239   3
   1   9   0 16.0527 5.87184   6
   1   9   0 20.6516 5.77656   7
  -2  -9   0 2.18923 3.09034   2
  -2  -9   0 8.83550 11.8875   3
   2   9   0 6.51548 3.99506   6
   2   9   0 7.06800 5.31211   7
  -3  -9   0 13.4223 4.85616   3
  -3  -9   0 7.87575 3.14266   2
   3   9   0 14.7321 4.43660   6
   3   9   0 13.3752 5.64879   7
  -4  -9   0 62.4303 6.42316   3
  -4  -9   0 61.9826 4.36308   2
   4   9   0 52.8009 6.53412   7
   4   9   0 69.0897 7.10957   6
  -5  -9   0 22.6685 4.43719   3
   5   9   0 24.7852 4.84673   7
   5   9   0 12.6669 5.98154   6
  -6  -9   0 2.28233 4.06650   3
   6   9   0 5.51226 4.13705   7
  -7  -9   0 26.0953 6.78137   3
   7   9   0 29.4139 5.41673   7
  -8  -9   0 9.27237 5.16161   3
   8   9   0 17.1712 5.37306   7
  -9  -9   0 0.98713 5.13517   3
  -9  -9   0 4.11851 4.45060   1
   9   9   0 5.62288 7.98914   7
   4 -10   0 0.95895 4.19764   2
   4 -10   0 -4.0080 5.92998   5
  -4  10   0 0.63660 6.05555   6
  -4  10   0 2.49430 6.76466   1
  -4  10   0 -0.1724 5.44153   7
   3 -10   0 1.11970 3.81675   2
   3 -10   0 -0.1936 3.98208   5
  -3  10   0 -3.6490 6.23335   1
  -3  10   0 -1.9018 5.19147   7
  -3  10   0 -0.2896 5.14980   6
   2 -10   0 143.420 10.1458   2
   2 -10   0 145.266 10.0858   3
   2 -10   0 143.105 10.6166   5
  -2  10   0 138.729 8.99391   6
  -2  10   0 127.159 9.53151   7
  -2  10   0 141.855 10.6967   1
   1 -10   0 14.8419 3.85701   3
   1 -10   0 9.32485 4.82020   2
  -1  10   0 17.2100 5.48513   6
  -1  10   0 9.69470 3.59536   1
  -1  10   0 15.9764 5.23971   7
   0 -10   0 6.80201 3.52149   3
   0 -10   0 5.59305 4.35220   2
   0  10   0 6.35143 4.94069   6
   0  10   0 5.40687 4.56666   1
   0  10   0 9.41393 4.89660   7
  -1 -10   0 58.7169 5.36175   3
  -1 -10   0 57.5955 5.34838   2
   1  10   0 59.3510 6.43208   6
   1  10   0 65.5060 7.84547   7
  -2 -10   0 6.86941 5.20632   3
  -2 -10   0 11.8029 3.87500   2
   2  10   0 7.45854 4.65580   7
   2  10   0 13.0513 4.85752   6
  -3 -10   0 20.6046 3.97627   2
  -3 -10   0 17.7629 5.75706   3
   3  10   0 25.9322 9.38179   6
   3  10   0 36.6706 9.99855   7
  -4 -10   0 35.9432 6.57992   3
   4  10   0 23.5182 6.34983   6
   4  10   0 33.1994 8.38617   7
  -5 -10   0 -5.5541 6.08358   3
   5  10   0 2.73611 6.75269   7
   5  10   0 1.95643 5.06613   6
  -6 -10   0 1.54201 6.41349   3
   6  10   0 16.6389 5.54594   7
  -7 -10   0 5.11370 5.04591   3
   7  10   0 9.47516 5.56772   7
  -8 -10   0 -1.4169 7.84313   3
   8  10   0 13.1427 6.01203   7
   2 -11   0 17.3521 5.86252   3
   2 -11   0 16.1153 6.41685   2
   2 -11   0 20.3460 5.60696   5
  -2  11   0 9.06420 8.90823   6
  -2  11   0 3.65308 9.04842   7
  -2  11   0 9.97971 6.40959   1
   1 -11   0 12.3673 5.65819   2
   1 -11   0 0.85356 6.19807   3
  -1  11   0 6.81520 8.07780   7
  -1  11   0 7.06428 4.63356   1
  -1  11   0 5.46252 6.10994   6
   0 -11   0 10.8462 6.16518   3
   0 -11   0 -0.3713 3.48152   2
   0  11   0 -0.5964 5.84416   6
   0  11   0 0.05981 5.77059   7
   0  11   0 4.55397 4.12612   1
  -1 -11   0 2.77424 6.02147   3
  -1 -11   0 0.52781 5.09816   2
   1  11   0 -3.7629 7.49533   7
   1  11   0 4.29573 5.88674   6
  -2 -11   0 15.9854 5.06735   3
   2  11   0 28.0759 6.15309   7
   2  11   0 28.5011 9.24176   6
  -3 -11   0 14.2073 6.55324   3
   3  11   0 13.7593 5.92231   6
   3  11   0 6.34860 5.60333   7
  -4 -11   0 1.55400 4.65932   3
   4  11   0 -2.4551 5.41106   7
   4  11   0 -3.7439 7.84381   6
  -5 -11   0 11.3017 5.38641   3
   5  11   0 6.68349 5.61493   7
   5  11   0 13.6582 6.25491   6
  -6 -11   0 5.23892 5.39696   3
   6  11   0 3.46785 6.26616   7
  -7 -11   0 63.1658 45.0815   3
  -1 -12   0 -0.4037 5.17153   3
   1  12   0 2.54075 30.1291   6
   1  12   0 34.2663 38.4630   7
  -2 -12   0 10.7122 8.84753   3
   2  12   0 -6.4071 9.49342   6
   2  12   0 1.53984 8.89819   7
   3  12   0 58.1773 72.9402   6
   3  12   0 39.2793 49.2381   7
  -4 -12   0 1.35630 6.07482   3
   4  12   0 -0.2449 6.46840   7
   4  12   0 1.62413 6.51240   6
   6  11  -1 6.82422 7.09187   6
   6  11  -1 -3.1503 6.30560   7
  -6 -11   1 1.18375 8.59841   3
   5  11  -1 6.22068 9.93649   6
   5  11  -1 15.8931 9.80320   7
  -5 -11   1 20.7896 8.33056   3
   4  11  -1 17.1498 6.70741   6
   4  11  -1 13.4002 6.11791   7
  -4 -11   1 38.5369 13.6127   3
   3  11  -1 -1.6227 8.13559   7
   3  11  -1 5.10843 8.35587   6
  -3 -11   1 -8.9431 6.64002   3
   2  11  -1 29.2685 6.61913   7
   2  11  -1 43.0884 7.15533   6
  -2 -11   1 38.0056 6.48473   3
   1  11  -1 11.9942 6.58432   6
   1  11  -1 19.6290 6.40309   7
  -1 -11   1 11.7062 5.71450   2
  -1 -11   1 22.4643 7.33625   3
   0  11  -1 1.15103 6.49551   6
   0  11  -1 4.88648 6.53459   7
   0 -11   1 -2.8274 5.90288   2
   0 -11   1 8.91316 6.89752   3
  -1  11  -1 95.6402 8.59526   7
  -1  11  -1 93.9268 9.08739   6
   1 -11   1 100.238 7.89225   2
   1 -11   1 120.397 13.2479   3
   8  10  -1 1.98555 5.88359   7
  -8 -10   1 7.11199 9.00957   3
   7  10  -1 3.57876 5.65320   7
  -7 -10   1 -0.2885 5.50530   3
   6  10  -1 54.1582 8.91639   7
   6  10  -1 53.8843 8.87043   6
  -6 -10   1 41.9899 7.96289   3
   5  10  -1 25.9880 7.46754   7
   5  10  -1 26.8134 8.06134   6
  -5 -10   1 37.9089 7.39201   3
   4  10  -1 11.3596 7.33339   6
   4  10  -1 8.16795 4.96205   7
  -4 -10   1 12.2648 6.35664   3
   3  10  -1 59.3389 6.48674   7
   3  10  -1 56.8109 6.72173   6
  -3 -10   1 66.1642 6.16118   2
  -3 -10   1 59.9433 7.77737   3
   2  10  -1 41.0657 6.19542   6
   2  10  -1 45.4676 7.62680   7
  -2 -10   1 36.6776 5.28070   2
  -2 -10   1 52.3674 6.99380   3
   1  10  -1 25.0710 5.68764   7
   1  10  -1 11.2098 5.41563   6
  -1 -10   1 17.5486 4.60192   3
  -1 -10   1 11.3298 4.74421   2
   0  10  -1 90.3846 8.72848   7
   0  10  -1 107.248 10.3800   1
   0  10  -1 104.837 9.48124   6
   0 -10   1 114.694 10.7867   3
   0 -10   1 99.8367 7.37410   2
  -1  10  -1 74.1789 7.59288   1
  -1  10  -1 69.9109 8.91471   7
  -1  10  -1 76.9600 9.17204   6
   1 -10   1 79.4692 8.86680   3
   1 -10   1 76.7054 7.27273   2
  -2  10  -1 12.3359 5.57388   1
  -2  10  -1 8.85634 8.15203   6
  -2  10  -1 5.84378 5.75417   7
   2 -10   1 10.0204 4.23189   3
   2 -10   1 7.39999 5.73167   2
  -3  10  -1 76.9857 7.31408   1
  -3  10  -1 86.1628 8.15312   6
  -3  10  -1 86.0191 8.00461   7
   3 -10   1 60.0085 7.69902   2
   3 -10   1 80.4364 8.10747   5
  -4  10  -1 1.35148 9.17338   6
   4 -10   1 6.23184 4.76269   5
   9   9  -1 16.6477 8.66359   7
  -9  -9   1 8.69859 6.46079   1
  -9  -9   1 10.5354 6.02379   3
   8   9  -1 0.62593 4.90406   7
  -8  -9   1 -3.4198 4.96966   3
   7   9  -1 9.53144 5.06463   7
  -7  -9   1 11.9410 6.86109   3
   6   9  -1 68.7553 6.66008   7
  -6  -9   1 52.9601 5.97105   3
   5   9  -1 24.2931 4.88085   7
   5   9  -1 19.0751 6.57238   6
  -5  -9   1 24.5822 6.04049   3
  -5  -9   1 30.3018 4.32682   2
   4   9  -1 109.625 9.25623   7
   4   9  -1 134.272 10.5372   6
  -4  -9   1 124.263 7.72234   2
  -4  -9   1 119.174 12.4514   3
   3   9  -1 0.00000 5.73761   6
   3   9  -1 2.82352 5.75593   7
  -3  -9   1 3.08399 3.58433   2
  -3  -9   1 0.63122 3.46516   3
   2   9  -1 170.597 11.6110   6
   2   9  -1 169.633 10.5083   7
  -2  -9   1 168.799 12.3802   3
  -2  -9   1 167.580 11.2018   2
   1   9  -1 155.991 11.4848   7
   1   9  -1 156.837 10.3153   6
  -1  -9   1 155.153 11.7866   3
  -1  -9   1 155.768 9.83471   2
   0   9  -1 48.2945 5.40313   1
   0   9  -1 32.7174 5.25394   6
   0   9  -1 35.3853 5.09924   7
   0  -9   1 41.6593 4.57773   3
   0  -9   1 31.1759 5.52374   2
  -1   9  -1 116.540 7.92392   6
  -1   9  -1 136.916 7.94060   7
  -1   9  -1 135.310 10.3088   1
   1  -9   1 125.596 10.9630   2
   1  -9   1 132.724 10.4239   3
  -2   9  -1 28.5672 5.33462   6
  -2   9  -1 34.8851 5.59334   7
  -2   9  -1 39.5527 5.26147   1
   2  -9   1 41.4134 4.51816   3
   2  -9   1 40.3703 4.80448   2
  -3   9  -1 7.62048 5.24394   1
  -3   9  -1 5.02673 15.0261   7
  -3   9  -1 5.74303 17.2431   6
   3  -9   1 0.68464 4.29797   3
   3  -9   1 6.56923 5.24222   2
  -4   9  -1 58.3602 6.59861   7
  -4   9  -1 84.0039 7.30594   1
  -4   9  -1 60.9509 8.79137   6
   4  -9   1 71.0901 7.58704   2
   4  -9   1 79.9332 6.23408   5
  -5   9  -1 90.6485 10.0897   6
  -5   9  -1 74.6991 9.38472   7
  -5   9  -1 101.589 8.49630   1
   5  -9   1 94.8623 7.37737   2
   5  -9   1 104.197 10.1255   5
 -10  -8   1 -0.0253 6.73725   1
 -10  -8   1 -1.1949 5.59003   3
   9   8  -1 -0.4532 4.76731   7
  -9  -8   1 1.16005 5.05732   3
  -9  -8   1 -2.0326 5.36781   1
   8   8  -1 55.0632 6.24206   7
  -8  -8   1 39.7762 5.73057   3
  -8  -8   1 46.6733 4.89166   1
   7   8  -1 15.6764 4.58470   7
  -7  -8   1 21.2005 4.79803   3
   6   8  -1 83.0625 7.27553   7
  -6  -8   1 58.8018 6.14360   2
  -6  -8   1 65.8230 6.80685   3
   5   8  -1 161.113 10.9501   6
   5   8  -1 170.511 12.1746   7
  -5  -8   1 152.349 11.1728   3
  -5  -8   1 145.848 13.8937   2
   4   8  -1 25.6466 4.19689   7
   4   8  -1 25.0951 5.54555   6
  -4  -8   1 22.8771 3.60087   2
  -4  -8   1 35.7928 5.39172   3
   3   8  -1 91.2095 6.61413   6
   3   8  -1 96.5094 6.36234   7
  -3  -8   1 87.5965 5.62371   2
  -3  -8   1 78.8459 5.40169   3
   2   8  -1 326.450 19.5923   6
   2   8  -1 338.034 17.0892   7
  -2  -8   1 330.910 15.7086   2
  -2  -8   1 340.680 20.1578   3
   1   8  -1 161.995 10.9987   7
   1   8  -1 157.330 10.2243   6
  -1  -8   1 167.185 9.03837   3
  -1  -8   1 166.791 8.35509   2
   0   8  -1 171.750 11.1813   7
   0   8  -1 179.772 11.0001   6
   0   8  -1 158.726 9.80202   1
   0  -8   1 179.912 8.57407   3
   0  -8   1 176.489 9.04287   2
  -1   8  -1 263.720 17.3036   1
  -1   8  -1 274.592 13.0513   7
  -1   8  -1 271.899 15.8747   6
   1  -8   1 261.244 10.0072   2
   1  -8   1 277.928 17.2784   3
  -2   8  -1 78.7220 6.35256   6
  -2   8  -1 88.3895 6.68095   7
  -2   8  -1 81.5457 5.95062   1
   2  -8   1 89.6144 5.89726   2
   2  -8   1 87.7496 5.19998   3
  -3   8  -1 165.796 11.0298   6
  -3   8  -1 182.131 7.83598   7
  -3   8  -1 187.658 13.5907   1
   3  -8   1 167.497 10.0273   2
   3  -8   1 187.289 12.5311   3
  -4   8  -1 160.401 9.96455   6
  -4   8  -1 153.159 10.7238   1
   4  -8   1 157.632 8.95427   2
   4  -8   1 154.635 9.90765   5
   4  -8   1 170.334 15.1533   3
  -5   8  -1 38.0633 5.05191   1
  -5   8  -1 26.2941 5.42917   6
   5  -8   1 32.5416 6.27379   2
   5  -8   1 26.8084 5.40016   5
  -6   8  -1 148.327 9.79605   6
  -6   8  -1 143.265 10.5360   1
   6  -8   1 133.028 8.61700   5
   6  -8   1 132.573 9.31236   2
  10   7  -1 6.91680 6.17757   8
  10   7  -1 2.09530 5.69818  10
 -10  -7   1 1.48430 6.84798   3
 -10  -7   1 3.19412 5.91922   1
   9   7  -1 44.4282 7.93463   7
   9   7  -1 75.0946 5.89319  10
   9   7  -1 79.6765 6.81977   8
  -9  -7   1 66.4341 6.73827   1
  -9  -7   1 64.7763 8.03988   3
   8   7  -1 53.5126 7.07690   7
   8   7  -1 50.1883 4.13157   8
   8   7  -1 52.6443 3.95841  10
  -8  -7   1 37.1626 4.34086   1
  -8  -7   1 32.1228 4.31297   2
  -8  -7   1 49.3644 5.41986   3
   7   7  -1 68.5278 4.94129  10
   7   7  -1 61.1963 4.57596   8
   7   7  -1 70.5531 6.00610   7
  -7  -7   1 56.2722 4.42988   2
  -7  -7   1 52.9638 6.08650   3
   6   7  -1 283.532 19.5977   7
  -6  -7   1 248.948 16.3112   3
  -6  -7   1 239.660 16.6194   2
   5   7  -1 106.650 7.89130   7
   5   7  -1 107.934 8.79914   6
  -5  -7   1 95.5355 6.23895   3
  -5  -7   1 100.495 5.87049   2
   4   7  -1 114.364 7.94497   6
   4   7  -1 123.980 8.34190   7
  -4  -7   1 108.430 6.92724   3
  -4  -7   1 102.001 5.90960   2
   3   7  -1 531.148 30.6753   7
   3   7  -1 511.997 31.0467   6
  -3  -7   1 489.370 24.2103   1
  -3  -7   1 513.017 27.7620   2
  -3  -7   1 497.410 24.3022   3
   2   7  -1 384.902 22.7758   6
   2   7  -1 399.395 23.5522   7
  -2  -7   1 417.879 21.1962   3
  -2  -7   1 375.813 30.7059   1
  -2  -7   1 395.339 18.1478   2
   1   7  -1 211.386 13.8299   6
   1   7  -1 212.872 13.2084   7
  -1  -7   1 206.128 13.8475   1
  -1  -7   1 197.704 10.0161   2
  -1  -7   1 214.824 10.0869   3
   0   7  -1 314.322 15.6200   7
   0   7  -1 321.440 17.4117   6
   0   7  -1 340.902 21.2146   1
   0  -7   1 364.587 19.7755   3
   0  -7   1 332.986 11.7570   2
   0  -7   1 322.243 14.9180   1
  -1   7  -1 103.612 6.35866   7
  -1   7  -1 95.0154 7.05452   6
  -1   7  -1 102.578 7.43111   1
   1  -7   1 111.911 6.20073   3
   1  -7   1 107.363 5.19545   2
  -2   7  -1 312.913 18.6579   1
  -2   7  -1 339.238 18.6022   6
  -2   7  -1 340.805 16.1007   7
  -2   7  -1 330.802 14.5694   4
   2  -7   1 338.126 14.6139   2
   2  -7   1 336.007 12.3948  10
   2  -7   1 341.721 12.5768   3
   2  -7   1 333.038 13.5782   8
  -3   7  -1 349.134 16.0417   6
  -3   7  -1 360.997 25.2932   1
   3  -7   1 384.773 23.5882  10
   3  -7   1 360.474 16.5225   2
   3  -7   1 393.635 16.1843   3
   3  -7   1 365.645 22.7112   8
  -4   7  -1 123.231 7.44731   6
  -4   7  -1 135.664 8.47003   1
   4  -7   1 135.071 7.94674   5
   4  -7   1 151.127 8.06480   3
   4  -7   1 133.486 7.41798  10
   4  -7   1 129.596 7.14637   2
   4  -7   1 129.094 7.31188   8
  -5   7  -1 125.194 7.53448   6
  -5   7  -1 130.556 13.7920   1
   5  -7   1 130.042 7.45747   5
   5  -7   1 119.040 9.74494   8
   5  -7   1 140.931 7.96676   3
   5  -7   1 125.935 8.96935  10
   5  -7   1 133.445 8.06665   2
  -6   7  -1 167.426 15.3842   1
  -6   7  -1 181.966 15.3399   6
   6  -7   1 206.028 11.7370   2
   6  -7   1 211.315 12.9620   5
  -7   7  -1 31.5529 6.00341   6
  -7   7  -1 24.5174 6.94740   1
  11   6  -1 14.8845 6.05504   8
  11   6  -1 15.0831 6.38101  10
 -11  -6   1 8.50699 5.25418   1
  10   6  -1 6.74565 3.84715  10
  10   6  -1 14.9092 3.92685   8
 -10  -6   1 5.99578 4.40143   1
 -10  -6   1 3.38293 6.40451   3
   9   6  -1 53.2824 5.65457  10
   9   6  -1 52.3337 5.01670   8
  -9  -6   1 51.8359 6.73114   1
  -9  -6   1 49.7621 5.32908   2
  -9  -6   1 72.9631 45.9880   3
   8   6  -1 54.2774 4.42335   8
   8   6  -1 52.2727 5.09242   7
   8   6  -1 58.6956 4.76239  10
  -8  -6   1 42.5593 4.33314   1
  -8  -6   1 39.8007 5.77756   3
  -8  -6   1 45.1897 5.53029   2
   7   6  -1 119.208 10.8376   7
   7   6  -1 124.855 5.91023   8
   7   6  -1 139.017 6.86394  10
  -7  -6   1 112.151 7.30425   2
  -7  -6   1 124.355 8.90305   3
   6   6  -1 178.699 12.1317   7
   6   6  -1 188.484 7.75360  10
   6   6  -1 179.732 6.21704   8
  -6  -6   1 159.556 13.4100   8
  -6  -6   1 162.252 9.43042   3
  -6  -6   1 171.752 9.43242   2
  -6  -6   1 160.736 12.9644  10
  -6  -6   1 175.145 9.52660   4
   5   6  -1 132.673 8.12700   6
   5   6  -1 141.773 7.23694   7
   5   6  -1 139.469 6.70774   8
   5   6  -1 136.830 8.18211  10
  -5  -6   1 132.659 6.32702   2
  -5  -6   1 112.556 8.91563   4
  -5  -6   1 132.418 6.19294   3
  -5  -6   1 118.749 9.32839  10
  -5  -6   1 121.454 9.00164   8
   4   6  -1 491.395 25.1001   6
   4   6  -1 491.861 29.1048   7
   4   6  -1 497.508 29.2714   2
  -4  -6   1 507.982 28.5226   8
  -4  -6   1 486.704 31.2988   2
  -4  -6   1 495.940 26.0488   3
  -4  -6   1 506.355 29.4836  10
  -4  -6   1 498.045 24.9548   1
  -4  -6   1 522.075 29.6263   4
   3   6  -1 65.6329 4.02970   7
   3   6  -1 80.3892 3.78436   2
   3   6  -1 66.6056 4.78251   6
  -3  -6   1 63.0571 4.89448   1
  -3  -6   1 85.8848 4.54088   3
  -3  -6   1 74.4038 4.15569   2
  -3  -6   1 80.0398 2.63973   4
   2   6  -1 313.664 18.9000   2
   2   6  -1 356.380 16.5885   7
   2   6  -1 346.190 13.7607   6
  -2  -6   1 341.534 11.6823   3
  -2  -6   1 312.914 17.6580   1
  -2  -6   1 344.541 8.91450   2
   1   6  -1 469.253 15.3170   1
   1   6  -1 461.153 21.4117   6
   1   6  -1 443.896 19.5876   7
   1   6  -1 448.646 24.4672   2
  -1  -6   1 478.719 14.5401   2
  -1  -6   1 440.179 19.5878   1
  -1  -6   1 466.729 14.5132   3
   0   6  -1 327.437 15.2351   6
   0   6  -1 323.883 14.5747   7
   0   6  -1 312.236 14.7908   1
   0  -6   1 328.975 7.55771   2
   0  -6   1 332.350 12.3394   3
   0  -6   1 303.420 15.9545   1
  -1   6  -1 641.520 20.7376   7
  -1   6  -1 632.373 19.7847   6
  -1   6  -1 595.233 27.3321   1
  -1   6  -1 610.597 23.1252   4
   1  -6   1 658.608 19.2862   2
   1  -6   1 619.069 20.0662   8
   1  -6   1 635.390 21.8823  10
   1  -6   1 633.175 38.5535   1
  -2   6  -1 865.441 27.0768   4
  -2   6  -1 870.629 30.7465   6
  -2   6  -1 878.263 29.1926   1
   2  -6   1 886.906 23.9196   8
   2  -6   1 867.884 58.5457   1
   2  -6   1 867.737 24.0586  10
   2  -6   1 891.568 25.6671   2
  -3   6  -1 49.6337 4.08469   1
  -3   6  -1 50.8085 3.59564   4
  -3   6  -1 54.3040 5.09045   6
   3  -6   1 46.6725 2.77137  10
   3  -6   1 51.0785 6.22883   2
   3  -6   1 55.6444 2.79130   8
  -4   6  -1 406.141 26.3020   1
  -4   6  -1 383.640 37.5206   4
  -4   6  -1 409.368 17.6096   6
   4  -6   1 417.117 21.0036  10
   4  -6   1 423.891 15.7145   2
   4  -6   1 416.728 17.8410   8
   4  -6   1 432.602 39.0107   3
   4  -6   1 446.179 19.2052   5
  -5   6  -1 315.212 16.1734   6
  -5   6  -1 308.882 14.3353   1
   5  -6   1 322.077 10.4857   2
   5  -6   1 332.407 14.5548   8
   5  -6   1 323.354 16.3451   5
   5  -6   1 317.102 12.4443  10
  -6   6  -1 227.416 10.9251   1
  -6   6  -1 220.042 11.0518   6
   6  -6   1 231.688 13.9716   2
   6  -6   1 247.653 12.2783   5
   6  -6   1 209.190 9.74909   8
   6  -6   1 227.170 10.9108  10
  -7   6  -1 160.536 12.9875   1
  -7   6  -1 155.158 10.7344   6
   7  -6   1 161.648 10.8018   5
   7  -6   1 154.671 10.6443  10
   7  -6   1 147.815 9.09517   8
  -8   6  -1 97.8751 7.57132   6
  -8   6  -1 107.086 9.34084   1
   8  -6   1 112.410 7.55492  10
   8  -6   1 102.959 7.06337   8
  11   5  -1 15.2942 4.61512  10
  11   5  -1 23.3821 4.59507   8
 -11  -5   1 14.2530 5.18383   1
  10   5  -1 17.5451 5.38212  10
  10   5  -1 12.4001 4.92096   8
 -10  -5   1 12.4566 4.98832   2
 -10  -5   1 12.4991 4.33666   3
 -10  -5   1 12.3053 5.69285   1
   9   5  -1 122.842 8.07066  10
   9   5  -1 123.986 8.13200   8
  -9  -5   1 114.259 6.50312   1
  -9  -5   1 111.363 9.71061   2
  -9  -5   1 124.495 8.76864   3
   8   5  -1 168.689 7.82330   8
   8   5  -1 160.620 8.61820  10
  -8  -5   1 147.523 9.54543   2
  -8  -5   1 157.707 7.49221   1
  -8  -5   1 148.921 10.1109   3
   7   5  -1 43.0252 3.27993  10
   7   5  -1 37.4929 3.90278   7
   7   5  -1 36.8139 2.95903   8
  -7  -5   1 31.0380 3.80004   3
  -7  -5   1 35.5826 3.64038   2
  -7  -5   1 38.7524 4.24275   1
   6   5  -1 418.767 18.3422   7
   6   5  -1 430.699 21.8569  10
   6   5  -1 410.416 20.0433   8
  -6  -5   1 406.814 23.2974   2
  -6  -5   1 410.278 20.9363   3
  -6  -5   1 414.125 28.8390   4
  -6  -5   1 404.044 25.2017   8
  -6  -5   1 395.335 25.9349  10
   5   5  -1 143.408 7.09211   8
   5   5  -1 150.539 8.10231   7
   5   5  -1 148.002 7.65475  10
  -5  -5   1 132.931 9.73802   4
  -5  -5   1 131.709 7.30249   2
  -5  -5   1 130.363 8.71484  10
  -5  -5   1 129.329 8.03813   8
  -5  -5   1 136.167 6.36734   3
   4   5  -1 225.746 5.82683   8
   4   5  -1 220.941 10.4474   6
   4   5  -1 216.141 12.0964   2
   4   5  -1 217.751 5.03972  10
   4   5  -1 183.218 9.19380   7
  -4  -5   1 207.822 11.0954   8
  -4  -5   1 223.573 8.87981   3
  -4  -5   1 225.512 12.4597  10
  -4  -5   1 215.554 11.6023   4
  -4  -5   1 224.408 6.59025   2
   3   5  -1 367.358 18.4380   6
   3   5  -1 368.272 21.8986   2
   3   5  -1 384.781 18.5445   7
  -3  -5   1 397.564 16.7842   8
  -3  -5   1 397.683 16.8837   1
  -3  -5   1 406.412 17.4460  10
  -3  -5   1 403.457 10.3856   3
  -3  -5   1 372.982 12.5815   2
  -3  -5   1 395.906 14.2848   4
   2   5  -1 1028.15 56.3175   7
   2   5  -1 1016.05 45.3190   6
   2   5  -1 1019.69 40.2730   2
  -2  -5   1 1067.47 23.0355   3
  -2  -5   1 1058.92 23.4556   1
  -2  -5   1 1073.18 54.6868   6
  -2  -5   1 1071.65 40.3513   2
  -2  -5   1 1082.45 27.2963  10
  -2  -5   1 1048.90 52.8141   7
  -2  -5   1 1085.22 23.5103   4
  -2  -5   1 1059.41 37.4016   9
   1   5  -1 470.498 15.8064   6
   1   5  -1 443.995 18.4937   7
   1   5  -1 454.145 19.2403   2
   1   5  -1 461.193 16.2978   1
  -1  -5   1 453.896 19.2128   1
  -1  -5   1 460.663 20.4383   6
  -1  -5   1 503.361 15.3174   2
   0   5  -1 937.953 21.8444   7
   0   5  -1 932.776 19.3918   6
   0   5  -1 908.721 33.5748   1
   0   5  -1 898.737 37.0678   2
   0  -5   1 952.620 38.2720   1
   0  -5   1 971.764 20.9881   2
  -1   5  -1 902.432 17.5564   6
  -1   5  -1 847.788 23.8927   4
  -1   5  -1 865.571 24.4516   7
  -1   5  -1 870.094 43.9794   1
  -1   5  -1 830.175 34.0224   2
   1  -5   1 871.325 43.5898   8
   1  -5   1 898.551 29.1641   4
   1  -5   1 886.454 38.1490   1
   1  -5   1 884.503 17.7502   2
   1  -5   1 893.498 44.1973  10
  -2   5  -1 581.819 23.8548   4
  -2   5  -1 597.325 12.2685   6
  -2   5  -1 573.409 39.9264   1
   2  -5   1 588.316 21.2696   4
   2  -5   1 593.309 14.7646  10
   2  -5   1 592.908 12.8084   8
   2  -5   1 606.190 20.6085   1
   2  -5   1 614.853 15.4454   2
  -3   5  -1 863.038 42.4854   4
  -3   5  -1 836.021 27.9739   1
  -3   5  -1 834.495 28.0825   6
   3  -5   1 671.119 45.9314   3
   3  -5   1 847.172 21.1662   8
   3  -5   1 836.084 22.1799  10
   3  -5   1 866.805 45.3719   1
   3  -5   1 850.817 24.4502   4
   3  -5   1 832.404 20.5424   2
  -4   5  -1 472.564 24.3033   1
  -4   5  -1 450.369 26.1141   6
  -4   5  -1 500.383 23.0981   4
   4  -5   1 481.429 20.3891   4
   4  -5   1 478.472 23.8569   8
   4  -5   1 496.656 26.2225  10
   4  -5   1 481.718 18.1569   2
   4  -5   1 490.940 17.1697   5
   4  -5   1 478.550 33.2004   3
  -5   5  -1 244.458 10.5857   6
  -5   5  -1 262.334 10.4344   1
   5  -5   1 257.213 18.7409   3
   5  -5   1 259.528 14.8806  10
   5  -5   1 262.514 7.64712   4
   5  -5   1 246.081 12.1230   2
   5  -5   1 262.228 8.45539   5
   5  -5   1 262.808 12.1300   8
  -6   5  -1 561.448 27.3127   1
  -6   5  -1 557.474 24.0880   6
   6  -5   1 544.594 25.0332   5
   6  -5   1 526.227 19.9480   2
   6  -5   1 554.910 23.9546   8
   6  -5   1 556.911 23.4194   4
   6  -5   1 555.544 27.3107  10
  -7   5  -1 99.7018 8.19774   1
  -7   5  -1 104.660 7.29035   6
   7  -5   1 97.3980 6.78076   5
   7  -5   1 97.7418 6.00117   8
   7  -5   1 94.5230 6.23673  10
  -8   5  -1 35.5357 5.04552   1
  -8   5  -1 32.9892 5.21950   6
   8  -5   1 28.1816 5.30620   8
   8  -5   1 26.4620 5.50565  10
  -9   5  -1 166.727 10.9460   6
  -9   5  -1 167.000 13.1715   1
   9  -5   1 151.396 10.6967  10
   9  -5   1 147.333 10.1140   8
  11   4  -1 1.77119 5.77357  10
  11   4  -1 4.19183 5.55305   8
 -11  -4   1 -0.2718 3.85808   2
 -11  -4   1 0.05055 6.22801   1
  10   4  -1 42.8423 5.82500  10
  10   4  -1 41.8606 5.55650   8
 -10  -4   1 37.4961 4.54899   2
 -10  -4   1 45.3287 5.27879   1
 -10  -4   1 32.9992 4.37762   3
   9   4  -1 214.488 9.40482   8
   9   4  -1 213.020 10.8933  10
  -9  -4   1 178.693 11.2310   2
  -9  -4   1 192.024 12.2681   1
  -9  -4   1 212.426 15.4693   3
   8   4  -1 43.4345 4.30943  10
   8   4  -1 38.1617 4.04672   8
  -8  -4   1 33.6719 3.78025   1
  -8  -4   1 30.2879 3.17559   2
  -8  -4   1 35.4221 4.61601   3
   7   4  -1 303.909 10.8050  10
   7   4  -1 318.830 8.62636   8
  -7  -4   1 325.583 13.8801   2
  -7  -4   1 317.202 14.2610   1
  -7  -4   1 324.148 15.7895   3
   6   4  -1 151.908 6.63711   8
   6   4  -1 156.989 8.65587   7
   6   4  -1 160.807 7.00918  10
  -6  -4   1 152.995 5.12262   1
  -6  -4   1 137.113 7.19522   4
  -6  -4   1 144.283 10.5026   8
  -6  -4   1 148.800 10.4921  10
  -6  -4   1 164.400 10.6624   2
  -6  -4   1 162.965 6.28953   3
  -6  -4   1 151.195 9.74165   5
  -6  -4   1 148.790 7.81630   9
   5   4  -1 203.864 6.79630   8
   5   4  -1 206.741 7.45610  10
   5   4  -1 222.786 9.91563   7
  -5  -4   1 191.739 8.80072   3
  -5  -4   1 208.608 10.0172   8
  -5  -4   1 200.162 14.9871   4
  -5  -4   1 207.263 7.13485   2
  -5  -4   1 195.629 11.6941   5
  -5  -4   1 199.523 11.4446  10
  -5  -4   1 188.032 9.02803   9
   4   4  -1 762.795 24.5630   8
   4   4  -1 813.876 36.9106   6
   4   4  -1 783.216 33.8339   7
   4   4  -1 781.870 30.0788  10
  -4  -4   1 772.470 33.0262   9
  -4  -4   1 791.644 35.5246   6
  -4  -4   1 785.115 44.3091  10
  -4  -4   1 787.282 23.5988   2
  -4  -4   1 797.768 42.2434   8
  -4  -4   1 792.844 43.8958   4
  -4  -4   1 817.641 33.4199   7
  -4  -4   1 818.984 18.7607   3
   3   4  -1 536.818 21.9792  10
   3   4  -1 528.075 19.9193   8
   3   4  -1 514.593 12.7810   2
   3   4  -1 520.492 19.3444   6
   3   4  -1 535.801 19.2517   7
  -3  -4   1 513.758 17.0871   7
  -3  -4   1 526.842 20.7824   6
  -3  -4   1 533.544 14.9250   3
  -3  -4   1 516.432 21.5943   2
  -3  -4   1 525.965 17.3008   9
  -3  -4   1 541.776 21.7661   4
  -3  -4   1 529.828 20.2497   8
  -3  -4   1 549.127 23.6162  10
   2   4  -1 248.585 8.76173   7
   2   4  -1 238.209 9.20936   6
   2   4  -1 235.525 16.5356   2
  -2  -4   1 247.743 10.2769   6
  -2  -4   1 249.031 8.47576   8
  -2  -4   1 249.398 4.63441   9
  -2  -4   1 240.624 8.25534  10
  -2  -4   1 248.709 4.91401   2
  -2  -4   1 243.738 12.2364   7
  -2  -4   1 239.591 10.2816   1
  -2  -4   1 248.731 7.06917   4
  -2  -4   1 242.738 6.97471   3
   1   4  -1 2151.96 65.9594   2
   1   4  -1 2223.40 46.8367   7
   1   4  -1 2170.66 36.5737   6
  -1  -4   1 2233.27 61.0818   2
  -1  -4   1 2134.36 55.0132   4
  -1  -4   1 2266.05 61.3400   6
  -1  -4   1 2161.33 57.7319   8
  -1  -4   1 2150.12 61.5523  10
  -1  -4   1 2157.52 59.3024   1
  -1  -4   1 2089.95 56.4479   4
   0   4  -1 526.267 18.3891   1
   0   4  -1 528.620 13.9183   6
   0   4  -1 530.809 12.6696   2
   0   4  -1 535.528 14.7847   7
   0  -4   1 543.409 14.2335   2
   0  -4   1 533.320 9.28616   6
   0  -4   1 520.112 12.1877  10
   0  -4   1 524.897 11.5735   8
   0  -4   1 534.982 9.01281   4
   0  -4   1 520.167 10.2816   1
  -1   4  -1 828.028 23.8852   2
  -1   4  -1 817.106 14.5194   4
  -1   4  -1 845.164 18.9721   6
  -1   4  -1 791.350 23.3300   1
   1  -4   1 831.062 24.0988  10
   1  -4   1 829.375 21.7665   8
   1  -4   1 837.629 18.5548   2
   1  -4   1 862.363 21.7661   6
   1  -4   1 851.989 15.8174   4
   1  -4   1 833.787 23.8803   1
  -2   4  -1 1306.26 45.6280   2
  -2   4  -1 1291.69 38.4196   4
  -2   4  -1 1301.74 69.2741   1
  -2   4  -1 1295.12 36.2204   6
   2  -4   1 1302.98 52.2248  10
   2  -4   1 1368.34 31.1907   1
   2  -4   1 1320.47 53.8750   6
   2  -4   1 1301.15 34.2505   4
   2  -4   1 1301.36 31.3162   2
   2  -4   1 1276.77 36.5627   8
  -3   4  -1 373.694 14.9330   8
  -3   4  -1 378.754 16.5354  10
  -3   4  -1 372.472 17.3055   4
  -3   4  -1 375.140 11.6664   6
  -3   4  -1 386.067 19.5065   1
   3  -4   1 395.358 13.6455   1
   3  -4   1 383.677 10.5558   4
   3  -4   1 385.009 10.8064   2
   3  -4   1 385.681 11.7631  10
   3  -4   1 392.288 18.4515   3
   3  -4   1 379.487 12.5154   8
  -4   4  -1 214.649 11.0780  10
  -4   4  -1 193.439 6.02990   1
  -4   4  -1 208.946 6.05916   6
  -4   4  -1 214.149 10.0118   8
  -4   4  -1 207.226 9.50981   4
   4  -4   1 212.382 9.82699   3
   4  -4   1 214.725 6.14469   2
   4  -4   1 205.018 7.06968  10
   4  -4   1 203.797 6.05803   5
   4  -4   1 210.832 7.67661   8
   4  -4   1 202.924 5.90288   4
  -5   4  -1 789.898 22.4159   6
  -5   4  -1 812.174 25.8511   1
   5  -4   1 816.653 41.6179   3
   5  -4   1 796.729 25.8921  10
   5  -4   1 828.724 21.9298   2
   5  -4   1 802.106 32.7031   4
   5  -4   1 778.620 26.9357   8
   5  -4   1 805.906 15.0006   5
  -6   4  -1 251.496 15.8096   1
  -6   4  -1 247.414 7.95758   6
   6  -4   1 231.565 16.6438   3
   6  -4   1 237.212 11.2561   4
   6  -4   1 255.049 14.5388   2
   6  -4   1 249.569 10.9586   5
   6  -4   1 234.361 9.10146  10
   6  -4   1 225.634 8.23941   8
  -7   4  -1 108.831 6.24391   1
  -7   4  -1 107.834 6.65196   6
   7  -4   1 98.3744 5.76544   4
   7  -4   1 85.1314 5.85843  10
   7  -4   1 105.073 5.67099   8
   7  -4   1 108.464 7.63805   5
  -8   4  -1 283.189 14.0442   6
  -8   4  -1 268.811 15.1083   1
   8  -4   1 274.092 12.0718   8
   8  -4   1 264.297 13.2173  10
  -9   4  -1 42.3690 5.51309   1
   9  -4   1 62.8695 36.8432   8
   9  -4   1 54.3909 34.9740  10
 -10   4  -1 48.6097 8.10466   6
 -10   4  -1 32.5649 7.73171   1
  10  -4   1 44.1165 7.45622  10
  10  -4   1 44.3574 7.20144   8
  12   3  -1 0.89260 7.06709  10
  12   3  -1 7.34891 6.78783   8
 -12  -3   1 5.68038 5.43998   1
  11   3  -1 13.7179 5.97954  10
  11   3  -1 12.5298 5.70737   8
 -11  -3   1 8.42177 6.26346   1
  10   3  -1 47.1571 4.84421  10
  10   3  -1 53.2306 4.80730   8
 -10  -3   1 61.8726 6.68002   1
   9   3  -1 34.4677 3.76253   8
   9   3  -1 33.7347 3.97559  10
  -9  -3   1 33.7694 4.31968   1
  -9  -3   1 28.9713 4.22899   3
   8   3  -1 86.5236 5.00977   8
   8   3  -1 76.0817 5.16787  10
  -8  -3   1 75.9227 6.51982   9
  -8  -3   1 81.5903 4.92032   1
  -8  -3   1 93.0260 5.28412   3
  -8  -3   1 70.9697 5.63928   5
   7   3  -1 102.054 5.19757  10
   7   3  -1 106.632 4.77211   8
   7   3  -1 108.520 3.40743   9
  -7  -3   1 110.804 5.23740   5
  -7  -3   1 104.934 4.13326   9
  -7  -3   1 112.903 4.96144   1
  -7  -3   1 103.201 5.31707   3
   6   3  -1 20.0017 2.26366  10
   6   3  -1 23.2156 2.25350   8
   6   3  -1 26.7201 1.91909   9
  -6  -3   1 19.7099 3.07504   1
  -6  -3   1 22.0715 2.17909   5
  -6  -3   1 19.8800 2.27301   2
  -6  -3   1 21.3047 2.26931   9
  -6  -3   1 22.2754 3.04008   3
   5   3  -1 621.281 17.0389   8
   5   3  -1 618.579 19.0328  10
   5   3  -1 657.383 11.3855   9
   5   3  -1 649.948 22.0713   7
  -5  -3   1 627.142 40.0829   8
  -5  -3   1 644.541 30.3703   5
  -5  -3   1 654.917 31.9295   7
  -5  -3   1 645.960 41.8886  10
  -5  -3   1 613.182 24.5278   3
  -5  -3   1 626.824 30.8732   4
  -5  -3   1 645.429 10.7516   1
  -5  -3   1 657.652 19.7006   2
  -5  -3   1 653.724 28.9640   6
  -5  -3   1 644.356 32.4160   9
   4   3  -1 127.945 4.21696   8
   4   3  -1 134.665 4.92643  10
   4   3  -1 126.422 4.03778   7
  -4  -3   1 130.961 4.65321   7
  -4  -3   1 128.205 6.27057   4
  -4  -3   1 120.043 5.49787   8
  -4  -3   1 128.678 3.43942   9
  -4  -3   1 122.038 4.51587   3
  -4  -3   1 130.273 5.11300   5
  -4  -3   1 114.261 6.33899  10
  -4  -3   1 124.516 5.58461   2
  -4  -3   1 104.711 5.26613   6
   3   3  -1 149.150 4.39280  10
   3   3  -1 154.167 4.47153   8
   3   3  -1 152.100 5.94095   6
   3   3  -1 147.730 5.79007   7
   3   3  -1 147.920 6.80485   2
  -3  -3   1 149.317 4.02648   6
  -3  -3   1 148.134 5.75138   3
  -3  -3   1 143.791 5.99152   4
  -3  -3   1 155.909 4.81369   7
  -3  -3   1 146.876 5.87554  10
  -3  -3   1 147.867 5.71735   8
  -3  -3   1 142.612 4.29219   9
  -3  -3   1 143.952 7.81391   2
   2   3  -1 666.631 14.4213   7
   2   3  -1 659.311 14.7304   6
   2   3  -1 615.547 20.1219   2
  -2  -3   1 660.457 22.6199  10
  -2  -3   1 667.926 23.4956   4
  -2  -3   1 647.825 17.4007   2
  -2  -3   1 653.015 20.9979   8
  -2  -3   1 653.154 18.4627   7
  -2  -3   1 635.451 13.2497   9
  -2  -3   1 638.236 15.6135   6
   1   3  -1 1420.83 45.1001   2
   1   3  -1 1445.21 39.9335   7
   1   3  -1 1427.10 34.2075   6
  -1  -3   1 1448.27 33.6612   7
  -1  -3   1 1453.42 53.3524   6
  -1  -3   1 1435.42 52.8371   1
  -1  -3   1 1389.65 52.6454  10
  -1  -3   1 1467.63 38.6509   9
  -1  -3   1 1407.28 49.5960   8
  -1  -3   1 1413.52 29.4871   2
   0   3  -1 1687.87 49.2173   1
   0   3  -1 1697.46 31.3492   2
   0   3  -1 1725.17 42.7510   7
   0   3  -1 1791.24 66.1139   6
   0  -3   1 1754.73 43.4985   8
   0  -3   1 1759.06 46.0063   4
   0  -3   1 1756.69 43.1089   2
   0  -3   1 1742.93 45.6181  10
   0  -3   1 1742.30 55.8094   1
   0  -3   1 1770.27 44.3814   6
  -1   3  -1 1987.79 30.0435   4
  -1   3  -1 2009.31 76.0562   1
  -1   3  -1 2090.51 40.8473   6
  -1   3  -1 1972.18 52.2531   2
   1  -3   1 2032.09 42.3551   2
   1  -3   1 2070.30 43.2753  10
   1  -3   1 2099.89 63.7783   1
   1  -3   1 2115.39 41.4605   4
   1  -3   1 2084.28 57.2392   6
   1  -3   1 2046.74 38.8138   8
  -2   3  -1 830.794 17.2234   8
  -2   3  -1 820.019 22.5765   2
  -2   3  -1 811.782 16.7826  10
  -2   3  -1 820.946 29.9788   6
  -2   3  -1 813.972 47.3856   1
  -2   3  -1 835.535 14.8344   4
   2  -3   1 845.173 18.8999  10
   2  -3   1 863.086 32.0190   1
   2  -3   1 833.088 16.6277   2
   2  -3   1 856.204 20.4674   6
   2  -3   1 831.550 19.5717   4
   2  -3   1 841.112 17.2308   8
  -3   3  -1 179.915 6.49940   2
  -3   3  -1 184.111 9.52847   8
  -3   3  -1 172.661 11.2943   4
  -3   3  -1 183.727 10.5168  10
  -3   3  -1 176.614 4.74671   1
  -3   3  -1 184.784 7.45975   6
   3  -3   1 179.102 5.70429   4
   3  -3   1 180.154 6.79107   3
   3  -3   1 180.420 4.83790   2
   3  -3   1 178.135 6.88621   8
   3  -3   1 182.030 6.73808   1
   3  -3   1 178.155 5.96575  10
  -4   3  -1 1019.21 22.3456   6
  -4   3  -1 1010.61 68.7870  10
  -4   3  -1 1027.53 26.8251   4
  -4   3  -1 1010.73 61.7410   8
  -4   3  -1 1033.00 41.3363   1
   4  -3   1 986.153 22.8138   2
   4  -3   1 1002.25 26.6209   5
   4  -3   1 1041.09 46.6789   1
   4  -3   1 1046.83 42.2559   3
   4  -3   1 1022.45 22.6588   8
   4  -3   1 1000.45 24.4426   4
   4  -3   1 1037.03 27.5546  10
  -5   3  -1 535.886 18.6805   1
  -5   3  -1 544.475 13.1628   6
   5  -3   1 547.609 12.7119   2
   5  -3   1 565.388 14.7581   4
   5  -3   1 538.005 17.6776  10
   5  -3   1 530.393 20.7380   5
   5  -3   1 531.845 20.3068   8
   5  -3   1 536.496 30.9226   3
  -6   3  -1 633.914 17.9633   6
  -6   3  -1 603.881 18.9455   1
   6  -3   1 629.132 21.6984  10
   6  -3   1 610.898 33.5795   3
   6  -3   1 620.586 17.1115   2
   6  -3   1 613.469 27.7499   5
   6  -3   1 630.630 20.5473   4
   6  -3   1 627.119 19.0798   8
  -7   3  -1 323.890 12.9496   6
  -7   3  -1 340.270 15.1713   1
   7  -3   1 333.781 13.1054  10
   7  -3   1 337.863 16.3611   5
   7  -3   1 362.873 13.1437   4
   7  -3   1 361.166 14.1286   8
  -8   3  -1 145.141 7.78066   6
  -8   3  -1 176.022 9.34349   1
   8  -3   1 159.568 9.31004  10
   8  -3   1 143.159 7.66308   4
   8  -3   1 152.482 8.32759   8
  -9   3  -1 105.967 8.10968   1
  -9   3  -1 107.567 6.50681   6
   9  -3   1 103.071 6.51045  10
   9  -3   1 97.4450 6.04528   8
 -10   3  -1 184.169 12.0757   6
 -10   3  -1 182.154 15.2821   1
  10  -3   1 178.330 10.0208  10
  10  -3   1 176.754 10.3382   8
  12   2  -1 22.5105 7.14246   8
  12   2  -1 27.1051 7.62543  10
 -12  -2   1 15.8545 7.68814   1
  11   2  -1 14.0782 5.90939  10
  11   2  -1 12.0100 5.75586   8
 -11  -2   1 20.4548 5.14751   1
  10   2  -1 9.20251 4.60392   8
  10   2  -1 3.07317 4.59263  10
 -10  -2   1 5.34816 5.25653   1
   9   2  -1 49.9724 5.15352  10
   9   2  -1 57.8173 5.06617   8
   9   2  -1 58.6134 4.38978   9
  -9  -2   1 44.1293 4.51507   1
  -9  -2   1 42.3965 4.10350   3
   8   2  -1 125.899 7.12117   8
   8   2  -1 118.727 4.55561   9
   8   2  -1 117.682 5.28288  10
  -8  -2   1 110.610 5.83002   9
  -8  -2   1 102.894 5.35645   5
  -8  -2   1 113.653 5.92564   3
  -8  -2   1 93.3691 6.39252   1
   7   2  -1 7.22234 3.61366  10
   7   2  -1 6.01835 3.35956   8
   7   2  -1 2.35614 1.63764   9
  -7  -2   1 3.10184 1.88598   5
  -7  -2   1 0.81447 2.36489   3
  -7  -2   1 -0.1298 2.07547   1
  -7  -2   1 0.48001 1.63662   9
   6   2  -1 624.148 21.3158  10
   6   2  -1 616.949 25.7737   9
   6   2  -1 619.620 18.5143   8
  -6  -2   1 626.317 32.1036   7
  -6  -2   1 650.998 26.8615   9
  -6  -2   1 663.655 29.6815   5
  -6  -2   1 644.560 20.5313   3
  -6  -2   1 634.489 12.9986   1
   5   2  -1 183.684 5.62361   8
   5   2  -1 199.678 6.16071  10
   5   2  -1 187.717 6.17383   9
  -5  -2   1 193.192 5.94850   1
  -5  -2   1 168.482 5.74776   6
  -5  -2   1 194.123 8.39597   3
  -5  -2   1 196.938 12.5013  10
  -5  -2   1 205.815 8.58882   5
  -5  -2   1 197.798 10.0640   8
  -5  -2   1 201.310 4.83607   9
  -5  -2   1 190.839 10.1725   4
  -5  -2   1 186.464 7.22027   7
   4   2  -1 22.2040 2.01413  10
   4   2  -1 23.8084 2.23668   7
   4   2  -1 18.0180 1.59974   9
   4   2  -1 20.8986 1.89444   8
  -4  -2   1 16.2967 1.54120   9
  -4  -2   1 24.3620 4.62218  10
  -4  -2   1 19.6837 2.08013   3
  -4  -2   1 19.0486 1.82754   5
  -4  -2   1 18.2420 6.60921   7
  -4  -2   1 19.9774 1.76019   1
  -4  -2   1 24.5644 4.04802   8
  -4  -2   1 23.5289 4.62145   4
  -4  -2   1 15.4104 6.51084   6
   3   2  -1 2304.59 43.4318   9
   3   2  -1 2183.69 78.3144   7
   3   2  -1 2254.98 59.4166   8
   3   2  -1 2280.22 62.2560  10
  -3  -2   1 2316.04 69.5450   5
  -3  -2   1 2320.45 48.5415   9
  -3  -2   1 2345.52 105.335   6
  -3  -2   1 2304.39 83.4696   2
  -3  -2   1 2364.11 54.6439   8
  -3  -2   1 2326.46 52.4726   7
  -3  -2   1 2313.93 66.5957   4
  -3  -2   1 2328.52 57.4121  10
  -3  -2   1 2337.38 87.1409   3
   2   2  -1 527.227 12.2122   9
   2   2  -1 521.043 21.7126   7
   2   2  -1 518.794 13.8678  10
   2   2  -1 496.015 18.9802   2
   2   2  -1 520.333 12.5209   6
   2   2  -1 534.659 13.7738   8
  -2  -2   1 515.659 16.3666   7
  -2  -2   1 539.588 25.5373   6
  -2  -2   1 528.617 10.5849   9
  -2  -2   1 518.449 17.3412   4
  -2  -2   1 534.317 21.3758  10
  -2  -2   1 523.696 20.6314   8
  -2  -2   1 536.716 17.1373   2
   1   2  -1 9327.30 295.145   2
   1   2  -1 9652.62 353.044   7
   1   2  -1 9876.42 374.494   6
  -1  -2   1 9645.89 112.167   9
  -1  -2   1 9999.99 293.997   1
  -1  -2   1 9685.84 290.708   6
  -1  -2   1 9687.92 256.244   7
  -1  -2   1 9677.65 284.697   2
   0   2  -1 606.695 18.0851   1
   0   2  -1 637.631 15.2778   6
   0   2  -1 623.020 29.5921   2
   0  -2   1 651.142 19.8982   6
   0  -2   1 653.472 22.4074   2
   0  -2   1 668.285 14.2288   4
   0  -2   1 647.388 24.8540   1
  -1   2  -1 38.1217 1.90577   6
  -1   2  -1 39.7209 1.36824   4
  -1   2  -1 36.4997 1.44965   1
  -1   2  -1 37.9793 2.34533   2
   1  -2   1 36.7376 1.33386   8
   1  -2   1 38.5585 1.89323   2
   1  -2   1 37.1116 1.37483   4
   1  -2   1 37.8086 1.39985  10
   1  -2   1 36.8814 1.43946   1
   1  -2   1 33.6119 1.93339   6
  -2   2  -1 1639.23 37.4972   8
  -2   2  -1 1641.83 44.4817   4
  -2   2  -1 1642.68 38.3451  10
  -2   2  -1 1604.87 38.2137   1
  -2   2  -1 1650.08 36.9773   6
  -2   2  -1 1604.03 55.1972   2
   2  -2   1 1641.13 35.9544   4
   2  -2   1 1648.74 43.3666   3
   2  -2   1 1654.09 55.0583   1
   2  -2   1 1620.03 53.2217   8
   2  -2   1 1609.06 37.9201   2
   2  -2   1 1614.83 60.6508  10
   2  -2   1 1626.09 41.9336   6
  -3   2  -1 685.216 12.1357   1
  -3   2  -1 678.652 13.3939   4
  -3   2  -1 684.864 20.0387  10
  -3   2  -1 677.079 18.3037   8
  -3   2  -1 686.488 28.3321   6
  -3   2  -1 681.393 20.9696   2
   3  -2   1 690.477 14.9143  10
   3  -2   1 687.922 14.2788   4
   3  -2   1 694.310 12.8293   8
   3  -2   1 687.665 15.7336   2
   3  -2   1 708.386 21.4218   3
   3  -2   1 716.796 38.6772   1
  -4   2  -1 911.049 30.1571   2
  -4   2  -1 879.887 31.2923   4
  -4   2  -1 863.388 26.9319   1
  -4   2  -1 890.096 35.0006   6
  -4   2  -1 854.798 41.0098  10
  -4   2  -1 844.199 39.7619   8
   4  -2   1 842.797 30.7142  10
   4  -2   1 857.986 32.6716   8
   4  -2   1 890.236 19.9557   4
   4  -2   1 855.981 21.8491   5
   4  -2   1 859.055 35.6374   3
   4  -2   1 861.406 22.7292   2
   4  -2   1 871.366 23.7007   1
  -5   2  -1 777.631 33.9505   6
  -5   2  -1 817.776 19.1312   1
   5  -2   1 780.787 37.3335   3
   5  -2   1 812.402 21.8605   4
   5  -2   1 800.917 20.9659   8
   5  -2   1 787.422 23.8187  10
   5  -2   1 774.053 25.1248   5
   5  -2   1 815.983 23.8230   2
  -6   2  -1 517.017 19.7717   6
  -6   2  -1 514.140 20.5532   1
   6  -2   1 528.281 19.5996  10
   6  -2   1 529.579 17.8683   5
   6  -2   1 523.884 29.4906   3
   6  -2   1 530.330 16.2585   4
   6  -2   1 541.525 22.8407   8
  -7   2  -1 61.5744 4.32010   1
  -7   2  -1 49.9751 3.83033   6
   7  -2   1 51.1304 3.89312  10
   7  -2   1 56.7574 4.50508   4
   7  -2   1 52.0826 3.71789   8
   7  -2   1 61.0970 2.78781   9
   7  -2   1 58.0533 3.53615   3
   7  -2   1 55.0052 3.66702   5
  -8   2  -1 220.853 10.5301   1
  -8   2  -1 243.542 11.6537   6
   8  -2   1 238.227 11.5553   5
   8  -2   1 240.793 11.5359   9
   8  -2   1 212.323 9.09200   8
   8  -2   1 218.601 9.04594   4
   8  -2   1 239.010 9.13621  10
  -9   2  -1 276.088 12.1048   6
  -9   2  -1 291.051 15.5050   1
   9  -2   1 263.494 11.7925   8
   9  -2   1 275.806 11.5643   4
   9  -2   1 285.594 14.4013  10
 -10   2  -1 40.5087 5.58374   1
 -10   2  -1 27.6643 6.26680   6
  10  -2   1 30.4287 4.81987   8
  10  -2   1 35.8796 5.16368  10
 -11   2  -1 26.5136 7.26077   6
 -11   2  -1 31.6092 8.44351   1
  11  -2   1 31.7582 7.16968   8
  11  -2   1 28.2547 7.20437  10
  12   1  -1 -2.2825 4.94274  10
  12   1  -1 -0.1834 4.68087   8
 -12  -1   1 0.64545 7.48964   1
  11   1  -1 -0.9094 3.71773  10
  11   1  -1 -3.1025 3.71970   8
 -11  -1   1 -0.6390 4.18711   1
  10   1  -1 58.0421 4.95825   8
  10   1  -1 58.8031 5.25254  10
 -10  -1   1 49.7651 5.31189   1
   9   1  -1 42.9648 5.03650  10
   9   1  -1 44.7117 2.95627   9
   9   1  -1 34.9148 4.61814   8
  -9  -1   1 37.6380 5.35690   1
   8   1  -1 7.32132 3.50963  10
   8   1  -1 7.85547 3.49319   8
   8   1  -1 7.23552 1.71872   9
  -8  -1   1 6.78917 2.90546   1
  -8  -1   1 7.86178 2.52703   5
  -8  -1   1 4.55330 2.25552   3
   7   1  -1 410.110 15.9911  10
   7   1  -1 432.527 13.0317   8
   7   1  -1 421.707 12.4103   9
  -7  -1   1 413.068 12.0277   1
  -7  -1   1 449.034 25.6336   5
  -7  -1   1 409.384 24.8562   3
   6   1  -1 0.62452 2.28193   8
   6   1  -1 0.25370 1.08421   5
   6   1  -1 0.05177 1.24609   9
   6   1  -1 -0.3496 2.38058  10
  -6  -1   1 2.43109 1.46346   9
  -6  -1   1 -4.2120 2.49772   1
  -6  -1   1 -2.0116 1.66648   3
  -6  -1   1 0.43173 1.48849   5
  -6  -1   1 -0.2169 2.24749   7
   5   1  -1 11.7358 1.38257   9
   5   1  -1 10.1967 1.52392   5
   5   1  -1 10.3534 1.74851  10
   5   1  -1 7.30574 1.57783   8
  -5  -1   1 8.02663 1.75340   1
  -5  -1   1 4.79488 2.01313   8
  -5  -1   1 7.19175 1.55328   7
  -5  -1   1 7.22525 1.60580   3
  -5  -1   1 6.21662 2.20610  10
  -5  -1   1 3.09667 2.02372   4
  -5  -1   1 6.82688 1.45969   5
  -5  -1   1 6.11705 1.24927   9
   4   1  -1 1140.64 30.2546   8
   4   1  -1 1135.99 31.9450  10
   4   1  -1 1159.50 50.9575   9
   4   1  -1 1149.18 41.6095   5
  -4  -1   1 1143.62 33.7539   1
  -4  -1   1 1159.65 22.5091   9
  -4  -1   1 1173.54 118.402  10
  -4  -1   1 1152.09 112.383   8
  -4  -1   1 1181.26 29.4210   7
  -4  -1   1 1140.92 45.9809   3
  -4  -1   1 1152.64 22.7803   5
  -4  -1   1 1204.08 112.480   4
   3   1  -1 410.531 11.5882   8
   3   1  -1 428.650 12.6924   9
   3   1  -1 436.809 12.1136   7
   3   1  -1 420.169 12.7070  10
   3   1  -1 440.367 9.21575   5
  -3  -1   1 432.079 13.5729   7
  -3  -1   1 418.227 15.0986   5
  -3  -1   1 428.805 12.3962   3
  -3  -1   1 426.864 10.0945   1
  -3  -1   1 445.840 11.6914  10
  -3  -1   1 422.358 7.64955   9
  -3  -1   1 443.434 8.69725   4
  -3  -1   1 449.284 11.7305   8
   2   1  -1 226.264 5.96956  10
   2   1  -1 224.905 8.89270   7
   2   1  -1 222.508 5.54099   9
   2   1  -1 230.316 5.63401   8
  -2  -1   1 219.276 9.68194   1
  -2  -1   1 220.605 6.95875  10
  -2  -1   1 225.164 5.43324   4
  -2  -1   1 220.572 5.37062   5
  -2  -1   1 221.834 7.85794   6
  -2  -1   1 219.429 4.80972   9
  -2  -1   1 228.278 7.91283   2
  -2  -1   1 227.745 7.08184   8
  -2  -1   1 227.645 8.11137   7
   1   1  -1 5960.08 249.076   7
   1   1  -1 5883.73 180.430   2
   1   1  -1 5778.32 168.121   9
   1   1  -1 6039.74 254.409   6
  -1  -1   1 5883.03 237.678   8
  -1  -1   1 6013.84 223.695   2
  -1  -1   1 5889.85 257.916  10
  -1  -1   1 5774.67 130.310   9
  -1  -1   1 5911.47 225.788   6
  -1  -1   1 6000.15 234.319   7
   0   1  -1 388.251 10.4229   2
   0   1  -1 392.228 14.2539   6
   0   1  -1 374.989 13.1781   1
   0  -1   1 399.514 13.0254   2
   0  -1   1 391.793 16.4433   1
   0  -1   1 401.427 15.8139   6
   0  -1   1 381.107 8.79145   9
   0  -1   1 391.109 14.4736   4
  -1   1  -1 570.179 19.9694   1
  -1   1  -1 589.503 13.5771   6
  -1   1  -1 576.917 12.9474   4
  -1   1  -1 559.436 13.9431   2
   1  -1   1 593.345 17.5705  10
   1  -1   1 583.504 14.2724   2
   1  -1   1 590.450 19.0478   1
   1  -1   1 578.758 18.1159   6
   1  -1   1 596.600 16.7625   8
   1  -1   1 596.088 17.3267   4
   1  -1   1 579.327 17.5256   3
  -2   1  -1 1171.54 27.6066   2
  -2   1  -1 1172.73 31.1284   1
  -2   1  -1 1168.89 22.1653   8
  -2   1  -1 1158.44 24.3379  10
  -2   1  -1 1118.77 23.2872   6
  -2   1  -1 1170.59 46.1377   4
  -2   1  -1 1168.97 32.6356   3
   2  -1   1 1190.40 33.3419  10
   2  -1   1 1198.04 35.6171   4
   2  -1   1 1182.19 33.9511   1
   2  -1   1 1176.90 31.1424   8
   2  -1   1 1131.91 33.5420   3
   2  -1   1 1152.15 36.3008   2
  -3   1  -1 3.83040 1.18981   2
  -3   1  -1 4.79304 0.88801   3
  -3   1  -1 4.38217 1.44163   8
  -3   1  -1 8.29702 1.24332   1
  -3   1  -1 8.39189 1.58428  10
  -3   1  -1 6.93605 1.55325   4
   3  -1   1 3.96080 1.47234   2
   3  -1   1 6.90635 0.84389   5
   3  -1   1 4.09604 1.09601   1
   3  -1   1 6.78847 1.48678   8
   3  -1   1 4.20274 1.49122  10
   3  -1   1 4.27356 1.35946   4
   3  -1   1 5.44026 0.93298   3
  -4   1  -1 1342.97 59.6750  10
  -4   1  -1 1371.09 54.1654   8
  -4   1  -1 1335.90 29.1933   1
  -4   1  -1 1361.53 48.4213   4
  -4   1  -1 1318.92 45.1736   3
  -4   1  -1 1355.72 40.5993   2
   4  -1   1 1270.74 44.4841   5
   4  -1   1 1301.28 26.3292   3
   4  -1   1 1356.63 28.8301  10
   4  -1   1 1345.50 31.7898   4
   4  -1   1 1324.97 35.8357   2
   4  -1   1 1352.78 29.0423   8
   4  -1   1 1348.86 37.8139   1
  -5   1  -1 304.308 11.0700   2
  -5   1  -1 318.290 7.44029   1
  -5   1  -1 315.545 13.3693  10
  -5   1  -1 304.357 9.25571   3
  -5   1  -1 312.643 13.6046   8
  -5   1  -1 320.764 10.5961   4
   5  -1   1 314.739 13.7819   8
   5  -1   1 319.956 7.12846   3
   5  -1   1 329.438 9.12196   4
   5  -1   1 328.505 10.0025   1
   5  -1   1 308.149 8.46189   5
   5  -1   1 319.449 7.46561   2
   5  -1   1 310.102 14.1118  10
  -6   1  -1 309.827 9.86536   1
  -6   1  -1 300.404 19.5860   3
   6  -1   1 307.231 12.4305   4
   6  -1   1 308.860 10.8371   8
   6  -1   1 299.239 11.8667   5
   6  -1   1 302.881 11.3882   3
   6  -1   1 306.050 9.51151   9
   6  -1   1 298.324 10.8123  10
  -7   1  -1 519.219 19.3484   1
  -7   1  -1 515.384 26.3795   3
   7  -1   1 492.444 21.1625   9
   7  -1   1 493.464 26.8406   3
   7  -1   1 505.601 14.2327   4
   7  -1   1 494.044 13.6962  10
   7  -1   1 512.813 17.2061   8
   7  -1   1 499.526 14.3232   5
  -8   1  -1 259.322 16.9980   1
   8  -1   1 247.821 10.3337   5
   8  -1   1 238.086 11.7012   8
   8  -1   1 250.339 11.3931  10
   8  -1   1 252.153 10.6000   4
   8  -1   1 258.831 11.4834   9
  -9   1  -1 74.6330 6.54679   1
   9  -1   1 65.0548 5.72140   4
   9  -1   1 74.2968 5.44992  10
   9  -1   1 73.1071 5.16796   8
 -10   1  -1 111.870 9.09173   1
  10  -1   1 84.7728 6.79563  10
  10  -1   1 86.3443 6.21536   8
  10  -1   1 83.5573 6.14000   4
 -11   1  -1 38.4432 7.40085   1
 -11   1  -1 27.7782 6.57536   6
  11  -1   1 36.5436 7.24106  10
  11  -1   1 24.9428 6.73560   8
  11   0  -1 18.4447 6.43628   8
  11   0  -1 23.9999 6.81357  10
 -11   0   1 16.5852 5.13539   1
  10   0  -1 7.93529 4.88658  10
  10   0  -1 6.17407 4.67049   8
 -10   0   1 1.64847 3.73559   1
   9   0  -1 1.80785 1.63502   9
   9   0  -1 1.06965 1.53969   5
   9   0  -1 0.05265 3.83231  10
   9   0  -1 -3.7575 3.72310   8
  -9   0   1 -0.2047 2.98075   1
   8   0  -1 58.0872 3.49092   5
   8   0  -1 53.9223 3.04037   9
   8   0  -1 44.7808 4.63361  10
   8   0  -1 49.5486 4.53827   8
  -8   0   1 48.7602 2.91812   3
  -8   0   1 57.5132 4.41484   1
   7   0  -1 9.57217 1.51638   9
   7   0  -1 9.40093 1.74622   5
   7   0  -1 9.72393 2.43296  10
   7   0  -1 9.12367 2.29164   8
  -7   0   1 9.49196 1.80151   3
  -7   0   1 10.0881 2.00601   5
  -7   0   1 10.7250 3.68092   1
   6   0  -1 61.7042 2.33808   9
   6   0  -1 66.3237 2.61051   5
   6   0  -1 56.2742 3.58416   8
   6   0  -1 65.6780 3.95630  10
  -6   0   1 56.8903 2.66800   3
  -6   0   1 66.6210 3.98062   1
  -6   0   1 56.8365 3.13531   5
   5   0  -1 55.1455 8.13110   1
   5   0  -1 58.8363 2.16499   5
   5   0  -1 53.7448 1.94420   9
   5   0  -1 53.9259 2.89550  10
   5   0  -1 53.1481 2.72511   8
  -5   0   1 49.5058 3.32158   4
  -5   0   1 44.6370 2.70265   8
  -5   0   1 44.9716 3.37308   1
  -5   0   1 41.4930 2.99614  10
  -5   0   1 47.9480 2.30044   5
  -5   0   1 55.0797 2.08144   3
   4   0  -1 476.447 12.1013   5
   4   0  -1 467.520 15.0746  10
   4   0  -1 479.871 15.4579   9
   4   0  -1 490.694 16.5009   8
   4   0  -1 490.155 8.19564   1
  -4   0   1 464.500 25.8766   8
  -4   0   1 498.713 13.3158   5
  -4   0   1 496.184 17.0168   1
  -4   0   1 483.727 28.5483  10
  -4   0   1 499.852 11.7924   3
  -4   0   1 498.795 9.34026   9
  -4   0   1 487.219 19.7662   4
   3   0  -1 29.8342 1.32540   9
   3   0  -1 29.2154 1.68086   1
   3   0  -1 29.8685 1.71344  10
   3   0  -1 28.2659 1.48378   5
   3   0  -1 30.2127 1.65587   8
  -3   0   1 24.5883 1.86654   8
  -3   0   1 28.1779 1.81153   4
  -3   0   1 28.0761 1.70137   1
  -3   0   1 28.8198 1.31901   9
  -3   0   1 29.0211 1.38426   5
  -3   0   1 28.1520 1.45219   3
  -3   0   1 30.1294 2.20372  10
   2   0  -1 2439.96 70.6931  10
   2   0  -1 2480.47 71.2843   8
   2   0  -1 2496.15 75.9890   5
   2   0  -1 2472.80 72.1007   9
   2   0  -1 2480.18 73.3579   1
  -2   0   1 2603.61 82.7927   4
  -2   0   1 2552.45 59.4855   8
  -2   0   1 2532.32 59.1344   5
  -2   0   1 2637.72 105.083   7
  -2   0   1 2505.62 59.0137   9
  -2   0   1 2584.92 65.0097  10
  -2   0   1 2468.47 77.9809   1
   1   0  -1 67.9026 2.80749   7
   1   0  -1 65.2567 2.15863   5
   1   0  -1 69.2788 4.10732   1
   1   0  -1 67.5164 1.93156   9
  -1   0   1 65.5341 2.53332   5
  -1   0   1 71.1689 2.46986   7
  -1   0   1 62.8910 1.84031   9
  -1   0   1 72.0040 2.80965  10
  -1   0   1 73.7382 2.38411   1
  -1   0   1 64.1268 2.82564   6
  -1   0   1 71.8080 2.48565   8
   0   0  -1 16.5314 0.81201   3
   0   0  -1 16.9332 0.65218   9
   0   0  -1 17.1484 0.62715   6
   0   0  -1 17.7665 0.81280   5
   0   0  -1 17.2779 0.70962   1
   0   0   1 15.2968 0.69434   5
   0   0   1 15.9244 0.55839   6
   0   0   1 15.6551 0.72855   3
   0   0   1 16.8336 0.59735   9
   0   0   1 16.7855 0.68458   1
   0   0   1 19.1843 0.84026   2
  -1   0  -1 1506.59 44.8181   9
  -1   0  -1 1470.96 48.0803   1
  -1   0  -1 1520.53 35.4128   4
  -1   0  -1 1461.22 44.6748   2
  -1   0  -1 1501.72 45.4992   3
   1   0   1 1499.59 39.4231   4
   1   0   1 1471.10 34.7072   9
   1   0   1 1497.05 46.6302   2
   1   0   1 1492.17 43.1375   3
  -2   0  -1 181.139 6.46784  10
  -2   0  -1 184.650 7.23605   4
  -2   0  -1 192.846 5.77412   3
  -2   0  -1 189.695 6.98729   1
  -2   0  -1 178.260 5.77005   2
  -2   0  -1 186.265 6.40284   8
   2   0   1 189.194 6.86820   4
   2   0   1 193.092 6.03843   8
   2   0   1 180.151 6.92884   3
   2   0   1 184.543 5.36184  10
   2   0   1 183.490 5.64032   2
  -3   0  -1 1349.37 40.1216   8
  -3   0  -1 1324.55 43.8130  10
  -3   0  -1 1362.10 60.3239   1
  -3   0  -1 1327.31 36.3689   4
  -3   0  -1 1359.70 35.5772   3
  -3   0  -1 1361.45 48.0842   2
   3   0   1 1347.19 40.1038   8
   3   0   1 1371.49 34.5145   4
   3   0   1 1329.06 40.4557   2
   3   0   1 1350.85 44.7571  10
   3   0   1 1297.92 38.6555   3
   3   0   1 1332.04 48.8437   1
   3   0   1 1329.18 29.7467   5
  -4   0  -1 1256.98 30.9163   1
  -4   0  -1 1252.70 30.1740   8
  -4   0  -1 1234.47 62.4901   2
  -4   0  -1 1251.44 32.6573  10
  -4   0  -1 1247.25 47.3491   3
  -4   0  -1 1217.74 34.3027   4
   4   0   1 1208.52 21.1263   5
   4   0   1 1258.61 32.5817   2
   4   0   1 1268.94 27.6305   4
   4   0   1 1261.70 25.8419  10
   4   0   1 1202.45 21.2004   9
   4   0   1 1250.40 24.1571   8
   4   0   1 1196.66 36.5460   3
  -5   0  -1 201.093 8.78578   4
  -5   0  -1 210.951 6.29231   2
  -5   0  -1 206.357 7.81536   8
  -5   0  -1 206.803 9.43908  10
  -5   0  -1 193.605 10.0355   1
  -5   0  -1 207.821 4.94384   3
   5   0   1 210.357 6.74948  10
   5   0   1 206.670 4.33125   9
   5   0   1 213.822 7.44114   8
   5   0   1 203.701 5.18131   5
   5   0   1 201.345 4.89381   3
   5   0   1 197.116 5.10447   4
  -6   0  -1 913.662 18.1149   1
  -6   0  -1 919.461 50.9179   3
   6   0   1 894.087 29.8353   8
   6   0   1 924.269 29.4063  10
   6   0   1 879.192 29.3927   3
   6   0   1 893.312 22.5647   9
   6   0   1 892.839 26.7908   5
   6   0   1 907.568 28.7352   4
  -7   0  -1 295.982 14.9803   3
  -7   0  -1 295.974 9.23463   1
   7   0   1 304.474 13.2926   4
   7   0   1 298.696 12.7477   8
   7   0   1 299.414 12.6269  10
   7   0   1 292.871 9.47502   3
   7   0   1 302.481 11.9848   9
   7   0   1 296.963 13.9843   5
  -8   0  -1 60.5599 5.27368   1
  -8   0  -1 57.7231 3.64157   3
   8   0   1 58.8808 4.93135   4
   8   0   1 59.8992 3.93215   3
   8   0   1 67.0939 3.15168   9
   8   0   1 63.2068 4.78704   8
   8   0   1 53.5124 4.89360  10
  -9   0  -1 120.929 7.09160   1
   9   0   1 127.804 6.49260   8
   9   0   1 133.082 6.92076  10
   9   0   1 129.216 6.10499   4
 -10   0  -1 51.4588 5.44150   1
  10   0   1 51.6564 6.22667   4
  10   0   1 48.6668 6.30098  10
  10   0   1 54.0017 6.08502   8
  11   0   1 38.1292 17.5389   8
  11   0   1 36.4671 19.5406  10
  11  -1  -1 10.0085 17.1511   8
  11  -1  -1 6.03760 18.4228  10
 -11   1   1 6.18602 6.53148   1
  10  -1  -1 0.63395 4.73856   8
  10  -1  -1 -1.5449 4.76849  10
 -10   1   1 0.75121 5.43050   1
   9  -1  -1 4.80127 1.80257   9
   9  -1  -1 1.68686 2.92282  10
   9  -1  -1 0.81479 2.70677   8
   9  -1  -1 3.33130 2.06068   5
  -9   1   1 2.39186 4.61940   1
   8  -1  -1 12.4470 2.99990  10
   8  -1  -1 14.5698 2.98478   8
   8  -1  -1 18.6909 2.00305   9
   8  -1  -1 15.8540 2.21647   5
  -8   1   1 9.12167 3.12781   1
   7  -1  -1 27.0671 3.10114  10
   7  -1  -1 24.9930 2.87211   8
   7  -1  -1 26.9357 2.30206   5
   7  -1  -1 25.5285 1.98702   9
  -7   1   1 20.6331 3.03876   1
  -7   1   1 19.2811 2.27873   5
  -7   1   1 20.9868 1.13452   3
   6  -1  -1 58.8899 3.95243  10
   6  -1  -1 69.8924 3.91579   8
   6  -1  -1 61.0662 2.98944   5
   6  -1  -1 59.0586 2.93355   9
  -6   1   1 63.4072 3.05974   5
  -6   1   1 49.0226 4.12464   1
  -6   1   1 60.6198 2.98334   3
   5  -1  -1 18.7922 2.43350   8
   5  -1  -1 20.0070 2.57147  10
   5  -1  -1 17.9565 2.56724   1
  -5   1   1 15.5765 2.19302   2
  -5   1   1 16.4009 1.82701   5
  -5   1   1 22.4132 3.95800   4
  -5   1   1 14.3651 3.08234   8
  -5   1   1 15.3256 0.84932   3
  -5   1   1 13.6849 2.54411   1
  -5   1   1 17.4348 3.38791  10
   4  -1  -1 605.815 10.4010   5
   4  -1  -1 605.737 12.0402   8
   4  -1  -1 615.102 12.6963  10
   4  -1  -1 609.311 11.1146   9
   4  -1  -1 618.776 11.3423   1
  -4   1   1 619.318 27.3257   8
  -4   1   1 656.325 13.2814   2
  -4   1   1 601.392 26.1102  10
  -4   1   1 590.750 25.8194   4
  -4   1   1 624.882 17.1909   3
  -4   1   1 655.545 92.2345   1
  -4   1   1 625.300 22.1739   5
   3  -1  -1 141.761 4.41531   5
   3  -1  -1 133.025 4.93592   8
   3  -1  -1 141.371 6.55811   1
   3  -1  -1 138.820 5.30885  10
   3  -1  -1 138.568 3.27467   9
  -3   1   1 141.906 6.36426   8
  -3   1   1 149.331 4.60959   3
  -3   1   1 145.569 5.72106   5
  -3   1   1 149.825 4.12012   4
  -3   1   1 143.264 6.05602  10
  -3   1   1 149.356 8.92949   1
   2  -1  -1 995.554 31.2458  10
   2  -1  -1 1006.39 28.0353   5
   2  -1  -1 971.855 39.1097   1
   2  -1  -1 982.964 30.1498   8
  -2   1   1 1018.19 43.5200   3
  -2   1   1 968.301 26.7960   3
  -2   1   1 1004.91 29.9648   5
  -2   1   1 1008.28 40.6246  10
  -2   1   1 992.634 32.1554   8
  -2   1   1 1007.27 42.8511   4
  -2   1   1 1003.78 33.2957   1
   1  -1  -1 1930.68 82.1792   8
   1  -1  -1 1918.01 85.5108  10
   1  -1  -1 1935.60 71.0513   1
   1  -1  -1 1903.48 46.7960   3
   1  -1  -1 1925.47 59.5801   5
  -1   1   1 1922.49 70.2273   1
  -1   1   1 1911.13 72.7769   6
  -1   1   1 1898.74 55.8347   8
  -1   1   1 1942.53 79.8531   5
  -1   1   1 1976.47 56.6355   3
  -1   1   1 1895.39 57.3407  10
   0  -1  -1 15.8234 1.29235   1
   0  -1  -1 13.9384 0.95568   5
   0  -1  -1 13.2883 1.08148   6
   0  -1  -1 12.3420 0.77273   3
   0  -1  -1 13.8225 1.23497   7
   0   1   1 14.6724 0.96134   6
   0   1   1 14.1435 1.49620   5
   0   1   1 13.4349 0.83226   3
   0   1   1 13.6772 1.13263   1
   0   1   1 14.7283 0.99915   7
  -1  -1  -1 361.936 11.4839   5
  -1  -1  -1 346.478 10.9587   2
  -1  -1  -1 361.844 14.4244   3
  -1  -1  -1 354.735 8.10242   4
  -1  -1  -1 355.984 12.1836   7
   1   1   1 345.737 8.40388   2
   1   1   1 341.143 10.5590   4
   1   1   1 349.783 12.3181   3
  -2  -1  -1 380.540 8.06373   4
  -2  -1  -1 377.489 10.3797  10
  -2  -1  -1 381.223 9.42338   2
  -2  -1  -1 381.994 9.51252   8
  -2  -1  -1 398.673 12.8705   3
   2   1   1 377.836 9.95636   4
   2   1   1 373.707 17.3823   3
   2   1   1 380.387 12.1158   2
   2   1   1 381.798 8.82815   8
   2   1   1 377.495 8.61235  10
  -3  -1  -1 1414.90 60.6222  10
  -3  -1  -1 1462.98 39.1943   3
  -3  -1  -1 1449.59 28.0632   2
  -3  -1  -1 1428.20 39.8958   9
  -3  -1  -1 1426.24 42.1395   5
  -3  -1  -1 1426.91 44.7861   1
  -3  -1  -1 1438.14 45.6956   4
  -3  -1  -1 1417.42 55.4650   8
   3   1   1 1456.71 52.9574  10
   3   1   1 1398.22 34.4388   3
   3   1   1 1425.01 48.2403   8
   3   1   1 1406.65 38.4353   4
  -4  -1  -1 0.67066 1.16584   3
  -4  -1  -1 -0.0310 1.18199   1
  -4  -1  -1 2.07062 0.63917   5
  -4  -1  -1 0.70664 1.28744   2
  -4  -1  -1 3.18106 2.50194  10
  -4  -1  -1 1.75122 2.07182   4
  -4  -1  -1 2.58150 2.20781   8
   4   1   1 1.04852 0.31019   9
   4   1   1 -0.1750 1.48146   4
   4   1   1 2.43234 1.66873  10
   4   1   1 2.79098 1.19774   3
   4   1   1 2.70819 1.56110   8
  -5  -1  -1 1118.74 33.7265   2
  -5  -1  -1 1115.14 45.4655   3
  -5  -1  -1 1108.83 37.4750   5
  -5  -1  -1 1091.00 23.0649  10
  -5  -1  -1 1067.05 19.6554   1
  -5  -1  -1 1102.67 23.3226   8
  -5  -1  -1 1097.56 30.9031   4
   5   1   1 1064.34 26.5784   9
   5   1   1 1040.36 28.9016   3
   5   1   1 1054.65 18.8688   8
   5   1   1 1075.57 22.7194  10
   5   1   1 1055.79 24.0136   4
  -6  -1  -1 215.835 7.71523   3
  -6  -1  -1 194.036 5.65655   1
  -6  -1  -1 181.827 9.77923   2
  -6  -1  -1 208.223 4.42774   5
   6   1   1 199.840 5.82032   8
   6   1   1 203.262 6.76978   3
   6   1   1 190.548 6.52726   4
   6   1   1 208.392 9.31466   9
   6   1   1 203.306 6.00153  10
  -7  -1  -1 6.30657 3.32834   1
  -7  -1  -1 9.04226 2.15725   3
  -7  -1  -1 6.50321 1.02140   5
   7   1   1 3.00181 3.00022  10
   7   1   1 9.74111 2.97836   8
   7   1   1 9.40779 1.85798   3
   7   1   1 9.48051 3.03201   4
  -8  -1  -1 70.9446 8.28889   1
  -8  -1  -1 66.7172 3.92592   3
   8   1   1 77.2265 4.66172  10
   8   1   1 83.1135 4.74114   8
   8   1   1 74.2489 4.14177   3
   8   1   1 77.7350 4.58990   4
  -9  -1  -1 62.5418 5.13044   1
  -9  -1  -1 62.4085 3.85164   3
   9   1   1 57.3241 4.66245  10
   9   1   1 64.1453 5.35540   4
   9   1   1 63.0181 4.66754   8
 -10  -1  -1 6.66619 6.08568   1
  10   1   1 2.91407 3.37004   4
  10   1   1 0.26840 3.34111   8
  10   1   1 -0.4049 3.47429  10
 -11  -1  -1 33.6813 5.51111   1
  11   1   1 34.2090 7.15833   8
  11   1   1 46.3738 8.16826  10
  11  -2  -1 1.04115 4.58549  10
  11  -2  -1 -1.5187 4.31299   8
 -11   2   1 2.34104 7.20109   1
 -11   2   1 -0.8476 4.00536   6
  10  -2  -1 6.78840 3.87463  10
  10  -2  -1 1.65787 3.60146   8
 -10   2   1 1.56612 3.35395   6
 -10   2   1 8.29000 4.56707   1
   9  -2  -1 17.1091 2.57702   5
   9  -2  -1 18.8392 2.32772   9
   9  -2  -1 15.6978 4.49614   8
   9  -2  -1 13.6339 4.62039  10
  -9   2   1 11.2028 4.12726   6
  -9   2   1 9.63762 3.85203   1
   8  -2  -1 18.2549 4.21510   8
   8  -2  -1 32.3821 2.44175   9
   8  -2  -1 25.2937 4.40412  10
   8  -2  -1 28.0485 2.73823   5
  -8   2   1 20.8423 4.67309   1
   7  -2  -1 1.94978 1.83171   5
   7  -2  -1 3.22738 1.94647   9
   7  -2  -1 2.59264 2.29461  10
   7  -2  -1 2.31602 2.22542   8
  -7   2   1 1.31963 2.11246   5
  -7   2   1 4.06106 2.48980   1
   6  -2  -1 82.9594 4.49852   8
   6  -2  -1 83.6189 3.21160   5
   6  -2  -1 86.8929 2.85363   9
   6  -2  -1 85.6112 4.88885  10
  -6   2   1 77.2868 4.03090   5
  -6   2   1 87.4746 4.78800   1
   5  -2  -1 16.9170 1.66673   9
   5  -2  -1 13.3085 1.92571   8
   5  -2  -1 17.5393 1.86687   5
   5  -2  -1 12.8519 1.98797  10
  -5   2   1 15.8321 2.13953   8
  -5   2   1 15.7911 2.79490   1
  -5   2   1 15.2440 5.81509   4
  -5   2   1 15.0821 2.27650  10
  -5   2   1 15.8160 1.96182   5
   4  -2  -1 426.989 10.2271   8
   4  -2  -1 416.380 11.3204  10
   4  -2  -1 411.647 10.3240   5
   4  -2  -1 417.216 12.2864   1
  -4   2   1 412.192 7.89461   1
  -4   2   1 417.899 12.8083   6
  -4   2   1 438.645 19.9835   5
  -4   2   1 396.892 26.9876  10
  -4   2   1 444.566 12.8223   2
  -4   2   1 424.120 22.6394   4
  -4   2   1 425.567 26.9201   8
   3  -2  -1 35.0838 1.77286   5
   3  -2  -1 30.5218 2.22433   1
   3  -2  -1 33.7537 1.89022  10
   3  -2  -1 32.5642 1.77242   8
  -3   2   1 30.4687 2.17867  10
  -3   2   1 32.7337 2.11747   4
  -3   2   1 28.6136 1.89250   5
  -3   2   1 41.2968 2.25166   8
  -3   2   1 28.8794 1.88272   6
  -3   2   1 34.6363 2.20565   2
   2  -2  -1 110.297 3.46961   3
   2  -2  -1 105.341 3.09763   5
   2  -2  -1 102.972 4.25409  10
   2  -2  -1 114.894 3.84792   1
   2  -2  -1 104.504 3.86597   8
  -2   2   1 111.183 8.57066   4
  -2   2   1 118.257 3.94663   2
  -2   2   1 109.371 2.90660   8
  -2   2   1 110.708 3.08045   6
  -2   2   1 113.685 3.11177  10
  -2   2   1 109.114 2.86256   1
  -2   2   1 106.944 4.40728   5
   1  -2  -1 50.2934 2.39073   6
   1  -2  -1 65.0910 3.04389  10
   1  -2  -1 64.7650 2.78383   8
   1  -2  -1 53.6763 2.03096   5
   1  -2  -1 53.1194 1.78061   3
   1  -2  -1 55.5801 2.82900   1
  -1   2   1 53.4008 2.09831   1
  -1   2   1 52.4148 2.89384  10
  -1   2   1 54.4267 1.98168   3
  -1   2   1 54.3449 3.10551   8
  -1   2   1 48.4239 3.17166   5
  -1   2   1 59.3430 8.42671   2
  -1   2   1 57.4098 3.10553   6
   0  -2  -1 1198.04 48.9666   3
   0  -2  -1 1174.21 38.2702   5
   0  -2  -1 1149.68 36.5458   1
   0  -2  -1 1191.88 52.7158   6
   0  -2  -1 1186.65 51.7658   7
   0  -2  -1 1198.88 36.8301   2
   0   2   1 1231.94 47.2039   7
   0   2   1 1212.12 46.8904   1
   0   2   1 1182.29 49.8677   2
   0   2   1 1194.32 39.1243   3
   0   2   1 1252.10 51.3685   6
  -1  -2  -1 1034.99 49.7120   6
  -1  -2  -1 1011.91 22.1636   2
  -1  -2  -1 1052.33 37.5127   7
  -1  -2  -1 1052.86 43.1629   3
  -1  -2  -1 1037.58 28.2241   4
  -1  -2  -1 1064.87 38.2381   1
   1   2   1 1007.41 36.5364   4
   1   2   1 1029.96 37.4147   6
   1   2   1 986.558 43.1259   2
   1   2   1 1017.63 40.2746   7
   1   2   1 1047.60 40.4506   3
  -2  -2  -1 580.761 24.6853   3
  -2  -2  -1 581.482 20.8601   7
  -2  -2  -1 582.124 9.92252   4
   2   2   1 566.112 25.8701   3
   2   2   1 587.179 13.3631   8
   2   2   1 602.002 25.9220   7
   2   2   1 587.021 16.1262   4
   2   2   1 589.065 12.4006  10
  -3  -2  -1 54.5344 1.52164   9
  -3  -2  -1 52.4687 2.75048   7
  -3  -2  -1 58.9640 2.54967   3
  -3  -2  -1 52.4465 2.03506   4
  -3  -2  -1 50.7161 1.94258   8
  -3  -2  -1 55.3506 2.36384  10
   3   2   1 57.0693 2.09324  10
   3   2   1 53.9362 2.15848   8
   3   2   1 57.9289 2.68888   3
   3   2   1 57.2003 2.02295   4
  -4  -2  -1 305.901 29.3664   4
  -4  -2  -1 256.653 11.5268   7
  -4  -2  -1 308.259 27.4157   8
  -4  -2  -1 246.847 8.98487   9
  -4  -2  -1 249.947 10.3646   5
  -4  -2  -1 313.577 27.7017  10
  -4  -2  -1 255.403 6.82196   2
  -4  -2  -1 249.708 4.76266   3
   4   2   1 260.222 6.53417  10
   4   2   1 230.549 6.05678   8
   4   2   1 240.015 7.53475   4
   4   2   1 240.252 5.97246   3
  -5  -2  -1 226.224 6.76036   8
  -5  -2  -1 229.753 7.07404   3
  -5  -2  -1 229.468 7.52729   7
  -5  -2  -1 244.590 6.74035   1
  -5  -2  -1 231.963 9.13537   9
  -5  -2  -1 222.245 5.82039  10
  -5  -2  -1 237.872 9.75586   5
  -5  -2  -1 217.165 8.40416   2
  -5  -2  -1 230.116 7.22505   4
   5   2   1 235.951 6.72018   4
   5   2   1 239.700 6.53925   3
   5   2   1 230.135 6.15934  10
   5   2   1 222.360 5.81404   8
  -6  -2  -1 14.5713 1.91850   2
  -6  -2  -1 12.7159 1.82363   3
  -6  -2  -1 16.9213 1.29761   5
  -6  -2  -1 18.5216 1.18696   9
  -6  -2  -1 16.6297 2.42807   1
   6   2   1 11.4505 1.96384   8
   6   2   1 21.7560 2.42211  10
   6   2   1 20.5496 2.79879   4
   6   2   1 18.6833 2.22548   3
  -7  -2  -1 905.519 49.0033   1
  -7  -2  -1 912.363 30.9161   3
  -7  -2  -1 929.626 52.8468   5
  -7  -2  -1 904.387 46.8221   2
   7   2   1 884.232 40.6252   3
   7   2   1 905.444 35.9138   4
   7   2   1 861.370 35.2582   8
   7   2   1 884.719 35.6291  10
  -8  -2  -1 12.5559 4.00002   1
  -8  -2  -1 15.3627 2.89119   3
   8   2   1 18.2914 2.85121   8
   8   2   1 17.5687 3.01268   4
   8   2   1 14.8894 2.93227  10
   8   2   1 18.3419 3.12760   3
  -9  -2  -1 15.2512 3.15474   3
  -9  -2  -1 15.9174 4.86135   1
   9   2   1 19.3842 4.19688   4
   9   2   1 17.0132 4.30468  10
   9   2   1 12.5002 4.03393   8
 -10  -2  -1 200.324 13.4537   1
  10   2   1 191.348 11.0659   8
  10   2   1 190.047 12.0391   4
  10   2   1 191.462 11.7073  10
 -11  -2  -1 1.01731 4.23806   1
  11   2   1 4.71440 5.37645   8
  11   2   1 -1.0846 5.64418  10
  11   2   1 2.22346 3.97061   4
 -12  -2  -1 22.7115 7.86917   1
  12   2   1 22.3281 5.69039  10
  12   2   1 19.3227 5.29834   8
  11  -3  -1 -2.1311 4.76025  10
  11  -3  -1 -2.8991 4.49636   8
 -11   3   1 -1.0253 5.38874   1
 -11   3   1 5.40272 6.00231   6
  10  -3  -1 10.4724 4.24697   8
  10  -3  -1 13.1604 4.54371  10
 -10   3   1 12.9409 4.96617   1
 -10   3   1 15.4906 9.59495   6
   9  -3  -1 -0.8006 3.15110  10
   9  -3  -1 -0.2707 3.12425   8
  -9   3   1 3.86976 5.61273   1
  -9   3   1 -0.1330 3.01571   6
   8  -3  -1 1.58096 3.75117  10
   8  -3  -1 3.46408 3.70028   8
   8  -3  -1 5.97100 2.42974   5
   8  -3  -1 3.14668 2.15666   9
  -8   3   1 1.37326 3.68203   6
  -8   3   1 4.00595 4.47502   1
   7  -3  -1 127.791 4.72404   5
   7  -3  -1 130.684 6.88046  10
   7  -3  -1 125.579 4.56008   9
   7  -3  -1 118.379 5.04831   8
  -7   3   1 115.107 6.38136   6
  -7   3   1 121.463 6.87657   1
   6  -3  -1 1.43377 1.90373  10
   6  -3  -1 -0.6235 1.77971   8
   6  -3  -1 2.67088 1.93597   5
  -6   3   1 4.93901 9.36422   6
  -6   3   1 1.72537 3.12082   1
   5  -3  -1 0.76914 1.66165   5
   5  -3  -1 -0.6548 1.45159   8
   5  -3  -1 0.21724 1.49088  10
  -5   3   1 -1.3273 2.04377   6
  -5   3   1 0.53416 1.80420   1
   4  -3  -1 35.7455 2.41675   5
   4  -3  -1 37.6178 3.07960  10
   4  -3  -1 27.9799 0.88413   3
   4  -3  -1 30.4104 2.50733   8
   4  -3  -1 28.5551 2.85440   1
   4  -3  -1 31.7592 0.75230   3
  -4   3   1 28.9709 2.70721  10
  -4   3   1 30.3094 2.68181   4
  -4   3   1 33.6473 3.28139   1
  -4   3   1 31.2761 3.16059   2
  -4   3   1 32.2402 2.66260   6
  -4   3   1 34.2969 2.67103   8
   3  -3  -1 23.9062 1.76947  10
   3  -3  -1 21.4023 1.85198   8
   3  -3  -1 26.1180 1.10935   3
   3  -3  -1 20.7309 1.97697   5
   3  -3  -1 22.0631 2.31082   1
  -3   3   1 24.3729 1.72751   8
  -3   3   1 24.1856 1.82692  10
  -3   3   1 22.0614 2.03844   1
  -3   3   1 25.1629 1.89233   4
  -3   3   1 23.0412 2.14168   2
  -3   3   1 24.6734 1.86799   6
   2  -3  -1 7.01480 1.26623   5
   2  -3  -1 6.64264 1.27173   2
   2  -3  -1 2.73193 1.06605   8
   2  -3  -1 4.14968 0.84135   3
   2  -3  -1 4.61887 1.18978   1
   2  -3  -1 5.43536 1.11811   6
   2  -3  -1 2.97377 1.12789  10
  -2   3   1 3.97620 1.57008   2
  -2   3   1 7.46073 1.07519   4
  -2   3   1 7.11282 1.41280  10
  -2   3   1 5.46368 1.40288   1
  -2   3   1 3.93345 1.24534   8
  -2   3   1 4.12630 1.54527   6
   1  -3  -1 25.4372 1.67328   1
   1  -3  -1 24.6401 1.73085   6
   1  -3  -1 26.1665 1.51841   2
   1  -3  -1 27.7617 5.31682   5
   1  -3  -1 26.4525 1.37959   3
  -1   3   1 26.1047 1.32461  10
  -1   3   1 24.0770 1.58274   2
  -1   3   1 29.1376 1.87618   6
  -1   3   1 26.8231 1.12876   8
  -1   3   1 27.2513 5.55355   1
   0  -3  -1 367.501 16.1874   7
   0  -3  -1 367.099 13.8843   3
   0  -3  -1 385.482 10.4615   2
   0  -3  -1 371.762 10.5218   1
   0  -3  -1 374.608 18.3232   6
   0   3   1 370.814 9.35924   3
   0   3   1 381.160 11.0597   6
   0   3   1 359.685 16.6283   2
   0   3   1 394.948 12.1402   7
   0   3   1 378.358 14.9403   1
  -1  -3  -1 48.3541 1.99443   3
  -1  -3  -1 47.9507 1.37161   4
  -1  -3  -1 47.5333 3.79177   6
  -1  -3  -1 48.8986 2.17502   1
  -1  -3  -1 45.2022 1.52183   2
  -1  -3  -1 41.9159 3.00758   7
   1   3   1 46.2157 1.96211   1
   1   3   1 47.3723 2.31176   7
   1   3   1 42.0532 2.30173   2
   1   3   1 47.3600 1.48047   4
   1   3   1 44.1353 2.40013   6
   1   3   1 43.1986 1.94713   3
  -2  -3  -1 6.99806 0.66044   2
  -2  -3  -1 1.21195 1.37021   6
  -2  -3  -1 6.25144 1.47947   7
  -2  -3  -1 6.46218 0.96144   4
  -2  -3  -1 5.82201 1.20439   3
   2   3   1 2.90938 1.54638   7
   2   3   1 5.32581 0.89250   8
   2   3   1 4.44303 1.21111   6
   2   3   1 5.72420 0.91653   4
   2   3   1 3.46856 1.14998   3
   2   3   1 4.98331 0.56023   2
   2   3   1 6.40975 0.95902  10
  -3  -3  -1 432.873 17.0893   6
  -3  -3  -1 459.396 14.1113   4
  -3  -3  -1 452.075 14.3261   2
  -3  -3  -1 455.402 12.1634   7
  -3  -3  -1 469.911 13.1429  10
  -3  -3  -1 453.965 13.7504   3
  -3  -3  -1 462.269 10.9845   8
   3   3   1 461.143 11.2194  10
   3   3   1 454.076 9.12724   4
   3   3   1 455.052 12.3641   3
   3   3   1 460.153 11.2875   8
   3   3   1 469.973 18.4812   7
  -4  -3  -1 316.124 12.2122   4
  -4  -3  -1 307.767 9.50613   7
  -4  -3  -1 309.294 11.5895   3
  -4  -3  -1 303.717 5.00692   9
  -4  -3  -1 321.240 14.8489  10
  -4  -3  -1 310.014 13.1866   8
   4   3   1 306.362 5.88949   8
   4   3   1 299.305 10.7924   7
   4   3   1 296.634 6.54237  10
   4   3   1 289.965 9.64704   3
   4   3   1 297.928 6.58355   4
  -5  -3  -1 8.53283 1.28874   5
  -5  -3  -1 2.73718 1.49530   8
  -5  -3  -1 4.15148 1.53008   4
  -5  -3  -1 7.70260 1.81556   7
  -5  -3  -1 5.77339 1.67534   3
  -5  -3  -1 5.68387 1.06877   9
  -5  -3  -1 6.26357 1.69858  10
   5   3   1 8.66366 1.66878   3
   5   3   1 5.52496 1.49094   4
   5   3   1 6.37377 1.44254   8
   5   3   1 5.08902 1.45876  10
  -6  -3  -1 501.123 15.4244   3
  -6  -3  -1 509.484 10.7388   1
  -6  -3  -1 493.343 22.4702   5
  -6  -3  -1 485.250 27.9417   2
  -6  -3  -1 493.443 19.2214   9
   6   3   1 498.294 13.4214   4
   6   3   1 504.535 11.8656   8
   6   3   1 485.798 18.5356   3
   6   3   1 493.686 9.45620  10
  -7  -3  -1 0.94774 1.62842   2
  -7  -3  -1 0.88989 1.22926   9
  -7  -3  -1 -5.9359 4.41901   1
  -7  -3  -1 -0.3074 1.40076   5
  -7  -3  -1 -0.3038 1.74267   3
   7   3   1 0.76799 2.99984  10
   7   3   1 4.83442 3.28531   8
   7   3   1 -2.7298 3.22826   4
   7   3   1 -1.9485 2.39825   3
  -8  -3  -1 26.7372 3.55763   1
  -8  -3  -1 17.7655 3.48720   3
   8   3   1 18.8521 3.55233   8
   8   3   1 21.4140 3.09938   4
   8   3   1 21.8504 3.88934  10
  -9  -3  -1 116.738 6.37755   1
  -9  -3  -1 107.000 7.85366   3
   9   3   1 108.894 6.39076   8
   9   3   1 104.550 6.43573  10
   9   3   1 125.436 6.83403   4
 -10  -3  -1 -1.2378 3.68754   1
 -10  -3  -1 -1.0654 2.50189   3
  10   3   1 1.91387 3.19636   4
  10   3   1 0.66785 3.20630   8
  10   3   1 -0.4832 3.29867  10
 -11  -3  -1 5.52438 6.18029   1
  11   3   1 8.06575 4.28738   4
  11   3   1 12.1141 5.60014   8
  11   3   1 1.58247 5.58422  10
 -12  -3  -1 41.7454 21.4123   1
  12   3   1 37.1276 5.72694   8
  12   3   1 42.5232 6.21711  10
  10  -4  -1 1.58765 4.50378  10
  10  -4  -1 -3.2952 4.09970   8
 -10   4   1 2.82308 6.67962   1
 -10   4   1 2.47250 5.94242   6
   9  -4  -1 5.32075 3.89200  10
   9  -4  -1 5.41987 3.65632   8
  -9   4   1 8.15449 5.85431   1
  -9   4   1 5.04600 5.16565   6
   8  -4  -1 12.6089 4.56993  10
   8  -4  -1 13.8240 2.65699   9
   8  -4  -1 4.03628 4.10999   8
   8  -4  -1 11.5897 2.92699   5
  -8   4   1 4.77406 3.06741   6
  -8   4   1 13.6116 3.91157   1
   7  -4  -1 7.17121 2.64571   5
   7  -4  -1 5.31589 2.58764  10
   7  -4  -1 10.6096 2.73786   8
  -7   4   1 9.61931 3.82660   6
  -7   4   1 8.00245 4.16291   1
   6  -4  -1 1.03618 2.80458  10
   6  -4  -1 5.65345 2.35860   5
   6  -4  -1 6.82656 2.87840   8
  -6   4   1 6.45877 2.62481   1
  -6   4   1 4.67509 2.42375   6
   5  -4  -1 51.1547 1.12542   3
   5  -4  -1 65.6421 4.00627   8
   5  -4  -1 62.9541 3.42212   5
   5  -4  -1 67.3268 4.09453  10
  -5   4   1 60.6936 4.25527   1
  -5   4   1 57.7381 3.42916   6
   4  -4  -1 19.8403 1.20815   3
   4  -4  -1 17.4008 1.93383  10
   4  -4  -1 15.8584 1.94422   5
   4  -4  -1 18.1723 1.09150   3
   4  -4  -1 17.0953 1.85845   8
  -4   4   1 20.5001 3.07020   1
  -4   4   1 15.4839 2.12715  10
  -4   4   1 14.4653 2.13728   6
  -4   4   1 12.3294 1.91312   8
  -4   4   1 17.4727 2.06632   4
   3  -4  -1 139.380 5.46292   6
   3  -4  -1 135.458 3.69441   8
   3  -4  -1 132.764 8.00818   1
   3  -4  -1 126.992 4.67051  10
   3  -4  -1 137.770 4.42873   3
   3  -4  -1 130.215 5.97802   2
   3  -4  -1 141.709 4.01275   5
  -3   4   1 130.644 6.59264   4
  -3   4   1 144.946 4.71348   1
  -3   4   1 131.526 6.75234   2
  -3   4   1 130.257 6.20479  10
  -3   4   1 134.223 7.23789   8
  -3   4   1 127.260 4.29923   6
   2  -4  -1 143.591 4.92482   1
   2  -4  -1 148.051 4.24186   8
   2  -4  -1 142.336 4.84974   6
   2  -4  -1 141.485 4.58516  10
   2  -4  -1 133.019 3.78551   2
   2  -4  -1 136.718 4.07619   3
   2  -4  -1 137.513 4.15517   5
  -2   4   1 127.901 8.79381   8
  -2   4   1 133.336 4.26852   1
  -2   4   1 135.815 8.61082  10
  -2   4   1 135.857 8.57540   4
  -2   4   1 126.491 4.27543   6
  -2   4   1 141.801 4.06819   2
   1  -4  -1 95.7434 4.14322   6
   1  -4  -1 107.505 3.02628   2
   1  -4  -1 98.5950 3.49845   1
   1  -4  -1 100.601 4.34838   3
  -1   4   1 101.910 4.75375   2
  -1   4   1 102.644 3.98189   4
  -1   4   1 104.309 3.22316   7
  -1   4   1 106.053 5.78733  10
  -1   4   1 104.845 5.76179   8
  -1   4   1 100.577 3.76041   6
  -1   4   1 90.4983 3.16468   1
   0  -4  -1 25.1919 1.85533   6
   0  -4  -1 22.5962 1.95670   1
   0  -4  -1 24.6955 1.49403   2
   0  -4  -1 27.8489 2.03810   3
   0   4   1 24.4673 1.51720   8
   0   4   1 29.0332 2.01642   7
   0   4   1 26.3210 2.18802   1
   0   4   1 24.1969 1.86584   2
   0   4   1 25.9334 1.49617  10
   0   4   1 29.4216 2.37299   6
  -1  -4  -1 33.0142 2.19570   7
  -1  -4  -1 36.2908 2.36680   1
  -1  -4  -1 33.5574 1.49900   2
  -1  -4  -1 31.3053 2.43104   6
  -1  -4  -1 37.0083 2.11014   3
   1   4   1 30.6883 2.34990   3
   1   4   1 33.4138 1.97763   2
   1   4   1 32.5054 2.21940   7
   1   4   1 34.1772 2.21540   6
   1   4   1 40.8865 2.45245   1
   1   4   1 33.2181 1.00705   4
  -2  -4  -1 90.6604 4.75728   6
  -2  -4  -1 97.1112 5.19807   7
  -2  -4  -1 94.7276 2.59245   4
  -2  -4  -1 98.8865 2.49531   2
  -2  -4  -1 96.1006 3.57160   1
  -2  -4  -1 97.4767 4.15541   3
   2   4   1 105.961 4.19745   6
   2   4   1 85.8015 3.39289   3
   2   4   1 99.3344 1.91561   8
   2   4   1 94.9097 4.16158   2
   2   4   1 95.3125 2.29187   4
   2   4   1 93.9017 1.95316  10
   2   4   1 97.8113 4.28493   7
  -3  -4  -1 37.9946 2.77383   7
  -3  -4  -1 38.9422 1.45114   2
  -3  -4  -1 37.0959 2.85701   6
  -3  -4  -1 37.0026 2.81667   3
  -3  -4  -1 38.6955 1.82074   4
   3   4   1 33.8114 1.65810   4
   3   4   1 38.7705 6.21788   7
   3   4   1 38.9523 1.85090  10
   3   4   1 34.2510 1.67678   8
   3   4   1 32.2534 2.35049   3
  -4  -4  -1 53.0204 2.74027   4
  -4  -4  -1 48.2309 2.87775   7
  -4  -4  -1 47.3047 2.12736   9
  -4  -4  -1 49.6154 1.92884   2
  -4  -4  -1 60.8211 3.10070  10
  -4  -4  -1 56.9036 3.50674   3
  -4  -4  -1 50.5046 3.06866   6
  -4  -4  -1 56.1094 2.91161   8
   4   4   1 54.7679 2.33986  10
   4   4   1 57.4165 3.33542   3
   4   4   1 60.3103 2.51509   4
   4   4   1 55.6380 2.24522   8
   4   4   1 53.1151 3.06506   7
  -5  -4  -1 0.56566 1.25047   9
  -5  -4  -1 -0.4777 2.00925  10
  -5  -4  -1 -1.4748 1.90462   8
  -5  -4  -1 -1.8050 1.82600   4
  -5  -4  -1 -1.6032 1.65685   3
  -5  -4  -1 0.61993 1.17130   2
   5   4   1 -1.1187 1.18934   4
   5   4   1 0.04793 1.56126   3
   5   4   1 -0.3348 1.14497   8
   5   4   1 -0.2537 1.21122  10
   5   4   1 1.09906 2.61549   7
  -6  -4  -1 12.4680 2.41480   3
  -6  -4  -1 10.9560 1.58525   9
  -6  -4  -1 13.6402 1.89865   5
   6   4   1 11.6909 2.57086  10
   6   4   1 14.3791 2.48743   8
   6   4   1 11.6608 2.44036   4
  -7  -4  -1 10.7764 2.00290   5
  -7  -4  -1 10.8513 3.55395   1
  -7  -4  -1 4.81863 3.07077   3
  -7  -4  -1 9.62385 1.77329   9
  -7  -4  -1 8.01208 2.34273   2
   7   4   1 13.4737 2.85223   8
   7   4   1 13.8087 2.40484   4
   7   4   1 9.32841 2.96455  10
  -8  -4  -1 -1.2398 3.12411   2
  -8  -4  -1 -2.2605 2.32770   3
  -8  -4  -1 -0.1844 3.68298   1
   8   4   1 1.13398 2.22197  10
   8   4   1 -2.8757 3.04590   4
   8   4   1 0.00000 2.04381   8
  -9  -4  -1 35.1540 5.26817   1
  -9  -4  -1 32.1033 4.71710   3
   9   4   1 45.1716 4.16816  10
   9   4   1 40.3136 3.88003   4
   9   4   1 43.0719 4.01435   8
 -10  -4  -1 9.54159 4.07281   1
 -10  -4  -1 0.27333 4.28464   3
  10   4   1 1.75805 5.66205   8
  10   4   1 3.99892 6.02773  10
  10   4   1 18.2982 11.9086   4
 -11  -4  -1 20.9180 5.32193   1
  11   4   1 18.0189 4.59061  10
  11   4   1 25.1166 4.62458   8
 -12  -4  -1 3.12985 7.46405   1
  12   4   1 5.47987 4.79858   8
  12   4   1 5.54293 5.09411  10
  10  -5  -1 8.02649 4.98242  10
  10  -5  -1 11.0386 4.81745   8
 -10   5   1 15.2053 7.02228   6
 -10   5   1 2.75613 5.31549   1
   9  -5  -1 36.1574 6.09040   8
   9  -5  -1 30.9129 6.40901  10
  -9   5   1 39.6634 5.86477   1
  -9   5   1 39.9521 6.69036   6
   8  -5  -1 -1.3668 3.32728  10
   8  -5  -1 3.47386 3.18414   5
   8  -5  -1 -2.1391 3.05030   8
  -8   5   1 1.29596 4.88531   6
  -8   5   1 1.95778 3.80359   1
   7  -5  -1 77.7522 5.99472   5
   7  -5  -1 67.1275 5.56565  10
   7  -5  -1 65.8093 5.23294   8
  -7   5   1 60.0451 4.73620   6
  -7   5   1 70.5533 6.33784   1
   6  -5  -1 230.992 9.46957  10
   6  -5  -1 242.074 8.06478   5
   6  -5  -1 230.308 9.57498   8
  -6   5   1 229.480 9.26066   1
  -6   5   1 221.426 10.6786   6
   5  -5  -1 10.6490 2.28465  10
   5  -5  -1 13.0400 2.79687   5
   5  -5  -1 14.0083 1.20123   3
   5  -5  -1 9.19287 2.10017   8
   5  -5  -1 15.4008 1.15541   3
  -5   5   1 11.9034 2.99072   1
  -5   5   1 9.93097 2.70655   6
   4  -5  -1 165.262 6.29130   3
   4  -5  -1 174.398 6.13830   3
   4  -5  -1 169.547 5.23630  10
   4  -5  -1 179.522 17.4662   5
   4  -5  -1 165.613 5.68242   8
  -4   5   1 161.532 8.09481  10
  -4   5   1 168.470 8.95125   8
  -4   5   1 177.487 7.27680   4
  -4   5   1 165.123 5.71461   6
  -4   5   1 177.313 5.82422   1
   3  -5  -1 106.860 4.40496   5
   3  -5  -1 112.050 3.68960   3
   3  -5  -1 102.386 4.55612   2
   3  -5  -1 109.052 5.59893   8
   3  -5  -1 108.149 4.70830  10
  -3   5   1 107.658 5.74840   1
  -3   5   1 99.6918 4.86714   6
  -3   5   1 98.6539 4.26277   4
  -3   5   1 105.361 6.39697   8
  -3   5   1 98.9886 6.57050  10
   2  -5  -1 12.3887 2.38862   6
   2  -5  -1 11.7224 1.49645  10
   2  -5  -1 10.9974 1.40406   8
   2  -5  -1 8.15387 2.15890   1
   2  -5  -1 9.63668 1.77284   2
   2  -5  -1 15.8507 2.08698   5
   2  -5  -1 9.77786 1.38156   3
  -2   5   1 9.57037 2.40649   2
  -2   5   1 11.0138 1.52004  10
  -2   5   1 10.9791 1.45356   8
  -2   5   1 9.97823 2.52859   6
  -2   5   1 14.3008 2.07381   1
  -2   5   1 12.4496 1.54815   4
   1  -5  -1 95.1215 3.26539   3
   1  -5  -1 100.212 3.77798   6
   1  -5  -1 91.4070 3.19292   2
   1  -5  -1 94.3615 3.84561   1
  -1   5   1 101.079 3.39081   2
  -1   5   1 112.405 3.95697   6
  -1   5   1 94.6784 5.40681   8
  -1   5   1 101.764 3.96277   1
  -1   5   1 96.5443 3.60880   7
  -1   5   1 92.9637 4.89241   4
  -1   5   1 90.6256 5.91757  10
   0  -5  -1 107.004 3.49967   2
   0  -5  -1 95.7255 4.22936   1
   0  -5  -1 109.408 4.44063   3
   0  -5  -1 106.920 4.33581   6
   0   5   1 96.5846 3.44441   1
   0   5   1 101.542 5.51841   4
   0   5   1 102.552 5.71493  10
   0   5   1 100.597 5.32902   8
   0   5   1 100.746 3.93890   2
   0   5   1 92.2819 3.57718   7
   0   5   1 99.6814 3.79626   6
  -1  -5  -1 41.3090 2.56379   3
  -1  -5  -1 47.4922 2.09138   2
  -1  -5  -1 44.5250 2.65021   6
  -1  -5  -1 42.3196 2.73114   1
  -1  -5  -1 42.2353 2.86085   7
   1   5   1 44.1083 1.43893  10
   1   5   1 47.1129 2.61327   1
   1   5   1 45.2632 2.76165   7
   1   5   1 41.2475 2.00888   2
   1   5   1 47.2338 1.64280   4
   1   5   1 44.8624 1.42339   8
   1   5   1 46.3773 2.92891   6
  -2  -5  -1 72.9587 3.69186   3
  -2  -5  -1 73.2393 2.26725   2
  -2  -5  -1 69.5829 3.19641   7
  -2  -5  -1 74.9714 2.12381   4
  -2  -5  -1 77.8641 3.81134   1
  -2  -5  -1 87.3766 3.53176   6
   2   5   1 73.5993 2.43292   2
   2   5   1 71.8093 3.44215   6
   2   5   1 76.7414 1.72378   4
   2   5   1 72.4825 3.53939   3
   2   5   1 66.4114 3.97263   7
   2   5   1 75.5349 3.37184  10
   2   5   1 75.3980 2.83796   8
  -3  -5  -1 0.04862 1.20307   4
  -3  -5  -1 -0.0174 1.28889   1
  -3  -5  -1 -0.8225 1.58070   3
  -3  -5  -1 -1.4249 2.23829   6
  -3  -5  -1 -0.4000 0.86480   2
  -3  -5  -1 1.15228 2.19526   7
   3   5   1 -0.3262 0.90082  10
   3   5   1 2.50199 1.70890   3
   3   5   1 0.23036 0.69193   2
   3   5   1 -0.3572 0.86396   8
   3   5   1 -0.4083 0.86627   4
   3   5   1 2.64110 1.74615   7
   3   5   1 -0.5086 2.46216   6
  -4  -5  -1 77.9553 3.31196   2
  -4  -5  -1 78.4647 3.55459   4
  -4  -5  -1 80.7821 3.99145   3
   4   5   1 65.9442 14.2123   3
   4   5   1 84.1234 2.51596   8
   4   5   1 80.5999 3.51665   4
   4   5   1 81.4885 3.05349  10
   4   5   1 73.8173 4.22546   7
  -5  -5  -1 147.444 6.30449   2
  -5  -5  -1 150.191 8.62542   4
  -5  -5  -1 138.428 7.89668   8
  -5  -5  -1 152.010 5.45095   3
  -5  -5  -1 149.579 9.24190  10
  -5  -5  -1 146.400 4.87583   9
   5   5   1 143.636 5.32877   4
   5   5   1 146.435 5.60314   7
   5   5   1 141.855 5.19252  10
   5   5   1 146.540 4.91763   8
  -6  -5  -1 0.95685 1.86142   8
  -6  -5  -1 1.32056 1.25621   9
  -6  -5  -1 -0.2065 1.86618  10
  -6  -5  -1 3.66580 2.52274   4
  -6  -5  -1 1.92780 1.46713   2
  -6  -5  -1 -0.1768 2.05660   3
   6   5   1 0.54770 1.39452   8
   6   5   1 0.90997 1.54568  10
   6   5   1 -2.3703 3.17785   7
   6   5   1 0.88961 2.04595   4
  -7  -5  -1 15.8080 3.91626   3
  -7  -5  -1 13.5702 2.28607   2
  -7  -5  -1 13.9827 2.25896   9
  -7  -5  -1 16.5703 2.62653   5
   7   5   1 21.4521 3.02888   8
   7   5   1 18.0961 3.11628  10
  -8  -5  -1 6.62850 3.86556   3
  -8  -5  -1 2.84380 2.35173   2
  -8  -5  -1 5.06973 2.87517   1
   8   5   1 4.71810 3.08479   8
   8   5   1 4.69695 3.16811  10
   8   5   1 4.28441 3.03992   4
  -9  -5  -1 9.87731 3.26978   2
  -9  -5  -1 11.4550 3.48274   3
  -9  -5  -1 8.69265 4.86163   1
   9   5   1 23.9855 4.22876   4
 -10  -5  -1 10.5271 4.20247   1
 -10  -5  -1 4.72905 5.06096   3
  10   5   1 15.3795 3.79549  10
  10   5   1 19.9425 3.75201   8
  10   5   1 16.6771 3.77560   4
 -11  -5  -1 -0.6708 4.55044   1
  11   5   1 -0.6212 5.67416  10
  11   5   1 -2.4042 5.37621   8
   9  -6  -1 -3.0305 3.97997   8
   9  -6  -1 1.70567 4.30190  10
  -9   6   1 7.46931 7.83944   1
  -9   6   1 3.98647 7.00526   6
   8  -6  -1 84.3065 6.68841   5
   8  -6  -1 77.5341 7.50589  10
   8  -6  -1 80.4740 6.36840   8
  -8   6   1 83.2074 7.69734   6
  -8   6   1 79.6058 8.32891   1
   7  -6  -1 126.959 7.00520   5
   7  -6  -1 90.2818 5.95532   8
   7  -6  -1 89.9112 6.00722  10
  -7   6   1 116.987 7.44084   1
  -7   6   1 104.749 6.31389   6
   6  -6  -1 -0.2823 2.28992  10
   6  -6  -1 2.35584 2.25337   8
   6  -6  -1 1.46622 3.07090   5
  -6   6   1 -1.7348 2.98404   6
  -6   6   1 -2.3619 3.25769   1
   5  -6  -1 199.857 9.28973  10
   5  -6  -1 208.931 9.76559   5
   5  -6  -1 197.870 11.9265   3
   5  -6  -1 197.273 8.58152   8
   5  -6  -1 196.880 16.4141   3
  -5   6   1 203.897 9.34506   6
  -5   6   1 206.017 9.65909   1
   4  -6  -1 91.3024 3.58189   8
   4  -6  -1 107.403 5.08128   5
   4  -6  -1 96.8198 4.34872   3
   4  -6  -1 96.5618 3.96226  10
   4  -6  -1 98.9438 4.90072   2
  -4   6   1 87.8142 5.54763   1
  -4   6   1 97.4217 6.59432  10
  -4   6   1 99.3901 4.95618   6
  -4   6   1 87.3793 5.62318   4
  -4   6   1 105.780 6.92242   8
   3  -6  -1 0.60038 2.56038   5
   3  -6  -1 -0.4057 1.52382   3
   3  -6  -1 -0.3687 1.75783  10
   3  -6  -1 0.98982 1.82382   2
   3  -6  -1 -0.2823 1.53345   8
  -3   6   1 0.61818 3.02917   1
  -3   6   1 2.10963 1.89372   8
  -3   6   1 1.30985 1.83956   4
  -3   6   1 -1.0683 2.16439   6
  -3   6   1 1.99817 1.99728  10
   2  -6  -1 134.642 4.59891   3
   2  -6  -1 124.517 4.81458   2
   2  -6  -1 136.051 5.26605   5
  -2   6   1 141.403 8.12667   4
  -2   6   1 125.830 6.07312   7
  -2   6   1 128.555 6.29106   6
  -2   6   1 137.739 6.31555   8
  -2   6   1 129.467 5.85757   1
  -2   6   1 146.341 6.83343  10
   1  -6  -1 115.800 3.96415   2
   1  -6  -1 105.267 5.94495   1
   1  -6  -1 115.522 5.92024   3
  -1   6   1 116.962 5.04375   6
  -1   6   1 110.023 5.92814   1
  -1   6   1 107.252 6.56421  10
  -1   6   1 106.268 5.85866   8
  -1   6   1 98.3668 5.40722   7
  -1   6   1 106.414 5.68083   4
  -1   6   1 102.859 5.03199   2
   0  -6  -1 112.718 3.56907   2
   0  -6  -1 106.862 4.31368   1
   0  -6  -1 122.244 4.67524   3
   0   6   1 117.836 5.94673   4
   0   6   1 117.698 6.25039   4
   0   6   1 119.629 3.93427   2
   0   6   1 124.722 5.51858   6
   0   6   1 120.614 5.05347   7
   0   6   1 118.077 5.63248  10
   0   6   1 119.443 5.37424   8
   0   6   1 111.623 4.68649   1
  -1  -6  -1 683.558 15.7010   2
  -1  -6  -1 684.300 29.8437   3
  -1  -6  -1 675.966 26.8946   1
   1   6   1 671.321 20.3751   2
   1   6   1 746.068 24.1589   6
   1   6   1 678.243 17.8374   1
   1   6   1 681.737 33.8019   7
  -2  -6  -1 6.46030 1.97719   3
  -2  -6  -1 5.60161 2.33875   1
  -2  -6  -1 9.04926 1.48271   2
   2   6   1 9.60701 0.65103   8
   2   6   1 9.61123 0.72548  10
   2   6   1 11.1105 0.78866   4
   2   6   1 11.5846 2.40433   6
   2   6   1 6.53442 2.08628   7
   2   6   1 9.00316 1.51314   2
  -3  -6  -1 5.57845 1.13896   4
  -3  -6  -1 8.42775 1.86842   1
  -3  -6  -1 7.56019 2.85176   3
  -3  -6  -1 5.30624 2.26455   2
   3   6   1 8.18915 0.98157   8
   3   6   1 7.67601 0.97024   4
   3   6   1 7.37615 1.35161   2
   3   6   1 8.90444 2.33203   7
   3   6   1 9.09531 1.06283  10
   3   6   1 8.65080 3.11527   6
  -4  -6  -1 52.3606 3.74715   3
  -4  -6  -1 49.3974 2.44879   4
  -4  -6  -1 56.4291 2.97769   2
   4   6   1 57.6937 3.81299   7
   4   6   1 56.0231 2.43848  10
   4   6   1 57.8418 2.50160   4
   4   6   1 49.6277 3.82894   6
   4   6   1 58.8697 2.27340   8
  -5  -6  -1 97.1336 4.85269   3
  -5  -6  -1 98.1478 4.12199   4
  -5  -6  -1 86.1645 5.64268   2
   5   6   1 91.2246 4.35026  10
   5   6   1 86.0634 5.41057   7
   5   6   1 94.3178 3.25248   8
   5   6   1 93.4408 4.01394   4
  -6  -6  -1 -4.9348 3.45637   3
  -6  -6  -1 0.53929 1.60882   2
  -6  -6  -1 1.14942 2.41043   4
   6   6   1 2.23607 2.03315   8
   6   6   1 1.74877 2.14385  10
   6   6   1 -0.8318 2.10805   4
  -7  -6  -1 53.9761 3.41016   2
  -7  -6  -1 55.5311 5.20357   3
   7   6   1 50.9685 4.51909   7
   7   6   1 56.1253 3.88329   8
   7   6   1 59.4434 3.97544  10
   7   6   1 50.7843 3.74115   4
  -8  -6  -1 -2.9609 2.92120   3
  -8  -6  -1 -0.3621 2.26652   2
   8   6   1 -0.7054 2.18079   8
   8   6   1 1.10565 3.04852   4
   8   6   1 1.22407 2.33504  10
  -9  -6  -1 13.3173 4.39358   3
  -9  -6  -1 12.1398 3.69075   1
   9   6   1 15.4708 3.18145   8
   9   6   1 16.9173 3.25033   4
   9   6   1 19.1021 3.45220  10
 -10  -6  -1 4.99201 5.61003   1
 -10  -6  -1 7.39342 5.61244   3
  10   6   1 8.17150 3.63441  10
  10   6   1 13.4484 3.70103   8
 -11  -6  -1 8.22877 6.76277   3
 -11  -6  -1 6.04453 6.94147   1
  11   6   1 11.9007 5.62891   8
  11   6   1 11.6383 5.85913  10
   8  -7  -1 27.5147 4.52791   8
   8  -7  -1 22.7844 4.67491  10
  -8   7   1 23.3952 7.67158   1
  -8   7   1 36.8122 7.52310   6
   7  -7  -1 10.7201 3.53559  10
   7  -7  -1 8.19742 3.25563   8
  -7   7   1 14.6245 6.17291   1
  -7   7   1 9.90364 4.57924   6
   6  -7  -1 137.225 8.37569  10
   6  -7  -1 144.285 7.96115   5
   6  -7  -1 131.158 8.82132   8
  -6   7   1 115.203 7.88178   6
  -6   7   1 123.473 7.69787   1
   5  -7  -1 62.3745 4.25328   8
   5  -7  -1 59.9640 4.32100   5
   5  -7  -1 64.0586 4.91354   3
   5  -7  -1 61.3789 4.98829  10
  -5   7   1 65.2101 5.14707   1
  -5   7   1 64.1575 5.06135   6
   4  -7  -1 3.31836 3.68297   2
   4  -7  -1 6.52879 1.85578   8
   4  -7  -1 3.73552 1.90084   3
   4  -7  -1 8.60172 2.59710   5
   4  -7  -1 6.54081 1.94146  10
  -4   7   1 13.3837 3.20888   1
  -4   7   1 3.80511 4.18167   6
   3  -7  -1 150.489 6.80392   2
   3  -7  -1 169.325 6.02087   5
   3  -7  -1 153.592 5.74269   3
  -3   7   1 137.871 8.28052   6
  -3   7   1 147.448 9.61845   8
  -3   7   1 142.667 9.58136   4
  -3   7   1 143.702 9.39315  10
  -3   7   1 161.748 7.60412   1
  -3   7   1 161.693 7.65360   7
   2  -7  -1 38.9516 3.21106   3
   2  -7  -1 38.1067 3.76081   2
   2  -7  -1 38.4075 4.06652   5
  -2   7   1 41.0542 3.68758   7
  -2   7   1 41.0690 2.59343  10
  -2   7   1 39.0468 2.50844   4
  -2   7   1 44.6292 4.31190   1
  -2   7   1 44.6032 2.57594   8
  -2   7   1 42.7097 3.85883   6
   1  -7  -1 60.3905 3.92046   2
   1  -7  -1 64.6351 3.92365   3
  -1   7   1 54.4122 4.04945   8
  -1   7   1 62.8350 3.89337   1
  -1   7   1 58.6729 4.33932   7
  -1   7   1 58.3492 4.04842   6
  -1   7   1 66.6054 3.70676   4
  -1   7   1 55.3574 4.08349  10
   0  -7  -1 448.820 14.7387   2
   0  -7  -1 430.125 15.0264   3
   0   7   1 430.481 22.3993   2
   0   7   1 433.327 26.0032   1
   0   7   1 428.994 17.7479   6
   0   7   1 456.257 20.7003   7
  -1  -7  -1 159.412 5.71430   3
  -1  -7  -1 161.981 5.04062   2
   1   7   1 153.827 7.18226   1
   1   7   1 155.729 8.35297   7
   1   7   1 161.864 7.90758   2
   1   7   1 159.589 8.41335   6
  -2  -7  -1 6.39099 1.74421   2
  -2  -7  -1 10.6671 3.20940   3
   2   7   1 11.6110 3.69384   6
   2   7   1 10.1084 3.45045   7
   2   7   1 9.92815 1.59730   2
  -3  -7  -1 185.046 7.50911   2
  -3  -7  -1 193.840 6.85803   3
   3   7   1 203.530 10.4549   8
   3   7   1 181.712 10.7697   7
   3   7   1 194.460 12.0592   2
   3   7   1 170.739 9.81560   6
   3   7   1 199.277 10.7197  10
  -4  -7  -1 14.0686 2.05927   2
  -4  -7  -1 12.0633 1.57328   4
  -4  -7  -1 11.9881 2.95069   3
   4   7   1 11.9859 1.35948   8
   4   7   1 14.2493 1.47433   4
   4   7   1 11.6295 1.83707   2
   4   7   1 9.49506 3.92424   7
   4   7   1 9.70273 3.05674   6
   4   7   1 13.8674 1.47056  10
  -5  -7  -1 30.8867 2.26103   2
  -5  -7  -1 28.7002 4.41842   3
  -5  -7  -1 24.5016 2.45961   4
   5   7   1 35.9478 2.36344   4
   5   7   1 37.1781 2.43974  10
   5   7   1 37.8867 2.34299   8
   5   7   1 29.2880 3.69567   7
  -6  -7  -1 68.3311 4.94472   3
  -6  -7  -1 56.4733 4.91537   4
  -6  -7  -1 62.1613 4.92600   2
   6   7   1 81.3774 3.90546   4
   6   7   1 74.0268 3.97782   8
   6   7   1 68.1235 4.12356  10
   6   7   1 68.4227 12.0992   7
  -7  -7  -1 1.28698 1.93463   2
  -7  -7  -1 -0.5001 4.19991   3
   7   7   1 -1.6967 3.24204   7
   7   7   1 1.76725 2.55246   4
   7   7   1 1.76780 2.54751   8
   7   7   1 1.56552 1.86685  10
  -8  -7  -1 3.25932 5.69556   3
   8   7   1 1.40421 3.75322   7
   8   7   1 3.73587 3.14082   8
   8   7   1 -1.8509 2.30780   4
   8   7   1 0.43184 3.16170  10
  -9  -7  -1 3.17490 5.56623   3
  -9  -7  -1 5.03222 5.11376   1
   9   7   1 -1.5787 3.99550  10
   9   7   1 0.18629 3.80890   8
 -10  -7  -1 -3.7676 4.25281   1
 -10  -7  -1 3.44638 7.36368   3
  10   7   1 3.78000 4.73709  10
  10   7   1 1.65363 4.57982   8
 -11  -7  -1 5.01839 7.21193   1
 -11  -7  -1 -2.8599 5.32469   3
  11   7   1 6.08973 5.49399   8
  11   7   1 3.79275 5.92830  10
   7  -8  -1 62.1623 6.24955   5
  -7   8   1 45.1158 7.88552   6
  -7   8   1 57.4918 8.49943   1
   6  -8  -1 106.210 7.38272   5
  -6   8   1 98.2370 8.63147   1
  -6   8   1 85.0737 6.92803   6
   5  -8  -1 33.5330 5.00769   5
  -5   8   1 28.9786 6.19073   6
  -5   8   1 34.1940 4.99013   1
   4  -8  -1 162.083 8.45852   5
   4  -8  -1 161.108 13.5969   3
   4  -8  -1 170.622 7.52783   2
  -4   8   1 155.470 8.77987   6
  -4   8   1 162.783 7.85685   7
  -4   8   1 158.885 11.9881   1
   3  -8  -1 1.14079 2.59137   5
   3  -8  -1 1.54031 2.56778   3
   3  -8  -1 2.57417 11.5293   2
  -3   8   1 2.28536 3.03165   1
  -3   8   1 4.22805 3.42128   6
  -3   8   1 -2.6190 3.19333   7
   2  -8  -1 218.369 7.26078   3
   2  -8  -1 199.783 8.20305   5
   2  -8  -1 206.375 9.69457   2
  -2   8   1 205.860 9.60631   7
  -2   8   1 189.741 9.58619   6
  -2   8   1 195.885 11.4143   4
  -2   8   1 205.780 11.2365   8
  -2   8   1 198.624 11.0461   1
  -2   8   1 186.556 12.9173  10
   1  -8  -1 334.423 141.973   3
   1  -8  -1 208.343 11.5747   2
  -1   8   1 193.488 15.3541   6
  -1   8   1 212.287 14.8540   7
  -1   8   1 211.762 19.8541   1
  -1   8   1 210.928 8.96767   4
   0  -8  -1 36.8341 3.54486   2
   0  -8  -1 39.7107 4.14499   3
   0   8   1 34.5479 3.86653   7
   0   8   1 39.7209 5.13232   6
   0   8   1 37.0589 3.48577   1
  -1  -8  -1 233.192 8.36886   3
  -1  -8  -1 220.970 7.80205   2
   1   8   1 227.168 10.3751   7
   1   8   1 233.058 12.3379   1
   1   8   1 215.970 11.0911   2
   1   8   1 220.340 12.6530   6
  -2  -8  -1 65.6745 3.48724   2
  -2  -8  -1 63.7024 5.02423   3
   2   8   1 63.8557 4.37578   2
   2   8   1 67.2091 6.20269   7
   2   8   1 63.1206 6.38064   6
  -3  -8  -1 0.44208 1.88665   2
  -3  -8  -1 -2.3383 3.64156   3
   3   8   1 2.51684 2.93868   7
   3   8   1 4.40770 3.09465   6
   3   8   1 4.25545 2.25901   2
  -4  -8  -1 31.5316 2.53934   2
  -4  -8  -1 39.2150 4.26761   3
   4   8   1 42.2507 3.23517   8
   4   8   1 40.8185 3.30677  10
   4   8   1 44.2028 5.47323   7
   4   8   1 37.3027 3.57439   2
   4   8   1 37.4933 4.87668   6
  -5  -8  -1 85.5702 6.04690   3
  -5  -8  -1 98.2461 5.74788   2
   5   8   1 85.9431 8.42268   7
   5   8   1 107.241 7.12731  10
   5   8   1 105.614 6.62830   8
  -6  -8  -1 6.12042 4.60236   3
   6   8   1 1.73370 2.10329   8
   6   8   1 1.37190 3.42190   7
   6   8   1 -2.4190 2.15416  10
  -7  -8  -1 -2.4822 3.64421   3
   7   8   1 -0.9845 4.17247  10
   7   8   1 0.40311 4.30795   8
   7   8   1 -3.4451 5.23163   7
  -8  -8  -1 10.2532 4.28098   3
   8   8   1 17.0474 2.89989  10
   8   8   1 9.92013 12.2581   7
   8   8   1 16.8166 2.83153   8
  -9  -8  -1 -1.5355 6.35494   3
   9   8   1 -2.7071 3.68281   8
   9   8   1 -2.4954 3.87666  10
 -10  -8  -1 0.94365 4.27417   1
 -10  -8  -1 1.43146 7.14395   3
  10   8   1 2.89716 3.48599  10
  10   8   1 1.87441 3.24098   8
   6  -9  -1 7.57498 4.10909   5
  -6   9   1 9.72862 5.68014   7
  -6   9   1 2.50307 5.25150   1
  -6   9   1 13.5302 7.69913   6
   5  -9  -1 30.0460 5.79200   5
  -5   9   1 23.7809 7.24443   6
  -5   9   1 39.4991 7.23928   1
  -5   9   1 24.1660 5.30362   7
   4  -9  -1 37.3977 4.95519   2
   4  -9  -1 36.2405 5.67846   5
  -4   9   1 28.4124 5.10764   6
  -4   9   1 45.9504 5.34447   1
  -4   9   1 37.5071 5.36528   7
   3  -9  -1 1.99450 4.35961   5
   3  -9  -1 5.11342 4.29357   2
   3  -9  -1 1.76990 3.06960   3
  -3   9   1 2.44837 4.24564   6
  -3   9   1 1.26114 3.93726   7
  -3   9   1 3.47200 5.04111   1
   2  -9  -1 417.291 20.8953   5
   2  -9  -1 415.682 26.2934   3
   2  -9  -1 401.532 16.9834   2
  -2   9   1 367.693 19.7091   6
  -2   9   1 375.552 19.0746   7
  -2   9   1 410.423 23.9176   1
   1  -9  -1 53.8391 4.71944   2
   1  -9  -1 51.1455 4.77167   3
  -1   9   1 50.6843 4.44764   1
  -1   9   1 47.2929 5.03064   6
  -1   9   1 52.2201 5.18070   7
   0  -9  -1 44.6091 4.82161   3
   0  -9  -1 37.1385 4.03826   2
   0   9   1 36.4962 4.54004   1
   0   9   1 29.5497 4.77176   7
   0   9   1 27.7829 6.00357   6
  -1  -9  -1 105.238 5.22156   2
  -1  -9  -1 131.500 7.40991   3
   1   9   1 102.187 6.47746   1
   1   9   1 111.371 8.32021   6
   1   9   1 103.984 8.52307   7
  -2  -9  -1 6.48417 2.61710   2
  -2  -9  -1 11.5932 4.32450   3
   2   9   1 2.98083 5.23118   6
   2   9   1 14.7980 5.20089   7
  -3  -9  -1 49.2134 4.72630   3
  -3  -9  -1 42.9168 3.25661   2
   3   9   1 41.8829 6.24568   6
   3   9   1 42.3433 4.84024   7
  -4  -9  -1 65.3347 5.40124   3
  -4  -9  -1 51.0794 4.60169   2
   4   9   1 72.4057 5.96411   7
   4   9   1 58.1707 5.52152   6
  -5  -9  -1 6.83007 3.63630   3
   5   9   1 9.81420 6.33638   6
   5   9   1 2.31517 5.55124   7
  -6  -9  -1 3.36247 5.08963   3
   6   9   1 5.29893 4.04110   7
  -7  -9  -1 26.9910 5.16965   3
   7   9   1 31.3450 5.26379   7
  -8  -9  -1 -0.4302 6.13689   3
   8   9   1 -2.9237 4.85184   7
  -9  -9  -1 19.3417 6.09579   3
   9   9   1 29.3456 8.20541   7
 -10  -9  -1 5.92942 5.41428   1
 -10  -9  -1 8.68117 5.95072   3
   5 -10  -1 21.7795 6.50663   5
  -5  10   1 15.6018 6.25633   6
  -5  10   1 31.9342 6.42230   1
  -5  10   1 15.3266 6.34133   7
   4 -10  -1 -2.8967 4.30357   2
   4 -10  -1 5.33270 4.01215   5
  -4  10   1 10.5100 6.91858   1
  -4  10   1 8.05995 5.79260   6
  -4  10   1 7.02265 5.21800   7
   3 -10  -1 48.0061 11.0566   3
   3 -10  -1 37.0433 4.96851   2
   3 -10  -1 40.2964 5.19573   5
  -3  10   1 30.8956 7.61770   6
  -3  10   1 41.4748 7.04412   1
  -3  10   1 34.6169 5.92140   7
   2 -10  -1 181.186 14.6292   3
   2 -10  -1 186.230 12.5489   5
   2 -10  -1 158.687 8.94544   2
  -2  10   1 146.883 11.3067   6
  -2  10   1 172.775 10.7852   7
  -2  10   1 185.166 26.7817   1
   1 -10  -1 10.4956 4.25018   2
   1 -10  -1 13.5631 4.33681   3
   1 -10  -1 12.9251 3.95455   5
  -1  10   1 19.0096 6.46979   7
  -1  10   1 22.4790 13.3235   1
  -1  10   1 15.3646 6.82492   6
   0 -10  -1 175.240 12.8286   2
   0 -10  -1 182.357 13.0217   3
   0  10   1 173.738 12.6616   6
   0  10   1 208.732 16.0862   1
   0  10   1 168.775 12.7930   7
  -1 -10  -1 15.6982 3.71850   2
  -1 -10  -1 17.1341 4.82851   3
   1  10   1 5.47196 3.47459   1
   1  10   1 15.2411 4.62680   7
   1  10   1 15.3950 4.92345   6
  -2 -10  -1 7.34007 3.54380   3
  -2 -10  -1 1.75787 2.97415   2
   2  10   1 8.94668 4.39605   7
   2  10   1 3.61238 4.40727   6
  -3 -10  -1 104.423 8.56208   3
   3  10   1 105.529 10.2690   6
   3  10   1 114.667 8.22592   7
  -4 -10  -1 0.02848 5.12583   3
   4  10   1 -0.6750 6.14997   6
   4  10   1 1.79593 6.00725   7
  -5 -10  -1 43.4019 7.06133   3
   5  10   1 40.8625 5.84570   6
   5  10   1 35.7209 7.33846   7
  -6 -10  -1 19.4846 6.43200   3
   6  10   1 12.3252 4.93862   7
  -7 -10  -1 2.34427 4.78124   3
   7  10   1 5.45810 5.06335   7
  -8 -10  -1 11.8865 7.47922   3
   8  10   1 8.26692 5.82799   7
  -9 -10  -1 -2.5836 5.96540   3
   9  10   1 4.31169 8.80139   7
   3 -11  -1 6.91386 4.52805   2
   3 -11  -1 11.8130 6.95175   5
  -3  11   1 19.7285 6.73180   6
  -3  11   1 15.4923 9.09823   7
  -3  11   1 19.1845 5.72858   1
   2 -11  -1 118.174 10.3459   3
   2 -11  -1 102.322 8.05959   2
   2 -11  -1 106.188 8.69198   5
  -2  11   1 91.3865 8.46393   6
  -2  11   1 107.604 11.0740   1
  -2  11   1 90.6149 8.01628   7
   1 -11  -1 13.1732 6.29847   5
   1 -11  -1 13.9049 4.30382   3
   1 -11  -1 11.0191 3.67145   2
  -1  11   1 8.02457 5.52364   7
  -1  11   1 8.50760 5.73695   6
  -1  11   1 10.8184 4.52018   1
   0 -11  -1 2.67106 5.18188   3
   0 -11  -1 0.28627 4.21990   2
   0  11   1 2.41619 5.48082   6
   0  11   1 -1.5730 5.53760   1
   0  11   1 2.83469 5.22636   7
  -1 -11  -1 18.1535 4.38039   2
  -1 -11  -1 22.7563 8.41396   3
   1  11   1 45.1084 18.6545   7
   1  11   1 47.8890 19.6096   6
  -2 -11  -1 39.8134 5.49046   3
   2  11   1 45.6198 8.07535   7
   2  11   1 46.3780 6.54899   6
  -3 -11  -1 -4.6515 5.79715   3
   3  11   1 3.40293 5.02827   7
   3  11   1 5.02677 5.05474   6
  -4 -11  -1 13.4178 4.88032   3
   4  11   1 21.9932 7.91051   6
   4  11   1 17.6950 7.60416   7
  -5 -11  -1 18.9988 6.59327   3
   5  11   1 7.47484 5.59281   7
   5  11   1 7.92902 5.51689   6
  -6 -11  -1 4.30434 5.00680   3
   6  11   1 4.78553 5.51659   7
  -7 -11  -1 4.10442 5.72847   3
   7  11   1 0.18334 8.53773   7
   1 -12  -1 4.94734 6.40140   3
   1 -12  -1 6.60166 7.32119   5
  -1  12   1 6.99706 7.20885   6
  -1  12   1 9.93230 7.52354   1
  -1  12   1 1.21454 7.01998   7
   0 -12  -1 26.2472 5.46597   3
   0 -12  -1 22.6668 5.81084   5
   0  12   1 16.5224 7.44922   6
   0  12   1 18.9984 5.56216   1
   0  12   1 13.9130 6.87678   7
  -1 -12  -1 5.11359 4.96965   3
   1  12   1 22.1523 6.95880   7
   1  12   1 20.5535 7.10859   6
  -2 -12  -1 11.7681 5.24727   3
   2  12   1 -8.0183 6.33543   7
   2  12   1 -2.0226 6.53503   6
  -3 -12  -1 19.6071 7.45342   3
   3  12   1 14.1814 8.73541   7
   3  12   1 12.7537 6.76341   6
  -4 -12  -1 13.4003 5.72988   3
   4  12   1 14.8839 6.43313   7
   4  12   1 8.21209 9.16856   6
  -5 -12  -1 -0.8835 7.65806   3
   5  12   1 -4.0496 6.37115   6
   5  12   1 4.06477 6.72896   7
   4  11  -2 -5.8037 9.21575   6
   4  11  -2 10.8153 9.00305   7
  -4 -11   2 -6.4883 6.02537   3
   3  11  -2 0.94852 6.26226   7
   3  11  -2 0.29665 6.56791   6
  -3 -11   2 1.63092 5.63187   3
   2  11  -2 -2.0421 6.18577   7
   2  11  -2 -1.3911 6.37117   6
  -2 -11   2 -0.5207 7.59615   3
  -2 -11   2 0.17974 4.66588   2
   1  11  -2 13.2524 9.88875   6
   1  11  -2 3.96492 6.25305   7
  -1 -11   2 9.44021 5.89762   3
  -1 -11   2 8.86599 4.78980   2
   7  10  -2 2.07602 8.15540   7
  -7 -10   2 1.89446 8.44500   3
   6  10  -2 8.28129 5.89932   7
   6  10  -2 12.1946 8.66271   6
  -6 -10   2 5.96061 5.38952   3
   5  10  -2 3.62033 5.27528   7
   5  10  -2 1.91056 5.74174   6
  -5 -10   2 0.31106 5.04095   3
   4  10  -2 -6.8951 5.14865   7
   4  10  -2 5.49008 5.41926   6
  -4 -10   2 -3.4826 7.48136   2
  -4 -10   2 -1.9160 6.50022   3
   3  10  -2 21.4162 7.82935   7
   3  10  -2 11.8649 5.74044   6
  -3 -10   2 15.3012 5.18187   3
  -3 -10   2 10.0641 5.39811   2
   2  10  -2 12.0105 5.30945   7
   2  10  -2 13.8458 5.85627   6
  -2 -10   2 15.2435 5.11195   3
  -2 -10   2 7.08801 5.54013   2
   1  10  -2 -2.3473 9.01494   6
   1  10  -2 6.99689 8.53234   7
  -1 -10   2 1.45393 3.75832   2
  -1 -10   2 3.20895 6.21893   3
   0  10  -2 2.89642 5.76779   6
   0  10  -2 0.46879 7.52129   7
   0 -10   2 2.41468 4.45705   3
   0 -10   2 -3.1627 3.85098   2
  -1  10  -2 3.08023 8.38130   7
  -1  10  -2 5.14031 5.97212   6
   1 -10   2 7.18942 4.38922   2
   1 -10   2 10.0638 4.70947   3
  -2  10  -2 2.18167 8.78530   6
  -2  10  -2 4.39467 6.29518   7
   2 -10   2 -0.1741 4.19546   3
   2 -10   2 1.83092 4.55817   2
   8   9  -2 7.23026 5.71963   7
  -8  -9   2 -0.1151 8.17983   3
   7   9  -2 10.1164 5.12167   7
  -7  -9   2 3.41018 5.13991   3
   6   9  -2 6.11958 5.43043   6
   6   9  -2 1.29262 5.01788   7
  -6  -9   2 -0.6782 4.57707   3
   5   9  -2 0.00000 4.64651   6
   5   9  -2 7.06491 4.49277   7
  -5  -9   2 -1.4142 4.35126   2
  -5  -9   2 4.83308 4.24975   3
   4   9  -2 7.70242 4.62268   6
   4   9  -2 1.99262 4.30660   7
  -4  -9   2 2.92730 5.69369   3
  -4  -9   2 3.57238 4.32370   2
   3   9  -2 20.6838 14.3588   6
   3   9  -2 24.7921 14.2499   7
  -3  -9   2 33.6090 13.3656   3
  -3  -9   2 19.5849 3.86985   2
   2   9  -2 16.0561 4.78326   7
   2   9  -2 14.5614 5.06841   6
  -2  -9   2 10.0578 4.64052   2
  -2  -9   2 9.30687 5.48994   3
   1   9  -2 12.8141 6.52626   7
   1   9  -2 15.2320 4.92001   6
  -1  -9   2 2.62307 4.60535   2
  -1  -9   2 5.18729 5.47472   3
   0   9  -2 5.69359 5.77779   7
   0   9  -2 3.72305 5.59240   6
   0  -9   2 3.06023 3.33621   2
   0  -9   2 8.31957 4.09316   3
  -1   9  -2 -3.3533 4.67763   7
  -1   9  -2 2.77787 6.72331   6
  -1   9  -2 1.35553 3.66780   1
   1  -9   2 5.02032 3.92191   3
   1  -9   2 0.70456 4.88270   2
  -2   9  -2 30.1309 5.85755   7
  -2   9  -2 28.8674 3.96899   1
  -2   9  -2 31.6304 6.00151   6
   2  -9   2 36.6950 5.09889   3
   2  -9   2 19.7075 5.88835   2
  -3   9  -2 3.58618 5.44795   6
  -3   9  -2 11.8817 21.3430   7
   3  -9   2 10.6985 4.14815   3
   3  -9   2 6.03653 5.95083   2
  -4   9  -2 -0.7058 5.40641   7
  -4   9  -2 2.17933 5.64795   6
   4  -9   2 4.81255 6.45032   2
   4  -9   2 15.8342 6.15887   5
   9   8  -2 -1.7480 5.22502   7
  -9  -8   2 1.22562 5.39503   3
  -9  -8   2 -2.4560 5.49613   1
   8   8  -2 2.40429 4.60990   7
  -8  -8   2 3.00365 4.85718   3
  -8  -8   2 1.68930 3.40476   1
   7   8  -2 9.60778 4.65026   7
  -7  -8   2 10.7785 4.67716   3
   6   8  -2 13.5326 6.17008   7
   6   8  -2 16.8960 5.08070   6
  -6  -8   2 7.39870 3.17182   2
  -6  -8   2 9.93901 5.64580   3
   5   8  -2 -0.7240 3.52068   7
   5   8  -2 -0.5731 3.97373   6
  -5  -8   2 -6.6769 3.68361   2
  -5  -8   2 -3.5454 3.59006   3
   4   8  -2 3.06129 3.70276   6
   4   8  -2 -2.0354 3.45946   7
  -4  -8   2 -4.5456 4.71401   3
  -4  -8   2 -3.0807 3.64230   2
   3   8  -2 0.30006 5.02315   7
   3   8  -2 3.04226 5.25512   6
  -3  -8   2 -0.4341 3.17126   3
  -3  -8   2 -1.8192 2.37697   2
   2   8  -2 -0.9022 5.01527   7
   2   8  -2 2.57781 3.74203   6
  -2  -8   2 -3.0663 3.23226   3
  -2  -8   2 0.12208 3.63129   2
   1   8  -2 12.5395 5.01790   7
   1   8  -2 5.56533 3.74392   6
  -1  -8   2 8.32935 3.34759   3
  -1  -8   2 5.70467 4.05102   2
   0   8  -2 0.14954 5.03234   7
   0   8  -2 0.80371 2.77189   1
   0   8  -2 3.60260 5.19655   6
   0  -8   2 -2.8189 4.03168   2
   0  -8   2 -0.5316 2.98070   3
  -1   8  -2 2.92470 3.93182   7
  -1   8  -2 13.5204 3.33662   1
  -1   8  -2 6.55745 3.82471   6
   1  -8   2 2.77891 4.24628   2
   1  -8   2 5.80148 3.28148   3
  -2   8  -2 1.53444 3.99202   6
  -2   8  -2 2.61769 3.54385   1
  -2   8  -2 1.46899 4.10405   7
   2  -8   2 2.53107 3.33412   2
   2  -8   2 5.33236 10.1098   3
  -3   8  -2 5.44155 3.03932   1
  -3   8  -2 2.31800 4.14396   7
  -3   8  -2 5.09039 4.48750   6
   3  -8   2 3.53576 5.10116   2
   3  -8   2 7.88104 4.36750   3
  -4   8  -2 56.1051 6.34714   7
  -4   8  -2 48.0508 5.79288   1
  -4   8  -2 61.0406 7.97771   6
   4  -8   2 49.3083 6.11135   3
   4  -8   2 58.4307 6.88248   2
  -5   8  -2 31.2002 7.05798   1
  -5   8  -2 18.9197 7.80817   6
   5  -8   2 32.6571 5.76884   5
   5  -8   2 21.6623 5.09230   2
  -6   8  -2 8.80482 6.70348   1
  -6   8  -2 -8.5386 8.10411   6
   6  -8   2 -1.8361 4.59466   2
 -10  -7   2 7.83383 7.65214   3
 -10  -7   2 1.24208 6.11931   1
   9   7  -2 -1.7565 6.35131   7
  -9  -7   2 1.34961 4.75691   3
  -9  -7   2 -1.5002 5.05805   1
   8   7  -2 2.63726 6.05126   7
  -8  -7   2 -0.2396 2.92601   2
  -8  -7   2 0.74815 3.19304   1
  -8  -7   2 0.55099 4.00996   3
   7   7  -2 2.18033 3.62793   7
  -7  -7   2 5.03946 3.81606   3
  -7  -7   2 -3.4289 3.56606   2
  -7  -7   2 1.45673 3.86479   1
   6   7  -2 16.5958 5.15636   7
  -6  -7   2 16.0157 4.03476   2
  -6  -7   2 18.6938 4.06981   3
   5   7  -2 -1.8216 4.54529   6
   5   7  -2 3.20590 3.14301   7
  -5  -7   2 0.11549 3.09981   3
  -5  -7   2 2.95783 3.35592   2
   4   7  -2 43.9403 4.34270   7
   4   7  -2 34.6975 4.22642   6
  -4  -7   2 26.3423 3.86279   2
  -4  -7   2 34.1620 4.22987   3
   3   7  -2 20.6849 3.77009   6
   3   7  -2 24.6671 4.82370   7
  -3  -7   2 18.7896 3.63783   2
  -3  -7   2 16.6960 6.70127   3
  -3  -7   2 12.4371 2.34819   1
   2   7  -2 6.83666 3.23496   7
   2   7  -2 8.87933 4.55280   6
  -2  -7   2 7.62178 2.50697   2
  -2  -7   2 4.39974 3.77797   3
  -2  -7   2 3.62780 1.75733   1
   1   7  -2 12.7995 3.30537   7
   1   7  -2 11.4964 3.40297   6
  -1  -7   2 9.99316 3.52144   2
  -1  -7   2 6.41578 2.83544   3
  -1  -7   2 6.63291 2.55750   1
   0   7  -2 38.8586 4.13455   7
   0   7  -2 37.2537 3.69168   1
   0   7  -2 43.6532 4.32247   6
   0  -7   2 38.1876 4.45835   2
  -1   7  -2 57.3536 4.87350   6
  -1   7  -2 49.0664 4.55233   1
  -1   7  -2 51.1552 5.65249   7
   1  -7   2 55.1802 4.37270   2
  -2   7  -2 4.70717 2.96404   1
  -2   7  -2 -0.4921 3.07668   7
  -2   7  -2 1.80238 3.30637   6
   2  -7   2 2.74559 2.71897   2
  -3   7  -2 27.9646 3.31450   1
  -3   7  -2 26.8514 4.47294   6
   3  -7   2 29.0777 5.03087   2
  -4   7  -2 5.47391 3.03819   1
  -4   7  -2 -0.1682 3.79908   6
   4  -7   2 -1.9059 3.14356   2
  -5   7  -2 6.36149 4.42531   6
  -5   7  -2 13.5272 3.54470   1
   5  -7   2 13.3302 3.37935   5
   5  -7   2 7.08512 3.89730   2
  -6   7  -2 3.65644 5.55830   1
  -6   7  -2 6.67435 4.99069   6
   6  -7   2 4.80250 4.25754   5
   6  -7   2 4.73539 5.82424   2
  -7   7  -2 13.5069 8.16123   6
  -7   7  -2 5.53192 6.25033   1
   7  -7   2 -0.3551 6.52684   2
  11   6  -2 11.0198 6.36051   8
  11   6  -2 9.73932 6.58598  10
 -11  -6   2 11.5039 7.28814   1
  10   6  -2 22.4954 5.88827  10
  10   6  -2 18.9507 5.57085   8
 -10  -6   2 14.4998 6.24176   1
 -10  -6   2 5.40407 5.00151   3
   9   6  -2 -1.3757 4.33957  10
   9   6  -2 2.37623 4.22398   8
  -9  -6   2 3.31900 3.28893   2
  -9  -6   2 -1.5571 4.83070   1
  -9  -6   2 4.42709 5.82380   3
   8   6  -2 49.0479 4.10819  10
   8   6  -2 40.3279 7.05909   7
   8   6  -2 45.6844 4.17536   8
  -8  -6   2 39.7211 4.91148   3
  -8  -6   2 30.6171 4.59486   2
  -8  -6   2 41.5771 4.20840   1
   7   6  -2 0.17853 4.37759   7
  -7  -6   2 -1.2437 3.38918   1
  -7  -6   2 -1.6328 3.31843   2
  -7  -6   2 -0.6878 4.59615   3
   6   6  -2 4.68741 2.87750   7
  -6  -6   2 4.85696 2.38694   2
  -6  -6   2 -0.8325 4.17494   3
   5   6  -2 28.3912 3.60373   6
   5   6  -2 27.8465 3.60488   7
  -5  -6   2 24.9402 3.03023   8
  -5  -6   2 23.9265 3.23295  10
  -5  -6   2 20.9393 2.75799   4
  -5  -6   2 30.9029 3.06715   2
  -5  -6   2 29.6046 3.78753   3
   4   6  -2 10.7202 3.97627   6
   4   6  -2 8.93510 2.76772   7
  -4  -6   2 7.03278 1.65330  10
  -4  -6   2 10.5914 3.01678   3
  -4  -6   2 5.83927 1.82543   1
  -4  -6   2 4.81673 2.81819   2
  -4  -6   2 5.04969 1.51759   8
  -4  -6   2 7.49008 1.62887   4
   3   6  -2 6.16802 3.74851   6
   3   6  -2 10.1746 5.31767   7
  -3  -6   2 7.63142 1.00047   4
  -3  -6   2 5.59160 2.32479   1
  -3  -6   2 6.94858 1.12171  10
  -3  -6   2 6.19225 3.48066   3
  -3  -6   2 6.98492 1.07056   8
  -3  -6   2 6.51160 2.84365   2
   2   6  -2 8.69000 2.66049   7
   2   6  -2 12.1831 2.87306   6
  -2  -6   2 7.70136 2.25821   2
  -2  -6   2 8.92962 2.67095   3
  -2  -6   2 9.00411 2.19530   1
   1   6  -2 -1.9698 3.17646   7
   1   6  -2 0.59912 2.28325   6
  -1  -6   2 -0.2264 1.72979   1
  -1  -6   2 -0.6888 2.78421   2
   0   6  -2 -0.8646 1.21653   1
   0   6  -2 -3.5529 3.29556   6
   0   6  -2 1.43667 2.44654   7
   0  -6   2 0.05904 0.10560  10
   0  -6   2 0.82693 0.49347   8
   0  -6   2 -0.2802 1.70795   1
   0  -6   2 0.95453 0.54377  10
   0  -6   2 -0.8268 2.79590   2
   0  -6   2 0.12672 0.08840   8
  -1   6  -2 6.07445 3.83498   7
  -1   6  -2 7.79467 3.79483   6
  -1   6  -2 10.8418 2.35430   1
   1  -6   2 8.35110 3.42710   2
   1  -6   2 4.13437 1.04952   8
   1  -6   2 2.66193 1.97222   1
   1  -6   2 5.03507 1.04034   4
   1  -6   2 4.06908 1.09592  10
  -2   6  -2 10.4300 2.76524   1
  -2   6  -2 12.5166 3.18775   6
  -2   6  -2 8.46778 3.35576   4
   2  -6   2 8.59572 4.64843   2
   2  -6   2 5.38478 1.43228  10
   2  -6   2 6.35014 1.39787   4
   2  -6   2 6.99617 1.43696   8
   2  -6   2 5.95735 2.55353   1
  -3   6  -2 6.73630 4.22641   6
  -3   6  -2 6.85611 3.05555   1
  -3   6  -2 9.53993 2.63287   4
   3  -6   2 7.03341 1.98237  10
   3  -6   2 4.10908 1.87677   8
   3  -6   2 6.23189 3.76325   2
   3  -6   2 7.50258 1.95880   4
  -4   6  -2 1.36898 3.41580   1
  -4   6  -2 4.65178 3.32213   6
   4  -6   2 1.89399 2.89789   2
   4  -6   2 1.42915 2.17174   4
   4  -6   2 -0.9404 2.28036  10
   4  -6   2 -0.3524 2.30607   8
  -5   6  -2 26.3951 4.69428   1
  -5   6  -2 14.7465 5.42481   6
   5  -6   2 12.6977 3.17167   8
   5  -6   2 21.0529 5.01099   2
   5  -6   2 17.4123 3.34311   4
   5  -6   2 18.8571 3.85235   5
   5  -6   2 13.3622 3.35448  10
  -6   6  -2 11.2139 5.96285   6
  -6   6  -2 8.74750 3.70202   1
   6  -6   2 -0.0290 3.63340  10
   6  -6   2 2.41238 2.68101   4
   6  -6   2 3.37280 3.58226   8
   6  -6   2 7.24955 3.72345   2
   6  -6   2 8.79055 3.65264   5
  -7   6  -2 0.77601 5.67746   1
  -7   6  -2 7.89804 4.82483   6
   7  -6   2 3.77378 4.48489   8
   7  -6   2 0.37839 4.30466   2
   7  -6   2 0.47827 4.62910  10
  -8   6  -2 4.18835 7.67062   6
  -8   6  -2 1.78124 6.79422   1
  11   5  -2 2.85155 5.75964   8
  11   5  -2 -6.4968 5.92545  10
 -11  -5   2 4.83118 6.55319   1
  10   5  -2 4.92668 3.67157  10
  10   5  -2 5.02798 3.51843   8
 -10  -5   2 4.35416 5.21107   2
 -10  -5   2 2.01775 26.0384   1
 -10  -5   2 0.39006 4.14855   3
   9   5  -2 163.622 18.4433   8
   9   5  -2 174.757 19.5156  10
  -9  -5   2 133.622 9.67365   2
  -9  -5   2 150.081 9.41818   1
  -9  -5   2 128.635 10.6325   3
   8   5  -2 2.44233 2.36084   8
   8   5  -2 0.98147 2.40515  10
   8   5  -2 -2.6386 3.08083   7
  -8  -5   2 -4.0144 4.49729   3
  -8  -5   2 0.89759 2.69283   1
  -8  -5   2 -3.6604 3.68609   2
   7   5  -2 54.4350 5.30753   7
   7   5  -2 73.1011 4.28020   8
   7   5  -2 67.4196 4.46061  10
  -7  -5   2 64.4412 5.44970   3
  -7  -5   2 64.1240 4.84863   1
  -7  -5   2 51.8144 5.81589   2
   6   5  -2 44.1433 2.96497   8
   6   5  -2 50.3808 3.19965  10
   6   5  -2 42.0494 3.69287   7
  -6  -5   2 43.2728 3.24852   1
  -6  -5   2 44.7226 4.03549   3
  -6  -5   2 39.7495 3.35436   2
  -6  -5   2 34.0885 4.55600  10
  -6  -5   2 37.6794 3.70438   4
  -6  -5   2 33.1059 3.91914   8
   5   5  -2 24.8201 3.32652   6
   5   5  -2 16.9648 3.62827   7
  -5  -5   2 13.5370 2.49928  10
  -5  -5   2 10.1206 2.87758   2
  -5  -5   2 17.1225 2.48188   8
  -5  -5   2 10.8327 3.57920   3
  -5  -5   2 16.1289 2.31525   4
   4   5  -2 103.050 6.39242   6
   4   5  -2 106.050 6.87614   2
   4   5  -2 99.7557 5.64236   7
  -4  -5   2 109.059 4.99539   2
  -4  -5   2 108.563 6.95396   3
  -4  -5   2 98.6389 7.63642  10
  -4  -5   2 97.8292 7.32965   8
  -4  -5   2 90.8623 8.29676   4
  -4  -5   2 101.102 7.09784   1
   3   5  -2 172.625 9.60955   7
   3   5  -2 188.590 10.4368   6
   3   5  -2 167.815 10.9773   2
  -3  -5   2 163.369 7.40668   2
  -3  -5   2 156.517 11.3890   8
  -3  -5   2 158.178 11.6900  10
  -3  -5   2 163.091 13.0289   4
  -3  -5   2 155.790 10.5402   1
  -3  -5   2 178.702 6.90261   3
   2   5  -2 57.9293 3.69415   6
   2   5  -2 60.7748 4.68812   2
   2   5  -2 57.1210 3.67324   7
  -2  -5   2 64.2953 3.83162   2
  -2  -5   2 59.9103 2.51288   4
  -2  -5   2 57.5762 2.66843   8
  -2  -5   2 59.7619 3.01504  10
  -2  -5   2 53.4768 2.01764   4
  -2  -5   2 51.2977 3.34344   1
   1   5  -2 1.03659 1.95505   6
   1   5  -2 1.97979 2.31858   2
   1   5  -2 2.71471 2.71998   7
  -1  -5   2 2.20059 0.49803   8
  -1  -5   2 3.02937 0.59451   4
  -1  -5   2 2.46294 1.84766   2
  -1  -5   2 0.89073 1.39808   1
  -1  -5   2 1.81106 0.48474  10
  -1  -5   2 1.53310 0.60684  10
  -1  -5   2 1.31685 0.59043   8
   0   5  -2 1.16042 1.94263   6
   0   5  -2 3.22793 2.07525   7
   0   5  -2 3.87365 1.49685   1
   0  -5   2 2.01548 1.77761   2
   0  -5   2 5.78759 0.88426  10
   0  -5   2 4.34215 0.83778   8
   0  -5   2 6.81392 1.61295   1
   0  -5   2 4.52904 0.83153   4
  -1   5  -2 0.16846 1.61392   1
  -1   5  -2 0.14358 1.20785   4
  -1   5  -2 -0.6717 2.94597   6
   1  -5   2 -0.5640 1.08349  10
   1  -5   2 0.76745 1.47754   1
   1  -5   2 -0.8081 1.05632   8
   1  -5   2 2.06875 1.93287   2
   1  -5   2 -0.7344 1.05894   4
  -2   5  -2 190.391 6.13725   4
  -2   5  -2 190.788 5.55125   1
  -2   5  -2 182.812 6.03278   6
   2  -5   2 187.971 6.70669   8
   2  -5   2 185.762 7.28807   4
   2  -5   2 183.355 7.40922  10
   2  -5   2 193.659 10.1553   1
   2  -5   2 183.390 6.32933   2
  -3   5  -2 2.23675 2.50254   6
  -3   5  -2 1.18234 2.30946   1
  -3   5  -2 0.98510 1.86504   4
   3  -5   2 0.64610 1.66941   8
   3  -5   2 -1.3176 3.05464   2
   3  -5   2 -0.1595 3.87433   3
   3  -5   2 -0.7542 1.54892   1
   3  -5   2 -0.2933 1.70737  10
   3  -5   2 1.90597 1.72753   4
  -4   5  -2 44.2052 6.74922   4
  -4   5  -2 45.7618 4.00285   1
  -4   5  -2 45.7940 4.17456   6
   4  -5   2 34.0736 3.03356   4
   4  -5   2 36.9844 3.60884   3
   4  -5   2 41.7719 3.11405   8
   4  -5   2 43.9759 4.73760   2
   4  -5   2 42.4297 3.33911  10
  -5   5  -2 4.39248 4.51421   6
  -5   5  -2 9.51403 3.79786   1
   5  -5   2 8.60626 3.01214  10
   5  -5   2 4.15600 2.77991   4
   5  -5   2 9.25705 2.90965   5
   5  -5   2 8.03388 3.07415   2
   5  -5   2 6.71514 2.77467   8
  -6   5  -2 10.9182 5.22107   6
  -6   5  -2 17.6802 4.53842   1
   6  -5   2 22.7536 4.90721   2
   6  -5   2 13.6441 2.79655   4
   6  -5   2 12.6336 2.82723   8
   6  -5   2 10.0863 2.74945  10
   6  -5   2 20.8169 3.32982   5
  -7   5  -2 24.9591 4.28131   1
  -7   5  -2 23.7875 4.75191   6
   7  -5   2 19.0895 4.42861   8
   7  -5   2 26.1377 4.67065   4
   7  -5   2 18.1474 4.21622   2
   7  -5   2 20.9753 4.72283  10
  -8   5  -2 2.44549 6.34338   6
  -8   5  -2 1.03934 5.56087   1
   8  -5   2 1.82723 3.65286   4
   8  -5   2 -0.8497 4.99537  10
   8  -5   2 -1.3005 4.70815   8
  -9   5  -2 -0.0269 7.27385   6
  -9   5  -2 11.3307 6.92999   1
   9  -5   2 1.59514 9.21828   8
   9  -5   2 6.31455 13.0624  10
  11   4  -2 11.3277 4.63901  10
  11   4  -2 13.4824 4.46501   8
 -11  -4   2 12.2685 6.39793   2
 -11  -4   2 7.09317 4.83643   1
  10   4  -2 37.0198 9.05809  10
  10   4  -2 34.9165 8.75217   8
 -10  -4   2 32.9224 6.11912   3
 -10  -4   2 29.5470 5.98867   1
 -10  -4   2 22.4477 5.75365   2
   9   4  -2 4.88232 3.90894   8
   9   4  -2 1.50397 4.00858  10
  -9  -4   2 -1.5095 4.38826   3
  -9  -4   2 41.0360 20.5183   2
  -9  -4   2 -2.1994 4.41532   1
   8   4  -2 48.4278 4.64056  10
   8   4  -2 47.5339 4.42519   8
  -8  -4   2 45.5337 4.31170   3
  -8  -4   2 46.3538 4.08731   2
  -8  -4   2 46.1147 4.81415   1
   7   4  -2 156.901 8.74610  10
   7   4  -2 150.450 7.28853   8
   7   4  -2 151.768 8.74336   7
  -7  -4   2 147.439 8.90123   3
  -7  -4   2 144.099 6.62212   1
  -7  -4   2 141.726 11.5868   2
   6   4  -2 3.98486 1.71532   8
   6   4  -2 3.60925 1.78778  10
   6   4  -2 2.80719 2.94823   7
  -6  -4   2 3.30111 2.01514   1
  -6  -4   2 2.77849 2.00347   2
  -6  -4   2 1.94579 10.5988   3
   5   4  -2 232.481 11.1552   7
   5   4  -2 243.597 7.58166   8
   5   4  -2 232.182 8.30542  10
  -5  -4   2 203.240 19.4860   8
  -5  -4   2 192.520 19.6263  10
  -5  -4   2 219.354 9.17012   3
  -5  -4   2 227.330 9.28543   2
  -5  -4   2 216.116 19.1022   4
  -5  -4   2 212.096 8.69557   1
   4   4  -2 104.507 5.07790   7
   4   4  -2 104.227 4.66310   6
   4   4  -2 90.2086 5.02106   2
  -4  -4   2 92.5970 4.83793   4
  -4  -4   2 94.5652 7.73531   8
  -4  -4   2 93.5727 4.99765   7
  -4  -4   2 92.8785 8.56267  10
  -4  -4   2 86.8450 6.38076   6
  -4  -4   2 100.060 4.66141   2
  -4  -4   2 89.4037 4.62669   3
   3   4  -2 74.8364 4.14083   7
   3   4  -2 81.1143 4.29932   2
   3   4  -2 73.8244 4.21760   6
  -3  -4   2 60.5758 5.09648   6
  -3  -4   2 77.2910 4.27636   4
  -3  -4   2 65.1189 4.83200   7
  -3  -4   2 76.9903 3.57966   8
  -3  -4   2 75.8613 3.65322   2
  -3  -4   2 67.6087 4.14409   9
  -3  -4   2 77.1199 3.63571  10
   2   4  -2 1.44796 2.19476   7
   2   4  -2 -0.4478 1.52116   6
   2   4  -2 0.90290 1.92698   2
  -2  -4   2 0.87246 0.89835   1
  -2  -4   2 -0.1088 1.37018   7
  -2  -4   2 0.50049 1.31542   9
  -2  -4   2 3.91683 1.68391   6
  -2  -4   2 -0.4428 1.99266   2
  -2  -4   2 0.03772 0.72248   8
  -2  -4   2 0.47991 0.74767  10
   1   4  -2 332.265 6.33764   7
   1   4  -2 352.685 14.1938   6
   1   4  -2 319.501 12.0190   2
  -1  -4   2 330.413 10.3244   4
  -1  -4   2 351.471 10.8726   6
  -1  -4   2 331.794 17.9387   9
  -1  -4   2 327.040 9.46122   1
  -1  -4   2 340.329 12.4410   2
   0   4  -2 144.590 5.80198   2
   0   4  -2 159.909 5.07835   6
   0   4  -2 152.281 5.53044   7
   0   4  -2 156.193 4.36477   1
   0  -4   2 151.817 9.36475   9
   0  -4   2 156.254 4.46173   8
   0  -4   2 154.393 4.87027   2
   0  -4   2 151.148 5.23461   6
   0  -4   2 161.592 4.51962   1
   0  -4   2 150.555 5.12833  10
   0  -4   2 155.443 2.83890   4
  -1   4  -2 16.5568 1.74949   1
  -1   4  -2 15.4192 2.27337   6
  -1   4  -2 15.4987 2.64865   2
  -1   4  -2 16.7004 1.34430   4
   1  -4   2 14.0373 1.33679  10
   1  -4   2 12.6769 1.59167   1
   1  -4   2 13.9676 1.26539   8
   1  -4   2 17.7050 2.89905   2
   1  -4   2 14.3712 2.62539   6
   1  -4   2 12.6738 1.74931   9
   1  -4   2 11.9619 1.26547   4
  -2   4  -2 266.414 7.08608   1
  -2   4  -2 257.360 12.6638   4
  -2   4  -2 270.495 8.39091   6
   2  -4   2 272.441 6.88909   1
   2  -4   2 264.110 7.58507   2
   2  -4   2 271.104 5.62717  10
   2  -4   2 279.053 4.97052   8
   2  -4   2 275.967 6.56996   4
  -3   4  -2 98.8584 4.13752   4
  -3   4  -2 91.1874 4.42235   6
  -3   4  -2 95.0247 3.66449   1
   3  -4   2 92.2658 4.96250   4
   3  -4   2 89.6189 5.65114  10
   3  -4   2 88.6805 4.17597   1
   3  -4   2 92.7722 5.57528   8
   3  -4   2 96.7919 6.81054   3
   3  -4   2 100.706 4.49063   2
  -4   4  -2 53.0948 3.67946   1
  -4   4  -2 52.0173 3.74130   4
  -4   4  -2 52.0924 3.83741   6
   4  -4   2 42.5237 3.25397  10
   4  -4   2 49.6377 3.47677   4
   4  -4   2 42.8230 3.07324   8
   4  -4   2 44.5593 3.64926   2
   4  -4   2 48.8872 3.50294   3
  -5   4  -2 26.4800 3.55153   1
   5  -4   2 17.8929 2.46597   4
   5  -4   2 16.3553 3.12323  10
   5  -4   2 20.8165 2.66752   5
   5  -4   2 15.5757 2.94509   8
   5  -4   2 23.6155 3.25338   2
  -6   4  -2 10.8657 4.31098   6
  -6   4  -2 12.9245 2.85174   1
   6  -4   2 7.31086 2.53967  10
   6  -4   2 9.53384 2.35802   5
   6  -4   2 6.29274 3.24874   4
   6  -4   2 4.12371 2.25205   8
   6  -4   2 11.2615 4.02702   2
  -7   4  -2 3.21982 3.28765   6
  -7   4  -2 4.25022 4.15210   1
   7  -4   2 5.42955 2.37957   5
   7  -4   2 5.89723 3.80099   4
   7  -4   2 5.00846 3.24821   2
   7  -4   2 5.61348 3.86215   8
   7  -4   2 4.49968 4.05776  10
  -8   4  -2 5.70223 4.92797   1
  -8   4  -2 -2.2398 3.85631   6
   8  -4   2 -0.1985 3.14226   8
   8  -4   2 5.12197 4.44159   4
   8  -4   2 1.02219 3.28364  10
  -9   4  -2 1.03400 5.80299   1
  -9   4  -2 2.15544 4.45216   6
   9  -4   2 3.50386 3.98472   4
   9  -4   2 -0.6141 5.38456   8
   9  -4   2 -4.6068 5.75577  10
  11   3  -2 24.2163 6.14375   8
  11   3  -2 16.6025 6.29839  10
 -11  -3   2 18.3623 5.07772   2
 -11  -3   2 18.4296 6.72733   1
  10   3  -2 -1.3028 3.26670  10
  10   3  -2 -2.3771 3.07923   8
 -10  -3   2 4.05813 3.82802   2
 -10  -3   2 0.49163 3.68907   1
   9   3  -2 69.3279 5.79808  10
   9   3  -2 79.1629 6.00483   8
   9   3  -2 87.7980 5.11579   9
  -9  -3   2 69.1139 5.53575   2
  -9  -3   2 74.8510 7.39626   1
  -9  -3   2 64.6953 5.73274   3
   8   3  -2 164.940 7.46368  10
   8   3  -2 163.938 6.88097   8
   8   3  -2 166.558 6.86156   9
  -8  -3   2 139.907 10.7813   3
  -8  -3   2 155.248 8.91238   2
  -8  -3   2 161.867 6.91021   1
   7   3  -2 17.7713 3.33738  10
   7   3  -2 22.9980 2.21433   9
   7   3  -2 16.8792 3.10578   8
  -7  -3   2 20.5987 2.85843   2
  -7  -3   2 17.5473 2.81107   3
  -7  -3   2 26.4363 3.07425   1
   6   3  -2 300.431 11.6718  10
   6   3  -2 310.566 5.55780   9
   6   3  -2 294.815 17.7379   7
   6   3  -2 297.734 10.2031   8
  -6  -3   2 285.750 14.9131   2
  -6  -3   2 288.742 11.3260   9
  -6  -3   2 302.382 10.2800   3
  -6  -3   2 308.365 7.03488   1
  -6  -3   2 291.270 14.3781   5
   5   3  -2 162.104 6.87297   8
   5   3  -2 153.620 7.81965   7
   5   3  -2 158.879 4.02638   9
   5   3  -2 161.191 6.87251  10
  -5  -3   2 153.674 10.4229  10
  -5  -3   2 138.321 11.7478   4
  -5  -3   2 141.804 6.41605   7
  -5  -3   2 148.869 8.93992   8
  -5  -3   2 150.528 9.71414   1
  -5  -3   2 155.250 7.15163   6
  -5  -3   2 155.266 7.12119   2
  -5  -3   2 148.319 5.50910   5
  -5  -3   2 150.072 7.14688   9
  -5  -3   2 142.442 6.20882   3
   4   3  -2 0.60337 1.48321   7
   4   3  -2 -0.4994 1.06049   8
   4   3  -2 -0.0305 1.07430  10
   4   3  -2 -2.1822 1.76353   9
  -4  -3   2 -0.6571 1.64153   9
  -4  -3   2 2.98848 1.63928   7
  -4  -3   2 0.15313 2.18718   6
  -4  -3   2 -0.5457 1.65058   8
  -4  -3   2 -1.0864 1.38184   2
  -4  -3   2 -1.7781 1.54825   1
  -4  -3   2 -0.1456 1.79695  10
  -4  -3   2 0.76196 2.00611   5
  -4  -3   2 -1.5479 1.56328   3
  -4  -3   2 -1.0779 1.21102   4
   3   3  -2 945.093 33.5365   6
   3   3  -2 971.702 14.4465   9
   3   3  -2 942.660 33.1829   7
   3   3  -2 950.367 24.0101   2
  -3  -3   2 971.465 28.4553  10
  -3  -3   2 942.810 30.8849   4
  -3  -3   2 980.600 28.7500   9
  -3  -3   2 961.625 25.8582   8
  -3  -3   2 956.088 33.4994   6
  -3  -3   2 936.094 29.7243   7
  -3  -3   2 929.115 31.0605   2
   2   3  -2 9.03550 1.49961   7
   2   3  -2 8.96439 1.56766   6
   2   3  -2 8.61749 1.50859   2
  -2  -3   2 3.82460 1.23471   9
  -2  -3   2 3.56787 1.36021   6
  -2  -3   2 5.08355 1.73185   7
  -2  -3   2 3.31999 1.02962   1
  -2  -3   2 4.08816 0.98049  10
  -2  -3   2 5.56634 1.90804   2
  -2  -3   2 4.07107 0.93367   8
   1   3  -2 580.455 13.7811   7
   1   3  -2 567.885 11.1046   6
   1   3  -2 574.718 12.9429   2
  -1  -3   2 564.942 18.7791   1
  -1  -3   2 584.838 15.3369   6
  -1  -3   2 617.627 10.3905   9
  -1  -3   2 589.287 16.0884   2
   0   3  -2 1458.25 27.7834   6
   0   3  -2 1452.06 41.0324   1
   0   3  -2 1462.81 23.3583   2
   0  -3   2 1481.62 25.9287   9
   0  -3   2 1497.35 47.4831   4
   0  -3   2 1525.17 35.1918   6
   0  -3   2 1466.81 40.7649   1
   0  -3   2 1511.38 29.7351   2
  -1   3  -2 61.2170 2.51444   1
  -1   3  -2 50.5944 3.00515   2
  -1   3  -2 57.5045 2.31568   4
  -1   3  -2 61.6823 2.92588   6
   1  -3   2 56.0274 2.06189   1
   1  -3   2 61.3655 1.96835   8
   1  -3   2 52.2701 2.75432   9
   1  -3   2 59.2692 2.11076  10
   1  -3   2 57.6416 1.98678   4
   1  -3   2 61.0877 2.89245   6
   1  -3   2 54.3152 3.10923   2
  -2   3  -2 307.415 13.2487   4
  -2   3  -2 325.894 6.37814   6
  -2   3  -2 318.345 11.5170   2
  -2   3  -2 320.899 7.01153   1
   2  -3   2 332.026 7.22835  10
   2  -3   2 337.368 9.69435   3
   2  -3   2 322.447 12.5609   1
   2  -3   2 315.048 7.81192   2
   2  -3   2 325.063 8.19280   6
   2  -3   2 323.555 6.81796   4
   2  -3   2 324.190 6.91804   8
  -3   3  -2 168.298 5.00459   1
  -3   3  -2 161.977 5.89760   6
  -3   3  -2 160.783 7.53473   4
   3  -3   2 181.870 4.56663   4
   3  -3   2 169.839 5.86666   1
   3  -3   2 157.186 5.22571   2
   3  -3   2 176.657 5.29827   8
   3  -3   2 174.655 5.15870  10
   3  -3   2 180.271 5.60290   3
  -4   3  -2 24.0698 2.75290   1
  -4   3  -2 26.3143 2.85759   6
  -4   3  -2 27.6209 2.86886   4
   4  -3   2 29.4774 2.42455  10
   4  -3   2 28.6506 2.69269   4
   4  -3   2 31.9002 2.36305   3
   4  -3   2 27.9253 2.82930   1
   4  -3   2 26.9150 2.25409   8
   4  -3   2 30.1015 2.92662   2
  -5   3  -2 1.06329 2.20907   6
  -5   3  -2 19.2033 8.88508   1
   5  -3   2 2.95576 1.82557   4
   5  -3   2 2.34453 2.12951   2
   5  -3   2 4.35437 1.83550   3
   5  -3   2 6.67287 2.83151   5
   5  -3   2 4.67725 1.99468  10
   5  -3   2 4.57632 1.88621   8
  -6   3  -2 72.5854 4.23443   1
  -6   3  -2 64.0655 4.32756   6
   6  -3   2 73.0220 4.00183   8
   6  -3   2 78.6790 4.34630  10
   6  -3   2 76.9820 5.33276   3
   6  -3   2 72.2723 4.62274   4
   6  -3   2 75.1505 4.56930   2
   6  -3   2 74.8872 3.34897   5
  -7   3  -2 -1.3496 2.59599   1
  -7   3  -2 4.05176 3.88773   6
   7  -3   2 0.70554 1.71369   5
   7  -3   2 -1.1973 3.73834   2
   7  -3   2 -1.9005 3.26958   8
   7  -3   2 3.12739 3.49697   4
   7  -3   2 -2.2983 3.51727  10
  -8   3  -2 0.75387 3.15172   1
  -8   3  -2 2.30962 4.41853   6
   8  -3   2 0.95517 2.85920   4
   8  -3   2 2.34090 4.25848  10
   8  -3   2 1.17127 4.08504   8
  -9   3  -2 29.0743 4.78228   6
  -9   3  -2 41.6686 6.54658   1
   9  -3   2 30.3029 4.86733  10
   9  -3   2 28.4904 4.61127   8
   9  -3   2 30.4347 5.61202   4
 -10   3  -2 0.78359 6.25739   6
 -10   3  -2 4.16987 4.85474   1
  10  -3   2 -0.1735 4.40775   4
  10  -3   2 -2.1566 6.24833  10
  10  -3   2 -4.0098 5.93620   8
  11   2  -2 14.5768 4.74634  10
  11   2  -2 19.0574 4.59278   8
 -11  -2   2 24.3709 24.7666   1
  10   2  -2 103.746 8.06219  10
  10   2  -2 101.196 6.87154   8
  10   2  -2 107.590 5.63671   9
 -10  -2   2 99.8416 6.51668   1
   9   2  -2 128.520 7.82841  10
   9   2  -2 137.266 7.85239   8
   9   2  -2 130.026 5.61219   9
  -9  -2   2 113.482 9.14697   3
  -9  -2   2 96.8298 8.14842   1
   8   2  -2 98.6328 4.83224   9
   8   2  -2 95.9198 6.71669  10
   8   2  -2 85.6703 5.95735   8
  -8  -2   2 87.1651 4.90844   1
  -8  -2   2 73.7158 5.76591   3
   7   2  -2 274.799 6.63754   9
   7   2  -2 271.337 12.9152   8
   7   2  -2 276.173 13.3538  10
  -7  -2   2 272.704 12.6287   1
  -7  -2   2 259.729 15.4323   5
  -7  -2   2 259.273 16.6993   9
  -7  -2   2 265.131 15.1918   3
   6   2  -2 504.457 14.7421   8
   6   2  -2 525.399 16.7840  10
   6   2  -2 492.174 10.7318   9
  -6  -2   2 538.308 24.5326   9
  -6  -2   2 502.986 24.2046   6
  -6  -2   2 518.257 25.8434   3
  -6  -2   2 433.963 23.2795   7
  -6  -2   2 513.661 15.7688   1
  -6  -2   2 503.453 17.2338   5
   5   2  -2 56.5862 2.90830  10
   5   2  -2 57.5076 2.77345   8
   5   2  -2 59.7099 2.45216   9
   5   2  -2 59.8389 3.53521   7
  -5  -2   2 51.6098 3.46581   7
  -5  -2   2 60.8247 3.41770   6
  -5  -2   2 52.2105 3.97057   4
  -5  -2   2 50.4176 4.02481   8
  -5  -2   2 64.7323 3.05229   1
  -5  -2   2 59.5015 3.36455   5
  -5  -2   2 48.4769 3.09100   3
  -5  -2   2 59.8045 2.85066   9
  -5  -2   2 51.6570 3.41420   2
  -5  -2   2 46.0978 3.86867  10
   4   2  -2 838.142 33.2963   7
   4   2  -2 962.993 24.2308  10
   4   2  -2 985.571 23.8198   8
   4   2  -2 990.465 37.3478   9
  -4  -2   2 1008.51 23.2668  10
  -4  -2   2 995.398 18.7584   5
  -4  -2   2 1012.45 23.8086   8
  -4  -2   2 978.603 40.4104   3
  -4  -2   2 965.294 29.4135   2
  -4  -2   2 1009.29 24.6864   7
  -4  -2   2 988.081 32.1776   1
  -4  -2   2 985.795 25.7469   6
  -4  -2   2 994.434 55.5131   4
  -4  -2   2 1000.14 22.3436   9
   3   2  -2 197.535 9.18790   9
   3   2  -2 211.621 8.14614   7
   3   2  -2 213.112 7.84517   6
  -3  -2   2 211.407 64.7662   5
  -3  -2   2 207.838 8.57858   6
  -3  -2   2 201.926 4.52201   1
  -3  -2   2 193.780 5.80315   2
  -3  -2   2 207.413 7.22527   7
  -3  -2   2 215.153 7.31752  10
  -3  -2   2 204.362 6.19308   8
  -3  -2   2 221.875 57.7676   9
   2   2  -2 22.1058 2.01391   6
   2   2  -2 20.7535 1.75356   9
   2   2  -2 21.3258 1.99402   2
   2   2  -2 24.7993 1.84455   7
  -2  -2   2 17.7391 1.77339   6
  -2  -2   2 22.2521 1.81581   7
  -2  -2   2 22.7140 1.52309   9
  -2  -2   2 21.3746 1.72232   2
  -2  -2   2 20.8868 1.73736   5
   1   2  -2 3880.28 127.052   6
   1   2  -2 4005.16 79.8200   2
   1   2  -2 4006.34 141.707   7
   1   2  -2 4109.76 83.0144   9
  -1  -2   2 3994.52 98.9022   2
  -1  -2   2 4130.41 100.661   1
  -1  -2   2 4166.54 111.371   6
  -1  -2   2 4044.78 173.509   9
   0   2  -2 27.0974 1.76334   6
   0   2  -2 30.4652 1.06652   1
   0   2  -2 31.4375 1.91845   2
   0  -2   2 26.8691 1.71239   6
   0  -2   2 25.8545 1.75955   9
   0  -2   2 30.3757 1.35349   4
   0  -2   2 30.4078 2.21104   2
   0  -2   2 27.9901 1.10760   1
  -1   2  -2 617.008 11.5602   6
  -1   2  -2 617.750 11.8602   1
  -1   2  -2 596.453 30.8323   2
  -1   2  -2 613.472 24.2244   4
   1  -2   2 617.124 15.5186   6
   1  -2   2 618.176 16.6955   2
   1  -2   2 614.470 16.1114   4
   1  -2   2 612.193 30.8636   9
   1  -2   2 630.968 21.2875   1
  -2   2  -2 543.597 11.1095   6
  -2   2  -2 549.965 12.3849   4
  -2   2  -2 545.012 12.3379   1
  -2   2  -2 537.040 15.9778   2
   2  -2   2 582.666 20.6669   1
   2  -2   2 584.219 16.0454  10
   2  -2   2 594.450 10.6510   9
   2  -2   2 562.531 14.1542   3
   2  -2   2 557.711 15.8752   2
   2  -2   2 577.641 12.5805   8
   2  -2   2 564.541 13.5953   4
  -3   2  -2 0.70564 1.88353   2
  -3   2  -2 2.20500 1.84571   6
  -3   2  -2 0.46906 1.39390   1
  -3   2  -2 -0.4744 1.51427   4
   3  -2   2 3.03579 1.38940   3
   3  -2   2 2.34465 1.13065   1
   3  -2   2 0.04111 1.45520   8
   3  -2   2 1.11124 1.88069   2
   3  -2   2 2.03551 1.63301  10
   3  -2   2 -1.4593 1.50936   4
  -4   2  -2 71.0916 3.48300   6
  -4   2  -2 68.5035 4.20063   4
  -4   2  -2 70.0867 3.09639   1
   4  -2   2 67.1076 4.23073   2
   4  -2   2 67.3629 3.48506  10
   4  -2   2 68.6544 3.32930   8
   4  -2   2 68.3142 2.81688   3
   4  -2   2 74.6393 3.68428   1
   4  -2   2 66.4636 3.31283   4
  -5   2  -2 163.273 5.21623   1
  -5   2  -2 170.693 5.40748   6
   5  -2   2 175.938 8.68957   2
   5  -2   2 166.556 5.36598   4
   5  -2   2 155.501 5.01312  10
   5  -2   2 159.288 8.59609   3
   5  -2   2 156.946 4.76672   8
   5  -2   2 159.373 4.35170   5
  -6   2  -2 -1.2519 3.14400   6
  -6   2  -2 1.33726 2.02567   1
   6  -2   2 0.97948 2.77909   8
   6  -2   2 2.21205 1.59869   3
   6  -2   2 1.26726 2.96914  10
   6  -2   2 5.05462 1.56609   5
   6  -2   2 2.55874 2.90468   2
   6  -2   2 1.61543 2.06447   4
  -7   2  -2 77.1441 4.74849   1
  -7   2  -2 76.3453 5.48131   6
   7  -2   2 77.3657 4.68808  10
   7  -2   2 73.1363 4.05346   3
   7  -2   2 80.4741 4.51481   8
   7  -2   2 82.4220 5.60306   5
   7  -2   2 77.5078 4.84447   2
   7  -2   2 73.1049 4.44286   4
  -8   2  -2 47.5082 5.51457   6
  -8   2  -2 58.9346 5.56831   1
   8  -2   2 42.7527 4.25955   4
   8  -2   2 55.4915 4.44817   8
   8  -2   2 50.7439 4.57224  10
  -9   2  -2 -4.6381 4.78778   1
  -9   2  -2 -0.0268 3.48042   6
   9  -2   2 -0.4131 4.75737  10
   9  -2   2 -3.4274 4.51409   8
   9  -2   2 -2.5704 4.45251   4
 -10   2  -2 -3.7573 20.3044   6
 -10   2  -2 8.27958 4.45927   1
  10  -2   2 8.24931 4.16970   4
  10  -2   2 8.39546 4.28593   8
  10  -2   2 2.15107 4.24196  10
  11   1  -2 86.9163 6.44225   8
  11   1  -2 93.7132 6.92557  10
 -11  -1   2 88.7868 7.08757   1
  10   1  -2 94.9602 6.30709  10
  10   1  -2 100.796 6.04585   8
 -10  -1   2 89.2134 6.19843   1
   9   1  -2 9.98597 4.03664   8
   9   1  -2 12.1107 4.35075  10
   9   1  -2 11.9639 2.44309   9
  -9  -1   2 9.34091 4.47741   1
   8   1  -2 312.976 11.3210   9
   8   1  -2 303.614 11.7546  10
   8   1  -2 300.287 10.9274   8
  -8  -1   2 309.977 15.9947   5
  -8  -1   2 292.633 19.3753   3
  -8  -1   2 298.854 18.1665   1
   7   1  -2 231.285 8.72767   8
   7   1  -2 244.996 9.80302  10
   7   1  -2 266.365 7.63584   9
  -7  -1   2 234.979 14.6875   3
  -7  -1   2 254.472 8.33364   1
  -7  -1   2 248.643 11.4066   5
  -7  -1   2 239.182 9.10266   9
   6   1  -2 303.312 10.6890  10
   6   1  -2 299.602 10.2230   8
   6   1  -2 300.907 4.99010   9
   6   1  -2 305.554 11.9276   5
  -6  -1   2 292.346 20.0559   3
  -6  -1   2 319.329 10.6323   9
  -6  -1   2 295.118 14.9880   5
  -6  -1   2 287.699 7.83499   1
  -6  -1   2 315.052 16.4245   7
   5   1  -2 138.920 4.29855  10
   5   1  -2 141.842 3.76581   5
   5   1  -2 142.718 3.32611   9
   5   1  -2 148.232 4.15714   8
  -5  -1   2 141.689 7.81903   4
  -5  -1   2 147.576 5.81788   1
  -5  -1   2 145.003 9.12734   7
  -5  -1   2 146.278 5.07082   3
  -5  -1   2 137.909 5.98838  10
  -5  -1   2 146.213 5.55608   8
  -5  -1   2 144.705 7.34068   9
  -5  -1   2 149.903 5.90271   5
   4   1  -2 1070.71 32.5701  10
   4   1  -2 1085.07 31.1110   8
   4   1  -2 1089.21 26.3036   9
   4   1  -2 1049.36 33.8233   5
  -4  -1   2 1122.40 36.3191   4
  -4  -1   2 1127.49 22.3513   9
  -4  -1   2 1127.61 67.4543  10
  -4  -1   2 1092.45 27.3304   7
  -4  -1   2 1067.11 27.6286   3
  -4  -1   2 1082.87 20.5262   1
  -4  -1   2 1123.57 63.5551   8
  -4  -1   2 1085.88 51.6984   6
  -4  -1   2 1100.03 42.6829   5
   3   1  -2 7.54454 1.57015   5
   3   1  -2 8.20963 1.39539   9
   3   1  -2 8.81923 1.31874   7
   3   1  -2 7.96769 1.45424   8
   3   1  -2 11.6348 1.63635  10
  -3  -1   2 6.15802 1.32195   1
  -3  -1   2 7.16518 1.34025   6
  -3  -1   2 9.37390 1.43519   2
  -3  -1   2 9.84587 1.27991   5
  -3  -1   2 8.62600 1.32036   7
  -3  -1   2 7.40429 1.30724   9
   2   1  -2 574.764 21.7377   7
   2   1  -2 578.994 15.1903   9
   2   1  -2 565.758 24.1823   6
   2   1  -2 563.780 26.9341   2
  -2  -1   2 573.650 27.8000   1
  -2  -1   2 580.883 22.3555   2
  -2  -1   2 582.013 18.2350   6
  -2  -1   2 598.712 20.6015   8
  -2  -1   2 589.049 14.6942   9
  -2  -1   2 567.797 20.3741  10
  -2  -1   2 602.412 20.2897   7
  -2  -1   2 572.261 11.9373   5
   1   1  -2 7583.72 272.784   7
   1   1  -2 7552.54 338.621   6
   1   1  -2 7535.51 325.496   9
   1   1  -2 7506.35 237.300   2
  -1  -1   2 7452.29 339.241   5
  -1  -1   2 7483.18 162.803   9
  -1  -1   2 7515.33 273.152   2
  -1  -1   2 7747.22 207.181   6
   0   1  -2 453.646 18.4669   2
   0   1  -2 456.660 20.6691   9
   0   1  -2 455.152 11.4218   6
   0   1  -2 446.068 13.3220   1
   0  -1   2 462.985 15.5915   6
   0  -1   2 474.784 15.6036   4
   0  -1   2 447.637 25.1249   1
   0  -1   2 482.195 11.9557   2
   0  -1   2 465.682 14.8767   9
  -1   1  -2 1341.74 33.5516   1
  -1   1  -2 1327.96 32.8426   2
  -1   1  -2 1334.15 27.7014   4
  -1   1  -2 1353.61 41.5114   6
   1  -1   2 1344.62 35.0396   6
   1  -1   2 1337.20 38.1732   9
   1  -1   2 1401.64 38.2120   3
   1  -1   2 1389.94 29.6297   4
   1  -1   2 1372.18 46.9614   1
   1  -1   2 1365.77 40.3624   2
  -2   1  -2 58.3773 2.17991   3
  -2   1  -2 52.1947 2.26505   2
  -2   1  -2 53.6693 2.28479   6
  -2   1  -2 51.6819 1.75740   1
  -2   1  -2 53.7737 3.62076   4
   2  -1   2 47.4609 2.11130   4
   2  -1   2 54.7336 2.32823   2
   2  -1   2 55.8046 2.90970   3
   2  -1   2 57.2636 2.03414   8
   2  -1   2 55.8552 2.77652   9
   2  -1   2 55.4503 2.14852  10
   2  -1   2 53.7224 2.23568   1
  -3   1  -2 323.454 10.4639   3
  -3   1  -2 325.768 8.49560   2
  -3   1  -2 325.408 10.9989   1
  -3   1  -2 322.392 10.3167   6
  -3   1  -2 317.638 11.4353   4
   3  -1   2 331.711 9.61667   1
   3  -1   2 325.800 8.81065   3
   3  -1   2 329.466 10.3092   9
   3  -1   2 332.102 8.48001   4
   3  -1   2 346.408 8.96311  10
   3  -1   2 330.686 7.33417   8
   3  -1   2 331.546 8.53063   2
  -4   1  -2 724.153 22.3807   1
  -4   1  -2 727.819 19.6737   2
  -4   1  -2 740.627 37.1240   4
  -4   1  -2 718.001 17.5699   3
   4  -1   2 751.090 18.8806   1
   4  -1   2 734.026 18.5634  10
   4  -1   2 709.205 17.2586   3
   4  -1   2 707.834 16.5175   4
   4  -1   2 725.005 16.4013   8
   4  -1   2 727.445 17.3986   2
   4  -1   2 716.818 28.6566   5
  -5   1  -2 138.449 5.95219   3
  -5   1  -2 171.790 5.17791   1
   5  -1   2 156.272 5.67266   3
   5  -1   2 157.641 5.14479   8
   5  -1   2 149.453 4.70965   2
   5  -1   2 153.973 6.97522   1
   5  -1   2 154.424 8.08432   5
   5  -1   2 159.924 5.24063  10
   5  -1   2 156.944 7.48670   4
  -6   1  -2 423.874 18.8252   3
  -6   1  -2 420.792 19.5623   1
   6  -1   2 431.504 15.1150   8
   6  -1   2 438.774 12.5325   4
   6  -1   2 425.878 17.5931   9
   6  -1   2 438.865 15.2000  10
   6  -1   2 455.221 19.3066   3
   6  -1   2 425.169 9.95572   2
   6  -1   2 433.250 16.9966   5
  -7   1  -2 214.652 12.9007   3
  -7   1  -2 227.338 8.10461   1
   7  -1   2 233.190 7.28920   4
   7  -1   2 223.965 8.59682   9
   7  -1   2 215.382 10.2900   3
   7  -1   2 222.780 10.0566   5
   7  -1   2 232.864 8.99309  10
   7  -1   2 233.795 8.39726   9
   7  -1   2 228.654 10.0736   8
  -8   1  -2 12.0141 13.4843   1
  -8   1  -2 12.0600 1.98652   3
   8  -1   2 16.3957 3.44016  10
   8  -1   2 16.6459 4.24728   4
   8  -1   2 17.0699 3.21486   8
  -9   1  -2 82.2006 6.69153   1
   9  -1   2 70.4745 6.29136  10
   9  -1   2 59.8701 5.70634   8
   9  -1   2 74.1035 6.28933   4
 -10   1  -2 64.8665 6.83593   6
 -10   1  -2 63.2988 7.23278   1
  10  -1   2 64.3456 5.65385   4
  10  -1   2 62.7541 5.91109  10
  10  -1   2 58.0173 6.69035   8
 -11   1  -2 -1.8317 6.56911   1
 -11   1  -2 3.91104 4.63549   6
  11  -1   2 4.48885 6.55910   4
  11  -1   2 5.92847 4.69738   8
  11  -1   2 6.66687 4.99756  10
  11   0  -2 31.5010 6.83849  10
  11   0  -2 29.4378 6.37453   8
 -11   0   2 22.9994 5.28700   1
  10   0  -2 26.3250 4.55758  10
  10   0  -2 21.3302 4.12403   8
 -10   0   2 24.4739 4.72548   1
   9   0  -2 158.344 7.49353   9
   9   0  -2 153.462 7.59849  10
   9   0  -2 167.888 10.1047   5
   9   0  -2 142.859 7.18519   8
  -9   0   2 155.686 7.53375   1
   8   0  -2 296.891 11.1870   9
   8   0  -2 282.619 11.9622   5
   8   0  -2 273.549 16.5101   8
   8   0  -2 277.656 15.8372  10
  -8   0   2 263.754 16.3786   5
  -8   0   2 280.266 10.6557   1
  -8   0   2 276.736 18.3378   3
   7   0  -2 359.469 9.33336   9
   7   0  -2 356.244 9.35001  10
   7   0  -2 352.189 10.7823   5
   7   0  -2 342.235 9.04690   8
  -7   0   2 369.613 14.5910   5
  -7   0   2 349.707 24.9678   3
  -7   0   2 338.118 15.1606   1
   6   0  -2 1000.92 41.5531   5
   6   0  -2 1003.96 25.0961   9
   6   0  -2 1028.25 21.9843   8
   6   0  -2 1009.89 23.6283  10
  -6   0   2 1051.88 54.5377   7
  -6   0   2 1032.42 62.9509   1
  -6   0   2 1088.73 50.6433   5
  -6   0   2 1070.38 58.7050   3
   5   0  -2 191.245 4.14997   5
   5   0  -2 207.304 4.90006   8
   5   0  -2 192.039 5.00838  10
   5   0  -2 190.456 7.24408   1
   5   0  -2 196.769 5.71533   9
  -5   0   2 204.989 6.27321   8
  -5   0   2 197.821 4.18918   9
  -5   0   2 193.839 10.0612   7
  -5   0   2 204.503 6.43305  10
  -5   0   2 181.115 6.19210   3
  -5   0   2 202.167 6.79919   1
  -5   0   2 186.839 10.5128   4
  -5   0   2 194.566 6.68518   5
   4   0  -2 664.401 15.3509  10
   4   0  -2 666.871 11.1252   9
   4   0  -2 675.388 13.5529   1
   4   0  -2 658.217 12.5717   5
   4   0  -2 673.100 15.9422   8
  -4   0   2 692.472 26.5418   5
  -4   0   2 710.399 25.7071   7
  -4   0   2 697.028 50.2373   4
  -4   0   2 674.131 27.9277   3
  -4   0   2 702.359 11.5397   9
  -4   0   2 693.395 16.7164   8
  -4   0   2 703.133 19.1847  10
  -4   0   2 661.318 16.2705   1
   3   0  -2 4229.62 117.653   8
   3   0  -2 4202.40 84.6472   1
   3   0  -2 4131.39 150.748  10
   3   0  -2 4171.84 103.678   9
   3   0  -2 4161.75 145.063   5
  -3   0   2 4212.19 68.2890   8
  -3   0   2 4385.17 156.655   7
  -3   0   2 4139.59 104.354   1
  -3   0   2 4105.25 70.1364  10
  -3   0   2 4249.61 104.581   5
  -3   0   2 4268.34 94.5344   9
   2   0  -2 2374.43 99.4120   1
   2   0  -2 2405.78 70.4691   9
   2   0  -2 2450.36 91.7990   7
   2   0  -2 2385.71 70.3048   5
  -2   0   2 2434.12 53.4063   7
  -2   0   2 2445.75 70.8247   9
  -2   0   2 2437.69 67.2184   8
  -2   0   2 2391.28 88.7961   1
  -2   0   2 2444.58 65.4479   5
  -2   0   2 2402.21 76.1045  10
  -2   0   2 2463.03 84.0895   6
   1   0  -2 1946.71 41.3369   1
   1   0  -2 2047.39 74.6675   5
   1   0  -2 2124.08 71.2465   6
   1   0  -2 2082.70 68.8327   9
   1   0  -2 2003.22 75.9013   2
   1   0  -2 2126.88 83.5604   7
  -1   0   2 2082.70 58.2773   1
  -1   0   2 2199.82 72.6146   3
  -1   0   2 2178.54 56.5524   7
  -1   0   2 2199.69 82.4693   6
  -1   0   2 2147.38 86.2239   2
  -1   0   2 2094.62 61.6870   9
  -1   0   2 2085.16 98.4643   5
   0   0  -2 1802.29 62.7294   1
   0   0  -2 1799.92 69.2696   5
   0   0  -2 1854.59 69.6791   2
   0   0  -2 1833.94 67.5163   9
   0   0  -2 1829.14 46.9376   3
   0   0  -2 1817.16 75.7592   6
   0   0   2 1792.88 42.4992   9
   0   0   2 1763.33 75.4880   5
   0   0   2 1845.25 68.3152   2
   0   0   2 1858.12 58.6762   3
   0   0   2 1870.75 50.1179   6
  -1   0  -2 933.450 23.6505   3
  -1   0  -2 941.870 25.6894   4
  -1   0  -2 967.182 31.3951   9
  -1   0  -2 939.514 31.5424   2
   1   0   2 940.474 27.2490   9
   1   0   2 948.329 27.3772   5
   1   0   2 968.590 30.2499   4
   1   0   2 940.514 27.6922   3
   1   0   2 941.016 28.5628   2
  -2   0  -2 295.979 4.84377   2
  -2   0  -2 311.900 8.06680   3
  -2   0  -2 317.750 8.19510   1
  -2   0  -2 308.650 15.2092   4
   2   0   2 315.465 8.47313  10
   2   0   2 316.570 7.81240   8
   2   0   2 305.591 14.3528   9
   2   0   2 305.219 10.2073   5
   2   0   2 303.967 9.46520   2
   2   0   2 309.717 7.73086   4
   2   0   2 310.246 9.98799   3
  -3   0  -2 3819.79 147.248   1
  -3   0  -2 3847.66 57.8547   4
  -3   0  -2 3808.84 134.969   3
  -3   0  -2 3761.62 84.6603   2
   3   0   2 3819.07 127.236   5
   3   0   2 3784.54 129.522   3
   3   0   2 3880.15 154.239   4
   3   0   2 3746.04 105.402   9
   3   0   2 3904.50 100.245  10
   3   0   2 3719.65 90.1059   2
   3   0   2 3917.16 95.9079   8
  -4   0  -2 55.5642 2.66990   8
  -4   0  -2 49.1286 2.79522   2
  -4   0  -2 58.0506 2.88071  10
  -4   0  -2 55.5495 2.98361   4
  -4   0  -2 65.7048 3.05278   1
  -4   0  -2 59.3444 2.50289   3
   4   0   2 59.3424 2.57184   3
   4   0   2 55.4114 3.05634  10
   4   0   2 57.6278 2.90606   8
   4   0   2 55.1601 2.52504   2
   4   0   2 56.2919 2.16457   5
   4   0   2 51.8387 2.63008   4
   4   0   2 59.7934 1.84232   9
  -5   0  -2 474.138 12.7946   1
  -5   0  -2 480.673 21.9188   8
  -5   0  -2 480.005 23.7006  10
  -5   0  -2 465.961 12.9905   3
  -5   0  -2 458.268 25.3317   4
  -5   0  -2 455.063 16.3706   2
   5   0   2 469.460 11.3398   2
   5   0   2 472.836 14.0100   8
   5   0   2 471.765 14.8422  10
   5   0   2 472.636 14.2526   3
   5   0   2 462.835 10.8500   4
  -6   0  -2 275.724 9.83520   1
  -6   0  -2 261.465 7.80675   3
   6   0   2 260.618 7.36627   4
   6   0   2 258.300 9.28294   3
   6   0   2 270.116 8.25887  10
   6   0   2 273.645 9.10748   8
  -7   0  -2 205.975 6.54619   1
  -7   0  -2 184.944 11.1829   3
   7   0   2 192.464 8.45052   3
   7   0   2 215.588 6.69351  10
   7   0   2 200.394 6.48351   8
   7   0   2 202.102 6.78648   4
  -8   0  -2 170.208 6.78269   3
  -8   0  -2 154.734 7.46928   1
   8   0   2 168.916 10.3043   3
   8   0   2 152.603 6.06218   8
   8   0   2 156.291 6.97354   4
   8   0   2 168.511 7.75372  10
  -9   0  -2 52.5008 5.88769   1
   9   0   2 47.7569 4.47876   8
   9   0   2 46.1831 5.47112   4
   9   0   2 50.5496 4.84297  10
 -10   0  -2 3.92235 3.87871   1
  10   0   2 2.83983 4.91368   8
  10   0   2 5.96360 4.88209   4
  10   0   2 -3.5857 5.00191  10
 -11   0  -2 1.46532 4.53093   1
  11   0   2 3.34113 4.26596   4
  11   0   2 -2.1343 4.47750  10
  11   0   2 2.68871 4.38253   8
  11  -1  -2 26.9269 5.42515  10
  11  -1  -2 30.9487 5.23390   8
 -11   1   2 29.1373 5.65475   1
  10  -1  -2 244.942 14.7452  10
  10  -1  -2 248.842 14.3138   8
 -10   1   2 239.832 16.1042   1
   9  -1  -2 85.3205 6.04564   8
   9  -1  -2 85.9665 6.42914  10
   9  -1  -2 98.2742 4.53848   9
   9  -1  -2 96.5877 6.58065   5
  -9   1   2 87.7242 6.65303   1
   8  -1  -2 295.101 10.7321   9
   8  -1  -2 303.195 11.7062   5
   8  -1  -2 280.770 11.2852  10
   8  -1  -2 278.692 11.2819   8
  -8   1   2 282.713 13.3410   1
   7  -1  -2 992.917 32.7737   8
   7  -1  -2 986.561 33.3430   5
   7  -1  -2 986.909 34.9774  10
   7  -1  -2 1008.03 30.7393   9
  -7   1   2 1021.52 29.8531   1
  -7   1   2 986.604 48.9684   3
  -7   1   2 1043.43 62.6198   5
   6  -1  -2 136.668 5.90698   8
   6  -1  -2 132.078 6.55856  10
   6  -1  -2 135.768 3.83862   5
   6  -1  -2 126.141 3.50680   9
  -6   1   2 126.343 9.13404   3
  -6   1   2 134.031 5.12515   1
  -6   1   2 126.085 5.81631   5
   5  -1  -2 748.988 20.6235  10
   5  -1  -2 756.736 26.1595   1
   5  -1  -2 717.292 9.81864   9
   5  -1  -2 726.256 11.8365   5
   5  -1  -2 759.518 21.0719   8
  -5   1   2 753.556 13.9110   1
  -5   1   2 793.572 31.3761   8
  -5   1   2 769.900 30.0351  10
  -5   1   2 777.728 19.4861   5
  -5   1   2 768.546 43.2907   3
  -5   1   2 745.573 43.1619   4
   4  -1  -2 2254.26 48.0220   8
   4  -1  -2 2249.86 40.3495   1
   4  -1  -2 2249.90 50.9005  10
   4  -1  -2 2193.81 30.8279   9
   4  -1  -2 2237.68 39.6746   5
  -4   1   2 2247.52 138.262   1
  -4   1   2 2351.59 49.4380   5
  -4   1   2 2300.83 52.4417   8
  -4   1   2 2205.40 76.9784   3
  -4   1   2 2342.13 55.7307  10
  -4   1   2 2369.89 44.4289   4
   3  -1  -2 926.894 25.7083   5
   3  -1  -2 946.984 28.6859  10
   3  -1  -2 970.640 26.0003   8
   3  -1  -2 939.976 32.9216   1
   3  -1  -2 942.241 21.7184   9
  -3   1   2 949.174 32.8114   8
  -3   1   2 915.788 41.2676   3
  -3   1   2 970.203 26.7053   5
  -3   1   2 936.060 37.8592  10
  -3   1   2 946.854 22.5445   1
   2  -1  -2 1412.96 57.2980   1
   2  -1  -2 1445.49 50.2455   5
   2  -1  -2 1450.00 25.8807   9
  -2   1   2 1427.34 37.4071   8
  -2   1   2 1455.10 28.8042   5
  -2   1   2 1433.28 51.8632   3
  -2   1   2 1430.39 41.0439  10
  -2   1   2 1498.41 62.0498   1
   1  -1  -2 4649.88 103.964   9
   1  -1  -2 4554.23 114.769   3
   1  -1  -2 4616.63 152.028   5
   1  -1  -2 4456.28 173.413   1
  -1   1   2 4583.07 148.928   5
  -1   1   2 4654.38 149.487   3
  -1   1   2 4559.51 113.066   9
  -1   1   2 4659.73 188.941   1
   0  -1  -2 34.3903 1.35501   1
   0  -1  -2 24.7540 1.14949   9
   0  -1  -2 29.1720 1.33239   5
   0  -1  -2 29.3761 1.28077   3
   0  -1  -2 25.8533 1.29755   2
   0   1   2 32.5338 1.25060   2
   0   1   2 27.1088 1.03165   9
   0   1   2 26.2217 1.34097   1
   0   1   2 28.1567 1.53105   5
   0   1   2 27.1151 1.15614   3
  -1  -1  -2 1448.88 38.8324   9
  -1  -1  -2 1446.96 50.8448   5
  -1  -1  -2 1399.46 40.8690   4
  -1  -1  -2 1439.52 41.7757   3
  -1  -1  -2 1421.11 42.0415   2
   1   1   2 1438.83 45.4304   4
   1   1   2 1444.24 50.0497   2
   1   1   2 1403.22 52.5218   5
   1   1   2 1418.63 35.5046   3
  -2  -1  -2 1577.57 69.6064   4
  -2  -1  -2 1555.39 61.1547   5
  -2  -1  -2 1530.78 35.3707   3
  -2  -1  -2 1553.61 43.0953   2
  -2  -1  -2 1549.46 48.0198   9
   2   1   2 1542.19 40.9831   5
   2   1   2 1529.16 38.4801   4
   2   1   2 1572.48 40.1981   2
   2   1   2 1555.89 53.7600   3
  -3  -1  -2 18.0665 1.46796   2
  -3  -1  -2 17.6811 1.56369   4
  -3  -1  -2 19.7255 1.64579   3
   3   1   2 23.3845 1.69152  10
   3   1   2 23.7118 1.89870   3
   3   1   2 18.8551 1.79580   4
   3   1   2 17.4505 1.51760   8
  -4  -1  -2 1136.10 31.4279   2
  -4  -1  -2 1158.29 34.3372   4
  -4  -1  -2 1143.99 29.2467   1
  -4  -1  -2 1165.30 29.2163   3
   4   1   2 1119.66 29.2456   8
   4   1   2 1134.43 30.6810   4
   4   1   2 1107.23 28.5397   3
   4   1   2 1117.22 28.8708   2
   4   1   2 1116.01 29.2892  10
  -5  -1  -2 1029.34 19.3942   1
  -5  -1  -2 1044.68 38.9227   4
  -5  -1  -2 1041.74 23.2857   3
  -5  -1  -2 1037.39 35.4675  10
  -5  -1  -2 1050.04 21.9965   2
  -5  -1  -2 1072.49 33.2317   8
   5   1   2 1029.56 20.7709   4
   5   1   2 1042.60 38.9205  10
   5   1   2 996.378 30.9022   3
   5   1   2 1037.47 34.0535   8
  -6  -1  -2 171.063 6.65182   3
  -6  -1  -2 185.583 5.78479   1
  -6  -1  -2 171.412 6.53712   2
   6   1   2 168.564 8.91856   4
   6   1   2 172.782 6.72404   8
   6   1   2 180.049 6.06413  10
   6   1   2 173.141 6.13227   3
  -7  -1  -2 1043.92 30.3744   3
  -7  -1  -2 1014.58 24.0184   1
   7   1   2 1022.00 30.6593   8
   7   1   2 1006.90 26.6983   4
   7   1   2 1012.91 30.9434  10
   7   1   2 987.539 53.5994   3
  -8  -1  -2 129.620 5.93119   1
  -8  -1  -2 136.182 5.53427   3
   8   1   2 131.714 6.20753   4
   8   1   2 127.050 10.1265   3
   8   1   2 122.918 6.44757   8
   8   1   2 106.994 6.05532  10
  -9  -1  -2 0.93287 4.37651   1
  -9  -1  -2 1.00775 2.39125   3
   9   1   2 3.74867 4.00417   8
   9   1   2 5.04454 3.02847   4
   9   1   2 1.00957 4.20982  10
 -10  -1  -2 132.247 7.36549   1
  10   1   2 134.338 7.06113   8
  10   1   2 136.355 6.99117   4
  10   1   2 142.771 7.87917  10
 -11  -1  -2 12.2169 6.59190   1
  11   1   2 9.22935 6.18510   8
  11   1   2 13.6997 6.98512  10
  11   1   2 11.4785 6.28203   4
  11  -2  -2 91.1623 7.97763  10
  11  -2  -2 102.013 9.36631   8
 -11   2   2 80.5822 6.37450   6
 -11   2   2 122.113 8.59603   1
  10  -2  -2 20.5281 5.64835   8
  10  -2  -2 14.9742 5.89533  10
 -10   2   2 19.3835 6.58219   1
 -10   2   2 14.1440 4.60520   6
   9  -2  -2 121.538 6.64836   5
   9  -2  -2 120.416 5.13167   9
   9  -2  -2 112.496 6.32047  10
   9  -2  -2 97.5248 5.69777   8
  -9   2   2 115.273 6.72652   1
  -9   2   2 95.4420 5.36241   6
   8  -2  -2 618.920 19.0050  10
   8  -2  -2 635.549 21.1093   9
   8  -2  -2 671.506 19.0333   8
   8  -2  -2 611.871 24.1109   5
  -8   2   2 645.755 23.1801   1
   7  -2  -2 180.856 6.61440   5
   7  -2  -2 177.025 8.69501  10
   7  -2  -2 183.389 6.28736   9
   7  -2  -2 172.316 6.48093   8
  -7   2   2 183.846 15.2504   1
  -7   2   2 184.396 15.3178   5
   6  -2  -2 791.085 22.7447  10
   6  -2  -2 792.123 18.7808   9
   6  -2  -2 801.998 19.9411   8
   6  -2  -2 811.084 16.0378   5
  -6   2   2 863.895 36.7430   5
  -6   2   2 836.470 23.0341   1
   5  -2  -2 974.951 19.9254   9
   5  -2  -2 981.371 34.8405  10
   5  -2  -2 998.820 30.3166   8
   5  -2  -2 972.563 18.0815   5
  -5   2   2 996.602 23.7637   1
  -5   2   2 1060.80 40.4976   5
   4  -2  -2 1180.93 33.9749   8
   4  -2  -2 1187.55 27.3947   5
   4  -2  -2 1222.97 41.4943   1
   4  -2  -2 1206.31 31.7816   9
   4  -2  -2 1212.21 38.9347  10
  -4   2   2 1295.13 24.8465   4
  -4   2   2 1279.32 65.0347   8
  -4   2   2 1292.93 49.0799   5
  -4   2   2 1256.68 67.9722  10
  -4   2   2 1203.07 25.0855   1
   3  -2  -2 2078.29 86.9341  10
   3  -2  -2 2121.91 83.4569   8
   3  -2  -2 1998.13 46.9028   5
   3  -2  -2 2025.72 48.0975   1
  -3   2   2 2129.52 63.8705   5
  -3   2   2 2074.94 75.9654   6
  -3   2   2 2113.07 105.831  10
  -3   2   2 2080.72 34.8499   1
  -3   2   2 2063.49 102.193   8
  -3   2   2 2189.24 76.9648   4
  -3   2   2 2095.60 82.3741   3
   2  -2  -2 1484.94 68.3395   1
   2  -2  -2 1535.51 51.1346   5
   2  -2  -2 1469.95 27.3933   3
  -2   2   2 1539.07 43.4121   8
  -2   2   2 1586.42 58.3438   3
  -2   2   2 1566.75 41.5476   1
  -2   2   2 1535.30 42.1667   5
  -2   2   2 1544.61 44.8030  10
  -2   2   2 1545.87 63.8578   6
   1  -2  -2 878.045 44.2449   1
   1  -2  -2 872.953 25.4867   5
   1  -2  -2 867.464 19.2976   3
   1  -2  -2 854.212 31.7695   6
  -1   2   2 918.763 53.4853   6
  -1   2   2 892.906 31.6519   3
  -1   2   2 901.574 37.6814   1
  -1   2   2 918.620 62.6069   7
  -1   2   2 890.899 36.0686   5
   0  -2  -2 6170.87 221.338   1
   0  -2  -2 6083.22 247.416   7
   0  -2  -2 6435.48 203.334   3
   0  -2  -2 6092.93 276.682   6
   0  -2  -2 6474.99 271.333   5
   0   2   2 6496.11 365.802   7
   0   2   2 6574.31 167.528   3
   0   2   2 6451.76 238.957   6
   0   2   2 6406.46 234.184   5
   0   2   2 6366.77 364.559   1
  -1  -2  -2 976.149 42.7770   1
  -1  -2  -2 953.891 26.7416   5
  -1  -2  -2 964.790 31.6751   4
  -1  -2  -2 935.415 48.9097   7
  -1  -2  -2 950.559 28.5196   3
  -1  -2  -2 951.032 42.1531   2
   1   2   2 986.522 34.5444   7
   1   2   2 920.820 30.8364   2
   1   2   2 982.287 24.8525   4
   1   2   2 923.668 28.7030   3
   1   2   2 913.748 33.5710   5
  -2  -2  -2 3380.07 108.697   3
  -2  -2  -2 3334.50 78.1244   4
  -2  -2  -2 3293.72 97.2763   5
  -2  -2  -2 3319.35 85.1240   2
  -2  -2  -2 3425.69 195.647   7
   2   2   2 3256.77 86.6822   2
   2   2   2 3293.29 102.207   4
   2   2   2 3231.40 83.8638   3
  -3  -2  -2 1239.78 21.8334   2
  -3  -2  -2 1246.63 48.0550   7
  -3  -2  -2 1229.11 33.7193   3
  -3  -2  -2 1231.80 33.3348   4
  -3  -2  -2 1214.05 33.3470   5
   3   2   2 1187.85 26.2216   8
   3   2   2 1174.51 23.1774   4
   3   2   2 1171.06 39.0755   2
   3   2   2 1192.14 33.6781   3
   3   2   2 1202.04 31.8905  10
  -4  -2  -2 2292.92 41.1064   5
  -4  -2  -2 2358.42 73.1688   7
  -4  -2  -2 2237.26 70.5123   9
  -4  -2  -2 2296.37 36.5112   4
  -4  -2  -2 1905.01 55.3944   5
  -4  -2  -2 2278.61 46.4585   2
  -4  -2  -2 2282.61 54.3836   3
   4   2   2 2199.89 36.5258   8
   4   2   2 2220.13 63.5107   4
   4   2   2 2181.94 41.4448  10
   4   2   2 2179.12 64.6446   3
  -5  -2  -2 500.942 14.7559   2
  -5  -2  -2 511.112 15.0806   8
  -5  -2  -2 500.884 14.1762   1
  -5  -2  -2 510.691 14.9891  10
  -5  -2  -2 513.992 17.3467   7
  -5  -2  -2 434.110 9.39038   5
  -5  -2  -2 426.101 11.2359   5
  -5  -2  -2 502.153 13.3197   3
  -5  -2  -2 485.467 17.6259   4
   5   2   2 485.132 14.2710   3
   5   2   2 491.984 9.43977  10
   5   2   2 476.768 11.6167   4
   5   2   2 483.711 9.40045   8
  -6  -2  -2 1615.53 28.1583   3
  -6  -2  -2 1571.10 79.7298   2
  -6  -2  -2 1561.48 28.1776   1
   6   2   2 1515.82 30.5446  10
   6   2   2 1518.70 27.0963   8
   6   2   2 1499.93 32.2286   4
   6   2   2 1513.74 93.0466   3
  -7  -2  -2 717.417 19.7379   3
  -7  -2  -2 695.676 17.1578   1
  -7  -2  -2 707.288 43.0910   2
   7   2   2 701.981 14.7091  10
   7   2   2 681.410 34.7540   3
   7   2   2 676.259 16.8098   8
   7   2   2 692.891 19.6064   4
  -8  -2  -2 0.08868 1.79840   3
  -8  -2  -2 11.5954 6.58303   1
   8   2   2 2.92884 6.55741  10
   8   2   2 1.44891 6.12648   8
   8   2   2 0.16580 5.71171   4
  -9  -2  -2 276.390 14.5748   3
  -9  -2  -2 264.192 12.5309   1
   9   2   2 243.647 15.2902   4
   9   2   2 259.290 11.2968   8
   9   2   2 257.442 13.2798  10
 -10  -2  -2 51.2441 6.59423   1
  10   2   2 46.7951 6.07053  10
  10   2   2 51.9615 5.82113   8
  10   2   2 49.6769 6.04041   4
 -11  -2  -2 8.68778 6.51567   1
  11   2   2 5.97301 3.92988   4
  11   2   2 9.31301 5.78536   8
  11   2   2 9.80477 5.91412  10
  12   2   2 57.9677 6.75971   4
  11  -3  -2 16.0919 5.61021  10
  11  -3  -2 17.7537 5.25550   8
 -11   3   2 15.6283 4.47403   6
 -11   3   2 18.7402 8.12086   1
  10  -3  -2 145.540 7.61517   8
  10  -3  -2 151.033 8.03956  10
 -10   3   2 162.730 11.1047   1
 -10   3   2 168.323 10.5962   6
   9  -3  -2 227.128 11.1286   8
   9  -3  -2 237.807 14.7134   5
   9  -3  -2 228.251 11.1433   9
   9  -3  -2 211.596 10.3166  10
  -9   3   2 245.533 14.7531   1
  -9   3   2 207.594 14.5793   6
   8  -3  -2 302.512 14.2008   8
   8  -3  -2 328.764 11.0897   5
   8  -3  -2 322.197 11.4355   9
   8  -3  -2 302.862 14.2546  10
  -8   3   2 306.800 11.8633   6
  -8   3   2 328.352 17.0398   1
   7  -3  -2 600.317 23.3092   8
   7  -3  -2 578.462 21.9999   5
   7  -3  -2 598.859 20.5917  10
   7  -3  -2 594.772 16.2452   9
  -7   3   2 611.342 16.2761   6
  -7   3   2 629.230 24.8216   1
  -7   3   2 609.179 46.6377   5
   6  -3  -2 933.339 32.5867   8
   6  -3  -2 908.764 20.5382   5
   6  -3  -2 954.347 16.6191   9
   6  -3  -2 940.368 35.0973  10
  -6   3   2 954.823 63.4875   5
  -6   3   2 917.886 49.1501   6
  -6   3   2 947.827 29.8908   1
   5  -3  -2 426.875 6.97979   5
   5  -3  -2 431.707 10.8905  10
   5  -3  -2 440.405 7.74225   8
  -5   3   2 429.506 16.5318   5
  -5   3   2 426.762 18.4438   6
  -5   3   2 424.170 11.8460   1
   4  -3  -2 2159.94 51.4770  10
   4  -3  -2 2196.35 71.0309   1
   4  -3  -2 2130.70 47.5042   5
   4  -3  -2 2141.41 45.3387   8
  -4   3   2 2336.97 57.3902   4
  -4   3   2 2355.01 113.946   2
  -4   3   2 2298.53 53.6836   8
  -4   3   2 2311.36 52.7935  10
  -4   3   2 2182.74 75.9872   1
  -4   3   2 2277.49 49.4923   5
  -4   3   2 2181.55 102.891   6
   3  -3  -2 1989.53 66.5337   8
   3  -3  -2 1865.62 45.4746   3
   3  -3  -2 1952.01 64.1488  10
   3  -3  -2 1929.26 50.4614   5
   3  -3  -2 2002.33 48.0076   1
  -3   3   2 2040.88 36.4988   5
  -3   3   2 2000.36 44.8467   1
  -3   3   2 2029.90 60.0403   8
  -3   3   2 2042.16 103.570   2
  -3   3   2 1928.75 37.8024   6
  -3   3   2 2032.11 63.1098  10
  -3   3   2 2024.96 51.7581   4
   2  -3  -2 1537.03 36.2132   3
   2  -3  -2 1521.65 39.5602   5
   2  -3  -2 1561.53 37.7256   6
   2  -3  -2 1552.54 47.1516   1
  -2   3   2 1601.36 44.6627   3
  -2   3   2 1579.62 37.1271   6
  -2   3   2 1569.34 42.7658   1
  -2   3   2 1548.08 37.3222  10
  -2   3   2 1554.04 36.4130   8
  -2   3   2 1607.11 34.4037   2
  -2   3   2 1579.36 37.4097   5
   1  -3  -2 2369.81 65.1913   5
   1  -3  -2 2322.61 76.5746   1
   1  -3  -2 2350.19 76.2297   6
   1  -3  -2 2362.85 64.4966   3
  -1   3   2 2433.55 56.0644   7
  -1   3   2 2407.57 66.1088   5
  -1   3   2 2441.87 66.3749   8
  -1   3   2 2418.21 73.6588  10
  -1   3   2 2403.01 101.893   2
  -1   3   2 2464.24 133.667   3
  -1   3   2 2453.51 93.9875   6
  -1   3   2 2422.65 132.031   1
   0  -3  -2 2608.94 65.6219   5
   0  -3  -2 2544.73 98.4138   7
   0  -3  -2 2637.53 81.5363   3
   0  -3  -2 2488.11 95.4529   1
   0  -3  -2 2509.10 110.919   6
   0   3   2 2644.57 76.9872   3
   0   3   2 2567.61 99.3261   2
   0   3   2 2646.61 130.123   7
   0   3   2 2651.40 78.3853   6
   0   3   2 2614.34 83.0423   1
  -1  -3  -2 1075.83 22.3792   5
  -1  -3  -2 1066.03 28.2452   7
  -1  -3  -2 1082.29 31.5765   6
  -1  -3  -2 1101.91 49.8233   1
  -1  -3  -2 1109.99 27.2227   3
   1   3   2 1082.74 24.5926   3
   1   3   2 1119.70 33.6634   6
   1   3   2 1101.11 31.1114   7
   1   3   2 1061.15 25.2714   2
   1   3   2 1085.66 25.8034   4
   1   3   2 1114.89 38.9024   1
  -2  -3  -2 1897.78 54.2235   3
  -2  -3  -2 1910.03 36.0264   4
  -2  -3  -2 1899.95 68.8473   6
  -2  -3  -2 1892.51 71.2651   7
   2   3   2 1886.91 62.3202   4
   2   3   2 1868.49 58.7662   3
   2   3   2 1913.84 78.7111   7
  -3  -3  -2 1403.86 52.9577   7
  -3  -3  -2 1379.82 28.0071   4
  -3  -3  -2 1349.21 31.9606   3
  -3  -3  -2 1373.42 47.9860   2
   3   3   2 1319.59 38.7674  10
   3   3   2 1358.82 55.3014   3
   3   3   2 1319.79 37.6524   8
   3   3   2 1330.78 40.3141   4
   3   3   2 1428.09 40.7845   7
  -4  -3  -2 2064.53 36.0465   7
  -4  -3  -2 2053.95 34.8736   3
  -4  -3  -2 2031.86 67.7549   2
  -4  -3  -2 2088.71 46.6042   4
   4   3   2 1944.55 35.9562  10
   4   3   2 2011.15 53.1429   4
   4   3   2 1970.73 35.9951   8
   4   3   2 2023.01 84.5994   3
  -5  -3  -2 1157.48 40.3245   4
  -5  -3  -2 1107.05 53.4065   7
  -5  -3  -2 1123.34 33.9833   2
  -5  -3  -2 1119.09 47.4417   9
  -5  -3  -2 1119.63 36.2902   3
   5   3   2 1093.24 18.2636   8
   5   3   2 1103.70 20.8376  10
   5   3   2 1081.51 32.5561   3
   5   3   2 1103.66 22.0418   4
  -6  -3  -2 442.356 18.2222   9
  -6  -3  -2 441.882 11.7868   1
  -6  -3  -2 447.263 10.6851   3
  -6  -3  -2 441.505 22.7660   5
  -6  -3  -2 445.174 15.7556   2
   6   3   2 434.378 13.3433   8
   6   3   2 432.457 22.2762   3
   6   3   2 457.115 8.66721   4
   6   3   2 461.730 11.8826  10
  -7  -3  -2 353.931 10.3151   1
  -7  -3  -2 369.851 27.2480   5
  -7  -3  -2 355.319 20.6525   2
  -7  -3  -2 388.777 16.3924   3
  -7  -3  -2 368.094 22.4398   9
   7   3   2 366.651 9.53108   8
   7   3   2 347.345 9.19372   4
   7   3   2 361.515 11.6848  10
  -8  -3  -2 73.3091 4.78797   1
  -8  -3  -2 64.5921 3.98697   3
   8   3   2 71.0818 4.56832  10
   8   3   2 72.8880 4.45339   4
   8   3   2 77.5912 4.44218   8
  -9  -3  -2 123.219 7.97441   3
  -9  -3  -2 137.553 7.99649   1
   9   3   2 119.791 7.75922   4
   9   3   2 129.011 6.49122  10
   9   3   2 127.849 5.90821   8
 -10  -3  -2 19.7567 4.19290   3
 -10  -3  -2 29.4801 6.16344   1
  10   3   2 21.9458 9.22147   8
  10   3   2 20.6889 10.2078  10
  10   3   2 22.5032 5.22698   4
 -11  -3  -2 110.585 9.49177   1
  11   3   2 134.974 9.27177   8
  11   3   2 125.876 9.50261  10
  11   3   2 133.692 8.32607   4
 -12  -3  -2 3.61953 5.60798   1
  12   3   2 5.35176 5.21329  10
  12   3   2 9.15402 5.13637   8
  12   3   2 18.6969 7.27053   4
  10  -4  -2 120.127 10.8899  10
  10  -4  -2 117.724 9.33186   8
 -10   4   2 133.193 11.1556   6
 -10   4   2 135.561 9.33328   1
   9  -4  -2 95.6349 6.89151   8
   9  -4  -2 77.5290 6.92696  10
   9  -4  -2 94.2918 11.3775   5
  -9   4   2 102.028 8.06764   1
  -9   4   2 83.1680 5.53803   6
   8  -4  -2 400.577 19.2951   8
   8  -4  -2 431.533 20.8615   5
   8  -4  -2 375.070 20.1400  10
   8  -4  -2 410.949 18.3339   9
  -8   4   2 399.121 22.2696   1
  -8   4   2 409.722 20.5931   6
   7  -4  -2 539.028 17.2909   8
   7  -4  -2 536.267 13.6442   9
   7  -4  -2 528.308 19.3463  10
   7  -4  -2 541.315 20.9891   5
  -7   4   2 552.565 21.4410   6
  -7   4   2 558.859 24.6476   1
   6  -4  -2 328.797 7.66613  10
   6  -4  -2 320.649 9.25855   5
   6  -4  -2 313.588 7.10555   8
  -6   4   2 325.086 11.1365   6
  -6   4   2 330.349 15.0268   1
   5  -4  -2 1058.59 24.8016   5
   5  -4  -2 1078.21 26.7891   8
   5  -4  -2 1087.26 29.2352  10
  -5   4   2 1070.47 58.7309   1
  -5   4   2 1083.00 34.6935   6
   4  -4  -2 983.515 26.3805  10
   4  -4  -2 974.583 24.6468   8
   4  -4  -2 947.491 19.6358   5
  -4   4   2 977.629 60.1234   4
  -4   4   2 974.993 52.4093   6
  -4   4   2 1002.90 38.1146   8
  -4   4   2 988.212 28.1353   1
  -4   4   2 1044.78 42.4083  10
   3  -4  -2 444.707 10.9431   5
   3  -4  -2 430.333 11.2748   1
   3  -4  -2 419.956 14.4972  10
   3  -4  -2 409.062 10.9395   6
   3  -4  -2 428.337 14.4903   8
   3  -4  -2 426.314 7.76322   3
  -3   4   2 431.205 18.3390   2
  -3   4   2 425.876 9.90971   1
  -3   4   2 467.496 10.3472   4
  -3   4   2 449.832 9.04177   8
  -3   4   2 448.845 11.1013  10
  -3   4   2 427.399 9.91525   6
   2  -4  -2 1804.85 49.9205   5
   2  -4  -2 1813.12 49.6955   1
   2  -4  -2 1873.73 29.6720   6
   2  -4  -2 1839.69 55.8011   3
  -2   4   2 1829.34 63.6310  10
  -2   4   2 1862.36 124.989   1
  -2   4   2 1895.83 53.6413   6
  -2   4   2 1851.39 65.8305   8
  -2   4   2 1904.08 79.4705   2
   1  -4  -2 1253.48 41.5473   1
   1  -4  -2 1282.33 36.9337   3
   1  -4  -2 1293.29 38.4524   6
   1  -4  -2 1373.08 36.3652   5
  -1   4   2 1339.41 22.7996   2
  -1   4   2 1294.66 50.2249   3
  -1   4   2 1337.97 35.8592   7
  -1   4   2 1343.76 27.5588   6
  -1   4   2 1315.31 40.5589   8
  -1   4   2 1277.70 26.2137   1
  -1   4   2 1326.53 38.9425  10
   0  -4  -2 2705.14 76.1475   5
   0  -4  -2 2669.33 100.720   7
   0  -4  -2 2638.40 72.7771   1
   0  -4  -2 2684.91 87.1771   3
   0  -4  -2 2729.12 108.255   6
   0   4   2 2670.80 72.8247   1
   0   4   2 2810.47 69.9161   7
   0   4   2 2635.44 82.3612   2
   0   4   2 2718.18 81.2146   6
   0   4   2 2613.83 42.4436   3
  -1  -4  -2 3068.84 99.3568   6
  -1  -4  -2 3061.70 66.3076   7
  -1  -4  -2 3119.81 89.7507   1
  -1  -4  -2 3005.85 74.4163   2
  -1  -4  -2 3058.96 89.7066   3
   1   4   2 3067.43 97.7699   1
   1   4   2 2921.55 98.8844   2
   1   4   2 3071.67 111.072   6
   1   4   2 3013.22 109.729   4
   1   4   2 3081.02 98.2200   7
   1   4   2 2990.62 90.0763   3
  -2  -4  -2 835.991 29.0955   7
  -2  -4  -2 863.972 21.7764   3
  -2  -4  -2 851.246 26.1892   6
  -2  -4  -2 854.096 15.9790   4
  -2  -4  -2 866.705 31.7753   1
   2   4   2 862.790 38.7046   6
   2   4   2 847.723 26.4573   7
   2   4   2 858.008 16.3555   4
   2   4   2 820.075 33.4919   2
   2   4   2 820.794 45.4213   3
  -3  -4  -2 980.641 23.4479   4
  -3  -4  -2 966.553 24.7023   3
  -3  -4  -2 950.221 26.5640   2
  -3  -4  -2 959.480 28.5363   6
  -3  -4  -2 959.783 28.0515   2
  -3  -4  -2 946.631 25.9993   7
   3   4   2 926.021 24.5890  10
   3   4   2 900.165 22.1582   4
   3   4   2 944.708 25.0462   3
   3   4   2 929.255 22.8867   8
   3   4   2 971.389 29.5766   7
  -4  -4  -2 2689.73 61.8336   4
  -4  -4  -2 2497.59 61.5583   2
  -4  -4  -2 2606.01 98.5322   2
  -4  -4  -2 2596.07 73.8899   7
  -4  -4  -2 2560.76 76.6207   6
  -4  -4  -2 2622.04 54.8652   3
   4   4   2 2473.08 30.9946  10
   4   4   2 2505.91 56.3248   4
   4   4   2 2549.77 92.5325   7
   4   4   2 2520.10 34.8080   8
   4   4   2 2531.89 70.5349   3
  -5  -4  -2 662.046 17.7767   3
  -5  -4  -2 652.967 15.4133   4
  -5  -4  -2 642.741 26.8987   9
  -5  -4  -2 643.478 25.1762   2
   5   4   2 631.195 15.1546   4
   5   4   2 629.206 31.8302   3
   5   4   2 626.772 29.0679  10
   5   4   2 645.631 27.5472   8
  -6  -4  -2 519.562 35.2994   2
  -6  -4  -2 510.123 23.0921   9
  -6  -4  -2 535.537 20.0216   3
   6   4   2 511.603 17.2573  10
   6   4   2 506.102 15.5441   8
   6   4   2 530.542 13.2489   4
  -7  -4  -2 772.258 51.4067   2
  -7  -4  -2 830.818 33.9890   3
  -7  -4  -2 808.875 36.7607   9
  -7  -4  -2 820.210 42.9708   5
  -7  -4  -2 817.971 19.8457   1
   7   4   2 832.726 23.4983   8
   7   4   2 808.132 20.4761  10
   7   4   2 771.665 23.4242   4
  -8  -4  -2 57.8171 5.33594   1
  -8  -4  -2 71.6411 5.13677   3
   8   4   2 83.8004 5.23662   8
   8   4   2 75.4585 5.61259  10
   8   4   2 78.1462 5.54318   4
  -9  -4  -2 189.318 36.7599   3
  -9  -4  -2 201.942 9.51072   1
   9   4   2 179.521 10.5461   4
   9   4   2 198.801 8.83290  10
   9   4   2 208.324 8.55127   8
 -10  -4  -2 210.144 15.4555   3
 -10  -4  -2 213.881 14.3594   1
  10   4   2 217.544 12.8089   4
  10   4   2 203.904 11.6060   8
  10   4   2 200.210 10.7067  10
 -11  -4  -2 50.9960 8.26083   1
  11   4   2 51.1501 6.79144   8
  11   4   2 54.0337 7.06478  10
  11   4   2 56.3170 6.66572   4
 -12  -4  -2 24.2231 6.38024   1
  12   4   2 23.2909 5.53306   8
  12   4   2 18.3350 5.33942   4
  12   4   2 19.9718 5.63922  10
  10  -5  -2 17.6647 4.97498   8
  10  -5  -2 10.1118 4.99979  10
 -10   5   2 17.9303 8.12447   1
 -10   5   2 15.1313 7.05096   6
   9  -5  -2 203.536 9.58466  10
   9  -5  -2 204.284 9.63657   8
  -9   5   2 204.335 11.4846   1
  -9   5   2 196.851 13.4598   6
   8  -5  -2 321.816 20.1703  10
   8  -5  -2 307.582 14.8791   9
   8  -5  -2 332.833 18.1916   5
   8  -5  -2 314.683 19.2696   8
  -8   5   2 292.677 24.8091   6
  -8   5   2 320.630 19.7269   1
   7  -5  -2 60.3049 4.53561  10
   7  -5  -2 54.3749 4.17616   8
   7  -5  -2 70.4683 4.70666   5
  -7   5   2 98.8029 12.2221   6
  -7   5   2 56.3045 6.02114   1
   6  -5  -2 760.517 27.1835  10
   6  -5  -2 745.278 26.9800   5
   6  -5  -2 757.934 26.7421   8
  -6   5   2 741.453 26.7898   6
  -6   5   2 779.939 28.5756   1
   5  -5  -2 478.241 15.2211   8
   5  -5  -2 488.327 16.2834  10
   5  -5  -2 489.778 14.7555   5
  -5   5   2 489.586 37.0668   1
  -5   5   2 494.725 18.4564   6
   4  -5  -2 436.127 10.8220  10
   4  -5  -2 445.494 10.0904   8
   4  -5  -2 432.608 11.2432   5
   4  -5  -2 432.413 18.1361   3
  -4   5   2 444.997 16.1915   1
  -4   5   2 450.582 17.4942   6
  -4   5   2 451.105 33.1892  10
  -4   5   2 467.046 22.2504   4
  -4   5   2 453.600 31.3366   8
   3  -5  -2 1891.20 58.0247   6
   3  -5  -2 1737.08 55.5702   3
   3  -5  -2 1767.44 36.0639   5
  -3   5   2 1909.04 101.620   8
  -3   5   2 1836.62 43.5273   1
  -3   5   2 1861.44 92.4434   4
  -3   5   2 1872.15 61.7706   6
  -3   5   2 1926.74 109.716  10
   2  -5  -2 1439.89 31.9556   5
   2  -5  -2 1451.46 53.7355   6
   2  -5  -2 1393.99 37.7227   3
   2  -5  -2 1408.02 50.4345   1
  -2   5   2 1436.18 53.4246   8
  -2   5   2 1435.05 25.4459   1
  -2   5   2 1446.52 55.1306   2
  -2   5   2 1469.91 51.1931   6
  -2   5   2 1455.73 62.4814   4
  -2   5   2 1442.33 57.9846  10
   1  -5  -2 1339.11 34.3571   1
   1  -5  -2 1341.40 31.6611   5
   1  -5  -2 1331.07 42.7719   3
   1  -5  -2 1387.70 25.2274   2
   1  -5  -2 1363.96 35.7455   6
  -1   5   2 1386.02 37.5144   8
  -1   5   2 1420.28 32.2555   6
  -1   5   2 1370.47 34.5030   1
  -1   5   2 1382.19 50.3638  10
  -1   5   2 1450.60 77.1618   7
  -1   5   2 1350.82 32.3614   2
   0  -5  -2 2916.73 119.234   3
   0  -5  -2 3055.79 85.1988   6
   0  -5  -2 2943.78 81.9304   5
   0  -5  -2 2954.22 124.254   1
   0  -5  -2 2932.88 55.1243   2
   0   5   2 2969.76 85.9807   2
   0   5   2 3011.06 69.1394   1
   0   5   2 3076.81 79.5609   7
   0   5   2 3001.69 116.169   3
   0   5   2 3070.75 89.0938   6
  -1  -5  -2 1011.56 38.7794   6
  -1  -5  -2 1049.73 29.1357   1
  -1  -5  -2 1043.31 21.8909   7
  -1  -5  -2 1038.90 26.1253   2
  -1  -5  -2 1047.86 23.0432   3
   1   5   2 1049.91 56.6979   1
   1   5   2 1069.32 32.8692   7
   1   5   2 991.463 25.9635   4
   1   5   2 977.669 32.6228   2
   1   5   2 989.657 36.2326   3
   1   5   2 1059.36 29.7248   6
  -2  -5  -2 1223.01 42.3674   2
  -2  -5  -2 1279.73 30.2465   4
  -2  -5  -2 1275.85 37.8909   3
  -2  -5  -2 1292.48 30.4479   1
  -2  -5  -2 1258.11 32.6683   7
  -2  -5  -2 1286.42 51.7898   6
   2   5   2 1286.60 49.2244   6
   2   5   2 1231.77 58.0650   3
   2   5   2 1198.92 21.5669   4
   2   5   2 1164.52 78.2532   2
   2   5   2 1280.57 52.3036   7
  -3  -5  -2 2598.88 94.3416   7
  -3  -5  -2 2539.63 86.3919   2
  -3  -5  -2 2719.39 85.6286   4
  -3  -5  -2 2643.61 48.9009   3
  -3  -5  -2 2620.64 78.5543   6
  -3  -5  -2 2679.15 97.4844   1
   3   5   2 2486.61 80.3602   8
   3   5   2 2518.50 83.8269  10
   3   5   2 2572.92 87.2227   3
   3   5   2 2467.76 55.4865   4
   3   5   2 2579.81 64.9546   7
  -4  -5  -2 1199.22 36.5812   6
  -4  -5  -2 1241.85 38.4454   4
  -4  -5  -2 1147.53 50.2241   7
  -4  -5  -2 1221.05 48.3279   2
  -4  -5  -2 1212.15 19.4146   3
   4   5   2 1180.81 25.7811  10
   4   5   2 1178.43 13.4655   4
   4   5   2 1165.42 54.3782   3
   4   5   2 1153.35 23.0759   8
   4   5   2 1202.07 38.2425   7
  -5  -5  -2 651.339 38.2107   2
  -5  -5  -2 646.304 27.2519   2
  -5  -5  -2 679.762 24.9897   4
  -5  -5  -2 650.344 32.9891   9
  -5  -5  -2 660.580 13.7681   3
   5   5   2 662.566 29.9342   7
   5   5   2 629.267 19.9792  10
   5   5   2 633.700 18.4085   8
   5   5   2 623.712 12.8536   4
  -6  -5  -2 864.543 66.3172   2
  -6  -5  -2 870.650 47.7365   9
  -6  -5  -2 864.500 19.8226   2
  -6  -5  -2 904.561 36.7279   3
   6   5   2 866.702 26.5429  10
   6   5   2 846.583 25.0941   4
   6   5   2 891.184 26.6141   8
  -7  -5  -2 106.668 9.10041   5
  -7  -5  -2 109.637 8.77273   9
  -7  -5  -2 119.390 5.13172   2
  -7  -5  -2 98.7993 7.68830   2
  -7  -5  -2 123.957 6.45971   3
   7   5   2 119.251 4.68968   4
   7   5   2 129.609 4.76782   8
   7   5   2 136.488 5.14154  10
  -8  -5  -2 119.346 7.70492   3
  -8  -5  -2 123.701 6.66153   1
   8   5   2 130.325 7.05112   8
   8   5   2 149.687 6.56411   4
   8   5   2 129.222 7.35159  10
  -9  -5  -2 257.262 14.3738   1
  -9  -5  -2 247.546 14.4610   3
   9   5   2 235.777 12.5650   4
   9   5   2 265.524 13.0867  10
   9   5   2 253.403 13.0140   8
 -10  -5  -2 40.0290 5.14477   1
 -10  -5  -2 36.0984 5.81293   3
  10   5   2 45.4005 5.57142   8
  10   5   2 45.6826 4.66775   4
  10   5   2 43.2307 5.76120  10
 -11  -5  -2 58.9214 8.42308   1
  11   5   2 52.2675 5.57750   8
  11   5   2 44.8323 6.52712   4
  11   5   2 60.0683 6.01437  10
   9  -6  -2 84.5625 6.71351  10
   9  -6  -2 77.5323 6.23050   8
  -9   6   2 75.1443 8.45424   6
  -9   6   2 106.970 11.1593   1
   8  -6  -2 67.1646 6.59123  10
   8  -6  -2 60.5769 6.06391   8
   8  -6  -2 86.7577 6.54263   5
  -8   6   2 66.6774 6.72284   1
  -8   6   2 58.7529 6.74159   6
   7  -6  -2 503.420 25.0559   5
   7  -6  -2 514.992 20.0109   8
   7  -6  -2 508.332 23.4326  10
  -7   6   2 498.254 25.5346   6
  -7   6   2 531.401 30.1967   1
   6  -6  -2 272.113 13.6651   8
   6  -6  -2 303.112 14.5592  10
   6  -6  -2 298.614 14.4880   5
  -6   6   2 308.658 13.6749   6
  -6   6   2 285.345 13.7235   1
   5  -6  -2 241.870 10.8989   3
   5  -6  -2 242.468 13.1905   3
   5  -6  -2 249.239 10.8078   5
   5  -6  -2 247.035 10.3640  10
   5  -6  -2 234.566 9.76387   8
  -5   6   2 221.333 13.7261   6
  -5   6   2 250.468 11.9441   1
   4  -6  -2 533.431 23.5821   3
   4  -6  -2 548.758 17.8845   5
  -4   6   2 529.256 30.1479   4
  -4   6   2 565.418 18.9671   1
  -4   6   2 550.898 37.3047   6
   3  -6  -2 922.872 25.2138   5
   3  -6  -2 951.803 30.5966   3
  -3   6   2 973.729 44.1633   8
  -3   6   2 1026.86 56.2704   4
  -3   6   2 962.346 60.7565   1
  -3   6   2 973.743 31.7036   6
  -3   6   2 969.688 44.6087  10
   2  -6  -2 670.035 20.3328   2
   2  -6  -2 691.029 15.0498   5
   2  -6  -2 704.295 19.7318   3
  -2   6   2 683.993 41.6860   6
  -2   6   2 668.713 42.9943   2
  -2   6   2 728.808 47.0378  10
  -2   6   2 737.213 44.6297   8
  -2   6   2 687.378 18.3374   7
  -2   6   2 698.142 20.4568   1
  -2   6   2 695.573 39.4271   4
   1  -6  -2 1964.28 84.4288   6
   1  -6  -2 1855.65 76.6148   1
   1  -6  -2 1898.95 49.2694   3
   1  -6  -2 1967.96 42.8967   5
   1  -6  -2 1907.86 46.2247   2
  -1   6   2 1942.52 75.2662   2
  -1   6   2 1963.22 125.911   6
  -1   6   2 1969.67 61.3083   1
  -1   6   2 1969.67 99.7225  10
  -1   6   2 1982.13 100.261   8
  -1   6   2 1978.18 96.0732   4
  -1   6   2 1979.14 41.1674   7
   0  -6  -2 1525.51 49.4900   6
   0  -6  -2 1492.36 68.1056   1
   0  -6  -2 1453.09 63.2825   3
   0  -6  -2 1508.61 38.9408   2
   0   6   2 1513.39 47.9327   7
   0   6   2 1481.26 28.0761   2
   0   6   2 1484.71 42.5940   1
   0   6   2 1508.69 64.2516   8
   0   6   2 1513.80 50.4207   6
   0   6   2 1528.48 65.3423  10
  -1  -6  -2 434.442 19.6222   7
  -1  -6  -2 417.259 16.9913   1
  -1  -6  -2 455.351 14.5385   6
  -1  -6  -2 432.660 9.30599   2
  -1  -6  -2 427.945 15.8939   3
   1   6   2 415.746 16.6045   2
   1   6   2 430.112 16.3492   7
   1   6   2 410.932 15.0755   4
   1   6   2 434.138 12.5104   3
   1   6   2 449.053 26.0647   1
   1   6   2 440.736 15.4157   6
  -2  -6  -2 1183.49 30.6129   2
  -2  -6  -2 1228.53 46.8855   7
  -2  -6  -2 1215.12 29.3136   3
  -2  -6  -2 1247.45 42.7478   1
  -2  -6  -2 1206.09 68.1880   6
   2   6   2 1194.28 43.8654   6
   2   6   2 1171.61 25.2662   8
   2   6   2 1157.53 24.0222  10
   2   6   2 1175.46 24.6471   2
   2   6   2 1142.54 15.6376   4
   2   6   2 1200.85 51.0615   3
   2   6   2 1184.78 60.3407   7
  -3  -6  -2 617.623 14.8400   3
  -3  -6  -2 630.771 37.7989   1
  -3  -6  -2 630.245 12.8199   4
  -3  -6  -2 589.134 20.9452   2
   3   6   2 605.492 33.1893   6
   3   6   2 596.926 25.2690   2
   3   6   2 590.521 29.3940   7
   3   6   2 596.856 11.2723   8
   3   6   2 591.915 18.9027   4
   3   6   2 602.476 12.4158  10
  -4  -6  -2 896.390 33.5006   3
  -4  -6  -2 880.341 37.1964   2
  -4  -6  -2 913.209 37.9762   4
   4   6   2 867.300 29.2614   7
   4   6   2 851.670 24.0818   8
   4   6   2 857.006 22.1278   4
   4   6   2 870.183 26.6061  10
  -5  -6  -2 574.706 15.7467   3
  -5  -6  -2 597.385 18.2840   4
  -5  -6  -2 585.242 24.0962   2
   5   6   2 558.959 16.7985   4
   5   6   2 580.673 23.5864   7
   5   6   2 572.035 11.4349   8
   5   6   2 578.326 12.5036  10
  -6  -6  -2 100.847 7.79834   2
  -6  -6  -2 116.224 4.64402   2
  -6  -6  -2 108.902 5.73251   3
  -6  -6  -2 106.387 5.04094   9
   6   6   2 130.482 4.87830  10
   6   6   2 127.926 7.82377   7
   6   6   2 117.934 4.45485   4
   6   6   2 128.211 4.62418   8
  -7  -6  -2 307.065 20.7228   2
  -7  -6  -2 333.134 14.0130   3
  -7  -6  -2 325.811 16.4771   9
   7   6   2 335.417 7.30510   8
   7   6   2 358.853 9.41206  10
   7   6   2 334.639 9.27424   4
  -8  -6  -2 273.185 23.8518   2
  -8  -6  -2 297.110 16.9699   3
   8   6   2 297.578 18.6836   4
   8   6   2 308.611 16.6137   8
   8   6   2 293.553 16.3883  10
  -9  -6  -2 50.7907 6.22000   3
  -9  -6  -2 62.7650 5.48277   1
   9   6   2 68.3714 5.47671   4
   9   6   2 69.6685 5.67886  10
   9   6   2 55.0037 5.08969   8
 -10  -6  -2 167.030 26.2281   1
 -10  -6  -2 126.838 10.6858   3
  10   6   2 148.350 8.33505   4
  10   6   2 145.389 8.43744  10
  10   6   2 147.539 7.83218   8
 -11  -6  -2 40.2321 7.37339   3
 -11  -6  -2 27.3681 5.70855   1
  11   6   2 38.0774 6.37541   8
  11   6   2 36.3162 6.30413   4
  11   6   2 33.1834 6.49688  10
   8  -7  -2 91.3557 7.40719  10
   8  -7  -2 99.3321 8.00504   8
   8  -7  -2 106.481 8.28594   5
  -8   7   2 98.6106 9.76324   6
  -8   7   2 112.319 12.0242   1
   7  -7  -2 137.916 7.49728   5
   7  -7  -2 87.7126 6.42927  10
   7  -7  -2 101.753 6.94289   8
  -7   7   2 113.503 7.71638   6
  -7   7   2 117.466 8.32377   1
   6  -7  -2 53.1928 10.9908   5
  -6   7   2 51.6275 5.34978   1
  -6   7   2 38.8566 4.58412   6
   5  -7  -2 431.524 15.2298   5
  -5   7   2 429.030 20.9836   6
  -5   7   2 455.954 21.8405   1
   4  -7  -2 100.410 7.70040   5
   4  -7  -2 99.6559 5.94648   3
  -4   7   2 88.6728 5.03687   6
  -4   7   2 103.297 5.90515   1
   3  -7  -2 907.419 32.3179   5
   3  -7  -2 891.475 35.6896   3
  -3   7   2 920.576 33.6465   7
  -3   7   2 947.529 55.5393  10
  -3   7   2 913.308 55.7008   6
  -3   7   2 930.416 38.1279   1
  -3   7   2 938.742 40.3649   4
  -3   7   2 913.723 54.0375   8
   2  -7  -2 1029.24 27.4581   3
   2  -7  -2 1079.56 24.2307   5
   2  -7  -2 1032.30 50.8285   2
  -2   7   2 1060.72 32.9785   1
  -2   7   2 1017.34 67.5159   7
  -2   7   2 1099.03 65.5333  10
  -2   7   2 1045.81 36.0742   6
  -2   7   2 1061.99 52.9927   4
  -2   7   2 1076.53 65.4058   8
   1  -7  -2 360.290 12.9007   3
   1  -7  -2 356.173 8.28779   5
   1  -7  -2 328.647 9.86423   2
  -1   7   2 328.623 23.7425   2
  -1   7   2 363.308 14.5279   6
  -1   7   2 347.557 14.3646   7
  -1   7   2 343.988 21.9921  10
  -1   7   2 337.910 23.4514   4
  -1   7   2 343.519 20.4913   8
  -1   7   2 350.526 15.9295   1
   0  -7  -2 656.972 21.8966   3
   0  -7  -2 633.649 19.2121   2
   0   7   2 671.669 37.5759  10
   0   7   2 647.685 25.4241   1
   0   7   2 668.840 34.0741   8
   0   7   2 677.069 44.9796   4
   0   7   2 642.708 23.5736   2
   0   7   2 643.225 30.8606   4
   0   7   2 626.324 22.4702   7
   0   7   2 685.280 27.5226   6
  -1  -7  -2 956.460 21.9975   3
  -1  -7  -2 917.829 19.8344   2
   1   7   2 942.707 30.5040   1
   1   7   2 948.731 60.2416   8
   1   7   2 946.202 61.4498  10
   1   7   2 892.129 28.8911   4
   1   7   2 895.624 36.2881   2
   1   7   2 944.030 39.7257   6
   1   7   2 931.691 44.4040   7
  -2  -7  -2 333.957 12.2329   3
  -2  -7  -2 333.483 9.47000   2
   2   7   2 326.474 18.8787   7
   2   7   2 336.629 16.7742   2
   2   7   2 325.417 13.9710   8
   2   7   2 327.437 14.7642   4
   2   7   2 332.213 15.7493   6
   2   7   2 314.188 14.1038  10
  -3  -7  -2 736.663 26.2834   2
  -3  -7  -2 741.964 20.5171   3
   3   7   2 738.507 48.7362   2
   3   7   2 743.584 26.3724   8
   3   7   2 726.260 27.7857  10
   3   7   2 718.074 47.5319   7
   3   7   2 750.880 28.9548   4
   3   7   2 707.028 46.3452   6
  -4  -7  -2 1080.65 37.8568   2
  -4  -7  -2 1086.79 51.6483   3
  -4  -7  -2 1131.53 47.6329   4
   4   7   2 1118.65 86.1091   7
   4   7   2 1084.59 41.7579   8
   4   7   2 1073.80 40.2414   4
   4   7   2 1085.38 41.1425  10
  -5  -7  -2 138.513 7.83389   2
  -5  -7  -2 146.500 6.52537   4
  -5  -7  -2 150.457 6.71757   3
   5   7   2 146.567 5.68884   4
   5   7   2 150.852 6.23950   8
   5   7   2 140.856 9.16337   7
   5   7   2 148.413 5.93055  10
  -6  -7  -2 411.234 29.4013   4
  -6  -7  -2 410.773 27.4712   2
  -6  -7  -2 417.824 16.3808   3
   6   7   2 407.291 9.92761   8
   6   7   2 412.054 28.6055   7
   6   7   2 433.929 12.0241  10
   6   7   2 414.195 13.1336   4
  -7  -7  -2 362.367 19.1531   3
   7   7   2 367.981 15.1740   4
   7   7   2 341.588 23.6404   7
   7   7   2 355.943 17.9988   8
   7   7   2 349.752 18.3218  10
  -8  -7  -2 96.3648 8.68951   3
  -9  -7  -2 114.968 12.6238   3
   9   7   2 144.762 9.66847  10
   9   7   2 125.119 11.8465   4
   9   7   2 138.307 9.88859   8
 -10  -7  -2 78.0176 6.56968   1
 -10  -7  -2 83.4623 10.7199   3
  10   7   2 87.3210 6.47985  10
  10   7   2 72.5617 7.38973   8
  10   7   2 81.5360 6.64976   4
 -11  -7  -2 15.7225 7.69104   1
 -11  -7  -2 9.67880 7.79449   3
  11   7   2 17.9370 6.22142  10
  11   7   2 16.4367 4.76790   4
  11   7   2 16.5926 5.83266   8
  -8   8   2 66.6211 7.09780   6
  -8   8   2 72.8325 7.72811   1
   7  -8  -2 32.9771 5.63907   5
  -7   8   2 33.2751 5.55679   6
  -7   8   2 36.6371 7.97483   1
   6  -8  -2 133.393 8.18470   5
  -6   8   2 127.499 8.68580   6
  -6   8   2 147.440 10.6998   1
   5  -8  -2 152.323 8.80048   5
  -5   8   2 157.662 10.5326   1
  -5   8   2 130.767 8.46666   6
   4  -8  -2 134.145 10.6092   3
   4  -8  -2 135.568 7.57053   5
  -4   8   2 119.656 7.93621   6
  -4   8   2 136.653 7.33266   7
  -4   8   2 142.686 9.56369   1
   3  -8  -2 1181.58 76.7282   3
   3  -8  -2 1239.25 41.0915   5
  -3   8   2 1235.26 53.3898   7
  -3   8   2 1143.27 87.8592  10
  -3   8   2 1210.96 86.0051   1
  -3   8   2 1155.20 87.8780   4
  -3   8   2 1199.23 83.6170   6
  -3   8   2 1131.02 82.2832   8
   2  -8  -2 162.826 7.25631   5
   2  -8  -2 174.184 8.04229   3
   2  -8  -2 144.509 5.90835   2
  -2   8   2 145.445 9.19093   7
  -2   8   2 167.923 10.0998   1
  -2   8   2 161.679 10.6148   8
  -2   8   2 158.970 11.7064  10
  -2   8   2 157.816 8.34321   6
  -2   8   2 164.890 10.8671   4
   1  -8  -2 484.849 14.7120   5
   1  -8  -2 498.851 19.7698   2
   1  -8  -2 500.249 14.8245   3
  -1   8   2 505.094 28.3840   4
  -1   8   2 493.310 30.9872   1
  -1   8   2 488.412 25.4472   8
  -1   8   2 486.896 26.8146   6
  -1   8   2 500.029 28.1735  10
  -1   8   2 517.304 26.3548   7
   0  -8  -2 782.400 39.6957   2
   0  -8  -2 798.519 32.5262   3
   0   8   2 731.490 35.0333   2
   0   8   2 795.461 36.1302   1
   0   8   2 801.258 37.1490   7
   0   8   2 787.969 33.9439   8
   0   8   2 782.625 36.9109  10
   0   8   2 753.076 36.0755   4
   0   8   2 777.071 42.9781   4
   0   8   2 792.984 40.5373   6
  -1  -8  -2 42.5488 3.57055   3
  -1  -8  -2 33.2598 2.64166   2
   1   8   2 47.2982 4.39786   1
   1   8   2 39.0045 3.40816   2
   1   8   2 35.2332 4.62558   7
   1   8   2 33.0707 4.78954   6
  -2  -8  -2 949.280 31.1440   3
  -2  -8  -2 962.100 32.4479   2
   2   8   2 906.270 39.7346   4
   2   8   2 973.318 56.9886   8
   2   8   2 931.759 43.3396   2
   2   8   2 979.341 65.1994  10
   2   8   2 923.651 33.8969   8
   2   8   2 964.903 51.3919   6
   2   8   2 944.255 49.7969   7
   2   8   2 920.870 33.9928  10
  -3  -8  -2 438.478 19.1944   2
  -3  -8  -2 454.868 23.0182   3
   3   8   2 435.671 33.2448   2
   3   8   2 452.108 23.8023   7
   3   8   2 453.298 19.5286   8
   3   8   2 448.275 21.3309  10
   3   8   2 448.061 19.5475   4
   3   8   2 445.852 23.8666   6
  -4  -8  -2 162.207 7.35161   3
  -4  -8  -2 158.423 6.68278   2
   4   8   2 156.699 10.6078   7
   4   8   2 179.656 5.25844  10
   4   8   2 177.099 4.76699   8
   4   8   2 158.458 10.7925   2
   4   8   2 177.339 6.58365   4
   4   8   2 156.581 11.0182   6
  -5  -8  -2 280.174 15.8989   3
  -5  -8  -2 272.632 13.6254   2
   5   8   2 279.599 13.5360  10
   5   8   2 274.461 13.4997   8
   5   8   2 299.518 12.1966   4
   5   8   2 270.625 19.3102   7
  -6  -8  -2 316.811 19.4384   3
   6   8   2 328.906 15.2771   4
   6   8   2 321.540 21.1567   8
   6   8   2 337.386 21.4380   7
   6   8   2 327.778 21.4072  10
  -7  -8  -2 45.4152 5.05651   3
   7   8   2 50.4057 3.76945   4
   7   8   2 45.6346 3.29249  10
   7   8   2 46.4238 3.17701   8
   7   8   2 50.2785 5.23105   7
  -8  -8  -2 189.837 11.9265   3
   8   8   2 198.500 9.34056   8
   8   8   2 216.255 9.97441  10
   8   8   2 192.768 15.8897   7
   8   8   2 218.662 11.1809   4
  -9  -8  -2 33.4432 6.82446   3
   9   8   2 43.3755 5.08849   8
   9   8   2 38.6815 5.23023  10
   9   8   2 37.4152 4.00399   4
 -10  -8  -2 3.07344 4.62397   1
 -10  -8  -2 5.47583 6.79391   3
  10   8   2 4.38911 4.68057   8
  10   8   2 6.13205 4.99293  10
  10   8   2 3.42790 3.60358   4
   7  -9  -2 27.9572 6.28426   5
  -7   9   2 27.5425 6.70056   1
  -7   9   2 13.6803 6.57142   6
   6  -9  -2 96.0891 6.63652   5
  -6   9   2 82.1861 7.18173   6
  -6   9   2 82.7949 7.09166   7
  -6   9   2 90.6959 9.25097   1
   5  -9  -2 57.6101 6.41324   5
  -5   9   2 51.0299 7.13988   7
  -5   9   2 68.3992 6.54598   1
  -5   9   2 54.0491 6.03139   6
   4  -9  -2 191.641 11.2781   5
  -4   9   2 171.789 8.62214   7
  -4   9   2 184.546 11.8769   1
  -4   9   2 168.093 10.5364   6
   3  -9  -2 314.311 15.5144   5
   3  -9  -2 316.678 23.4752   3
  -3   9   2 290.255 14.8332   7
  -3   9   2 307.274 14.8866   6
  -3   9   2 295.723 20.2621   1
   2  -9  -2 73.4674 5.17893   3
   2  -9  -2 78.3428 6.10420   5
   2  -9  -2 72.9356 20.0520   2
  -2   9   2 69.2250 7.28643   6
  -2   9   2 69.3073 6.56626   7
  -2   9   2 77.8643 6.43183   1
   1  -9  -2 229.496 12.7825   2
   1  -9  -2 236.806 8.65711   5
   1  -9  -2 227.930 11.4371   3
  -1   9   2 231.729 16.2361   6
  -1   9   2 227.324 12.4001   7
  -1   9   2 235.033 11.6143   1
  -1   9   2 212.948 15.9237   4
   0  -9  -2 159.015 7.12682   5
   0  -9  -2 148.927 6.51572   3
   0  -9  -2 143.430 8.57123   2
   0   9   2 139.717 7.95858   6
   0   9   2 144.779 9.79087   7
   0   9   2 145.780 11.4142   1
  -1  -9  -2 227.396 10.4385   3
  -1  -9  -2 209.276 15.8615   2
   1   9   2 218.738 13.5787   7
   1   9   2 208.132 11.4534   6
   1   9   2 221.575 17.6082   1
  -2  -9  -2 188.241 8.66470   2
  -2  -9  -2 197.992 9.27843   3
   2   9   2 161.805 9.31928   7
   2   9   2 188.148 11.9514   6
   2   9   2 177.354 15.4237   2
  -3  -9  -2 83.5270 5.19854   3
  -3  -9  -2 84.6467 8.07477   2
   3   9   2 74.6575 6.75487   6
   3   9   2 81.2906 6.92848   7
   3   9   2 77.5907 7.38164   2
  -4  -9  -2 355.821 20.0818   3
  -4  -9  -2 364.921 24.3782   2
   4   9   2 347.682 28.0350  10
   4   9   2 350.741 27.8039   8
   4   9   2 367.862 21.6337   7
   4   9   2 353.794 24.7871   6
  -5  -9  -2 204.131 12.5751   3
   5   9   2 195.839 11.9917  10
   5   9   2 199.643 13.5931   7
   5   9   2 204.989 14.4589   4
   5   9   2 192.340 10.2730   8
  -6  -9  -2 36.8430 4.67452   3
   6   9   2 37.5314 3.40762   8
   6   9   2 39.4222 3.18049  10
   6   9   2 41.6136 3.39265   4
   6   9   2 26.5379 6.12014   7
  -7  -9  -2 185.671 16.2883   3
   7   9   2 218.120 10.4773   8
   7   9   2 212.451 11.8251   4
   7   9   2 189.166 15.2616   7
   7   9   2 212.188 10.9911  10
  -8  -9  -2 13.9434 4.74977   3
   8   9   2 19.5002 5.50466   7
   8   9   2 15.9543 3.61986   8
   8   9   2 7.58020 2.86567   4
   8   9   2 13.5414 3.71311  10
  -9  -9  -2 13.3399 7.06614   3
 -10  -9  -2 59.3599 6.97481   1
 -10  -9  -2 45.4896 8.74257   3
   5 -10  -2 30.5403 7.28254   5
  -5  10   2 43.7936 8.37271   1
  -5  10   2 44.4321 22.5113   7
  -5  10   2 51.6517 23.0847   6
   4 -10  -2 73.9470 6.23785   5
  -4  10   2 54.6226 6.47684   1
  -4  10   2 58.5614 8.26495   6
  -4  10   2 62.9146 6.60985   7
   3 -10  -2 195.959 17.0703   3
   3 -10  -2 243.341 11.9345   5
  -3  10   2 219.636 21.7876   1
  -3  10   2 202.295 13.8774   6
  -3  10   2 230.961 11.0836   7
   2 -10  -2 37.1095 4.78325   5
   2 -10  -2 49.7587 4.96146   3
   2 -10  -2 30.7253 4.13311   2
  -2  10   2 34.8571 5.32846   7
  -2  10   2 35.9267 6.23507   1
  -2  10   2 42.2478 5.48624   6
   1 -10  -2 97.6576 38.6229   2
   1 -10  -2 62.2371 4.69866   3
   1 -10  -2 78.7202 5.83826   5
  -1  10   2 53.6721 6.95115   7
  -1  10   2 74.1958 5.63824   1
  -1  10   2 59.5829 5.89358   6
   0 -10  -2 52.3104 4.43124   2
   0 -10  -2 54.2728 5.97907   5
   0 -10  -2 63.5965 5.60872   3
   0  10   2 49.5415 5.45869   7
   0  10   2 51.7982 5.71945   6
   0  10   2 48.8119 4.89307   1
  -1 -10  -2 201.833 16.2384   2
  -1 -10  -2 210.063 15.9071   3
   1  10   2 196.352 12.1965   6
   1  10   2 207.209 16.0186   1
   1  10   2 211.390 10.7456   7
  -2 -10  -2 86.9207 6.34490   2
  -2 -10  -2 84.5035 5.92388   3
   2  10   2 86.9120 9.05293   6
   2  10   2 96.5339 7.75739   7
  -3 -10  -2 202.777 16.1030   3
   3  10   2 223.613 17.6096   6
   3  10   2 222.638 16.9358   7
  -4 -10  -2 90.0122 6.70694   3
   4  10   2 70.2049 7.15150   6
   4  10   2 76.4627 7.77775   7
  -5 -10  -2 116.362 10.3605   3
   5  10   2 99.9609 10.7840   7
  -6 -10  -2 62.1783 6.73033   3
   6  10   2 72.9482 8.01539   7
  -7 -10  -2 24.7457 6.81849   3
   7  10   2 29.9986 7.41760   7
  -8 -10  -2 29.2345 7.69510   3
   8  10   2 34.1682 6.33748   7
  -9 -10  -2 16.4299 5.97030   3
   9  10   2 30.2953 9.01729   7
   4 -11  -2 72.8115 8.22694   5
  -4  11   2 71.1210 7.95342   7
  -4  11   2 73.5076 9.83561   1
  -4  11   2 94.2517 10.3642   6
   3 -11  -2 26.5043 5.16467   5
  -3  11   2 23.4454 6.30920   7
  -3  11   2 27.3597 6.30120   6
  -3  11   2 35.4943 6.17565   1
   2 -11  -2 5.92702 6.07202   5
   2 -11  -2 13.9683 7.85953   3
  -2  11   2 15.9979 8.10744   6
  -2  11   2 9.66183 6.93766   1
  -2  11   2 8.91813 5.37851   7
   1 -11  -2 50.2819 5.62658   2
   1 -11  -2 58.7594 6.18538   3
   1 -11  -2 49.5503 6.96199   5
  -1  11   2 38.7253 6.34352   7
  -1  11   2 61.0728 6.57751   1
  -1  11   2 53.1818 8.59550   6
   0 -11  -2 61.2739 5.97705   5
   0 -11  -2 76.3510 6.84597   3
   0 -11  -2 52.2951 5.07242   2
   0  11   2 48.8656 8.52768   6
   0  11   2 57.8346 7.13608   1
   0  11   2 40.9264 6.05848   7
  -1 -11  -2 34.3065 6.13409   3
   1  11   2 37.9178 5.99849   7
   1  11   2 23.8784 5.71726   6
  -2 -11  -2 80.8415 7.27546   3
   2  11   2 58.4388 8.15791   7
   2  11   2 61.8383 8.28625   6
  -3 -11  -2 63.9620 6.32028   3
   3  11   2 47.0982 6.55587   6
   3  11   2 45.0334 6.07143   7
  -4 -11  -2 24.1755 6.66213   3
   4  11   2 18.9714 7.69993   6
   4  11   2 27.0137 5.61012   7
  -5 -11  -2 79.8589 7.73775   3
   5  11   2 81.5745 8.01466   6
   5  11   2 87.1442 9.14026   7
  -6 -11  -2 -3.9478 4.52849   3
   6  11   2 -1.1334 5.11654   7
  -7 -11  -2 15.4141 9.63112   3
   7  11   2 15.4371 8.33006   7
  -8 -11  -2 14.3917 15.0112   3
   8  11   2 10.7532 6.46153   7
   2 -12  -2 9.97450 5.48195   5
  -2  12   2 6.46348 6.60763   7
  -2  12   2 4.21501 6.63167   6
  -2  12   2 13.8815 7.98719   1
   1 -12  -2 3.86952 7.21948   5
   1 -12  -2 -2.9411 5.80443   3
  -1  12   2 1.77897 6.33407   7
  -1  12   2 -1.2316 6.72063   6
  -1  12   2 3.89328 8.06500   1
   0 -12  -2 21.9734 5.59922   5
   0 -12  -2 23.4997 6.87794   3
   0  12   2 38.2277 6.32419   1
   0  12   2 17.1511 9.06541   6
   0  12   2 21.7747 6.32139   7
  -1 -12  -2 23.6453 7.25226   5
  -1 -12  -2 32.8164 5.59462   3
   1  12   2 25.4446 6.76180   6
   1  12   2 33.4112 6.61831   7
  -2 -12  -2 7.19560 4.74512   3
   2  12   2 14.4371 6.22721   7
   2  12   2 15.8114 6.41091   6
  -3 -12  -2 15.0777 6.95623   3
   3  12   2 17.0600 8.40972   7
   3  12   2 20.9842 6.68060   6
  -4 -12  -2 32.7297 6.15816   3
   4  12   2 37.5828 9.42570   6
   4  12   2 45.0729 6.96748   7
  -5 -12  -2 42.4998 8.39141   3
   5  12   2 20.1082 6.83598   7
   5  12   2 15.6333 7.19605   6
  -6 -12  -2 -1.9134 7.50870   3
   6  12   2 6.48553 6.22129   7
   5  10  -3 23.1343 8.52939   7
   5  10  -3 2.10038 8.60275   6
  -5 -10   3 -2.8402 7.88387   3
   4  10  -3 0.46932 5.68288   7
   4  10  -3 2.20503 5.86691   6
  -4 -10   3 -3.9012 4.36961   2
  -4 -10   3 -0.5833 7.70688   3
   3  10  -3 24.5859 6.66903   6
   3  10  -3 27.0775 6.56843   7
  -3 -10   3 21.9266 7.81541   3
  -3 -10   3 16.7421 6.70875   2
   2  10  -3 5.92061 5.59152   7
   2  10  -3 4.63460 8.50436   6
  -2 -10   3 1.61843 4.75072   2
  -2 -10   3 0.14589 7.20480   3
   1  10  -3 9.33678 8.51192   7
   1  10  -3 7.62057 6.26355   6
  -1 -10   3 1.51632 4.91336   2
  -1 -10   3 1.38328 5.09547   3
   0  10  -3 31.6178 9.16526   7
   0  10  -3 26.6261 7.08649   6
   0 -10   3 31.8549 5.67406   2
   0 -10   3 29.0781 8.08795   3
  -1  10  -3 0.83877 6.33030   6
  -1  10  -3 -10.604 9.13933   7
   1 -10   3 4.06876 5.05094   2
   1 -10   3 11.1348 7.78805   3
   7   9  -3 50.3143 8.48767   7
  -7  -9   3 28.3796 6.67598   3
   6   9  -3 3.51620 5.23491   6
   6   9  -3 -0.1489 7.44037   7
  -6  -9   3 10.2916 7.18966   3
   5   9  -3 2.19513 6.88183   7
   5   9  -3 0.20865 4.78482   6
  -5  -9   3 1.91953 5.14683   2
  -5  -9   3 9.22151 5.38234   3
   4   9  -3 18.3448 5.44015   6
   4   9  -3 25.7198 7.34051   7
  -4  -9   3 13.9114 4.10333   2
  -4  -9   3 8.70043 4.88056   3
   3   9  -3 3.41496 7.01916   6
   3   9  -3 7.34046 6.81470   7
  -3  -9   3 0.18463 5.09735   2
  -3  -9   3 1.57660 4.40033   3
   2   9  -3 24.8052 5.88464   6
   2   9  -3 34.7198 5.92626   7
  -2  -9   3 28.8475 5.48269   3
  -2  -9   3 30.3349 6.07184   2
   1   9  -3 30.2659 5.78539   7
   1   9  -3 38.2855 6.14778   6
  -1  -9   3 27.9203 5.23898   3
  -1  -9   3 20.2060 6.02773   2
   0   9  -3 0.86195 5.03148   6
   0   9  -3 -2.0092 4.86356   7
   0  -9   3 -2.0643 3.91394   2
   0  -9   3 -3.6459 5.81718   3
  -1   9  -3 30.1572 6.60270   7
  -1   9  -3 20.6643 7.63354   6
   1  -9   3 29.8122 5.12730   2
   1  -9   3 30.5530 6.64325   3
  -2   9  -3 17.8097 6.05532   6
  -2   9  -3 7.21739 5.48317   7
   2  -9   3 28.9843 6.73350   3
   2  -9   3 9.07968 6.35281   2
  -3   9  -3 7.38090 6.29804   6
  -3   9  -3 -1.3378 8.11216   7
   3  -9   3 -0.4177 6.20658   3
   3  -9   3 4.76162 7.01169   2
   9   8  -3 17.1100 8.05912   7
  -9  -8   3 14.7556 8.91018   3
   8   8  -3 22.6121 7.36547   7
  -8  -8   3 19.9512 8.00739   3
   7   8  -3 6.78716 4.72648   7
  -7  -8   3 -0.2537 6.57332   3
  -7  -8   3 6.68327 3.85085   2
   6   8  -3 18.9268 4.92253   7
   6   8  -3 20.8921 5.23877   6
  -6  -8   3 15.1126 3.87218   2
  -6  -8   3 15.0879 16.4018   3
   5   8  -3 41.5636 6.73955   6
   5   8  -3 45.1419 6.62262   7
  -5  -8   3 44.6879 5.60523   3
  -5  -8   3 40.7104 5.54872   2
   4   8  -3 8.49665 4.27683   7
   4   8  -3 8.06403 4.24744   6
  -4  -8   3 13.4812 10.6949   3
  -4  -8   3 -0.5768 4.45969   2
   3   8  -3 102.136 6.75629   6
   3   8  -3 80.5134 6.58226   7
  -3  -8   3 84.4142 8.21728   3
  -3  -8   3 79.1271 7.22194   2
   2   8  -3 59.6176 6.11459   7
   2   8  -3 58.9934 5.87688   6
  -2  -8   3 52.0467 4.83829   2
  -2  -8   3 55.4758 6.07737   3
   1   8  -3 7.40145 4.28035   6
   1   8  -3 10.8045 4.11332   7
  -1  -8   3 3.58289 4.54686   2
  -1  -8   3 -0.7152 4.91331   3
   0   8  -3 47.6513 6.95656   6
   0   8  -3 54.9249 7.02025   7
   0  -8   3 49.1415 5.05857   2
  -1   8  -3 95.5952 8.21606   6
  -1   8  -3 98.4781 6.80797   7
  -1   8  -3 91.3239 10.8404   1
   1  -8   3 93.0287 7.27032   2
  -2   8  -3 22.5516 5.21892   7
  -2   8  -3 24.4632 5.36099   6
   2  -8   3 23.4383 4.57727   2
  -3   8  -3 63.1122 8.02443   7
  -3   8  -3 52.8849 7.95709   6
   3  -8   3 63.8019 6.11036   2
  -4   8  -3 19.2794 5.95836   6
  -4   8  -3 11.5978 5.71916   7
   4  -8   3 11.3437 6.40468   2
  -5   8  -3 10.9586 6.12292   6
   5  -8   3 22.5328 4.68283   5
   5  -8   3 22.4697 7.40114   2
   9   7  -3 19.2552 5.23631   7
  -9  -7   3 10.8227 5.37090   3
  -9  -7   3 3.58230 5.45858   1
   8   7  -3 10.0775 6.18266   7
  -8  -7   3 6.09128 4.52394   3
  -8  -7   3 13.9874 5.30793   2
  -8  -7   3 12.9341 4.73616   1
   7   7  -3 58.1210 6.35867   7
  -7  -7   3 48.1241 4.17070   1
  -7  -7   3 57.5719 6.91739   3
  -7  -7   3 47.4103 5.65109   2
   6   7  -3 73.9432 7.68520   7
   6   7  -3 56.9042 6.45993   6
  -6  -7   3 59.3033 5.67635   3
  -6  -7   3 67.9821 6.88953   2
  -6  -7   3 59.4878 4.62379   1
   5   7  -3 33.6192 4.27576   7
   5   7  -3 38.3550 4.75134   6
  -5  -7   3 28.5757 4.59293   3
  -5  -7   3 25.2728 4.71671   2
   4   7  -3 151.164 12.9114   7
   4   7  -3 151.872 12.6538   6
  -4  -7   3 157.674 7.30835   2
  -4  -7   3 142.458 11.0694   3
   3   7  -3 46.2277 17.4558   7
   3   7  -3 46.1423 21.8979   6
  -3  -7   3 34.2690 4.64780   2
  -3  -7   3 41.9704 4.64941   3
   2   7  -3 53.4942 4.82893   7
   2   7  -3 46.3268 4.82647   6
  -2  -7   3 45.6836 4.93284   2
   1   7  -3 174.230 9.98571   7
   1   7  -3 165.884 11.1127   6
  -1  -7   3 167.387 9.70932   2
   0   7  -3 208.041 11.7866   7
   0   7  -3 187.914 12.2382   6
   0  -7   3 199.152 34.3712   2
  -1   7  -3 141.975 11.5447   1
  -1   7  -3 140.802 7.65812   6
  -1   7  -3 134.517 8.03518   7
   1  -7   3 147.663 9.07186   2
  -2   7  -3 59.0370 5.51721   6
  -2   7  -3 59.7522 5.33364   7
  -2   7  -3 57.8088 9.34404   1
   2  -7   3 51.3508 5.79405   2
  -3   7  -3 28.8109 8.17096   6
  -3   7  -3 23.8156 3.95491   1
   3  -7   3 20.1682 4.31818   2
  -4   7  -3 15.7101 4.39873   1
  -4   7  -3 20.7738 6.54773   6
   4  -7   3 14.4634 5.80379   2
  -5   7  -3 185.279 17.8176   1
  -5   7  -3 179.381 10.2467   6
   5  -7   3 172.461 12.9301   2
   5  -7   3 187.713 13.6146   5
  -6   7  -3 19.5707 7.97311   6
   6  -7   3 15.9726 5.06702   2
 -10  -6   3 39.1945 6.92401   1
 -10  -6   3 45.0651 8.18835   3
   9   6  -3 -1.2667 4.36511   7
  -9  -6   3 0.63778 4.98583   1
  -9  -6   3 12.0187 5.62231   2
  -9  -6   3 2.53540 4.46519   3
   8   6  -3 88.9091 8.18212   7
  -8  -6   3 86.2540 10.3721   3
  -8  -6   3 66.9825 6.60384   2
  -8  -6   3 65.7592 5.86543   1
   7   6  -3 98.7339 9.11139   7
  -7  -6   3 86.5459 7.67459   3
  -7  -6   3 96.1293 8.92786   2
  -7  -6   3 81.1751 5.91404   1
   6   6  -3 36.8656 4.24511   7
  -6  -6   3 35.2516 4.52274   3
  -6  -6   3 32.2772 3.66726   2
  -6  -6   3 37.0704 3.22212   1
   5   6  -3 178.856 14.1469   6
   5   6  -3 182.644 13.5213   7
  -5  -6   3 170.196 10.1991   3
  -5  -6   3 170.197 11.8164   2
   4   6  -3 62.6251 5.28963   6
   4   6  -3 56.2433 4.30621   7
  -4  -6   3 50.8891 4.53294   2
  -4  -6   3 50.8701 4.58039   3
   3   6  -3 63.1101 5.13270   7
   3   6  -3 70.3047 5.84382   6
  -3  -6   3 64.8465 4.18795   2
  -3  -6   3 62.5517 4.39019   1
  -3  -6   3 66.8185 5.65334   3
  -3  -6   3 58.0533 3.19942   4
   2   6  -3 395.456 24.0365   7
   2   6  -3 427.601 26.3488   6
  -2  -6   3 451.776 23.7557   2
  -2  -6   3 411.161 31.7794   1
  -2  -6   3 424.362 27.9735  10
  -2  -6   3 426.654 26.2554   4
  -2  -6   3 427.492 37.5075   4
  -2  -6   3 425.138 28.5871   8
   1   6  -3 312.640 15.0370   7
   1   6  -3 298.618 16.9520   6
  -1  -6   3 313.167 18.3715   8
  -1  -6   3 297.829 15.9524   2
  -1  -6   3 293.965 19.4435   8
  -1  -6   3 292.470 23.1643   1
  -1  -6   3 313.044 14.3160   4
  -1  -6   3 303.705 18.2494  10
  -1  -6   3 287.449 19.7732  10
   0   6  -3 76.2881 5.51941   7
   0   6  -3 81.0791 4.45495   1
   0   6  -3 73.8917 6.20505   6
   0  -6   3 74.5139 3.90235   4
   0  -6   3 73.4428 4.27634  10
   0  -6   3 64.0724 5.70478   1
   0  -6   3 79.9247 3.94463   8
   0  -6   3 80.2147 4.89427   2
  -1   6  -3 506.124 26.1786   7
  -1   6  -3 509.943 33.8003   1
  -1   6  -3 513.713 29.0595   6
   1  -6   3 544.818 34.6285   8
   1  -6   3 537.786 33.8694  10
   1  -6   3 539.377 20.2478   2
   1  -6   3 538.301 25.5209   4
  -2   6  -3 129.130 6.42666   1
  -2   6  -3 130.601 7.52867   6
   2  -6   3 104.710 8.39574   8
   2  -6   3 116.305 7.57062   4
   2  -6   3 120.757 8.77759  10
   2  -6   3 122.476 6.03817   2
  -3   6  -3 134.314 8.10214   6
  -3   6  -3 153.435 9.18695   1
   3  -6   3 145.244 6.63302   4
   3  -6   3 162.792 8.21392   2
   3  -6   3 131.486 8.81242  10
   3  -6   3 129.334 7.60138   8
  -4   6  -3 228.125 15.0684   1
  -4   6  -3 246.434 10.2840   6
   4  -6   3 243.723 23.1884  10
   4  -6   3 245.592 20.8878   8
   4  -6   3 236.298 11.8430   2
   4  -6   3 237.077 19.8021   4
  -5   6  -3 150.397 9.67214   6
  -5   6  -3 149.264 9.90765   1
   5  -6   3 135.081 12.3391   4
   5  -6   3 141.832 7.77999   2
   5  -6   3 132.672 9.40372   8
   5  -6   3 134.251 10.2777  10
  -6   6  -3 16.7273 3.92136   1
  -6   6  -3 12.8417 4.88096   6
   6  -6   3 10.3396 5.75914   2
   6  -6   3 16.4272 4.00871   5
  -7   6  -3 42.3236 8.07594   6
  -7   6  -3 55.4814 5.62084   1
   7  -6   3 36.0110 6.97280   2
 -11  -5   3 24.7944 7.31796   1
 -10  -5   3 7.63326 5.83573   1
 -10  -5   3 -5.5357 5.87803   2
 -10  -5   3 -3.1690 6.20861   3
  -9  -5   3 112.349 9.62846   3
  -9  -5   3 112.979 8.51301   1
  -9  -5   3 104.831 10.2440   2
   8   5  -3 126.021 10.5056   7
  -8  -5   3 110.537 8.96947   1
  -8  -5   3 129.440 40.0791   2
  -8  -5   3 114.325 8.49326   3
   7   5  -3 31.4567 4.69353   7
  -7  -5   3 17.7787 2.95122   1
  -7  -5   3 10.6614 3.96933   2
  -7  -5   3 16.7020 3.70769   3
   6   5  -3 227.308 13.2808   7
  -6  -5   3 221.341 9.97940   1
  -6  -5   3 224.488 12.4279   2
  -6  -5   3 199.185 14.5358   3
   5   5  -3 258.174 16.6774   6
   5   5  -3 238.121 16.3012   7
  -5  -5   3 235.168 8.60542   1
  -5  -5   3 269.370 13.4920   3
  -5  -5   3 234.830 18.7783   4
  -5  -5   3 238.851 17.0121   2
  -5  -5   3 232.115 22.1936  10
  -5  -5   3 230.777 18.3030   8
   4   5  -3 103.385 5.56771   7
   4   5  -3 109.398 6.33592   6
  -4  -5   3 83.0792 8.78264   4
  -4  -5   3 101.798 6.23393   3
  -4  -5   3 92.3292 7.32038   1
  -4  -5   3 104.891 7.34517   8
  -4  -5   3 103.386 6.29451   2
  -4  -5   3 106.908 7.82897  10
   3   5  -3 416.611 22.5435   6
   3   5  -3 468.635 25.5038   7
  -3  -5   3 466.113 32.5501   8
  -3  -5   3 459.454 28.3617   4
  -3  -5   3 467.858 29.1358  10
  -3  -5   3 461.876 23.2321   2
  -3  -5   3 453.097 20.4747   1
   2   5  -3 864.224 46.6139   7
   2   5  -3 865.712 46.1000   6
  -2  -5   3 882.476 43.3648   1
  -2  -5   3 893.835 42.6689   4
  -2  -5   3 892.926 48.6818  10
  -2  -5   3 904.628 36.3322   2
  -2  -5   3 893.994 49.7344   8
   1   5  -3 566.500 24.8184   7
   1   5  -3 578.013 30.7334   6
  -1  -5   3 595.681 18.0076   2
  -1  -5   3 580.046 28.0561   4
  -1  -5   3 559.285 32.3392   1
   0   5  -3 586.045 28.3811   1
   0   5  -3 595.272 24.8147   7
   0   5  -3 595.801 27.7721   6
   0  -5   3 599.248 30.6005   8
   0  -5   3 608.449 30.5241  10
   0  -5   3 618.224 32.3535   1
   0  -5   3 633.781 26.7913   4
   0  -5   3 652.077 27.1679   2
  -1   5  -3 612.130 22.6500   6
  -1   5  -3 574.209 33.7426   1
   1  -5   3 642.307 18.9712   4
   1  -5   3 635.717 32.2573   8
   1  -5   3 640.702 20.2638   2
   1  -5   3 654.317 33.1069  10
   1  -5   3 632.130 37.0704   1
  -2   5  -3 107.477 6.06055   6
  -2   5  -3 118.332 4.94494   4
  -2   5  -3 116.350 5.78816   1
   2  -5   3 118.925 4.90974   8
   2  -5   3 100.173 4.98621   1
   2  -5   3 111.815 5.10490  10
   2  -5   3 111.392 3.94290   4
   2  -5   3 114.483 5.93758   2
  -3   5  -3 399.452 29.3554   4
  -3   5  -3 418.840 18.0679   1
  -3   5  -3 422.829 17.4561   6
   3  -5   3 413.951 24.3249   8
   3  -5   3 407.399 23.0639  10
   3  -5   3 443.241 31.0551   1
   3  -5   3 418.195 27.8470   4
   3  -5   3 437.243 15.2426   2
  -4   5  -3 240.260 13.3468   1
  -4   5  -3 218.366 12.7777   6
   4  -5   3 230.980 8.36669   8
   4  -5   3 230.369 10.6204   4
   4  -5   3 226.649 9.32411  10
   4  -5   3 230.088 9.58654   2
  -5   5  -3 167.278 7.92251   6
  -5   5  -3 190.857 12.8897   1
   5  -5   3 157.664 11.0103   8
   5  -5   3 175.487 8.05095   2
   5  -5   3 165.904 12.6039  10
   5  -5   3 180.789 9.28030   4
  -6   5  -3 205.719 10.2468   6
  -6   5  -3 219.417 10.1119   1
   6  -5   3 195.624 13.4547   4
   6  -5   3 196.500 11.3869   2
   6  -5   3 190.182 15.2379  10
   6  -5   3 201.046 12.5148   5
   6  -5   3 185.290 15.0377   8
  -7   5  -3 66.3401 7.27735   1
  -7   5  -3 54.1554 7.68388   6
   7  -5   3 64.7337 7.02662   2
   7  -5   3 46.6340 5.72299  10
   7  -5   3 39.8393 5.24868   4
   7  -5   3 52.0733 5.60576   8
  -8   5  -3 61.6884 8.56404   6
  -8   5  -3 45.0576 7.07115   1
   8  -5   3 40.2606 5.08533   4
   8  -5   3 44.1176 5.26703   8
   8  -5   3 41.4372 7.35422   2
   8  -5   3 39.0055 5.46979  10
  11   4  -3 8.32756 4.71343   8
  11   4  -3 10.3507 4.83955  10
 -11  -4   3 7.42000 6.65483   1
 -11  -4   3 8.89674 7.11973   2
  10   4  -3 104.097 8.32376  10
  10   4  -3 98.1082 8.23542   8
 -10  -4   3 103.447 9.10658   2
 -10  -4   3 100.626 7.24678   1
 -10  -4   3 87.4336 8.68537   3
   9   4  -3 85.8855 6.28243   8
   9   4  -3 105.113 7.46436  10
  -9  -4   3 92.2074 7.26673   3
  -9  -4   3 74.0006 9.04744   2
  -9  -4   3 87.8328 49.3042   1
  -8  -4   3 6.85477 4.30578   2
  -8  -4   3 18.6415 3.60298   3
  -8  -4   3 43.1003 18.5262   1
   7   4  -3 480.591 39.3862   7
  -7  -4   3 460.097 30.6085   2
  -7  -4   3 462.204 35.5054   3
  -7  -4   3 469.039 24.5062   1
   6   4  -3 229.075 8.17015   9
   6   4  -3 225.226 13.5353   7
  -6  -4   3 242.024 11.0960   2
  -6  -4   3 235.704 12.4427   3
  -6  -4   3 250.681 8.96524   1
   5   4  -3 150.444 8.43612   7
  -5  -4   3 128.451 5.92129   1
  -5  -4   3 137.929 7.78328   2
  -5  -4   3 115.399 9.70652   4
  -5  -4   3 128.250 9.16001  10
  -5  -4   3 123.203 8.30619   8
  -5  -4   3 132.758 7.32878   3
   4   4  -3 1128.83 57.3555   6
   4   4  -3 1190.87 63.4138   7
  -4  -4   3 1190.44 69.4116  10
  -4  -4   3 1206.44 70.0950   8
  -4  -4   3 1223.45 87.8111   4
  -4  -4   3 1148.28 43.9544   2
  -4  -4   3 1134.31 34.5204   1
   3   4  -3 143.763 6.71680   6
   3   4  -3 142.014 8.37904   7
  -3  -4   3 135.188 10.1843   6
  -3  -4   3 149.707 8.60752  10
  -3  -4   3 143.714 8.04474   1
  -3  -4   3 148.398 8.55744   8
  -3  -4   3 143.567 9.17197   7
  -3  -4   3 139.873 4.82550   2
   2   4  -3 1208.96 52.5730   6
   2   4  -3 1169.03 44.0444   7
   2   4  -3 1171.77 91.6591   2
  -2  -4   3 1229.77 38.3590   2
  -2  -4   3 1179.04 63.6340   6
  -2  -4   3 1194.33 65.5560   8
  -2  -4   3 1184.61 67.5175  10
  -2  -4   3 1197.66 38.4666   1
   1   4  -3 1087.98 36.8909   7
   1   4  -3 1108.33 42.5993   6
  -1  -4   3 1100.96 54.9648   6
  -1  -4   3 1118.41 43.3050   4
  -1  -4   3 1145.19 32.4519   2
  -1  -4   3 1097.91 46.2740   1
   0   4  -3 582.663 26.7943   1
   0   4  -3 619.199 19.3434   7
   0   4  -3 599.098 12.9259   6
   0  -4   3 623.606 26.4118   1
   0  -4   3 612.830 20.2947   4
   0  -4   3 603.261 13.7417   2
  -1   4  -3 571.725 17.9853   6
  -1   4  -3 566.538 30.3978   1
   1  -4   3 609.102 24.8098  10
   1  -4   3 594.894 27.0494   1
   1  -4   3 599.584 22.8232   8
   1  -4   3 576.089 16.7200   2
   1  -4   3 613.963 25.0748   4
  -2   4  -3 743.047 21.4235   6
  -2   4  -3 739.321 23.1781   1
  -2   4  -3 749.761 30.1408   4
   2  -4   3 786.654 19.7947   2
   2  -4   3 766.456 27.6197  10
   2  -4   3 782.573 28.6123   1
   2  -4   3 773.245 29.7719   8
   2  -4   3 786.058 30.0674   4
  -3   4  -3 245.817 9.57821   1
  -3   4  -3 256.343 8.96696   4
  -3   4  -3 238.320 9.11668   6
   3  -4   3 235.008 10.8769   1
   3  -4   3 232.614 7.56889   4
   3  -4   3 255.986 7.80821  10
   3  -4   3 240.882 8.57627   2
   3  -4   3 240.141 7.19897   8
  -4   4  -3 420.973 20.8878   1
  -4   4  -3 440.704 19.8838   6
   4  -4   3 424.803 26.0499   1
   4  -4   3 438.089 14.2703  10
   4  -4   3 415.367 14.7854   8
   4  -4   3 447.671 12.1671   2
   4  -4   3 429.340 15.4649   4
  -5   4  -3 418.138 13.3680   6
  -5   4  -3 470.216 20.9852   1
   5  -4   3 455.889 17.4012   2
   5  -4   3 454.422 18.7319   4
   5  -4   3 450.114 20.1494  10
   5  -4   3 454.746 18.3658   8
  -6   4  -3 183.191 8.60495   1
  -6   4  -3 169.680 8.50851   6
   6  -4   3 165.720 16.1308   8
   6  -4   3 159.165 17.2714  10
   6  -4   3 171.402 9.55932   2
   6  -4   3 183.953 8.10747   5
   6  -4   3 175.974 7.63673   4
  -7   4  -3 144.410 9.34138   1
  -7   4  -3 155.293 8.34182   6
   7  -4   3 138.971 9.60725   2
   7  -4   3 120.904 6.90103  10
   7  -4   3 105.748 6.21179   8
   7  -4   3 128.260 8.28424   4
  -8   4  -3 199.114 11.3815   1
  -8   4  -3 204.714 15.7945   6
   8  -4   3 173.466 11.3009   4
   8  -4   3 212.161 14.1787   2
   8  -4   3 211.110 12.7516   8
   8  -4   3 200.562 14.0291  10
  -9   4  -3 41.3772 8.06791   6
   9  -4   3 33.3936 6.59766   4
   9  -4   3 38.1684 7.10623   8
   9  -4   3 26.3899 7.19448  10
  11   3  -3 44.2079 6.93127   8
  11   3  -3 41.0814 7.23554  10
 -11  -3   3 36.5937 5.59528   1
 -11  -3   3 19.8961 7.49607   2
  10   3  -3 22.5498 4.20427   8
  10   3  -3 28.3802 4.63980  10
  10   3  -3 24.4500 4.17596   9
 -10  -3   3 22.6273 5.84314   1
 -10  -3   3 12.5314 6.03406   2
   9   3  -3 55.1520 4.76833  10
   9   3  -3 72.2279 5.04935   9
   9   3  -3 73.3393 4.89581   8
  -9  -3   3 47.4598 5.65606   3
  -9  -3   3 61.2193 5.52471   1
  -9  -3   3 64.5175 6.21640   2
   8   3  -3 267.569 13.3255  10
   8   3  -3 259.597 11.5762   8
   8   3  -3 252.594 17.6473   9
  -8  -3   3 260.409 13.7879   1
  -8  -3   3 249.282 13.5155   2
  -8  -3   3 246.082 16.3446   3
   7   3  -3 243.043 8.88596   9
   7   3  -3 261.068 10.9022   8
   7   3  -3 263.523 10.9155  10
  -7  -3   3 242.355 15.1130   2
  -7  -3   3 233.703 12.7579   3
  -7  -3   3 227.506 10.1388   1
   6   3  -3 86.5611 4.31265   9
   6   3  -3 77.3691 6.41532   7
  -6  -3   3 80.6694 4.26788   3
  -6  -3   3 75.9953 4.48686   1
  -6  -3   3 96.1554 23.7349   2
   5   3  -3 823.823 30.4249   7
   5   3  -3 770.109 18.2967   9
  -5  -3   3 817.818 51.9581  10
  -5  -3   3 773.402 47.5654   3
  -5  -3   3 741.300 28.8053   2
  -5  -3   3 801.783 43.1038   7
  -5  -3   3 785.509 53.0190   6
  -5  -3   3 772.152 17.2773   1
  -5  -3   3 790.580 50.1402   8
  -5  -3   3 843.741 45.1393   4
   4   3  -3 344.990 16.1916   7
   4   3  -3 324.468 7.05565   9
   4   3  -3 342.328 12.3329   6
  -4  -3   3 329.221 16.6653   8
  -4  -3   3 332.757 18.9235  10
  -4  -3   3 331.280 14.3361   2
  -4  -3   3 331.479 14.9905   1
  -4  -3   3 305.277 18.8248   6
  -4  -3   3 333.012 16.8176   4
  -4  -3   3 310.690 16.5935   7
   3   3  -3 346.477 7.55467   9
   3   3  -3 344.056 13.6664   6
   3   3  -3 350.348 12.0242   2
   3   3  -3 339.287 15.9011   7
  -3  -3   3 329.963 14.7817   2
  -3  -3   3 339.561 14.1601   1
  -3  -3   3 344.162 20.5157   7
  -3  -3   3 338.524 19.9805   8
  -3  -3   3 365.432 19.6735   6
  -3  -3   3 347.100 17.6288   9
  -3  -3   3 364.410 14.4383   5
  -3  -3   3 338.348 21.2274  10
   2   3  -3 6426.12 219.221   6
   2   3  -3 6719.63 278.922   2
   2   3  -3 6590.01 224.406   7
   2   3  -3 6661.92 92.0404   9
  -2  -3   3 6603.10 314.406  10
  -2  -3   3 6905.55 321.213   6
  -2  -3   3 6582.08 299.291   8
  -2  -3   3 6690.64 326.673   5
  -2  -3   3 6280.60 149.336   2
  -2  -3   3 6933.60 253.554   9
  -2  -3   3 6067.52 207.592   1
   1   3  -3 131.263 4.02761   6
   1   3  -3 128.264 3.90803   7
   1   3  -3 129.303 4.77405   2
  -1  -3   3 124.506 4.41842   6
  -1  -3   3 130.237 4.33337   4
  -1  -3   3 124.400 4.60787   1
  -1  -3   3 139.116 5.23251   9
  -1  -3   3 132.809 4.60241   2
   0   3  -3 965.781 35.1567   2
   0   3  -3 911.143 40.6993   1
   0   3  -3 969.328 18.1611   6
   0  -3   3 983.611 29.9135   2
   0  -3   3 983.415 31.4875   1
   0  -3   3 990.228 25.4771   6
   0  -3   3 996.501 34.6590   9
   0  -3   3 968.802 25.3892   4
  -1   3  -3 1402.87 31.1936   2
  -1   3  -3 1373.48 34.4466   4
  -1   3  -3 1336.56 53.0376   1
  -1   3  -3 1401.66 22.9217   6
   1  -3   3 1455.97 45.2981   1
   1  -3   3 1262.17 36.0889   3
   1  -3   3 1404.68 44.1464   4
   1  -3   3 1454.60 38.8602   2
   1  -3   3 1476.67 38.8100   9
   1  -3   3 1447.68 50.0194   6
  -2   3  -3 270.253 8.07573   6
  -2   3  -3 266.015 5.85620   1
  -2   3  -3 277.520 8.26203   4
   2  -3   3 274.849 6.88558   8
   2  -3   3 264.801 9.04272   1
   2  -3   3 283.329 7.27648  10
   2  -3   3 296.296 17.6054   3
   2  -3   3 289.053 6.80317   2
   2  -3   3 277.640 7.24959   4
   2  -3   3 287.364 12.2230   9
  -3   3  -3 1364.14 71.3292   4
  -3   3  -3 1344.86 27.4601   6
  -3   3  -3 1344.40 59.1396   1
   3  -3   3 1402.04 28.8947   8
   3  -3   3 1408.76 42.4614   4
   3  -3   3 1400.98 29.9399  10
   3  -3   3 1498.46 44.9847   9
   3  -3   3 1445.86 43.0730   1
   3  -3   3 1448.99 72.4543   3
   3  -3   3 1349.27 25.7175   2
  -4   3  -3 1259.60 27.4082   6
  -4   3  -3 1255.35 36.0851   1
   4  -3   3 1288.07 55.3356   1
   4  -3   3 1313.41 48.4535  10
   4  -3   3 1325.09 45.3606   4
   4  -3   3 1292.63 90.5711   3
   4  -3   3 1248.04 31.8228   2
   4  -3   3 1325.63 47.6885   8
   4  -3   3 1337.66 56.9327   9
  -5   3  -3 515.351 24.5562   6
  -5   3  -3 497.307 18.5985   1
   5  -3   3 527.865 17.7590   2
   5  -3   3 523.079 14.6149  10
   5  -3   3 542.176 15.5805   4
   5  -3   3 537.560 15.2619   8
   5  -3   3 559.681 28.2889   9
   5  -3   3 520.961 36.1405   3
  -6   3  -3 472.474 21.2377   1
  -6   3  -3 450.859 14.8059   6
   6  -3   3 452.010 14.1221  10
   6  -3   3 435.868 19.0179   5
   6  -3   3 479.470 36.2755   9
   6  -3   3 476.241 14.3618   8
   6  -3   3 461.423 14.2388   4
   6  -3   3 458.909 18.3635   2
  -7   3  -3 366.209 16.6684   6
  -7   3  -3 396.460 23.1411   1
   7  -3   3 351.723 27.5533   8
   7  -3   3 392.291 30.5678  10
   7  -3   3 403.551 20.0811   4
   7  -3   3 397.129 15.1266   2
  -8   3  -3 135.554 7.48973   1
  -8   3  -3 131.965 8.02672   6
   8  -3   3 122.012 8.27789   4
   8  -3   3 113.544 7.31249  10
   8  -3   3 129.726 6.96635   2
   8  -3   3 124.852 7.05793   8
  -9   3  -3 169.979 11.5030   1
  -9   3  -3 154.769 11.1091   6
   9  -3   3 180.379 10.3333   8
   9  -3   3 138.165 10.7675   4
   9  -3   3 162.078 11.8282  10
 -10   3  -3 34.7105 8.33078   6
  10  -3   3 25.0616 7.02111   4
  10  -3   3 26.6715 5.96804  10
  11   2  -3 18.0856 6.68748  10
  11   2  -3 17.8602 4.80790   8
 -11  -2   3 23.0835 5.61335   2
 -11  -2   3 23.9395 6.78020   1
  10   2  -3 26.1972 5.64816  10
  10   2  -3 26.3120 3.82191   9
  10   2  -3 25.9774 5.41614   8
 -10  -2   3 26.2539 5.76701   1
 -10  -2   3 30.2125 4.99140   2
   9   2  -3 252.010 14.2384  10
   9   2  -3 253.778 13.3696   8
   9   2  -3 259.310 12.2619   9
  -9  -2   3 234.185 18.7075   3
  -9  -2   3 231.630 14.3129   2
  -9  -2   3 255.818 13.3124   1
   8   2  -3 215.156 13.8715  10
   8   2  -3 238.105 10.5909   9
   8   2  -3 219.984 12.3219   8
  -8  -2   3 222.144 16.5564   3
  -8  -2   3 227.008 12.9868   2
  -8  -2   3 238.896 10.1949   1
   7   2  -3 175.418 7.90624  10
   7   2  -3 177.017 7.33651   8
   7   2  -3 191.575 7.00669   9
  -7  -2   3 180.684 9.67921   2
  -7  -2   3 173.902 7.58876   1
  -7  -2   3 171.560 8.87303   3
   6   2  -3 394.638 21.3499   9
   6   2  -3 408.569 12.2230  10
   6   2  -3 401.690 14.3913   8
  -6  -2   3 380.986 28.7569   6
  -6  -2   3 391.073 23.1868   1
  -6  -2   3 414.923 14.2241   3
  -6  -2   3 410.245 18.5762   2
  -6  -2   3 387.465 26.3725   7
   5   2  -3 1012.94 28.7966   9
   5   2  -3 1032.50 36.1373   7
  -5  -2   3 1067.10 36.0872   9
  -5  -2   3 1020.88 25.3138   1
  -5  -2   3 1058.59 50.2053   7
  -5  -2   3 948.374 23.9600   2
  -5  -2   3 1041.26 50.3036   8
  -5  -2   3 1073.96 50.0959  10
  -5  -2   3 1034.07 33.0883   3
  -5  -2   3 1096.33 41.1221   5
  -5  -2   3 976.850 55.0518   6
  -5  -2   3 1037.21 52.1578   4
   4   2  -3 1113.10 42.1749   7
   4   2  -3 1115.74 25.1596   9
  -4  -2   3 1156.75 57.2350   5
  -4  -2   3 1145.89 48.1125   6
  -4  -2   3 1027.65 37.1735   2
  -4  -2   3 1158.78 46.8685   8
  -4  -2   3 1135.81 18.5160   1
  -4  -2   3 1148.45 32.3950   9
  -4  -2   3 1152.08 54.3029   7
  -4  -2   3 1150.89 48.9335  10
   3   2  -3 2668.34 71.9359   2
   3   2  -3 2693.71 105.029   9
   3   2  -3 2683.88 76.7416   7
   3   2  -3 2697.34 95.8540   6
  -3  -2   3 2698.76 97.0312  10
  -3  -2   3 2655.29 131.811   1
  -3  -2   3 2767.63 105.413   7
  -3  -2   3 2680.34 89.0787   8
  -3  -2   3 2790.82 68.4286   5
  -3  -2   3 2360.74 70.2999   2
  -3  -2   3 2808.43 115.812   6
  -3  -2   3 2777.34 109.584   9
   2   2  -3 1873.09 81.1608   6
   2   2  -3 1866.12 43.8415   7
   2   2  -3 1896.07 29.4605   9
   2   2  -3 1862.95 71.5402   2
  -2  -2   3 1891.71 62.6208   2
  -2  -2   3 1873.22 38.7980   9
  -2  -2   3 1982.55 80.1036   6
  -2  -2   3 1827.56 75.4316   1
  -2  -2   3 1879.97 53.4673   5
   1   2  -3 671.283 13.6698   6
   1   2  -3 668.433 11.1468   7
   1   2  -3 666.129 26.5196   2
   1   2  -3 653.362 12.0317   9
  -1  -2   3 673.292 17.5565   6
  -1  -2   3 642.479 29.0664   1
  -1  -2   3 671.450 24.9203   9
  -1  -2   3 663.180 13.0108   2
  -1  -2   3 643.694 24.3915   1
  -1  -2   3 691.584 30.6944   5
   0   2  -3 2279.67 73.7088   1
   0   2  -3 2421.60 41.9164   9
   0   2  -3 2378.56 62.2349   2
   0   2  -3 2365.27 84.8999   6
   0  -2   3 2397.78 120.058   1
   0  -2   3 2417.86 60.0098   4
   0  -2   3 2410.05 65.0209   2
   0  -2   3 2432.71 37.2303   6
   0  -2   3 2436.61 46.9141   9
  -1   2  -3 870.211 12.9030   6
  -1   2  -3 859.236 29.1310   4
  -1   2  -3 874.572 26.2478   1
  -1   2  -3 854.685 19.2004   2
   1  -2   3 917.288 19.6338   3
   1  -2   3 913.702 22.0221   2
   1  -2   3 884.272 26.5420   1
   1  -2   3 929.512 13.4734   9
   1  -2   3 898.762 24.1576   6
   1  -2   3 922.652 22.6208   4
  -2   2  -3 2009.28 39.1631   4
  -2   2  -3 1981.37 42.3880   1
  -2   2  -3 2006.26 35.5998   2
  -2   2  -3 1998.06 35.7659   6
   2  -2   3 2074.25 38.1557   4
   2  -2   3 2133.51 55.0747   3
   2  -2   3 2008.73 42.5520   2
   2  -2   3 2067.51 68.0454   1
   2  -2   3 2125.15 56.5424   8
   2  -2   3 2083.01 54.4755   9
   2  -2   3 2096.29 56.1097  10
  -3   2  -3 1843.60 36.1783   6
  -3   2  -3 1833.57 72.2051   4
  -3   2  -3 1779.83 47.9152   1
   3  -2   3 1874.90 58.9400   1
   3  -2   3 1910.80 36.5519   8
   3  -2   3 1900.72 39.7580  10
   3  -2   3 1833.92 29.9007   2
   3  -2   3 1881.79 53.5053   9
   3  -2   3 1896.98 38.2748   3
   3  -2   3 1941.63 36.1221   4
  -4   2  -3 227.405 7.95869   1
  -4   2  -3 220.956 9.59513   4
  -4   2  -3 216.125 6.47236   6
   4  -2   3 229.928 6.59612   8
   4  -2   3 229.569 6.28551   4
   4  -2   3 225.564 8.26411   1
   4  -2   3 230.783 7.77843   3
   4  -2   3 230.022 6.50946  10
   4  -2   3 232.959 5.39504   9
   4  -2   3 228.792 8.95297   2
  -5   2  -3 1204.11 23.1981   6
  -5   2  -3 1157.62 44.8594   1
   5  -2   3 1228.82 28.5174   4
   5  -2   3 1231.04 19.7957  10
   5  -2   3 1274.19 50.8263   9
   5  -2   3 1230.40 51.4673   3
   5  -2   3 1249.91 23.0999   8
   5  -2   3 1193.76 33.4922   2
  -6   2  -3 730.964 33.8490   1
  -6   2  -3 758.072 18.7842   6
   6  -2   3 782.765 29.2176   9
   6  -2   3 737.253 27.5338   4
   6  -2   3 723.560 37.5363   5
   6  -2   3 731.713 41.7429   3
   6  -2   3 785.688 19.4106   8
   6  -2   3 786.192 19.9650  10
   6  -2   3 727.105 21.9674   2
  -7   2  -3 247.767 10.8884   6
  -7   2  -3 240.813 10.2459   1
   7  -2   3 250.434 27.6152   2
   7  -2   3 274.192 26.2930   4
   7  -2   3 247.796 11.7333   5
   7  -2   3 254.937 27.9893  10
   7  -2   3 277.345 25.6293   8
  -8   2  -3 266.068 15.4783   1
  -8   2  -3 279.917 15.6589   6
   8  -2   3 231.526 11.3356   2
   8  -2   3 276.091 16.5256  10
   8  -2   3 290.435 12.2184   4
   8  -2   3 282.640 17.2355   8
  -9   2  -3 181.028 14.7058   1
  -9   2  -3 180.061 12.4021   6
   9  -2   3 182.593 13.1145  10
   9  -2   3 182.580 12.4241   4
   9  -2   3 186.734 11.7341   8
 -10   2  -3 14.7659 6.68352   6
 -10   2  -3 13.9316 6.67207   1
  10  -2   3 7.70326 6.66507  10
  10  -2   3 11.8488 6.42299   8
  10  -2   3 9.12277 6.08646   4
  11   1  -3 10.1218 4.72697  10
  11   1  -3 12.2175 4.56974   8
 -11  -1   3 15.5631 5.10707   1
  10   1  -3 147.777 7.36895   9
  10   1  -3 150.072 9.02903  10
  10   1  -3 137.660 10.4733   8
 -10  -1   3 161.512 8.40917   1
   9   1  -3 100.050 6.85467  10
   9   1  -3 121.508 6.69810   9
   9   1  -3 93.9489 6.49258   8
  -9  -1   3 113.747 6.10066   1
   8   1  -3 211.740 12.3049  10
   8   1  -3 221.360 8.48575   9
   8   1  -3 189.973 9.67683   8
  -8  -1   3 193.286 14.5181   3
  -8  -1   3 196.569 9.32808   1
   7   1  -3 579.304 19.7866   8
   7   1  -3 562.575 20.8267  10
   7   1  -3 564.054 31.2877   9
  -7  -1   3 535.857 32.7011   3
  -7  -1   3 566.792 19.1429   1
   6   1  -3 284.933 12.2480  10
   6   1  -3 263.292 10.1485   8
   6   1  -3 288.603 23.4442   5
   6   1  -3 292.234 16.5431   9
  -6  -1   3 282.151 13.8991   9
  -6  -1   3 291.149 11.5019   3
  -6  -1   3 294.428 14.3775   5
  -6  -1   3 287.754 16.0175   7
  -6  -1   3 268.345 19.8284   1
  -6  -1   3 260.579 12.8661   6
   5   1  -3 996.401 25.5859   8
   5   1  -3 1000.45 26.7761  10
   5   1  -3 953.215 16.7173   9
   5   1  -3 978.789 18.9039   5
  -5  -1   3 1029.12 54.2374   8
  -5  -1   3 893.058 22.0040   2
  -5  -1   3 980.066 38.5270   3
  -5  -1   3 968.591 27.6059   1
  -5  -1   3 1038.10 44.7723   5
  -5  -1   3 1027.35 36.0117   7
  -5  -1   3 1008.13 37.5740   9
  -5  -1   3 985.296 55.8802  10
  -5  -1   3 1029.92 54.4432   6
  -5  -1   3 1015.38 44.0200   4
   4   1  -3 1662.03 40.3508   5
   4   1  -3 1665.69 58.6259   7
   4   1  -3 1679.32 37.8197   9
  -4  -1   3 1781.36 64.0812   6
  -4  -1   3 1730.83 43.1095   7
  -4  -1   3 1690.96 78.8042   1
  -4  -1   3 1644.53 54.7726  10
  -4  -1   3 1691.32 56.3683   8
  -4  -1   3 1701.08 42.1348   2
  -4  -1   3 1703.30 68.2232   5
  -4  -1   3 1740.00 30.9177   9
   3   1  -3 929.336 27.5863   5
   3   1  -3 897.585 25.8117   7
   3   1  -3 927.752 30.7051   9
  -3  -1   3 962.556 29.8210   6
  -3  -1   3 963.311 38.2809   2
  -3  -1   3 971.146 33.5789   5
  -3  -1   3 979.073 41.5386   9
  -3  -1   3 983.227 27.6732   7
  -3  -1   3 929.639 30.5315   8
  -3  -1   3 949.312 33.0376  10
  -3  -1   3 930.504 43.9831   1
   2   1  -3 1890.23 54.9395   2
   2   1  -3 1907.70 49.7701   6
   2   1  -3 1917.82 35.7174   9
   2   1  -3 1857.46 29.7349   7
  -2  -1   3 1878.34 29.7069   9
  -2  -1   3 1981.61 88.5499   7
  -2  -1   3 1917.66 57.8291   2
  -2  -1   3 1938.38 106.264   1
  -2  -1   3 1949.15 39.7621   5
  -2  -1   3 1990.80 82.1994   6
   1   1  -3 1409.43 49.0462   7
   1   1  -3 1396.18 38.8249   6
   1   1  -3 1360.51 25.8658   2
   1   1  -3 1415.15 27.6587   9
  -1  -1   3 1462.28 36.1662   6
  -1  -1   3 1398.60 29.4011   9
  -1  -1   3 1434.31 78.2970   1
  -1  -1   3 1416.22 38.8557   2
  -1  -1   3 1413.71 62.2219   5
   0   1  -3 788.665 13.1389   2
   0   1  -3 783.237 17.5535   6
   0   1  -3 803.493 23.9831   9
   0  -1   3 783.814 22.2940   6
   0  -1   3 792.673 21.1729   5
   0  -1   3 825.894 22.3942   4
   0  -1   3 792.228 33.2567   3
   0  -1   3 783.572 21.5918   9
   0  -1   3 798.543 28.4567   2
  -1   1  -3 1266.43 27.6271   6
  -1   1  -3 1291.44 25.9380   9
  -1   1  -3 1272.34 39.0620   4
  -1   1  -3 1301.22 43.6831   2
  -1   1  -3 1217.95 30.1796   1
   1  -1   3 1293.45 47.2569   9
   1  -1   3 1320.10 37.8299   3
   1  -1   3 1289.69 33.9854   5
   1  -1   3 1305.47 28.6052   4
   1  -1   3 1309.28 25.8915   2
  -2   1  -3 2485.43 56.4613   4
  -2   1  -3 2362.78 67.0220   1
  -2   1  -3 2401.99 54.4813   6
  -2   1  -3 2420.86 43.2412   2
   2  -1   3 2420.86 33.7228   9
   2  -1   3 2431.72 40.2822   4
   2  -1   3 2499.55 50.3052   2
   2  -1   3 2500.72 82.9312   3
  -3   1  -3 656.090 52.1734   2
  -3   1  -3 691.775 11.9669   6
  -3   1  -3 704.190 25.0437   4
  -3   1  -3 695.747 15.1885   3
  -3   1  -3 661.066 13.1168   1
   3  -1   3 664.142 17.5132   2
   3  -1   3 685.053 24.3287   3
   3  -1   3 684.096 13.7180   9
   3  -1   3 706.048 12.3931  10
   3  -1   3 691.658 12.1763   8
   3  -1   3 694.277 16.0554   4
  -4   1  -3 2106.22 75.3658   2
  -4   1  -3 2077.84 53.7486   3
  -4   1  -3 2093.53 62.6817   1
  -4   1  -3 2155.76 95.5420   4
  -4   1  -3 2015.37 37.8556   6
   4  -1   3 2194.37 44.1183  10
   4  -1   3 2171.66 45.7723   4
   4  -1   3 2173.41 78.1626   3
   4  -1   3 2147.22 61.4964   9
   4  -1   3 2123.50 64.7042   2
   4  -1   3 2217.94 39.6782   8
  -5   1  -3 1301.22 39.4288   1
  -5   1  -3 1283.74 65.6588   3
  -5   1  -3 1327.83 29.7156   6
   5  -1   3 1313.94 33.7501   2
   5  -1   3 1346.29 29.8101   9
   5  -1   3 1356.10 45.6703  10
   5  -1   3 1362.78 40.2270   8
   5  -1   3 1282.25 33.7929   5
   5  -1   3 1345.61 37.8979   4
   5  -1   3 1332.21 81.1056   3
  -6   1  -3 668.329 26.3905   1
  -6   1  -3 683.492 19.2240   6
  -6   1  -3 687.805 32.5023   3
   6  -1   3 693.366 17.6055   8
   6  -1   3 678.612 31.4916   5
   6  -1   3 671.542 14.8478  10
   6  -1   3 655.482 16.9388   2
   6  -1   3 655.524 16.0361   4
   6  -1   3 698.945 46.5307   3
   6  -1   3 703.748 52.4974   5
   6  -1   3 703.261 40.1584   9
  -7   1  -3 641.927 27.2937   1
  -7   1  -3 608.584 25.7322   3
  -7   1  -3 621.073 21.9946   6
   7  -1   3 612.081 18.0886   2
   7  -1   3 607.325 22.6773   8
   7  -1   3 632.980 27.3307   4
   7  -1   3 583.220 20.9748  10
   7  -1   3 584.880 31.8524   3
  -8   1  -3 201.842 17.8507   3
  -8   1  -3 246.605 9.97181   1
  -8   1  -3 231.090 8.98168   6
   8  -1   3 235.146 11.2431   8
   8  -1   3 221.598 9.54068   4
   8  -1   3 241.481 10.2395  10
  -9   1  -3 106.659 7.28081   1
  -9   1  -3 99.4676 7.43823   6
   9  -1   3 87.6492 6.85185   4
   9  -1   3 106.422 7.79097   8
   9  -1   3 103.695 7.37950  10
 -10   1  -3 182.963 9.55528   6
 -10   1  -3 190.612 12.6406   1
  10  -1   3 191.787 10.9014   8
  10  -1   3 196.126 10.7520  10
  10  -1   3 184.889 14.3914   4
  11   0  -3 59.3589 6.06131   8
  11   0  -3 62.4169 6.43368  10
 -11   0   3 64.3491 6.67735   1
  10   0  -3 7.94059 2.98944   9
  10   0  -3 12.2856 5.40510  10
  10   0  -3 10.4953 5.03501   8
 -10   0   3 12.1857 4.22812   1
   9   0  -3 251.124 10.2493   9
   9   0  -3 244.560 11.0699   5
   9   0  -3 224.665 10.2718  10
   9   0  -3 229.602 11.3089   8
  -9   0   3 233.451 12.1068   1
   8   0  -3 382.996 17.5772   8
   8   0  -3 381.842 19.6698  10
   8   0  -3 403.124 17.4736   9
   8   0  -3 391.616 12.6498   5
  -8   0   3 376.253 30.1451   3
  -8   0   3 352.750 23.5329   1
   7   0  -3 54.6806 3.66322   5
   7   0  -3 62.9900 6.65139   8
   7   0  -3 56.1623 3.25185   9
   7   0  -3 64.4736 7.38402  10
  -7   0   3 43.8334 3.76397   7
  -7   0   3 45.8215 3.65845   3
  -7   0   3 56.4876 3.91144   1
   6   0  -3 645.503 25.9249   9
   6   0  -3 634.111 16.4228   8
   6   0  -3 644.612 17.8755   5
   6   0  -3 647.574 14.4278  10
  -6   0   3 613.930 41.1747   1
  -6   0   3 622.054 49.9423   3
  -6   0   3 616.908 32.2597   7
  -6   0   3 645.411 30.9531   5
  -6   0   3 676.114 24.4275   9
   5   0  -3 1732.78 28.3486   8
   5   0  -3 1676.58 57.1346   9
   5   0  -3 1667.62 33.8238   5
   5   0  -3 1735.01 90.5331   1
   5   0  -3 1726.18 32.7296  10
  -5   0   3 1695.16 86.2138   1
  -5   0   3 1716.44 52.5632   9
  -5   0   3 1757.75 62.1707   7
  -5   0   3 1708.17 57.6285   3
  -5   0   3 1768.78 54.0208   5
   4   0  -3 541.281 13.9460   5
   4   0  -3 523.644 9.71528   1
   4   0  -3 533.077 9.02636   9
  -4   0   3 551.426 14.6862  10
  -4   0   3 540.671 22.7748   9
  -4   0   3 535.338 20.3643   7
  -4   0   3 540.410 15.9855   6
  -4   0   3 519.895 23.0621   5
  -4   0   3 551.660 13.6611   8
  -4   0   3 528.824 9.59391   1
   3   0  -3 1913.31 46.3847   7
   3   0  -3 1873.79 52.6709   5
   3   0  -3 1844.59 55.9338   9
   3   0  -3 1840.01 39.2143   1
  -3   0   3 1892.32 49.3925  10
  -3   0   3 1960.69 64.3787   5
  -3   0   3 1813.52 70.1638   1
  -3   0   3 1953.92 68.8369   7
  -3   0   3 1947.56 53.3724   9
  -3   0   3 1878.39 46.0869   8
  -3   0   3 1872.70 71.8368   2
  -3   0   3 1957.51 65.1412   6
   2   0  -3 2507.89 92.8952   6
   2   0  -3 2438.37 57.8512   1
   2   0  -3 2489.89 94.1659   7
   2   0  -3 2475.71 56.7146   9
   2   0  -3 2451.77 62.6992   5
  -2   0   3 2500.54 58.0433   2
  -2   0   3 2463.91 75.3668   1
  -2   0   3 2636.90 96.5651   7
  -2   0   3 2502.81 117.040   9
  -2   0   3 2602.48 84.5877   6
  -2   0   3 2474.80 51.4123   5
   1   0  -3 1798.72 60.7371   5
   1   0  -3 1839.43 51.2161   6
   1   0  -3 1786.41 44.8899   1
   1   0  -3 1823.27 65.7101   2
   1   0  -3 1849.17 57.9453   7
   1   0  -3 1825.94 54.7616   9
  -1   0   3 1882.93 62.7188   3
  -1   0   3 1913.26 87.3085   6
  -1   0   3 1864.07 45.9725   5
  -1   0   3 1823.41 83.0975   9
  -1   0   3 1899.93 67.1175   1
  -1   0   3 1851.59 62.9466   2
   0   0  -3 1483.24 45.5359   5
   0   0  -3 1503.64 39.5053   9
   0   0  -3 1479.05 37.0081   6
   0   0  -3 1456.98 35.7019   1
   0   0  -3 1488.89 64.9188   3
   0   0  -3 1518.95 49.4177   2
   0   0   3 1520.88 47.2257   3
   0   0   3 1499.29 48.2733   4
   0   0   3 1496.40 61.4473   5
   0   0   3 1500.89 68.4169   9
   0   0   3 1513.88 58.6860   2
   0   0   3 1476.49 34.7691   6
  -1   0  -3 5098.43 147.802   9
  -1   0  -3 5115.48 144.266   3
  -1   0  -3 5101.25 123.962   6
  -1   0  -3 5085.69 118.482   4
  -1   0  -3 5087.84 82.3223   2
   1   0   3 5152.86 149.602   2
   1   0   3 5277.28 119.050   4
   1   0   3 5012.22 94.3048   9
   1   0   3 4998.25 120.030   5
   1   0   3 5114.66 134.550   3
  -2   0  -3 1171.84 31.2375   1
  -2   0  -3 1184.60 34.8402   2
  -2   0  -3 1192.90 37.3352   9
  -2   0  -3 1184.91 22.5548   4
  -2   0  -3 1176.45 28.5122   3
   2   0   3 1172.20 54.2081   3
   2   0   3 1165.82 47.3480   5
   2   0   3 1166.87 38.0277   9
   2   0   3 1173.50 26.1580   2
   2   0   3 1202.96 25.4173   4
  -3   0  -3 3105.32 72.7478   1
  -3   0  -3 3152.85 107.606   3
  -3   0  -3 3121.55 89.1761   2
  -3   0  -3 3228.93 81.6870   4
   3   0   3 3193.70 69.5177  10
   3   0   3 3079.93 93.7420   2
   3   0   3 3125.32 46.8564   9
   3   0   3 3117.68 93.5804   3
   3   0   3 3209.88 66.5523   8
   3   0   3 3100.25 74.7703   5
   3   0   3 3109.60 66.9495   4
  -4   0  -3 2398.20 58.3643   3
  -4   0  -3 2464.37 57.4062   1
  -4   0  -3 2537.29 84.7791   2
  -4   0  -3 2674.15 85.4866   4
   4   0   3 2493.64 65.6519   5
   4   0   3 2549.29 75.0670   3
   4   0   3 2608.08 75.2750   8
   4   0   3 2567.67 67.1346   4
   4   0   3 2457.44 58.3306   9
   4   0   3 2414.43 92.3428   2
   4   0   3 2508.59 77.5834  10
  -5   0  -3 1048.28 44.6198   2
  -5   0  -3 1007.52 45.1247   3
  -5   0  -3 1025.57 27.2952   1
   5   0   3 1058.29 18.6690   8
   5   0   3 1013.23 27.1627   5
   5   0   3 1033.30 17.4845   4
   5   0   3 1037.92 44.3337   3
   5   0   3 1046.41 20.8616  10
   5   0   3 1010.13 23.6258   9
   5   0   3 958.882 29.0085   5
   5   0   3 1027.81 32.3907   2
  -6   0  -3 1682.59 49.3310   3
  -6   0  -3 1646.36 50.9344   1
   6   0   3 1722.74 30.0133   8
   6   0   3 1692.53 32.9633  10
   6   0   3 1629.38 38.3492   2
   6   0   3 1671.43 89.6125   3
   6   0   3 1697.91 38.3129   4
  -7   0  -3 136.938 5.92071   3
  -7   0  -3 142.021 6.05014   1
   7   0   3 144.025 5.84276   2
   7   0   3 140.319 7.58488  10
   7   0   3 138.968 7.74282   3
   7   0   3 149.681 7.26910   4
   7   0   3 158.845 7.66876   8
  -8   0  -3 294.289 13.7615   3
  -8   0  -3 309.004 14.0856   1
   8   0   3 290.588 11.1844   4
   8   0   3 276.037 11.6162   8
   8   0   3 304.235 10.3702  10
  -9   0  -3 485.054 23.9905   1
   9   0   3 450.500 18.4475   4
   9   0   3 451.311 26.3974   8
   9   0   3 471.332 27.2270  10
 -10   0  -3 82.7643 6.36947   1
  10   0   3 82.8831 21.7300  10
  10   0   3 76.8832 22.3015   4
  10   0   3 70.5759 20.1865   8
 -11   0  -3 86.4178 7.77230   1
  11   0   3 82.9199 7.92627   4
  11   0   3 103.341 8.87505   8
  11   0   3 97.9663 9.11859  10
  11  -1  -3 9.51147 4.64439   8
  11  -1  -3 7.86234 4.82983  10
 -11   1   3 5.02810 5.28723   1
  10  -1  -3 71.6685 6.83579   8
  10  -1  -3 72.7183 7.10819  10
 -10   1   3 78.3513 6.96648   1
   9  -1  -3 352.458 17.6638   9
   9  -1  -3 374.338 16.1248   5
   9  -1  -3 354.564 17.7398  10
   9  -1  -3 369.142 19.2588   8
  -9   1   3 348.752 22.9158   1
   8  -1  -3 64.8513 4.04864   5
   8  -1  -3 57.4773 4.51549  10
   8  -1  -3 71.6102 3.29109   9
   8  -1  -3 51.2953 4.16510   8
  -8   1   3 62.8573 4.70683   1
   7  -1  -3 695.814 18.6591   9
   7  -1  -3 720.753 22.5982  10
   7  -1  -3 718.656 15.2838   5
   7  -1  -3 716.157 23.1386   8
  -7   1   3 698.476 51.5750   3
  -7   1   3 737.719 49.2084   3
  -7   1   3 695.210 42.0179   7
  -7   1   3 719.252 58.2052   5
  -7   1   3 734.941 29.0911   1
   6  -1  -3 415.892 9.07548   5
   6  -1  -3 436.647 12.7672   8
   6  -1  -3 413.001 8.19143   9
   6  -1  -3 427.404 15.0371  10
  -6   1   3 424.872 33.1395   3
  -6   1   3 415.680 20.2471   5
  -6   1   3 446.155 41.9631   3
  -6   1   3 410.074 22.3538   7
  -6   1   3 404.967 21.0809   1
   5  -1  -3 955.833 46.1980   1
   5  -1  -3 971.760 24.7287   5
   5  -1  -3 994.698 25.8406   9
   5  -1  -3 986.632 15.1126  10
   5  -1  -3 985.397 15.2730   8
  -5   1   3 1002.20 39.4544   3
  -5   1   3 1005.26 50.1701   7
  -5   1   3 989.078 16.6944   1
  -5   1   3 981.006 61.0870   3
  -5   1   3 1036.01 41.8712   5
   4  -1  -3 1429.95 17.1434   9
   4  -1  -3 1416.75 29.5255   5
   4  -1  -3 1504.60 35.2627   1
  -4   1   3 1525.80 50.1589   5
  -4   1   3 1483.76 36.9136  10
  -4   1   3 1529.01 37.4958   8
  -4   1   3 1483.85 68.3772   3
  -4   1   3 1531.39 63.6891   7
  -4   1   3 1514.99 29.3854   1
   3  -1  -3 1550.51 37.8046   5
   3  -1  -3 1583.33 39.8031   9
   3  -1  -3 1604.90 43.0353   1
  -3   1   3 1614.46 41.9660   5
  -3   1   3 1616.98 47.3810   7
  -3   1   3 1603.41 69.9031   3
  -3   1   3 1602.11 31.9077   1
  -3   1   3 1583.01 44.5156  10
  -3   1   3 1624.65 46.5755   9
  -3   1   3 1587.32 39.1065   8
   2  -1  -3 804.143 28.3861   9
   2  -1  -3 817.441 17.9104   5
   2  -1  -3 799.803 27.3586   1
  -2   1   3 840.484 15.8442   5
  -2   1   3 820.641 24.6743   3
  -2   1   3 818.185 23.9676   1
  -2   1   3 816.016 22.2971   9
  -2   1   3 812.354 29.3450   6
  -2   1   3 815.729 29.0191   7
   1  -1  -3 2933.67 95.3020   7
   1  -1  -3 3063.44 75.4253   3
   1  -1  -3 3000.56 107.510   1
   1  -1  -3 3052.72 120.767   9
   1  -1  -3 3091.00 84.1892   5
   1  -1  -3 3008.86 95.1691   6
  -1   1   3 3032.94 91.1913   5
  -1   1   3 3062.44 97.5856   1
  -1   1   3 3003.35 94.5328   9
  -1   1   3 3050.65 100.810   2
  -1   1   3 3118.17 51.3805   3
   0  -1  -3 2000.65 58.7760   5
   0  -1  -3 2026.45 55.4026   9
   0  -1  -3 1944.10 92.3656   1
   0  -1  -3 2054.15 81.4358   2
   0  -1  -3 1950.84 52.5290   3
   0   1   3 2034.93 67.9329   1
   0   1   3 1986.44 60.2306   3
   0   1   3 2006.89 63.7235   9
   0   1   3 2011.05 96.1683   5
   0   1   3 2008.80 53.7606   2
  -1  -1  -3 2406.00 71.0550   2
  -1  -1  -3 2362.34 60.8694   3
  -1  -1  -3 2383.27 53.0738   4
  -1  -1  -3 2389.34 64.7450   9
  -1  -1  -3 2372.85 68.5373   5
   1   1   3 2337.85 69.3566   9
   1   1   3 2453.11 67.2234   4
   1   1   3 2324.52 87.2971   5
   1   1   3 2407.30 95.9171   2
   1   1   3 2390.95 54.7502   3
  -2  -1  -3 2853.83 71.7004   4
  -2  -1  -3 2781.70 81.0070   2
  -2  -1  -3 2842.50 80.6805   9
  -2  -1  -3 2807.71 77.9636   5
  -2  -1  -3 2820.28 81.0567   3
   2   1   3 2820.08 89.4408   9
   2   1   3 2829.57 89.4545   3
   2   1   3 2826.00 108.414   5
   2   1   3 2788.75 64.0563   2
   2   1   3 2884.98 75.5384   4
  -3  -1  -3 3117.93 111.667   9
  -3  -1  -3 3292.83 77.6690   4
  -3  -1  -3 3215.31 86.1388   3
  -3  -1  -3 3179.58 46.9848   2
   3   1   3 3160.25 90.9874   4
   3   1   3 3151.75 78.3088   5
   3   1   3 3220.95 96.6145   8
   3   1   3 3236.23 97.9906  10
   3   1   3 3097.36 92.9291   2
   3   1   3 3156.68 51.7923   3
  -4  -1  -3 680.952 24.8005   1
  -4  -1  -3 710.076 20.9925   3
  -4  -1  -3 672.378 21.9481   2
  -4  -1  -3 700.721 12.9247   4
   4   1   3 674.563 12.8294   4
   4   1   3 678.284 13.7635   3
   4   1   3 687.913 18.0495   8
   4   1   3 671.093 17.6969  10
   4   1   3 653.291 15.5592   2
  -5  -1  -3 1147.98 35.0336   3
  -5  -1  -3 1153.54 33.0116   1
  -5  -1  -3 1176.25 30.8411   2
   5   1   3 1140.92 35.4569   3
   5   1   3 1153.82 24.1171   8
   5   1   3 1142.89 20.4583   4
   5   1   3 1126.64 25.5684  10
   5   1   3 1133.41 26.2213   2
  -6  -1  -3 1440.87 46.1433   2
  -6  -1  -3 1406.46 32.8223   1
  -6  -1  -3 1444.63 40.9559   3
   6   1   3 1418.54 30.5013   4
   6   1   3 1357.38 79.7412   3
   6   1   3 1437.86 27.1465  10
   6   1   3 1347.23 41.9033   2
   6   1   3 1467.12 25.1390   8
  -7  -1  -3 22.2055 2.81820   3
  -7  -1  -3 26.9709 3.21940   1
   7   1   3 29.9220 3.27812   3
   7   1   3 20.0614 3.67055   4
   7   1   3 29.4212 3.95435   8
   7   1   3 22.0089 4.00625  10
  -8  -1  -3 740.794 25.3747   1
  -8  -1  -3 756.935 41.4936   3
   8   1   3 768.043 22.7913   4
   8   1   3 757.074 19.7840  10
   8   1   3 767.188 18.3711   8
  -9  -1  -3 213.144 10.9309   1
  -9  -1  -3 207.226 9.48246   3
   9   1   3 218.984 9.03987   4
   9   1   3 204.189 9.64439  10
   9   1   3 231.554 10.3190   8
 -10  -1  -3 125.317 11.0002   1
  10   1   3 118.850 7.36360  10
  10   1   3 106.657 7.76509   8
  10   1   3 103.724 6.56347   4
 -11  -1  -3 214.987 15.2449   1
  11   1   3 197.909 16.0557   4
  11   1   3 202.784 12.5088   8
  11   1   3 201.431 13.3672  10
  11  -2  -3 94.2011 8.59268   8
  11  -2  -3 92.8072 9.34602  10
 -11   2   3 104.284 8.75765   1
  10  -2  -3 75.4770 6.02816   8
  10  -2  -3 83.7192 6.47458  10
 -10   2   3 60.1534 5.73920   6
 -10   2   3 71.2787 7.96199   1
   9  -2  -3 60.2663 5.83126   8
   9  -2  -3 66.3815 4.27495   9
   9  -2  -3 66.2470 6.24223  10
   9  -2  -3 71.5092 4.09658   5
  -9   2   3 63.9164 5.58608   1
   8  -2  -3 224.702 10.0071   9
   8  -2  -3 207.507 9.59948  10
   8  -2  -3 213.095 8.03996   8
   8  -2  -3 225.619 8.58164   5
  -8   2   3 217.944 15.0796   1
   7  -2  -3 232.730 7.11559   9
   7  -2  -3 239.081 9.22369   8
   7  -2  -3 238.110 7.28220   5
   7  -2  -3 251.946 9.67569  10
  -7   2   3 242.494 9.82235   1
   6  -2  -3 172.300 9.82347  10
   6  -2  -3 165.985 5.11306   5
   6  -2  -3 159.703 4.62445   9
   6  -2  -3 167.468 8.39950   8
  -6   2   3 147.523 7.92311   5
  -6   2   3 154.526 8.74512   1
   5  -2  -3 1021.66 15.4311   9
   5  -2  -3 1022.10 41.4060   5
   5  -2  -3 1017.34 18.7088  10
   5  -2  -3 999.218 17.0515   8
  -5   2   3 1037.66 20.8640   1
  -5   2   3 1016.26 42.2616   3
  -5   2   3 1088.17 31.5709   5
  -5   2   3 1036.50 73.1448   3
   4  -2  -3 663.322 27.2264   1
   4  -2  -3 681.797 19.0581   8
   4  -2  -3 687.013 28.7929   5
   4  -2  -3 686.736 10.3158   9
   4  -2  -3 667.178 17.5358  10
  -4   2   3 703.494 22.8014  10
  -4   2   3 660.778 22.0647   3
  -4   2   3 695.097 26.9864   5
  -4   2   3 686.595 12.3683   1
  -4   2   3 726.050 21.4889   8
   3  -2  -3 484.149 8.73846   5
   3  -2  -3 475.994 9.46918   9
   3  -2  -3 480.292 10.0677   1
  -3   2   3 486.441 12.6101   1
  -3   2   3 485.025 10.2980   6
  -3   2   3 503.096 11.2308   8
  -3   2   3 476.642 16.1304   5
  -3   2   3 501.193 10.0888  10
  -3   2   3 477.958 16.2616   3
   2  -2  -3 2754.11 73.8240   3
   2  -2  -3 2813.26 65.4763   9
   2  -2  -3 2800.81 63.7062   5
   2  -2  -3 2717.07 101.228   1
  -2   2   3 2837.92 80.8688   1
  -2   2   3 2758.74 94.2377   5
  -2   2   3 2825.12 62.8888   8
  -2   2   3 2897.30 88.3668   6
  -2   2   3 2786.11 50.5997   3
  -2   2   3 2784.98 85.8167  10
   1  -2  -3 2090.21 56.9854   5
   1  -2  -3 2109.95 59.5504   9
   1  -2  -3 2011.71 66.4667   1
   1  -2  -3 2043.97 53.5524   3
   1  -2  -3 2050.69 84.4338   6
  -1   2   3 2131.99 79.4915   7
  -1   2   3 2010.05 48.2851   3
  -1   2   3 2102.21 55.0004   1
  -1   2   3 2030.35 105.083   6
  -1   2   3 2076.99 75.4985   5
   0  -2  -3 1608.99 50.5146   1
   0  -2  -3 1657.02 46.8111   3
   0  -2  -3 1641.86 87.2136   7
   0  -2  -3 1688.26 41.0187   9
   0  -2  -3 1690.23 57.8299   5
   0  -2  -3 1629.45 71.2369   6
   0   2   3 1647.86 42.9884   5
   0   2   3 1675.08 60.6404   3
   0   2   3 1648.49 60.2611   2
   0   2   3 1659.68 58.5811   1
  -1  -2  -3 1171.10 36.4395   2
  -1  -2  -3 1153.37 38.2600   4
  -1  -2  -3 1168.64 50.6795   7
  -1  -2  -3 1187.10 37.9019   1
  -1  -2  -3 1208.09 31.3445   5
  -1  -2  -3 1162.45 31.7259   3
  -1  -2  -3 1180.93 26.9332   9
   1   2   3 1179.08 46.3196   3
   1   2   3 1144.51 47.9512   2
   1   2   3 1158.17 41.1207   4
   1   2   3 1157.97 39.9184   5
  -2  -2  -3 2699.19 77.4938   5
  -2  -2  -3 2715.79 54.3879   4
  -2  -2  -3 2734.43 70.4400   9
  -2  -2  -3 2652.29 55.7945   2
  -2  -2  -3 2690.24 70.5655   3
   2   2   3 2597.70 58.4075   2
   2   2   3 2677.60 75.7547   4
   2   2   3 2613.44 89.0856   3
   2   2   3 2620.28 84.0861   5
  -3  -2  -3 2201.82 57.1333   3
  -3  -2  -3 2238.45 69.3810   5
  -3  -2  -3 2168.35 65.1148   4
  -3  -2  -3 2266.67 76.7142   9
  -3  -2  -3 2187.01 56.0426   2
   3   2   3 2142.45 53.2797   4
   3   2   3 2102.45 67.3351   5
   3   2   3 2213.36 50.6681   3
   3   2   3 2100.19 56.5847   2
  -4  -2  -3 2475.44 79.7371   2
  -4  -2  -3 2527.34 74.4998   3
  -4  -2  -3 2475.29 94.9804   5
  -4  -2  -3 2480.80 81.2661   9
  -4  -2  -3 2518.64 38.1543   4
   4   2   3 2398.75 73.4311   8
   4   2   3 2414.01 61.1437   4
   4   2   3 2379.00 69.5113   2
   4   2   3 2479.00 103.605   3
   4   2   3 2394.95 73.9837  10
  -5  -2  -3 1227.32 26.0784   3
  -5  -2  -3 1175.93 32.3327   2
  -5  -2  -3 1218.09 29.9332   1
   5   2   3 1228.85 30.3759  10
   5   2   3 1188.99 41.7675   3
   5   2   3 1216.79 30.1091   8
   5   2   3 1170.06 30.3564   2
   5   2   3 1208.65 23.4442   4
  -6  -2  -3 545.831 21.5735   2
  -6  -2  -3 568.675 12.4528   3
  -6  -2  -3 571.937 12.2620   1
   6   2   3 588.605 14.2888   4
   6   2   3 553.287 29.2347   8
   6   2   3 544.726 35.1075   3
   6   2   3 572.252 28.7150  10
  -7  -2  -3 465.063 14.0657   1
  -7  -2  -3 452.212 17.4390   3
  -7  -2  -3 457.094 24.7265   2
   7   2   3 465.533 13.7605   8
   7   2   3 466.677 13.3266  10
   7   2   3 460.190 13.1810   4
  -8  -2  -3 582.391 31.9109   1
  -8  -2  -3 623.582 25.4750   3
   8   2   3 620.764 18.6040   4
   8   2   3 612.410 24.6306   8
   8   2   3 584.522 24.0212  10
  -9  -2  -3 215.378 12.6301   1
  -9  -2  -3 221.377 13.1650   3
   9   2   3 225.190 14.3348  10
   9   2   3 203.095 12.2279   4
   9   2   3 197.393 13.3114   8
 -10  -2  -3 451.570 20.5846   1
  10   2   3 472.422 15.9580   4
  10   2   3 447.568 24.8885  10
  10   2   3 443.700 23.6858   8
 -11  -2  -3 54.9990 6.55815   1
  11   2   3 51.8689 7.47830  10
  11   2   3 45.7229 5.74946   4
  11   2   3 69.2935 7.41943   8
  11  -3  -3 9.54892 4.97004   8
  11  -3  -3 14.6950 5.64079  10
 -11   3   3 22.7818 22.6039   1
  10  -3  -3 0.88483 5.85542  10
  10  -3  -3 6.53882 5.64278   8
 -10   3   3 -0.2639 4.40460   6
 -10   3   3 -0.7096 6.54814   1
   9  -3  -3 200.055 14.3174  10
   9  -3  -3 207.196 10.4379   5
   9  -3  -3 212.324 7.60982   9
   9  -3  -3 207.061 10.7240   8
  -9   3   3 207.362 12.5251   1
  -9   3   3 188.835 12.0780   6
   8  -3  -3 49.0576 4.27354   8
   8  -3  -3 54.4868 4.64114  10
   8  -3  -3 61.7884 4.32009   5
  -8   3   3 53.7952 4.39111   6
  -8   3   3 57.3296 5.09360   1
   7  -3  -3 52.4271 3.92455   8
   7  -3  -3 70.7513 3.64829   9
   7  -3  -3 60.1091 4.28183  10
   7  -3  -3 67.8188 4.18228   5
  -7   3   3 65.1421 4.74741   1
  -7   3   3 59.4098 3.93425   6
   6  -3  -3 722.525 18.6644   8
   6  -3  -3 700.087 13.0309   9
   6  -3  -3 688.754 19.1829  10
   6  -3  -3 676.839 15.4734   5
  -6   3   3 668.568 51.8203   1
  -6   3   3 682.174 24.8319   6
   5  -3  -3 319.999 6.71857   9
   5  -3  -3 323.054 10.2827   5
   5  -3  -3 324.765 11.8933  10
   5  -3  -3 335.839 11.2804   8
  -5   3   3 304.239 19.7300   1
  -5   3   3 320.136 7.97312   6
  -5   3   3 342.025 12.4514   5
   4  -3  -3 371.101 19.4333   1
   4  -3  -3 376.748 6.55843   5
   4  -3  -3 363.313 6.57333   9
  -4   3   3 394.245 15.5349  10
  -4   3   3 403.453 8.81491   1
  -4   3   3 410.469 18.6507   4
  -4   3   3 367.758 12.7994   6
  -4   3   3 388.213 15.5054   8
  -4   3   3 404.364 10.0493   5
   3  -3  -3 1681.39 30.6016   1
   3  -3  -3 1678.60 32.5509   5
   3  -3  -3 1619.59 37.7445   3
  -3   3   3 1708.58 40.8751   1
  -3   3   3 1671.99 27.9263  10
  -3   3   3 1724.45 29.7504   8
  -3   3   3 1666.70 31.3282   6
  -3   3   3 1763.91 50.8541   5
  -3   3   3 1750.38 95.9342   3
   2  -3  -3 1295.53 32.3024   6
   2  -3  -3 1268.76 25.7575   3
   2  -3  -3 1309.92 28.1781   5
   2  -3  -3 1313.37 33.0958   1
  -2   3   3 1349.48 28.1158   3
  -2   3   3 1357.05 30.9786   8
  -2   3   3 1360.04 34.6331  10
  -2   3   3 1347.71 32.9838   6
  -2   3   3 1391.47 46.3526   5
  -2   3   3 1349.45 38.5229   1
   1  -3  -3 1274.73 29.9434   3
   1  -3  -3 1302.65 53.6933   6
   1  -3  -3 1321.43 30.2307   5
   1  -3  -3 1311.70 39.9735   1
  -1   3   3 1380.83 29.3959   5
  -1   3   3 1366.18 50.6160   1
  -1   3   3 1406.52 60.7024   7
  -1   3   3 1375.83 35.0867   3
  -1   3   3 1381.20 43.0719   6
   0  -3  -3 4602.16 107.236   3
   0  -3  -3 4481.73 167.457   6
   0  -3  -3 4549.58 202.158   1
   0  -3  -3 4660.32 123.313   5
   0  -3  -3 4504.62 202.798   7
   0   3   3 4579.37 163.204   1
   0   3   3 4634.64 104.174   5
   0   3   3 4739.37 144.509   7
   0   3   3 4690.30 150.249   3
   0   3   3 4715.53 242.422   6
  -1  -3  -3 1502.61 40.4090   5
  -1  -3  -3 1476.14 59.3916   7
  -1  -3  -3 1506.75 65.9650   1
  -1  -3  -3 1487.64 39.9556   3
  -1  -3  -3 1480.02 73.3592   6
   1   3   3 1475.99 61.7268   5
   1   3   3 1499.72 90.1922   7
   1   3   3 1481.48 53.7416   3
   1   3   3 1497.77 57.6217   4
   1   3   3 1544.58 61.0370   1
   1   3   3 1484.68 57.6885   2
  -2  -3  -3 1971.53 44.3250   4
  -2  -3  -3 1999.26 74.7590   2
  -2  -3  -3 2095.13 43.0196   1
  -2  -3  -3 2000.14 75.3316   7
  -2  -3  -3 2000.68 46.8431   5
  -2  -3  -3 1983.92 54.2348   3
   2   3   3 1914.53 91.0359   2
   2   3   3 1992.94 87.2879   3
   2   3   3 1968.22 91.0543   4
   2   3   3 2083.60 57.1911   7
  -3  -3  -3 3390.95 84.9410   5
  -3  -3  -3 3457.85 131.394   4
  -3  -3  -3 3384.88 94.8906   7
  -3  -3  -3 3454.88 98.6297   2
  -3  -3  -3 3437.36 75.6508   3
   3   3   3 3352.46 87.6411   4
   3   3   3 3346.70 62.7778   3
   3   3   3 3232.07 89.0956   2
  -4  -3  -3 407.714 6.70422   2
  -4  -3  -3 415.245 9.84906   4
  -4  -3  -3 445.627 13.7907   7
  -4  -3  -3 412.622 11.4040   5
  -4  -3  -3 432.800 10.7931   3
   4   3   3 403.666 12.2981   8
   4   3   3 410.635 13.1629  10
   4   3   3 408.884 9.96324   3
   4   3   3 404.663 9.53822   4
  -5  -3  -3 1006.08 35.8708   2
  -5  -3  -3 1037.10 28.4346   4
  -5  -3  -3 983.329 26.2974   9
  -5  -3  -3 1012.01 19.6091   3
  -5  -3  -3 1004.88 16.7999   5
   5   3   3 955.479 43.6706   3
   5   3   3 964.745 19.2092  10
   5   3   3 972.383 17.4658   8
   5   3   3 961.349 17.2725   4
  -6  -3  -3 947.722 24.1652   1
  -6  -3  -3 951.606 32.5398   3
  -6  -3  -3 925.944 41.1792   2
   6   3   3 898.524 17.4269   4
   6   3   3 914.519 48.7942   3
   6   3   3 921.855 21.6448  10
   6   3   3 907.842 21.4136   8
  -7  -3  -3 133.460 7.56184   2
  -7  -3  -3 149.110 6.22343   1
  -7  -3  -3 141.392 5.49913   3
   7   3   3 146.190 5.33625   8
   7   3   3 145.984 5.83404  10
   7   3   3 142.613 5.51385   4
  -8  -3  -3 480.718 16.9156   1
  -8  -3  -3 505.550 16.6122   3
   8   3   3 478.396 12.4490   4
   8   3   3 502.314 15.0836   8
   8   3   3 500.116 14.5865  10
  -9  -3  -3 479.890 20.8345   1
  -9  -3  -3 495.463 24.3874   3
   9   3   3 478.954 18.8166   4
   9   3   3 448.847 13.2961   8
   9   3   3 461.600 14.1656  10
 -10  -3  -3 37.2723 4.81972   3
 -10  -3  -3 50.0604 5.54110   1
  10   3   3 45.0711 6.18741  10
  10   3   3 49.5811 4.98626   4
  10   3   3 50.4682 5.93493   8
 -11  -3  -3 100.035 8.40978   1
  11   3   3 83.3372 7.31244   4
  11   3   3 93.4692 6.91446  10
  11   3   3 83.7345 6.30058   8
  10  -4  -3 72.7746 6.81689  10
  10  -4  -3 66.1981 6.11227   8
 -10   4   3 61.0119 7.25366   6
 -10   4   3 74.7195 8.65839   1
   9  -4  -3 23.8378 4.20035   8
   9  -4  -3 24.2360 4.49336  10
   9  -4  -3 32.0187 3.82184   9
   9  -4  -3 31.4978 4.29650   5
  -9   4   3 29.0740 6.64610   1
  -9   4   3 17.7279 4.75690   6
   8  -4  -3 21.7379 2.67919   9
   8  -4  -3 17.9743 4.42538   8
   8  -4  -3 16.0270 4.67344  10
   8  -4  -3 24.5877 3.76686   5
  -8   4   3 28.0234 5.62059   1
  -8   4   3 12.8406 3.96851   6
   7  -4  -3 274.553 11.7378  10
   7  -4  -3 298.010 9.99763   8
   7  -4  -3 292.914 9.00250   9
   7  -4  -3 315.733 12.0884   5
  -7   4   3 307.828 12.6096   1
  -7   4   3 298.666 22.0106   6
   6  -4  -3 51.6273 3.35128   5
   6  -4  -3 47.2928 3.45056   8
   6  -4  -3 49.3005 3.36434   9
   6  -4  -3 51.9440 3.78466  10
  -6   4   3 44.1297 9.90168   1
  -6   4   3 38.0110 3.39131   6
   5  -4  -3 93.0818 5.56810   5
   5  -4  -3 86.4917 4.12574  10
   5  -4  -3 93.4784 4.06679   8
  -5   4   3 89.2315 4.46962   6
  -5   4   3 90.3842 5.09787   1
   4  -4  -3 1392.96 31.2260   5
  -4   4   3 1489.42 62.2673   4
  -4   4   3 1506.42 80.7474   5
  -4   4   3 1465.96 26.8615   6
  -4   4   3 1506.60 76.3229   8
  -4   4   3 1528.60 52.3743   1
  -4   4   3 1539.89 81.2396  10
   3  -4  -3 305.998 14.6065   1
   3  -4  -3 311.909 7.25388   5
   3  -4  -3 307.511 7.06638   3
  -3   4   3 317.323 16.1612   5
  -3   4   3 316.974 6.79769   6
  -3   4   3 303.916 10.4192   3
  -3   4   3 342.664 13.3564   8
  -3   4   3 342.097 8.33254   2
  -3   4   3 321.332 8.35493   1
  -3   4   3 324.513 11.9429  10
   2  -4  -3 884.526 17.7711   3
   2  -4  -3 899.563 34.2394   1
   2  -4  -3 930.346 19.1508   6
   2  -4  -3 881.984 19.8052   5
  -2   4   3 908.986 25.7979   8
  -2   4   3 938.465 19.0786   2
  -2   4   3 931.100 62.3766   3
  -2   4   3 915.276 28.5097  10
  -2   4   3 930.429 19.8234   5
  -2   4   3 913.339 20.0694   1
  -2   4   3 931.717 28.5009   7
  -2   4   3 936.778 26.7834   6
   1  -4  -3 2775.22 64.5808   5
   1  -4  -3 2773.32 57.5088   3
   1  -4  -3 2761.51 56.2850   1
   1  -4  -3 2770.04 66.3967   6
  -1   4   3 2892.34 87.6706   7
  -1   4   3 2822.94 73.9746   5
  -1   4   3 2896.17 84.3648   6
  -1   4   3 2881.04 75.0516   3
  -1   4   3 2961.21 177.024   2
  -1   4   3 2910.19 142.373   1
   0  -4  -3 102.262 3.79297   3
   0  -4  -3 99.0583 5.04948   1
   0  -4  -3 111.238 5.88634   6
   0  -4  -3 107.148 4.75548   7
   0  -4  -3 104.362 3.93071   5
   0   4   3 102.205 3.56954   6
   0   4   3 108.345 5.22442   2
   0   4   3 98.7745 3.81944   5
   0   4   3 107.515 3.70678   1
   0   4   3 104.391 3.29198   3
   0   4   3 109.919 4.83133   7
  -1  -4  -3 1125.46 27.7226   3
  -1  -4  -3 1171.81 43.0162   1
  -1  -4  -3 1130.64 34.7562   7
  -1  -4  -3 1113.28 29.7219   6
  -1  -4  -3 1110.22 24.2764   5
   1   4   3 1144.59 30.0114   6
   1   4   3 1148.91 36.2636   1
   1   4   3 1127.32 42.5114   3
   1   4   3 1121.29 34.4237   4
   1   4   3 1169.22 28.3355   7
   1   4   3 1117.23 57.8071   2
  -2  -4  -3 1932.91 41.9399   3
  -2  -4  -3 1936.26 48.3022   7
  -2  -4  -3 1964.63 42.0993   5
  -2  -4  -3 1952.85 59.8587   6
  -2  -4  -3 2014.43 33.8656   1
  -2  -4  -3 1950.09 61.6145   4
   2   4   3 1960.86 72.5812   3
   2   4   3 1896.47 88.6059   4
   2   4   3 1947.58 50.4332   7
  -3  -4  -3 915.870 15.0327   5
  -3  -4  -3 933.587 21.3803   3
  -3  -4  -3 934.961 25.0457   6
  -3  -4  -3 930.203 24.5907   7
  -3  -4  -3 959.819 24.3314   4
   3   4   3 907.039 27.1421   4
   3   4   3 951.112 18.3014   3
   3   4   3 914.558 30.2261   7
  -4  -4  -3 417.045 8.51565   3
  -4  -4  -3 400.371 7.53282   5
  -4  -4  -3 403.682 12.4626   2
  -4  -4  -3 425.566 12.9715   7
  -4  -4  -3 407.371 15.9297   4
   4   4   3 399.426 9.96280   8
   4   4   3 409.338 8.99207   4
   4   4   3 384.962 13.2249   3
   4   4   3 401.293 11.6035  10
  -5  -4  -3 804.036 13.9155   5
  -5  -4  -3 849.531 19.5305   4
  -5  -4  -3 836.003 19.5372   3
  -5  -4  -3 812.932 32.4909   2
   5   4   3 826.629 18.8046   4
   5   4   3 807.802 37.0328   3
   5   4   3 808.837 15.3863  10
   5   4   3 807.481 14.0543   8
  -6  -4  -3 118.817 4.73961   3
  -6  -4  -3 111.192 4.59202   2
  -6  -4  -3 127.368 29.3114   9
  -6  -4  -3 112.412 4.30120   5
   6   4   3 114.900 4.61499   8
   6   4   3 109.609 4.78019  10
   6   4   3 103.826 4.18743   4
  -7  -4  -3 647.808 19.0381   3
  -7  -4  -3 630.295 17.2726   1
  -7  -4  -3 650.144 38.5133   9
  -7  -4  -3 629.353 32.3636   5
  -7  -4  -3 639.034 41.1001   2
  -7  -4  -3 642.297 39.9429   5
   7   4   3 659.098 20.0477   8
   7   4   3 632.034 20.2523   4
   7   4   3 644.143 18.3616  10
  -8  -4  -3 350.643 14.9367   3
  -8  -4  -3 343.593 11.0635   1
   8   4   3 338.887 11.3799   4
   8   4   3 350.497 9.50645  10
   8   4   3 325.927 8.49060   8
  -9  -4  -3 176.420 11.4249   1
  -9  -4  -3 182.396 9.60406   3
   9   4   3 177.571 9.37465  10
   9   4   3 169.828 7.80282   8
   9   4   3 182.451 7.58167   4
 -10  -4  -3 174.434 28.7590   3
 -10  -4  -3 140.612 9.47939   1
  10   4   3 152.261 9.40491  10
  10   4   3 135.550 10.0964   4
  10   4   3 135.592 8.83547   8
 -11  -4  -3 76.7753 7.01508   1
  11   4   3 63.4691 7.97167   4
  11   4   3 72.7620 8.32653   8
  11   4   3 70.4438 9.14003  10
  10  -5  -3 8.19438 5.06800  10
  10  -5  -3 3.66938 4.75605   8
 -10   5   3 5.26181 5.82562   1
   9  -5  -3 -1.6369 3.64513   9
   9  -5  -3 -0.1571 2.75513   5
   9  -5  -3 -2.0836 5.20299   8
   9  -5  -3 -5.0951 5.53402  10
  -9   5   3 -0.6840 6.44838   1
  -9   5   3 1.88337 4.90024   6
   8  -5  -3 108.727 7.04080  10
   8  -5  -3 111.495 6.83650   8
   8  -5  -3 120.326 7.50579   5
   8  -5  -3 122.254 4.97678   9
  -8   5   3 125.703 7.06230   6
  -8   5   3 140.165 10.3583   1
   7  -5  -3 0.98084 3.50078   8
   7  -5  -3 0.97872 3.70177  10
   7  -5  -3 4.88126 2.34730   5
   7  -5  -3 6.14143 2.21792   9
  -7   5   3 2.18975 3.47249   1
  -7   5   3 3.55271 12.0659   6
   6  -5  -3 13.1267 2.81183  10
   6  -5  -3 13.7261 2.60689   5
   6  -5  -3 18.6878 2.88741   8
  -6   5   3 8.82694 3.29433   6
  -6   5   3 18.3586 6.06999   1
   5  -5  -3 294.382 9.29376   5
  -5   5   3 290.720 10.3014   6
  -5   5   3 316.718 13.7270   1
   4  -5  -3 212.860 6.17281   3
   4  -5  -3 211.536 7.23544   5
  -4   5   3 233.840 10.3013   1
  -4   5   3 233.585 10.3712   6
   3  -5  -3 372.819 8.11310   5
   3  -5  -3 366.566 8.61707   6
   3  -5  -3 358.404 12.7749   3
  -3   5   3 397.851 12.0795  10
  -3   5   3 395.324 17.1071   4
  -3   5   3 374.132 16.0666   6
  -3   5   3 379.774 11.7046   8
  -3   5   3 356.708 24.0637   1
   2  -5  -3 599.942 13.0108   6
   2  -5  -3 607.854 19.7333   3
   2  -5  -3 592.641 30.3078   1
   2  -5  -3 615.647 11.6499   5
  -2   5   3 635.117 33.5220   2
  -2   5   3 625.543 20.3730  10
  -2   5   3 623.642 30.1770   6
  -2   5   3 629.227 19.2914   7
  -2   5   3 629.001 19.6886   8
  -2   5   3 620.186 13.2002   1
  -2   5   3 616.879 27.8942   3
   1  -5  -3 459.198 9.87577   5
   1  -5  -3 460.406 11.3894   1
   1  -5  -3 476.411 16.0080   6
   1  -5  -3 470.459 9.95533   3
  -1   5   3 481.614 19.4967   8
  -1   5   3 468.746 20.3086   1
  -1   5   3 484.135 20.0632  10
  -1   5   3 466.977 14.2627   3
  -1   5   3 487.616 13.3936   6
  -1   5   3 500.018 14.4795   7
  -1   5   3 465.235 12.1376   2
   0  -5  -3 322.737 8.05564   7
   0  -5  -3 328.512 8.31731   5
   0  -5  -3 311.182 8.99088   1
   0  -5  -3 309.521 7.67704   3
   0  -5  -3 320.161 9.20270   6
   0   5   3 306.197 10.6713   3
   0   5   3 314.247 12.1464   2
   0   5   3 317.652 10.8202   6
   0   5   3 324.234 9.67820   7
   0   5   3 319.625 8.74284   1
  -1  -5  -3 1018.62 34.2499   1
  -1  -5  -3 993.882 23.0932   5
  -1  -5  -3 1003.13 25.7439   3
  -1  -5  -3 1004.13 27.8569   7
  -1  -5  -3 973.387 22.3619   6
   1   5   3 948.523 63.7109   3
   1   5   3 990.212 75.7424   1
   1   5   3 952.942 21.4617   2
   1   5   3 998.970 40.0904   6
   1   5   3 998.917 40.1288   7
   1   5   3 994.478 25.2357   4
  -2  -5  -3 387.483 12.7434   7
  -2  -5  -3 400.624 11.8371   3
  -2  -5  -3 371.638 7.22981   5
  -2  -5  -3 413.714 15.7203   1
  -2  -5  -3 399.540 8.77894   6
   2   5   3 383.234 6.07974   4
   2   5   3 412.837 15.1464   6
   2   5   3 399.753 12.5957   3
   2   5   3 389.747 12.3096   7
   2   5   3 376.072 17.3651   2
  -3  -5  -3 1267.42 34.3142   5
  -3  -5  -3 1266.11 51.6773   7
  -3  -5  -3 1319.15 42.8029   1
  -3  -5  -3 1263.11 44.0764   6
  -3  -5  -3 1266.06 34.2121   4
  -3  -5  -3 1276.96 23.7349   3
   3   5   3 1232.92 36.9066   3
   3   5   3 1219.67 23.3428   4
   3   5   3 1257.14 29.1540   7
  -4  -5  -3 331.071 12.8307   4
  -4  -5  -3 335.953 7.17804   5
  -4  -5  -3 346.862 19.7694   7
  -4  -5  -3 334.332 10.1432   3
   4   5   3 330.195 14.7671   7
   4   5   3 333.722 6.58635  10
   4   5   3 340.066 6.04897   8
   4   5   3 329.877 10.5452   4
  -5  -5  -3 270.122 13.8172   2
  -5  -5  -3 279.145 11.6917   4
  -5  -5  -3 257.421 10.2231   3
  -5  -5  -3 261.388 5.83417   2
   5   5   3 285.475 6.21504  10
   5   5   3 261.366 5.70869   8
   5   5   3 275.074 7.63112   4
  -6  -5  -3 817.651 29.4677   9
  -6  -5  -3 814.870 45.5466   2
  -6  -5  -3 835.333 27.1419   3
   6   5   3 789.066 18.3174   8
   6   5   3 775.040 15.7134   4
   6   5   3 803.641 22.8489  10
  -7  -5  -3 326.939 22.7768   5
  -7  -5  -3 348.200 16.2892   3
  -7  -5  -3 290.100 22.4262   5
  -7  -5  -3 321.791 15.7684   2
  -7  -5  -3 325.506 17.4321   9
   7   5   3 342.365 11.5232   8
   7   5   3 347.543 13.1775  10
   7   5   3 342.791 9.30973   4
  -8  -5  -3 191.865 8.32885   3
   8   5   3 199.125 7.79793  10
   8   5   3 199.942 8.26528   8
   8   5   3 198.684 7.85532   4
  -9  -5  -3 188.582 8.51629   1
  -9  -5  -3 190.162 11.7610   3
   9   5   3 194.320 10.1305   8
   9   5   3 179.097 8.81369  10
   9   5   3 185.167 8.66157   4
 -10  -5  -3 71.8435 7.49224   3
 -10  -5  -3 75.2368 6.39098   1
  10   5   3 79.1083 11.6519  10
  10   5   3 75.0688 6.48207   4
  10   5   3 93.4413 10.7527   8
 -11  -5  -3 21.8776 5.63962   1
  11   5   3 20.8143 6.35565  10
  11   5   3 14.5493 5.99779   4
  11   5   3 20.6219 5.96839   8
  -9   6   3 23.3624 6.23078   1
  -9   6   3 20.3968 4.74970   6
   8  -6  -3 2.70720 3.71875   8
   8  -6  -3 -2.9341 3.56685  10
   8  -6  -3 -3.1546 3.69374   5
   8  -6  -3 0.42617 3.53321   9
  -8   6   3 -1.2274 4.85161   6
  -8   6   3 0.37652 4.74563   1
   7  -6  -3 2.81529 3.67838   5
  -7   6   3 6.43015 21.0026   6
  -7   6   3 6.47012 5.72058   1
   6  -6  -3 300.827 15.3095   5
  -6   6   3 274.887 12.6290   6
  -6   6   3 284.608 21.4274   1
   5  -6  -3 8.03890 2.48278   5
  -5   6   3 11.0493 3.45457   6
  -5   6   3 11.7193 3.34356   1
   4  -6  -3 566.753 19.2210   5
   4  -6  -3 525.588 18.7975   3
  -4   6   3 549.970 16.1939   6
  -4   6   3 549.016 34.7577   1
   3  -6  -3 414.071 42.0860   3
   3  -6  -3 399.048 13.6077   5
   3  -6  -3 394.359 27.0888   6
  -3   6   3 416.826 25.5315  10
  -3   6   3 415.029 28.3092   4
  -3   6   3 404.322 21.3098   8
  -3   6   3 399.994 12.5847   1
  -3   6   3 426.330 13.7240   7
  -3   6   3 402.654 11.0503   6
   2  -6  -3 21.1356 2.54478   6
   2  -6  -3 25.5953 3.16265   5
   2  -6  -3 21.1038 1.99405   3
  -2   6   3 21.6295 2.18628  10
  -2   6   3 21.5618 2.45678   2
  -2   6   3 16.5797 2.72102   1
  -2   6   3 13.8840 2.07108   7
  -2   6   3 21.8233 2.04779   8
  -2   6   3 16.9201 2.34443   6
   1  -6  -3 190.400 5.80084   5
   1  -6  -3 201.102 7.25245   6
   1  -6  -3 191.172 5.34768   3
  -1   6   3 196.543 7.96649   1
  -1   6   3 177.836 16.6366   3
  -1   6   3 187.964 10.1848  10
  -1   6   3 183.622 10.5787   2
  -1   6   3 198.626 7.07756   6
  -1   6   3 186.444 9.48225   8
  -1   6   3 197.814 9.10501   7
   0  -6  -3 304.768 6.54803   3
   0  -6  -3 289.753 6.95736   6
   0  -6  -3 280.924 9.95961   1
   0  -6  -3 300.051 7.20538   5
   0   6   3 320.713 11.8408   6
   0   6   3 287.983 10.2806   3
   0   6   3 291.513 12.1892   2
   0   6   3 291.198 7.84778   1
   0   6   3 306.520 15.5507   7
  -1  -6  -3 372.827 18.2025   1
  -1  -6  -3 373.783 8.17539   3
  -1  -6  -3 383.891 13.3587   7
  -1  -6  -3 386.897 12.7315   5
  -1  -6  -3 388.966 11.9504   6
   1   6   3 386.681 14.5081   6
   1   6   3 391.550 9.32841   1
   1   6   3 371.523 18.1114   4
   1   6   3 384.533 12.7758   3
   1   6   3 353.373 10.8965   2
   1   6   3 377.009 14.3458   7
  -2  -6  -3 527.801 20.0083   1
  -2  -6  -3 480.851 21.3160   6
  -2  -6  -3 511.907 24.0928   7
  -2  -6  -3 519.399 15.1697   3
  -2  -6  -3 503.220 10.5700   5
   2   6   3 496.141 18.4339   4
   2   6   3 498.519 21.6742   2
   2   6   3 506.519 26.5994   6
   2   6   3 510.968 25.0631   7
   2   6   3 504.136 18.1703   3
  -3  -6  -3 553.174 11.8139   3
  -3  -6  -3 579.893 13.6114   4
   3   6   3 541.943 13.3069  10
   3   6   3 543.903 12.9894   8
   3   6   3 559.350 20.6548   7
   3   6   3 543.439 11.3996   4
  -4  -6  -3 57.6585 3.65573   3
  -4  -6  -3 49.2366 2.90519   4
   4   6   3 62.9729 3.02918  10
   4   6   3 59.2444 2.86210   4
   4   6   3 60.8258 2.85729   8
   4   6   3 62.9763 3.83915   7
  -5  -6  -3 507.840 20.4158   4
  -5  -6  -3 480.607 19.3681   3
   5   6   3 475.683 8.68027  10
   5   6   3 472.472 28.2189   7
   5   6   3 482.957 8.24338   8
   5   6   3 482.083 13.1275   4
  -6  -6  -3 242.088 11.5833   9
  -6  -6  -3 265.042 13.7827   2
  -6  -6  -3 265.739 9.18991   3
  -6  -6  -3 247.143 16.7282   2
   6   6   3 270.478 9.45056  10
   6   6   3 265.868 8.99844   8
   6   6   3 263.688 9.53211   4
  -7  -6  -3 44.1408 2.76085   2
  -7  -6  -3 43.5078 4.19999   3
   7   6   3 57.4606 4.51313  10
   7   6   3 57.8811 3.74535   4
   7   6   3 53.8053 4.14468   8
  -8  -6  -3 143.614 7.75837   3
   8   6   3 145.705 6.45233   8
   8   6   3 149.695 6.42593   4
   8   6   3 137.191 6.58465  10
  -9  -6  -3 37.7942 5.89792   3
  -9  -6  -3 31.6671 5.76097   1
   9   6   3 53.4554 6.82711   8
   9   6   3 49.3536 6.30395  10
   9   6   3 50.4015 6.43991   4
 -10  -6  -3 15.5423 5.69945   3
 -10  -6  -3 18.5846 4.81339   1
  10   6   3 17.9964 4.00015   4
  10   6   3 18.9038 5.45056  10
  10   6   3 19.4594 5.04666   8
 -11  -6  -3 37.9444 7.30556   3
 -11  -6  -3 48.0127 7.96945   1
  11   6   3 53.1589 6.33228   4
  11   6   3 73.1629 6.00372   8
  11   6   3 55.8673 6.28413  10
   8  -7  -3 15.9833 6.34559   5
   8  -7  -3 11.3521 4.25220   9
  -8   7   3 2.53482 4.06541   6
  -8   7   3 0.91793 7.11100   1
   7  -7  -3 91.8655 6.27632   5
  -7   7   3 81.4756 5.68557   6
  -7   7   3 79.9334 7.35642   1
   6  -7  -3 3.17639 2.75571   5
  -6   7   3 0.13921 3.02236   6
  -6   7   3 9.09486 4.11589   1
   5  -7  -3 21.3636 4.01058   5
  -5   7   3 21.4518 4.39010   6
  -5   7   3 19.2890 5.20170   1
   4  -7  -3 427.628 18.9630   3
   4  -7  -3 448.435 17.0736   5
  -4   7   3 421.365 18.8930   1
  -4   7   3 460.694 27.0208   6
   3  -7  -3 71.7742 4.85228   5
   3  -7  -3 84.4773 3.61081   3
  -3   7   3 80.4082 6.03299   4
  -3   7   3 88.5434 5.81874   1
  -3   7   3 75.5826 4.27447   6
  -3   7   3 82.6231 4.99143   8
  -3   7   3 77.5090 6.06511  10
  -3   7   3 80.4217 4.47180   7
   2  -7  -3 101.783 3.73892   3
   2  -7  -3 100.928 4.70430   5
  -2   7   3 98.1553 5.00188   1
  -2   7   3 96.0014 7.32712   4
  -2   7   3 101.546 5.87458   8
  -2   7   3 86.3365 5.78877   7
  -2   7   3 98.3841 5.37251   6
  -2   7   3 102.315 6.29672  10
   1  -7  -3 416.761 12.0297   3
   1  -7  -3 418.055 13.4191   5
  -1   7   3 437.545 14.6326   6
  -1   7   3 404.005 22.6888   2
  -1   7   3 420.341 18.2722   8
  -1   7   3 423.679 22.6673   1
  -1   7   3 428.865 21.8886  10
  -1   7   3 400.195 14.3417   7
   0  -7  -3 133.088 4.51442   3
   0  -7  -3 115.382 4.98251   5
   0   7   3 118.771 6.36792   6
   0   7   3 119.649 7.48537   8
   0   7   3 123.203 4.00030   2
   0   7   3 112.445 7.51022  10
   0   7   3 109.522 5.87452   3
   0   7   3 119.522 5.94413   1
   0   7   3 113.779 5.67096   7
  -1  -7  -3 372.429 8.99912   5
  -1  -7  -3 380.765 9.13455   3
   1   7   3 349.809 22.7063   1
   1   7   3 359.326 12.6312   2
   1   7   3 365.272 12.6967   6
   1   7   3 378.967 16.8142   4
   1   7   3 365.382 13.6812   7
  -2  -7  -3 221.941 6.98145   3
  -2  -7  -3 231.164 7.11896   5
   2   7   3 226.675 10.0783   2
   2   7   3 225.665 6.92144   4
   2   7   3 215.383 15.6614   6
   2   7   3 214.699 13.0595   7
  -3  -7  -3 23.9278 3.58892   3
   3   7   3 23.2354 1.21533   2
   3   7   3 22.5078 1.82275   4
   3   7   3 12.6683 3.46268   7
   3   7   3 14.8130 3.60256   6
   3   7   3 22.3187 2.13418  10
   3   7   3 22.9723 1.98399   8
  -4  -7  -3 331.688 9.88878   4
  -4  -7  -3 327.952 13.6669   3
   4   7   3 342.367 15.0889   7
   4   7   3 324.605 6.71754   4
   4   7   3 334.933 14.4147  10
   4   7   3 339.759 12.0883   8
  -5  -7  -3 118.553 6.04464   3
  -5  -7  -3 127.638 5.81629   4
   5   7   3 135.219 4.64759   8
   5   7   3 139.532 5.10741  10
   5   7   3 123.359 7.78682   7
   5   7   3 133.355 4.96542   4
  -6  -7  -3 48.6939 4.36631   3
   6   7   3 51.1970 3.84643  10
   6   7   3 52.4435 3.63168   8
   6   7   3 58.6463 3.28902   4
   6   7   3 55.0332 4.80378   7
  -7  -7  -3 167.216 8.53600   3
   7   7   3 189.528 6.20506   4
   7   7   3 187.846 8.53277   8
   7   7   3 179.012 8.32161  10
  -8  -7  -3 35.6264 6.10809   3
   8   7   3 45.1394 4.93960  10
   8   7   3 38.0937 4.23916   8
   8   7   3 39.9423 4.45760   4
  -9  -7  -3 18.8301 7.51398   3
   9   7   3 30.7981 5.05709  10
   9   7   3 41.8889 4.97797   8
   9   7   3 35.9152 3.95124   4
 -10  -7  -3 55.5057 7.52754   3
 -10  -7  -3 61.7453 7.60378   1
  10   7   3 86.0895 6.15070   8
  10   7   3 72.1126 5.73251  10
  10   7   3 65.9437 5.48509   4
 -11  -7  -3 0.32802 6.88646   3
 -11  -7  -3 7.96453 5.44054   1
  11   7   3 6.77650 4.34457   8
  11   7   3 -0.8443 5.58752   4
  11   7   3 7.10123 4.35939  10
   8  -8  -3 11.8129 5.58286   5
  -8   8   3 9.56828 6.70624   1
  -8   8   3 3.25132 4.94084   6
   7  -8  -3 0.13264 4.91652   5
  -7   8   3 -2.9609 5.90072   6
  -7   8   3 0.00000 7.14580   1
   6  -8  -3 6.43970 3.40129   5
  -6   8   3 21.0715 7.16065   1
  -6   8   3 -1.9191 5.16693   6
   5  -8  -3 42.8942 5.19030   5
  -5   8   3 35.7081 4.47901   7
  -5   8   3 39.2870 6.38682   1
  -5   8   3 29.9947 4.31546   6
   4  -8  -3 47.9767 3.71030   3
   4  -8  -3 48.2659 4.33739   5
  -4   8   3 42.8391 5.29059   6
  -4   8   3 59.5961 6.41734   1
  -4   8   3 45.6250 4.33416   7
   3  -8  -3 4.42352 1.95081   3
   3  -8  -3 -3.8836 3.49770   5
  -3   8   3 2.08080 4.43619   1
  -3   8   3 2.66925 2.87209   7
  -3   8   3 8.79122 3.60906  10
  -3   8   3 3.23119 2.92164   6
  -3   8   3 4.56352 3.56600   4
  -3   8   3 2.08896 3.18142   8
   2  -8  -3 29.4270 2.94707   3
   2  -8  -3 27.5082 4.11902   5
  -2   8   3 27.8706 3.53112   7
  -2   8   3 27.7439 2.97398   4
  -2   8   3 21.1254 3.61806   1
  -2   8   3 26.4054 3.10827   8
  -2   8   3 29.2008 3.42954  10
  -2   8   3 25.5807 4.42822   6
   1  -8  -3 32.9302 3.23129   3
   1  -8  -3 35.0879 4.33146   5
  -1   8   3 35.3830 3.54438   7
  -1   8   3 35.8573 4.58480   6
  -1   8   3 34.9657 3.21663   4
  -1   8   3 31.0751 3.39936  10
  -1   8   3 32.6938 3.39039   8
  -1   8   3 36.5921 4.63714   1
   0  -8  -3 304.245 11.2610   3
   0  -8  -3 304.246 9.83314   5
   0   8   3 301.486 16.1719   8
   0   8   3 317.085 14.8351   7
   0   8   3 310.520 17.5506  10
   0   8   3 309.012 14.7978   6
   0   8   3 304.549 15.3744   4
   0   8   3 313.651 10.9840   2
   0   8   3 299.278 15.6107   1
  -1  -8  -3 86.9729 4.82078   3
  -1  -8  -3 84.6443 4.66931   5
   1   8   3 94.6234 5.40634   8
   1   8   3 85.6031 5.62327   7
   1   8   3 82.9978 5.00309   4
   1   8   3 95.1295 5.55104  10
   1   8   3 87.2946 3.43520   2
   1   8   3 78.7805 5.18676   6
   1   8   3 91.9418 5.16417   1
  -2  -8  -3 38.0339 4.06257   3
   2   8   3 31.1191 4.33590   7
   2   8   3 32.9762 3.77867   6
   2   8   3 44.0822 2.23333   4
   2   8   3 45.9707 2.51134   2
  -3  -8  -3 293.326 10.4839   3
   3   8   3 302.658 15.2484   2
   3   8   3 307.347 11.5917   8
   3   8   3 294.729 11.2557   4
   3   8   3 291.070 18.0359   7
   3   8   3 302.097 10.1834  10
   3   8   3 286.467 22.5119   6
  -4  -8  -3 82.3315 5.60319   3
   4   8   3 90.0406 3.31095  10
   4   8   3 86.0246 3.26894   8
   4   8   3 81.9817 3.83460   4
   4   8   3 82.1889 6.04292   7
  -5  -8  -3 -1.6766 3.72958   3
  -5  -8  -3 1.69143 2.17586   4
   5   8   3 4.40554 2.10710   4
   5   8   3 4.48174 2.29734  10
   5   8   3 4.27761 2.19223   8
   5   8   3 -2.6254 2.95599   7
  -6  -8  -3 161.724 9.95959   3
   6   8   3 193.313 6.03647  10
   6   8   3 181.877 6.62025   8
   6   8   3 187.621 7.41249   4
   6   8   3 156.917 14.2636   7
  -7  -8  -3 7.90054 3.65821   3
   7   8   3 15.3812 3.20539   8
   7   8   3 18.7951 3.48181  10
   7   8   3 16.5722 2.65241   4
   7   8   3 11.5329 4.12367   7
  -8  -8  -3 0.00000 5.07758   3
   8   8   3 0.40603 2.48409  10
   8   8   3 1.08440 2.39297   8
   8   8   3 2.24429 2.37666   4
  -9  -8  -3 73.9399 7.88691   3
   9   8   3 78.8630 5.79209   8
   9   8   3 87.4674 6.31525  10
   9   8   3 81.4436 6.15360   4
 -10  -8  -3 4.40715 4.66166   1
 -10  -8  -3 -0.3278 4.79205   3
  10   8   3 9.65265 3.79315   4
  10   8   3 9.09516 5.37881  10
  10   8   3 9.94869 5.21005   8
  11   8   3 11.3491 5.84905   4
   7  -9  -3 23.7501 6.64528   5
  -7   9   3 15.8210 6.53565   1
  -7   9   3 9.81637 12.6315   6
  -7   9   3 11.9104 5.61616   7
   6  -9  -3 3.77808 3.75922   5
  -6   9   3 -3.3754 7.31147   1
  -6   9   3 -3.2246 4.38768   6
  -6   9   3 1.86444 4.31972   7
   5  -9  -3 2.93024 8.83609   5
  -5   9   3 0.02732 4.70810   1
  -5   9   3 2.42095 5.80798   7
  -5   9   3 2.16382 4.01281   6
   4  -9  -3 9.68544 4.78186   5
  -4   9   3 6.51118 3.81826   7
  -4   9   3 9.92664 5.96944   1
  -4   9   3 9.99019 5.74417   6
   3  -9  -3 30.5841 3.48872   3
   3  -9  -3 30.5923 4.12779   5
  -3   9   3 30.4747 5.98616   1
  -3   9   3 31.0877 5.47913   6
  -3   9   3 32.1039 4.36044   7
   2  -9  -3 7.78065 2.81775   3
   2  -9  -3 4.77770 2.87569   5
  -2   9   3 3.98863 3.44866   7
  -2   9   3 3.74607 3.33557   6
  -2   9   3 6.32161 3.54102   1
   1  -9  -3 9.11916 3.10152   5
   1  -9  -3 8.10071 2.96954   3
  -1   9   3 4.98950 4.63528   6
  -1   9   3 4.22924 3.20741   7
  -1   9   3 8.61260 3.38716   1
   0  -9  -3 42.5016 4.02723   3
   0  -9  -3 32.2724 4.69190   5
   0   9   3 34.8667 3.19710   4
   0   9   3 26.6492 5.38485   6
   0   9   3 36.6611 3.26134   8
   0   9   3 39.3752 2.99912   4
   0   9   3 36.5344 3.56255  10
   0   9   3 38.5970 4.26561   7
   0   9   3 37.8975 5.56527   1
  -1  -9  -3 -1.3779 3.21929   3
  -1  -9  -3 -0.2674 1.36115   2
  -1  -9  -3 -0.0566 2.52385   5
   1   9   3 1.38594 1.31009   8
   1   9   3 0.39850 0.65294   4
   1   9   3 3.15465 2.86232   1
   1   9   3 0.31555 4.64311   6
   1   9   3 1.36335 2.11233   2
   1   9   3 3.06201 3.10544   7
   1   9   3 3.27785 1.05451   4
   1   9   3 2.76628 1.38068  10
  -2  -9  -3 46.5129 4.75513   5
  -2  -9  -3 50.9493 2.98833   2
  -2  -9  -3 45.7303 5.08568   3
   2   9   3 55.1074 4.71241   7
   2   9   3 55.2135 2.64607  10
   2   9   3 56.2028 2.47219   8
   2   9   3 47.8331 4.71734   6
   2   9   3 52.3927 2.54105   4
   2   9   3 55.3730 3.09410   2
  -3  -9  -3 2.24157 3.67716   3
  -3  -9  -3 3.33244 1.20532   2
   3   9   3 6.96506 2.02359   2
   3   9   3 -2.0107 3.15487   7
   3   9   3 6.61723 1.43575   8
   3   9   3 7.41434 1.48023   4
   3   9   3 5.78635 1.47192  10
   3   9   3 1.88365 3.41874   6
  -4  -9  -3 2.50480 2.87803   3
   4   9   3 3.55206 2.01838  10
   4   9   3 2.98289 1.95612   4
   4   9   3 -5.1479 4.82102   7
   4   9   3 -0.7844 3.63817   6
   4   9   3 5.71483 1.98861   8
   5   9   3 35.8036 3.04912   4
   5   9   3 32.7589 2.72511  10
   5   9   3 26.4664 5.71427   7
   5   9   3 36.2911 2.65142   8
  -6  -9  -3 -4.0265 3.26149   3
   6   9   3 -3.4866 5.34951   7
   6   9   3 -0.0547 3.35755   8
   6   9   3 2.43557 3.25040   4
   6   9   3 -1.2215 3.51736  10
  -7  -9  -3 4.21664 5.16691   3
   7   9   3 4.95377 2.94483   8
   7   9   3 4.10509 2.88713   4
   7   9   3 0.24967 4.08011   7
   7   9   3 6.16863 3.17921  10
  -8  -9  -3 18.6729 6.23517   3
   8   9   3 18.8290 3.02271   8
   8   9   3 17.3148 5.20985   7
   8   9   3 20.8719 4.05828   4
   8   9   3 23.4232 3.36959  10
  -9  -9  -3 0.57922 4.58143   3
   9   9   3 3.13322 4.28653   8
   9   9   3 1.36178 4.34621  10
   9   9   3 2.68761 4.08842   4
 -10  -9  -3 -3.7958 5.53374   3
  10   9   3 5.30792 3.71348   8
  10   9   3 6.17762 4.92524   4
  10   9   3 2.03211 3.69840  10
   6 -10  -3 21.0852 6.59271   5
  -6  10   3 6.43462 5.71045   7
  -6  10   3 6.09057 6.28056   1
  -6  10   3 7.58365 5.59387   6
   5 -10  -3 -4.3237 5.49649   5
  -5  10   3 -0.2055 5.27985   6
  -5  10   3 2.12796 7.02947   7
  -5  10   3 -2.0967 5.31141   1
   4 -10  -3 5.88784 4.03523   5
  -4  10   3 7.40905 4.98548   1
  -4  10   3 8.86263 4.74200   7
  -4  10   3 6.46868 6.48361   6
   3 -10  -3 25.7513 5.71409   3
   3 -10  -3 26.9021 4.48758   5
  -3  10   3 18.2506 6.52412   6
  -3  10   3 16.3923 6.35830   7
  -3  10   3 21.1506 6.45906   1
   2 -10  -3 4.34563 3.39850   3
   2 -10  -3 0.27290 3.10965   5
  -2  10   3 1.10142 5.91510   6
  -2  10   3 1.69355 3.88262   1
  -2  10   3 1.99108 5.50429   7
   1 -10  -3 8.29995 3.62161   3
   1 -10  -3 4.72983 4.77906   5
  -1  10   3 2.93173 5.83313   6
  -1  10   3 12.7313 5.46100   1
  -1  10   3 12.1202 4.29873   7
   0 -10  -3 1.71975 2.52185   3
   0 -10  -3 5.05523 4.53060   5
   0  10   3 3.78750 4.66554   1
   0  10   3 4.90076 4.20225   6
   0  10   3 0.09257 3.82224   7
  -1 -10  -3 -0.1118 3.82350   3
  -1 -10  -3 2.16607 4.41351   5
  -1 -10  -3 0.15156 1.75828   2
   1  10   3 -1.4664 3.71094   7
   1  10   3 -0.2508 3.86836   6
   1  10   3 0.75515 3.28517   1
  -2 -10  -3 6.68712 2.22499   2
  -2 -10  -3 4.10034 2.93821   3
  -2 -10  -3 6.71808 3.28285   5
   2  10   3 11.0515 4.08460   7
   2  10   3 5.86185 5.67809   6
  -3 -10  -3 6.46461 4.31353   3
   3  10   3 1.94969 3.81990   7
   3  10   3 -3.4997 5.53330   6
  -4 -10  -3 46.0278 4.94219   3
   4  10   3 33.1446 6.73674   6
   4  10   3 44.6391 6.87471   7
  -5 -10  -3 5.26953 5.09662   3
   5  10   3 5.52188 5.79018   7
  -6 -10  -3 -0.4797 5.32207   3
   6  10   3 3.73844 4.43750   7
  -7 -10  -3 20.1677 4.92478   3
   7  10   3 14.5833 5.39019   7
  -8 -10  -3 -6.2114 4.64957   3
   8  10   3 3.15359 7.83625   7
  -9 -10  -3 30.7152 8.17801   3
   4 -11  -3 3.06669 4.64059   5
  -4  11   3 -5.1464 7.94388   6
  -4  11   3 5.17735 5.87791   1
  -4  11   3 -2.2798 8.16434   7
   3 -11  -3 2.92517 4.22337   5
  -3  11   3 1.34693 5.27869   7
  -3  11   3 -1.9326 5.47991   6
  -3  11   3 2.21580 7.36954   1
   2 -11  -3 5.69216 5.56155   5
   2 -11  -3 10.3074 3.72207   3
  -2  11   3 7.50334 7.23824   6
  -2  11   3 7.14654 5.03491   7
  -2  11   3 4.49345 4.69974   1
   1 -11  -3 1.74891 3.11707   3
   1 -11  -3 4.08253 5.49727   5
  -1  11   3 1.93128 4.75714   7
  -1  11   3 0.92784 4.32199   1
  -1  11   3 2.10537 7.14997   6
   0 -11  -3 -3.9807 4.57074   3
   0 -11  -3 12.7127 4.11723   5
   0  11   3 3.03028 4.44842   7
   0  11   3 1.35751 4.22704   1
   0  11   3 3.67081 4.88028   6
  -1 -11  -3 8.24480 3.70003   3
  -1 -11  -3 3.79807 3.80741   5
   1  11   3 3.20374 4.10927   1
   1  11   3 2.07390 6.54589   7
   1  11   3 4.93774 4.80870   6
  -2 -11  -3 -2.5922 3.26365   3
  -2 -11  -3 0.39317 5.16580   5
   2  11   3 -3.0165 4.46738   6
   2  11   3 -0.6128 4.36579   7
  -3 -11  -3 1.69695 5.04685   3
  -3 -11  -3 2.30678 3.66673   5
   3  11   3 -1.0246 6.82576   6
   3  11   3 -2.0692 6.31541   7
  -4 -11  -3 -4.0321 3.78365   3
   4  11   3 -1.9309 4.82290   6
   4  11   3 -0.9321 4.89714   7
  -5 -11  -3 24.3937 6.55758   3
   5  11   3 12.8759 5.08338   7
  -6 -11  -3 24.4971 6.90491   3
   6  11   3 17.4686 7.70557   7
  -7 -11  -3 -3.8616 7.78799   3
   7  11   3 6.62410 5.69402   7
  -8 -11  -3 -2.0210 7.47825   3
   8  11   3 -3.0215 8.60789   7
   2 -12  -3 4.54494 6.53501   5
  -2  12   3 -0.6278 6.39589   6
  -2  12   3 2.52768 8.00836   1
  -2  12   3 3.61625 6.48988   7
   1 -12  -3 2.61068 4.80077   5
   1 -12  -3 -1.1514 5.33581   3
  -1  12   3 0.87900 5.18862   1
  -1  12   3 -6.0159 5.71103   7
  -1  12   3 -8.6466 6.45866   6
   0 -12  -3 10.6851 6.57025   5
   0 -12  -3 2.57184 3.97858   3
   0  12   3 6.14269 5.84792   6
   0  12   3 9.14592 7.16650   1
   0  12   3 6.05446 5.71905   7
  -1 -12  -3 0.54833 5.79727   3
  -1 -12  -3 1.66449 6.39600   5
   1  12   3 1.95166 5.59079   7
   1  12   3 1.65444 5.96689   6
  -2 -12  -3 3.00464 5.90511   3
  -2 -12  -3 9.51033 6.50187   5
   2  12   3 0.82327 5.37485   7
   2  12   3 5.19776 5.65777   6
  -3 -12  -3 -1.4875 4.28867   3
  -3 -12  -3 1.84636 6.15412   5
   3  12   3 -6.7164 7.80208   6
   3  12   3 -5.7169 7.56927   7
  -4 -12  -3 0.63795 6.56886   3
  -4 -12  -3 2.18459 4.29773   5
   4  12   3 -4.2418 5.46820   6
   4  12   3 0.00000 5.76380   7
  -5 -12  -3 5.93848 5.28343   3
   5  12   3 2.64426 8.37978   7
  -6 -12  -3 7.90217 7.52825   3
   6  12   3 11.5637 6.58587   7
  -7 -12  -3 12.4358 43.0963   3
   7  12   3 47.4682 31.4901   7
  -1 -13  -3 5.40138 7.08724   3
  -1 -13  -3 -1.6093 5.22809   5
   1  13   3 2.71424 6.87315   7
   1  13   3 -0.0912 9.82827   6
  -2 -13  -3 11.8570 7.44210   3
  -2 -13  -3 20.6991 5.94389   5
   2  13   3 5.69812 10.2253   6
   2  13   3 8.41252 6.76208   7
  -3 -13  -3 4.59217 7.47699   5
  -3 -13  -3 5.52276 7.47985   3
   3  13   3 -5.4091 6.94965   6
   3  13   3 2.26800 6.47715   7
  -4 -13  -3 -3.7641 7.57061   3
  -4 -13  -3 -5.1678 7.46514   5
   4  13   3 5.89931 6.80164   6
   4  13   3 -3.3393 6.86937   7
   6   9  -4 8.62803 6.32692   7
   6   9  -4 20.0300 6.14610   6
  -6  -9   4 11.7470 8.79546   3
   5   9  -4 -1.4071 5.31324   7
   5   9  -4 -2.2686 5.23803   6
  -5  -9   4 1.37927 5.43970   3
  -5  -9   4 -3.3222 6.82650   2
   4   9  -4 9.48430 5.55403   7
   4   9  -4 6.56247 5.42146   6
  -4  -9   4 6.12593 5.37810   3
  -4  -9   4 5.11083 6.16639   2
   3   9  -4 13.0959 7.50835   7
   3   9  -4 5.95695 5.41214   6
  -3  -9   4 8.01655 5.62148   3
  -3  -9   4 7.05273 6.32859   2
   2   9  -4 4.43211 7.83821   6
   2   9  -4 -1.3881 5.13832   7
  -2  -9   4 13.5873 5.45580   3
  -2  -9   4 5.41926 4.47872   2
   1   9  -4 35.9445 8.61752   7
   1   9  -4 39.0878 6.86515   6
  -1  -9   4 47.0277 6.54613   3
  -1  -9   4 29.3859 5.76409   2
   0   9  -4 24.4982 6.27353   7
   0   9  -4 27.8413 6.69981   6
   0  -9   4 28.3863 7.70420   3
   0  -9   4 28.1665 5.81708   2
  -1   9  -4 2.37483 6.06345   6
  -1   9  -4 2.04325 5.76051   7
   1  -9   4 1.44770 4.95830   3
   1  -9   4 8.16539 6.71833   2
  -2   9  -4 15.3559 8.94877   7
  -2   9  -4 15.1117 6.58752   6
   2  -9   4 25.7110 5.93879   3
   2  -9   4 14.7477 7.68353   2
   8   8  -4 7.17692 5.51886   7
  -8  -8   4 11.7966 6.42160   3
   7   8  -4 0.99976 4.84233   7
  -7  -8   4 -4.1864 6.37208   2
  -7  -8   4 3.60483 5.63038   3
   6   8  -4 7.46004 7.08913   7
   6   8  -4 3.43749 4.73619   6
  -6  -8   4 2.39866 5.75538   2
  -6  -8   4 -0.1430 4.99458   3
   5   8  -4 3.52098 4.49770   7
   5   8  -4 0.85912 4.22704   6
  -5  -8   4 2.71236 5.42378   2
  -5  -8   4 -1.8548 4.65778   3
   4   8  -4 9.32479 4.67665   7
   4   8  -4 13.7799 4.88933   6
  -4  -8   4 14.6577 5.66320   2
  -4  -8   4 11.7192 6.58774   3
   3   8  -4 28.5126 5.37201   6
   3   8  -4 37.8588 5.46052   7
  -3  -8   4 34.1604 5.02269   2
  -3  -8   4 30.2498 5.33003   3
   2   8  -4 52.4292 5.88525   7
   2   8  -4 43.6302 5.95535   6
  -2  -8   4 40.0163 5.65380   3
  -2  -8   4 41.9750 6.35211   2
   1   8  -4 17.5909 4.65150   7
   1   8  -4 18.1758 4.97529   6
  -1  -8   4 10.0095 5.48893   2
   0   8  -4 40.1103 5.84992   7
   0   8  -4 37.2100 7.39026   6
   0  -8   4 32.7148 5.17552   2
  -1   8  -4 42.1035 5.98319   6
  -1   8  -4 41.0238 7.58894   7
   1  -8   4 31.5161 6.84379   2
  -2   8  -4 12.0509 7.19114   7
  -2   8  -4 16.7629 7.66212   6
   2  -8   4 12.8370 4.64239   2
  -3   8  -4 27.6833 6.15568   7
  -3   8  -4 24.5807 6.11658   6
   3  -8   4 22.0789 5.53823   2
  -4   8  -4 54.2886 9.17952   7
  -4   8  -4 48.7248 9.41382   6
   4  -8   4 63.1557 8.91897   2
   9   7  -4 10.1692 7.45451   7
  -9  -7   4 10.6551 8.30348   3
   8   7  -4 2.58427 4.97109   7
  -8  -7   4 -1.8343 6.00887   2
  -8  -7   4 -2.5851 4.86519   3
   7   7  -4 -2.2411 5.65064   7
  -7  -7   4 3.88484 4.62397   3
  -7  -7   4 1.99372 3.86197   2
   6   7  -4 42.3312 5.49210   6
   6   7  -4 32.9773 4.96973   7
  -6  -7   4 37.9984 5.63946   3
  -6  -7   4 29.9107 4.46941   2
   5   7  -4 19.1523 4.24492   6
   5   7  -4 23.2770 5.69232   7
  -5  -7   4 9.83167 4.97695   2
  -5  -7   4 10.9691 5.92590   3
   4   7  -4 10.0816 3.92415   7
   4   7  -4 8.60623 3.87698   6
  -4  -7   4 14.9213 4.27177   3
  -4  -7   4 9.02742 5.16682   2
   3   7  -4 133.963 9.67207   6
   3   7  -4 131.191 8.67302   7
  -3  -7   4 111.433 11.4691   2
   2   7  -4 35.5353 4.68353   7
   2   7  -4 29.0927 4.73519   6
  -2  -7   4 33.3633 4.38613   2
   1   7  -4 26.7013 4.33470   7
   1   7  -4 35.0092 4.73279   6
  -1  -7   4 32.1997 5.96696   2
   0   7  -4 132.854 9.41778   7
   0   7  -4 125.977 9.66847   6
   0  -7   4 136.902 9.78598   2
  -1   7  -4 13.7876 5.88839   6
  -1   7  -4 15.3255 4.24654   7
   1  -7   4 18.7018 5.69382   2
  -2   7  -4 42.7912 6.83232   6
  -2   7  -4 31.0047 6.34290   7
   2  -7   4 41.9986 6.27948   2
  -3   7  -4 101.457 7.59543   7
  -3   7  -4 96.5953 8.35486   6
   3  -7   4 116.696 7.54355   2
  -4   7  -4 35.4067 5.87942   6
   4  -7   4 37.1126 6.95365   2
  -5   7  -4 4.49439 5.60338   6
   5  -7   4 8.05141 6.86797   2
   9   6  -4 3.58528 4.60797   7
  -9  -6   4 7.08090 6.18981   2
  -9  -6   4 -1.8075 4.85985   3
   8   6  -4 1.02841 5.64568   7
  -8  -6   4 2.40592 5.32277   2
  -8  -6   4 -0.6515 5.96084   3
   7   6  -4 38.7304 5.15546   7
  -7  -6   4 31.2385 5.68583   2
  -7  -6   4 39.2018 6.58875   3
  -7  -6   4 30.6140 4.36179   1
   6   6  -4 2.79123 3.36299   7
  -6  -6   4 -2.3734 4.20239   2
  -6  -6   4 -1.3097 2.86006   1
  -6  -6   4 -2.4674 3.90544   3
   5   6  -4 17.4895 3.45015   7
   5   6  -4 18.1050 3.78797   6
  -5  -6   4 14.4999 3.98901   3
  -5  -6   4 10.8341 4.57963   2
   4   6  -4 50.2254 4.75220   7
   4   6  -4 61.2221 4.82421   6
  -4  -6   4 40.7417 3.45025   1
  -4  -6   4 57.6459 5.54451   2
   3   6  -4 101.005 7.29370   7
   3   6  -4 113.467 7.69258   6
  -3  -6   4 108.319 7.30748   2
   2   6  -4 74.4228 6.15728   7
   2   6  -4 67.2932 5.23984   6
  -2  -6   4 63.6584 4.93388   2
   1   6  -4 148.991 10.5748   6
   1   6  -4 149.719 9.73914   7
  -1  -6   4 150.110 9.13023   2
   0   6  -4 31.5238 4.98408   7
   0   6  -4 31.4440 5.10686   6
   0  -6   4 37.7110 4.20863   2
  -1   6  -4 8.99862 4.60932   6
  -1   6  -4 13.0622 2.00688   1
  -1   6  -4 12.2464 3.54913   7
   1  -6   4 12.7249 3.52900   2
  -2   6  -4 110.759 7.43489   1
  -2   6  -4 135.246 7.62879   6
   2  -6   4 126.482 6.64918   2
  -3   6  -4 54.2152 6.44583   6
  -3   6  -4 53.0066 4.05862   1
   3  -6   4 52.4384 6.10593   2
  -4   6  -4 132.202 10.8547   1
  -4   6  -4 125.025 8.18239   6
   4  -6   4 131.812 7.64858   2
  -5   6  -4 98.3056 29.7358   1
  -5   6  -4 64.0406 7.78441   6
   5  -6   4 64.3686 7.47097   2
  -6   6  -4 29.3867 6.13848   6
   6  -6   4 29.6059 5.45348   2
  -7   6  -4 70.1313 18.3905   6
   7  -6   4 38.0316 7.99253   2
 -10  -5   4 3.85476 4.01632   1
 -10  -5   4 1.26378 4.90445   3
 -10  -5   4 8.71056 7.22492   2
  -9  -5   4 -2.4257 4.17319   3
  -9  -5   4 0.89681 5.89161   2
  -9  -5   4 -0.5086 4.79292   1
   8   5  -4 50.3573 5.96615   7
  -8  -5   4 30.9957 4.72484   1
  -8  -5   4 25.6857 5.89057   3
  -8  -5   4 31.6364 4.64314   2
   7   5  -4 1.79727 4.13559   7
  -7  -5   4 4.00244 4.19200   2
  -7  -5   4 -1.0559 3.30673   3
  -7  -5   4 1.54600 2.31944   1
   6   5  -4 -0.5342 6.28304   7
  -6  -5   4 -3.0112 3.81428   2
  -6  -5   4 1.80526 4.59070   3
  -6  -5   4 0.10239 2.52749   1
   5   5  -4 186.200 15.1748   6
   5   5  -4 167.367 12.7071   7
  -5  -5   4 162.451 9.54395   3
  -5  -5   4 176.732 12.2915   2
  -5  -5   4 157.787 10.5198   1
   4   5  -4 0.23895 8.34886   7
   4   5  -4 2.05682 6.95535   6
  -4  -5   4 -0.9640 3.46738   2
  -4  -5   4 -1.1203 2.27827  10
  -4  -5   4 1.84985 2.31405   8
  -4  -5   4 0.20060 2.15743   4
  -4  -5   4 0.28402 1.61967   1
   3   5  -4 643.816 42.8100   6
   3   5  -4 653.668 35.1811   7
  -3  -5   4 677.703 52.4126  10
  -3  -5   4 668.152 44.2826   8
  -3  -5   4 670.176 35.3389   2
  -3  -5   4 655.177 42.0048   1
   2   5  -4 13.2698 2.65872   7
   2   5  -4 15.7050 3.64045   6
  -2  -5   4 11.8054 1.65997   1
  -2  -5   4 8.61524 2.71637   2
  -2  -5   4 11.3297 1.67084   4
  -2  -5   4 8.64591 1.52199   8
  -2  -5   4 7.63595 1.58615  10
   1   5  -4 3.98493 3.17255   7
   1   5  -4 1.66394 3.15241   6
  -1  -5   4 2.37331 1.16380   1
  -1  -5   4 2.60422 1.46101   4
  -1  -5   4 1.62954 3.42320   2
   0   5  -4 215.969 11.8173   7
   0   5  -4 197.613 14.0972   6
   0  -5   4 211.275 10.7172   2
   0  -5   4 211.645 10.8854   8
   0  -5   4 207.742 13.6680   4
   0  -5   4 205.448 11.9297  10
   0  -5   4 200.256 15.5312   1
  -1   5  -4 116.111 6.26573   6
  -1   5  -4 121.549 5.21962   1
  -1   5  -4 130.801 7.18525   7
   1  -5   4 129.618 9.97777   4
   1  -5   4 118.510 9.01605  10
   1  -5   4 126.823 7.15421   8
   1  -5   4 124.192 6.27698   2
  -2   5  -4 177.789 11.5430   1
  -2   5  -4 172.764 8.03339   6
   2  -5   4 167.283 10.0232  10
   2  -5   4 182.424 11.4045   4
   2  -5   4 180.172 7.59390   2
   2  -5   4 165.764 9.79248   8
  -3   5  -4 279.000 17.4766   1
  -3   5  -4 267.809 12.2466   6
   3  -5   4 283.880 10.9575  10
   3  -5   4 291.315 14.2973   4
   3  -5   4 300.606 13.7440   2
   3  -5   4 276.226 9.17577   8
  -4   5  -4 106.097 7.11676   6
  -4   5  -4 110.645 6.39724   1
   4  -5   4 104.331 6.14973   2
   4  -5   4 103.088 5.62798   8
   4  -5   4 92.4566 6.70912   4
   4  -5   4 102.494 6.22135  10
  -5   5  -4 21.2981 4.48897   6
  -5   5  -4 28.3391 4.21596   1
   5  -5   4 26.3648 3.38053   4
   5  -5   4 20.6204 4.14259  10
   5  -5   4 29.3850 7.89616   2
   5  -5   4 21.9157 3.92649   8
  -6   5  -4 105.242 7.98895   6
  -6   5  -4 115.255 8.01966   1
   6  -5   4 120.363 7.57322   4
   6  -5   4 102.534 8.22865   2
   6  -5   4 103.247 8.17032  10
   6  -5   4 108.623 8.22375   8
  -7   5  -4 100.792 12.7949   6
  -7   5  -4 110.925 10.6281   1
   7  -5   4 106.976 7.46427   2
   7  -5   4 87.9957 6.49687   4
   7  -5   4 94.8383 7.39059   8
   7  -5   4 94.9019 7.38021  10
 -11  -4   4 -1.1184 6.47470   1
 -10  -4   4 1.42402 3.91816   1
 -10  -4   4 5.41309 4.91550   2
   9   4  -4 18.8697 3.67849   9
  -9  -4   4 22.4012 5.83460   3
  -9  -4   4 32.4810 5.26560   1
  -9  -4   4 28.8966 5.01104   2
   8   4  -4 1.49173 2.62548   9
  -8  -4   4 0.48190 3.45025   2
  -8  -4   4 1.09259 4.61214   3
  -8  -4   4 -0.6623 3.53714   1
   7   4  -4 5.26648 3.30204   9
   7   4  -4 1.31824 2.48390   7
  -7  -4   4 0.76945 2.11638   1
  -7  -4   4 -2.4974 4.17161   3
  -7  -4   4 -2.0027 4.16642   2
   6   4  -4 199.646 9.82615   9
   6   4  -4 194.648 12.7941   7
  -6  -4   4 196.181 9.99761   2
  -6  -4   4 193.105 12.0425   1
  -6  -4   4 200.378 14.1467   3
   5   4  -4 17.1385 2.77643   6
   5   4  -4 16.0286 2.58374   9
   5   4  -4 14.2672 2.55435   7
  -5  -4   4 8.15888 2.97760   4
  -5  -4   4 12.8633 2.79874   2
  -5  -4   4 10.3565 2.36626   1
  -5  -4   4 9.66669 3.14317  10
  -5  -4   4 12.8785 3.16966   8
   4   4  -4 72.2693 5.15959   7
   4   4  -4 84.0497 6.58353   6
  -4  -4   4 68.2588 4.44063  10
  -4  -4   4 79.0506 4.46737   2
  -4  -4   4 63.6184 4.57810   8
  -4  -4   4 71.9830 3.13195   1
   3   4  -4 693.495 38.7226   6
   3   4  -4 693.950 39.9064   7
  -3  -4   4 702.851 50.7387   1
  -3  -4   4 698.051 56.6405  10
  -3  -4   4 707.656 47.3887   8
  -3  -4   4 690.718 43.5313   1
  -3  -4   4 697.547 36.5321   2
   2   4  -4 22.9703 3.06198   7
   2   4  -4 20.7571 2.63340   6
  -2  -4   4 23.3164 2.91734   2
  -2  -4   4 19.2470 1.67154   1
  -2  -4   4 17.3322 1.97349   4
  -2  -4   4 19.8910 1.73783  10
  -2  -4   4 22.6431 1.70670   8
   1   4  -4 141.838 7.56648   7
   1   4  -4 146.835 6.16523   6
  -1  -4   4 134.144 9.75131   4
  -1  -4   4 149.072 9.81639   2
  -1  -4   4 142.882 9.73835   1
   0   4  -4 270.296 10.2581   7
   0   4  -4 279.014 9.05181   6
   0  -4   4 254.361 13.0250   4
   0  -4   4 275.575 19.3785   1
   0  -4   4 262.610 9.61610   2
  -1   4  -4 4.74803 1.24262   1
  -1   4  -4 10.9913 4.65589   6
   1  -4   4 6.47454 2.55522   2
   1  -4   4 5.49486 1.79399  10
   1  -4   4 4.41384 1.06938   1
   1  -4   4 4.81768 1.73096   4
   1  -4   4 4.27876 1.69629   8
  -2   4  -4 381.901 16.2517   6
  -2   4  -4 356.381 15.1149   4
  -2   4  -4 390.594 19.7688   1
   2  -4   4 392.471 16.2689   4
   2  -4   4 376.968 12.2800   2
   2  -4   4 393.899 22.8068   1
   2  -4   4 389.350 20.6997   8
   2  -4   4 397.310 21.6921  10
  -3   4  -4 77.7250 4.77603   6
  -3   4  -4 80.7224 5.65513   4
  -3   4  -4 80.3581 4.24635   1
   3  -4   4 77.5781 3.94022   4
   3  -4   4 84.8919 5.05247   2
   3  -4   4 64.9530 4.44444   1
   3  -4   4 74.7875 3.95964   8
   3  -4   4 71.9691 4.19708  10
  -4   4  -4 200.662 10.8247   6
  -4   4  -4 208.385 11.5503   1
   4  -4   4 208.447 12.7409   8
   4  -4   4 213.299 10.0337  10
   4  -4   4 220.021 8.89690   2
   4  -4   4 215.438 11.1153   4
  -5   4  -4 160.378 11.3178   6
  -5   4  -4 162.647 9.23711   1
   5  -4   4 158.180 14.4552   4
   5  -4   4 152.716 7.50066   2
   5  -4   4 160.375 17.5663   8
   5  -4   4 146.822 17.5140  10
  -6   4  -4 113.093 7.31206   1
  -6   4  -4 129.711 13.2818   6
   6  -4   4 107.329 6.53949   5
   6  -4   4 96.4067 6.07026   4
   6  -4   4 99.1544 5.84618   8
   6  -4   4 103.171 6.29316   2
   6  -4   4 102.150 6.67601  10
  -7   4  -4 22.0652 4.95198   6
  -7   4  -4 24.9359 3.91288   1
   7  -4   4 22.1217 5.80615   2
   7  -4   4 19.8152 5.07767   4
   7  -4   4 14.8434 4.72140   8
   7  -4   4 13.0135 5.08014  10
  -8   4  -4 52.6238 6.40659   1
  -8   4  -4 36.6797 7.76837   6
   8  -4   4 46.6176 6.79457  10
   8  -4   4 40.5129 6.32016   4
   8  -4   4 49.6636 5.94543   2
   8  -4   4 38.6251 6.16171   8
 -11  -3   4 -4.0557 7.59426   2
 -11  -3   4 -1.6752 6.37459   1
  10   3  -4 24.1821 4.66836   9
 -10  -3   4 15.9657 5.18199   2
 -10  -3   4 13.0225 8.33118   1
   9   3  -4 7.01820 3.77293   9
  -9  -3   4 0.72568 4.49034   1
  -9  -3   4 2.05238 5.48674   2
  -9  -3   4 -0.2368 4.58747   3
   8   3  -4 5.31115 2.54634   9
  -8  -3   4 29.5950 22.3098   3
  -8  -3   4 7.15431 2.80958   1
  -8  -3   4 2.79297 4.66140   2
   7   3  -4 15.0991 2.72602   7
   7   3  -4 14.7764 3.35796   9
  -7  -3   4 8.22505 3.89571   3
  -7  -3   4 16.5855 4.46880   2
  -7  -3   4 12.7468 2.65627   1
   6   3  -4 22.9754 2.74424   9
   6   3  -4 19.1233 2.67071   7
  -6  -3   4 30.3144 3.22092   1
  -6  -3   4 24.7617 3.25768   3
  -6  -3   4 18.8300 4.12220   2
   5   3  -4 3.93072 2.66750   9
   5   3  -4 4.37169 3.71704   7
  -5  -3   4 7.54889 3.16799   7
  -5  -3   4 -0.6475 1.85585   1
  -5  -3   4 6.79999 3.19929   6
  -5  -3   4 -0.3353 2.13596   2
   4   3  -4 315.104 15.4991   6
   4   3  -4 335.247 12.1524   9
   4   3  -4 303.275 12.2635   7
  -4  -3   4 319.832 21.4592   7
  -4  -3   4 306.527 17.2928   6
  -4  -3   4 296.816 15.2961   1
  -4  -3   4 289.001 19.4672   8
  -4  -3   4 289.333 21.0945  10
  -4  -3   4 313.491 14.8189   2
   3   3  -4 2.66057 1.97454   7
   3   3  -4 -2.4542 2.27049   9
   3   3  -4 -2.8248 1.94858   6
  -3  -3   4 -0.1794 1.91386   2
  -3  -3   4 -0.9553 0.95938   1
  -3  -3   4 2.93602 1.36704  10
  -3  -3   4 3.03836 1.29381   8
  -3  -3   4 1.22919 2.17491   6
   2   3  -4 1.95589 1.55555   6
   2   3  -4 3.27032 1.50099   7
   2   3  -4 7.84293 1.79230   9
  -2  -3   4 0.65395 0.80042   1
  -2  -3   4 0.01267 2.22370   6
  -2  -3   4 0.83249 0.68777   1
  -2  -3   4 3.08484 1.94337   2
   1   3  -4 300.391 9.11748   7
   1   3  -4 312.703 8.84850   6
  -1  -3   4 305.115 13.7945   6
  -1  -3   4 298.112 10.2022   2
  -1  -3   4 298.171 11.1081   4
   0   3  -4 0.17352 1.57464   6
   0  -3   4 1.66196 1.93276   2
   0  -3   4 1.31115 1.62092   6
   0  -3   4 0.88409 0.39459   1
   0  -3   4 1.69839 1.46251   4
  -1   3  -4 529.280 10.7341   6
  -1   3  -4 475.192 27.5256   1
   1  -3   4 512.530 19.7366   4
   1  -3   4 525.869 20.0996   1
   1  -3   4 526.793 15.4121   2
   1  -3   4 519.526 20.2382   9
  -2   3  -4 381.157 13.7812   4
  -2   3  -4 390.922 42.6479   1
  -2   3  -4 367.709 11.3965   6
   2  -3   4 391.411 9.17037   2
   2  -3   4 386.934 12.5833  10
   2  -3   4 387.491 10.2640   4
   2  -3   4 396.777 14.1660   9
   2  -3   4 374.513 13.5053   8
   2  -3   4 380.126 13.2767   1
  -3   3  -4 17.6404 2.69050   4
  -3   3  -4 15.7578 1.69189   1
  -3   3  -4 14.4587 2.66785   6
   3  -3   4 13.9117 1.64920   1
   3  -3   4 15.2811 2.29569   9
   3  -3   4 14.0073 2.72492  10
   3  -3   4 14.2035 2.83799   2
   3  -3   4 14.1859 2.58383   4
   3  -3   4 11.4078 2.50943   8
  -4   3  -4 364.190 9.81474   6
  -4   3  -4 375.067 12.3359   1
   4  -3   4 377.582 14.0824   9
   4  -3   4 403.861 12.5370   8
   4  -3   4 365.570 10.5228   2
   4  -3   4 381.403 11.3598   4
   4  -3   4 373.678 11.4181  10
   4  -3   4 372.304 19.8032   1
  -5   3  -4 187.712 8.74543   6
  -5   3  -4 197.195 9.96447   1
   5  -3   4 198.526 14.5420   9
   5  -3   4 197.278 7.61795   8
   5  -3   4 193.262 8.44812   4
   5  -3   4 202.745 9.11633  10
   5  -3   4 201.983 7.59176   2
  -6   3  -4 12.7339 4.63804   6
  -6   3  -4 18.9217 2.96474   1
   6  -3   4 13.9001 17.0693   4
   6  -3   4 10.9081 3.28093   2
   6  -3   4 15.7152 12.5430   8
   6  -3   4 15.8946 13.9098  10
   6  -3   4 14.7233 2.73910   5
  -7   3  -4 148.887 9.52699   1
  -7   3  -4 141.912 7.66132   6
   7  -3   4 137.414 7.42103  10
   7  -3   4 145.776 6.97410   8
   7  -3   4 151.502 7.96368   2
   7  -3   4 128.815 8.26095   4
  -8   3  -4 58.2191 7.29604   6
  -8   3  -4 47.3065 4.93975   1
   8  -3   4 45.2069 6.06253   4
   8  -3   4 49.7297 5.34074   2
   8  -3   4 58.0148 5.48126  10
   8  -3   4 48.7543 5.00511   8
  -9   3  -4 18.8588 5.75938   6
  -9   3  -4 32.3272 6.62548   1
   9  -3   4 12.6540 6.78591  10
   9  -3   4 4.97373 4.79204   2
   9  -3   4 15.5522 6.33439   8
   9  -3   4 15.0386 6.36946   4
 -11  -2   4 1.83188 5.33958   2
 -11  -2   4 2.32186 4.83812   1
  10   2  -4 2.78353 3.22449   9
 -10  -2   4 2.20145 4.42563   2
 -10  -2   4 -1.8637 3.70358   1
   9   2  -4 -0.2044 3.33920   9
  -9  -2   4 0.69614 4.05198   3
  -9  -2   4 0.82725 3.77124   2
  -9  -2   4 4.14974 4.04251   1
   8   2  -4 3.54502 3.15576   9
  -8  -2   4 4.47579 3.51317   2
  -8  -2   4 -1.6526 3.47368   3
  -8  -2   4 -1.0828 2.48205   1
   7   2  -4 13.8583 3.06987   9
  -7  -2   4 12.7361 2.61613   1
  -7  -2   4 6.32392 3.03727   2
  -7  -2   4 9.69015 3.39948   3
   6   2  -4 105.770 4.56941   9
   6   2  -4 92.9846 8.21784   7
  -6  -2   4 97.4567 6.00387   1
  -6  -2   4 79.1873 6.68365   7
  -6  -2   4 95.3371 6.37541   3
  -6  -2   4 95.0677 8.41076   6
  -6  -2   4 92.0047 5.57862   2
   5   2  -4 15.2120 2.35794   7
   5   2  -4 15.5300 2.15342   9
  -5  -2   4 13.0652 2.04162   7
  -5  -2   4 12.7525 2.16576   6
  -5  -2   4 14.2880 3.34381   2
  -5  -2   4 18.4385 2.40980   1
   4   2  -4 -2.1275 1.75682   7
   4   2  -4 -0.5588 1.31492   6
   4   2  -4 1.03662 2.11544   9
  -4  -2   4 -0.3091 1.92961   6
  -4  -2   4 0.33182 2.01454   8
  -4  -2   4 -2.1548 1.94095   2
  -4  -2   4 -2.0922 2.11241  10
  -4  -2   4 0.28139 1.86295   7
  -4  -2   4 0.99634 1.80912   1
   3   2  -4 302.124 5.85935   9
   3   2  -4 297.527 12.5441   2
   3   2  -4 293.887 14.3895   6
   3   2  -4 289.030 13.1688   7
  -3  -2   4 313.702 8.19524   1
  -3  -2   4 295.695 20.9803   7
  -3  -2   4 310.593 24.0344   6
  -3  -2   4 280.980 17.5093   8
  -3  -2   4 327.267 12.7631   2
  -3  -2   4 278.799 18.5744  10
   2   2  -4 13.2268 2.20991   9
   2   2  -4 12.6817 2.05355   2
   2   2  -4 16.4241 1.69598   7
   2   2  -4 16.9657 2.10511   6
  -2  -2   4 16.8592 2.29952   9
  -2  -2   4 14.9472 2.56618   5
  -2  -2   4 14.9706 1.00259   1
  -2  -2   4 15.3898 1.76252   6
  -2  -2   4 17.0094 2.31751   2
   1   2  -4 8.66442 1.50410   6
   1   2  -4 1.88973 1.37147   9
   1   2  -4 8.53723 1.91413   7
   1   2  -4 27.0082 7.11845   2
  -1  -2   4 5.14728 2.22914   5
  -1  -2   4 5.22449 1.88993   9
  -1  -2   4 6.02246 1.87465   2
  -1  -2   4 6.75030 1.83659   6
   0   2  -4 417.201 8.10229   6
   0   2  -4 435.710 12.6456   2
   0   2  -4 427.651 9.55994   9
   0  -2   4 412.996 24.7496   9
   0  -2   4 433.429 9.75638   6
   0  -2   4 456.377 24.5814   3
   0  -2   4 418.348 9.90010   2
   0  -2   4 421.783 16.9285   5
   0  -2   4 416.018 11.7336   4
  -1   2  -4 361.304 15.1066   1
  -1   2  -4 377.683 15.6645   2
  -1   2  -4 374.992 7.15247   6
   1  -2   4 395.093 19.5733   3
   1  -2   4 376.985 9.63659   6
   1  -2   4 376.022 7.22831   2
   1  -2   4 374.204 17.6317   9
   1  -2   4 384.688 19.4504   5
   1  -2   4 386.772 10.1942   4
  -2   2  -4 1.73240 1.74832   4
  -2   2  -4 3.36679 1.69855   6
  -2   2  -4 1.08799 1.17825   1
   2  -2   4 1.02810 1.56274   9
   2  -2   4 -1.6455 2.48888   2
   2  -2   4 0.43258 1.78253   4
   2  -2   4 7.17766 2.33858   3
   2  -2   4 1.78850 1.42717   5
  -3   2  -4 1195.22 41.9670   6
  -3   2  -4 1207.80 69.2155   4
  -3   2  -4 1165.12 31.3601   1
   3  -2   4 1254.59 45.8284   8
   3  -2   4 1232.67 74.9476   3
   3  -2   4 1262.59 35.7047   9
   3  -2   4 1250.55 53.6680  10
   3  -2   4 1264.61 24.5465   4
   3  -2   4 1221.70 19.8138   2
  -4   2  -4 115.528 3.98977   1
  -4   2  -4 116.843 4.93938   6
   4  -2   4 118.022 4.15132   9
   4  -2   4 119.325 4.73194   8
   4  -2   4 122.440 5.04266   2
   4  -2   4 111.356 5.54709   4
   4  -2   4 121.250 5.02294  10
  -5   2  -4 48.1136 4.40743   6
  -5   2  -4 49.2168 3.51020   1
   5  -2   4 55.4187 3.88682   5
   5  -2   4 47.8466 3.62347  10
   5  -2   4 46.1465 3.43037   8
   5  -2   4 52.8477 2.63955   9
   5  -2   4 49.6862 4.16767   4
   5  -2   4 56.1703 4.66478   2
  -6   2  -4 86.1662 4.80760   1
  -6   2  -4 79.1390 4.92042   6
   6  -2   4 82.7976 5.45160   4
   6  -2   4 88.1018 8.46698   5
   6  -2   4 74.7918 5.50526   2
   6  -2   4 82.1719 5.18720   8
   6  -2   4 80.1321 4.19072   5
   6  -2   4 85.0299 5.88791   9
   6  -2   4 76.2874 5.29024  10
  -7   2  -4 46.7676 4.55899   6
  -7   2  -4 54.8786 4.22772   1
   7  -2   4 44.3497 4.44415  10
   7  -2   4 47.2597 5.22325   2
   7  -2   4 46.5277 4.30565   4
   7  -2   4 43.7194 4.19798   8
  -8   2  -4 13.5414 3.91838   6
  -8   2  -4 23.1737 4.91123   1
   8  -2   4 17.6362 4.12594  10
   8  -2   4 9.45682 4.87410   8
   8  -2   4 30.0140 16.3837   2
   8  -2   4 15.5601 3.86784   4
  -9   2  -4 55.8330 5.92155   6
  -9   2  -4 72.7454 5.87536   1
   9  -2   4 62.6512 7.28153  10
   9  -2   4 67.4106 5.93683   4
   9  -2   4 61.6098 6.86810   8
 -10   2  -4 25.8912 7.68644   6
 -10   2  -4 36.3912 5.94325   1
  10  -2   4 30.4687 5.66865   8
  10  -2   4 31.4981 6.06018  10
  10  -2   4 23.3852 5.60547   4
 -11  -1   4 -0.3346 6.42105   1
 -11  -1   4 5.59842 5.54259   2
  10   1  -4 25.3272 4.10668   9
 -10  -1   4 9.16462 4.71684   2
 -10  -1   4 19.2084 5.96199   1
   9   1  -4 -3.2882 2.18242   9
  -9  -1   4 -4.0052 3.68780   2
  -9  -1   4 -1.5323 3.18259   1
   8   1  -4 11.6324 3.15437   9
  -8  -1   4 4.84610 3.18808   3
  -8  -1   4 11.2581 3.62600   2
  -8  -1   4 9.25193 2.96469   1
   7   1  -4 2.00422 2.37838   5
   7   1  -4 5.77022 2.71893   9
  -7  -1   4 5.23963 2.30827   6
  -7  -1   4 2.81419 2.63775   3
  -7  -1   4 3.74621 2.11676   7
  -7  -1   4 4.71226 3.14286   1
  -7  -1   4 5.50252 2.94607   2
   6   1  -4 95.7734 3.73646   9
   6   1  -4 98.1108 4.41387   5
  -6  -1   4 85.3421 5.91843   3
  -6  -1   4 87.9113 4.77310   2
  -6  -1   4 82.2939 6.10600   7
  -6  -1   4 91.2613 4.02981   1
  -6  -1   4 85.5137 6.50347   6
   5   1  -4 3.66872 2.56706   5
   5   1  -4 3.50753 2.23566   9
   5   1  -4 1.12231 1.19823   7
  -5  -1   4 -0.1536 1.79885   7
  -5  -1   4 0.06182 1.92989   6
  -5  -1   4 2.43357 2.26735   2
  -5  -1   4 1.73457 1.45724   1
   4   1  -4 29.6278 1.79407   7
   4   1  -4 29.8323 2.68750   9
   4   1  -4 25.9355 2.99456   5
  -4  -1   4 22.3516 2.12834   1
  -4  -1   4 25.3419 2.64473   9
  -4  -1   4 24.6484 2.25381   8
  -4  -1   4 19.0078 3.32507   2
  -4  -1   4 22.5983 2.46646   5
  -4  -1   4 23.8121 2.14024   7
  -4  -1   4 24.8609 2.34676  10
  -4  -1   4 24.4971 2.28198   6
   3   1  -4 2.90272 1.40790   9
   3   1  -4 1.08696 1.56436   5
   3   1  -4 3.78088 1.05102   6
   3   1  -4 4.08362 0.97972   7
  -3  -1   4 0.60451 1.84622   9
  -3  -1   4 0.63355 1.27159   6
  -3  -1   4 3.30100 1.80957   8
  -3  -1   4 0.50222 1.70037   2
  -3  -1   4 1.37317 1.85324  10
  -3  -1   4 -0.3571 1.17333   7
  -3  -1   4 2.20659 1.15965   1
  -3  -1   4 3.49978 2.23657   5
   2   1  -4 2.55399 1.26355   9
   2   1  -4 3.90715 1.64255   2
  -2  -1   4 3.28153 2.50158   5
  -2  -1   4 -3.2954 2.14356   2
  -2  -1   4 2.96234 2.20297   9
  -2  -1   4 4.87704 1.33055   6
   1   1  -4 247.022 6.03558   6
   1   1  -4 258.613 6.75193   7
   1   1  -4 251.496 6.40954   9
   1   1  -4 242.197 9.00784   2
  -1  -1   4 267.594 5.46230   6
  -1  -1   4 257.072 6.06175   3
  -1  -1   4 260.313 7.26955   2
  -1  -1   4 264.834 7.18891   5
  -1  -1   4 250.168 12.5415   9
   0   1  -4 283.948 7.71609   9
   0   1  -4 282.464 5.61334   6
   0   1  -4 268.523 7.80981   2
   0  -1   4 273.154 7.53441   4
   0  -1   4 288.520 8.01459   5
   0  -1   4 289.348 7.09293   9
   0  -1   4 299.025 8.62591   3
   0  -1   4 299.133 9.86960   2
   0  -1   4 289.633 7.67452   6
  -1   1  -4 61.9693 2.87737   6
  -1   1  -4 51.5728 3.33203   2
  -1   1  -4 54.8905 2.38935   1
  -1   1  -4 48.4447 2.77632   9
   1  -1   4 61.4408 3.17396   3
   1  -1   4 55.3424 2.81496   5
   1  -1   4 53.3423 3.28092   2
   1  -1   4 57.0695 2.51372   4
   1  -1   4 56.0585 3.30386   9
  -2   1  -4 272.377 17.4740   2
  -2   1  -4 292.538 8.88398   1
  -2   1  -4 297.518 5.86555   6
  -2   1  -4 289.071 7.93443   4
   2  -1   4 303.449 5.62125   4
   2  -1   4 312.516 9.13870   2
   2  -1   4 310.775 9.12203   3
   2  -1   4 303.330 9.02221   5
   2  -1   4 291.874 15.6263   9
  -3   1  -4 36.5541 2.79381   2
  -3   1  -4 34.8981 3.04660   6
  -3   1  -4 33.7411 2.10592   1
  -3   1  -4 35.4310 2.54210   3
  -3   1  -4 32.1521 2.85443   4
   3  -1   4 37.1002 2.97347   3
   3  -1   4 34.9771 2.11267   5
   3  -1   4 30.8356 3.12046   2
   3  -1   4 32.5129 1.81184   9
   3  -1   4 38.8356 2.59673   4
   3  -1   4 32.0486 2.83673   8
   3  -1   4 31.8885 2.97659  10
  -4   1  -4 0.00000 1.76830   6
  -4   1  -4 2.14166 1.35483   1
  -4   1  -4 2.77562 2.05655   3
   4  -1   4 1.61254 2.48598   2
   4  -1   4 3.19017 3.53638   5
   4  -1   4 2.34602 2.23282   3
   4  -1   4 -0.7224 2.41208   4
   4  -1   4 0.75427 2.47108  10
   4  -1   4 2.14996 3.38352   9
   4  -1   4 -0.3479 2.39111   8
  -5   1  -4 593.683 14.3573   6
  -5   1  -4 553.138 18.8022   3
  -5   1  -4 574.393 17.2104   1
   5  -1   4 607.174 10.9580   8
   5  -1   4 583.689 35.6567   5
   5  -1   4 568.817 28.1438   9
   5  -1   4 568.400 33.0235   3
   5  -1   4 594.483 11.2322   4
   5  -1   4 573.845 12.1509   2
   5  -1   4 579.459 12.9049  10
  -6   1  -4 62.2009 3.76160   3
  -6   1  -4 60.6529 3.73425   1
  -6   1  -4 51.2496 4.72437   6
   6  -1   4 62.6825 4.05978   8
   6  -1   4 62.0950 3.93288   5
   6  -1   4 56.1626 4.16388  10
   6  -1   4 52.5669 3.93824   4
   6  -1   4 57.4183 3.97650   2
   6  -1   4 60.8782 2.96195   9
   6  -1   4 61.4037 3.21256   5
  -7   1  -4 48.1783 5.22949   6
  -7   1  -4 50.6738 3.96118   3
  -7   1  -4 58.0095 4.14676   1
   7  -1   4 52.7137 5.37404  10
   7  -1   4 56.2494 5.11026   8
   7  -1   4 57.1319 4.91933   2
   7  -1   4 52.5590 5.08701   4
  -8   1  -4 242.089 10.4230   1
  -8   1  -4 226.804 13.7739   6
   8  -1   4 236.514 9.47125   8
   8  -1   4 250.378 9.26103   2
   8  -1   4 250.114 10.1301  10
   8  -1   4 232.870 10.7220   4
  -9   1  -4 1.77813 3.51073   1
  -9   1  -4 1.46008 3.82693   6
   9  -1   4 -3.0936 3.67541   4
   9  -1   4 -2.2866 3.44103   8
   9  -1   4 -1.1013 3.67129  10
 -10   1  -4 58.9177 7.97860   6
 -10   1  -4 52.8531 5.96392   1
  10  -1   4 58.3120 6.45096   8
  10  -1   4 49.2799 7.10766   4
  10  -1   4 46.4386 6.34743  10
  11   0  -4 -2.1354 4.60294  10
  11   0  -4 -3.6629 4.66813   8
 -11   0   4 -8.4973 6.82903   1
  10   0  -4 6.06758 3.55476   9
  10   0  -4 -3.1742 3.94589   8
  10   0  -4 -4.8245 3.95525  10
 -10   0   4 -0.0260 5.33813   1
   9   0  -4 56.9991 4.27251   9
   9   0  -4 45.5500 4.72488   8
   9   0  -4 50.8034 4.76432   5
   9   0  -4 50.3371 4.93620  10
   8   0  -4 -0.5592 2.76768  10
   8   0  -4 -1.8910 1.90034   9
   8   0  -4 -1.0371 3.08965   5
   8   0  -4 -0.1455 2.67264   8
  -8   0   4 -3.9689 2.33069   3
  -8   0   4 -0.9358 12.2538   1
   7   0  -4 1.22546 2.90266   5
   7   0  -4 -1.1933 2.49478   9
  -7   0   4 1.70639 1.88574   7
  -7   0   4 2.26111 1.92183   6
  -7   0   4 0.07870 2.11954   1
  -7   0   4 2.44417 2.02596   3
   6   0  -4 27.7712 2.89598   9
   6   0  -4 21.2349 3.13843   5
  -6   0   4 18.2817 2.43576   7
  -6   0   4 17.3845 2.49165   1
  -6   0   4 17.6842 2.70623   6
  -6   0   4 22.5743 2.16566   3
   5   0  -4 1.64246 2.28601   5
   5   0  -4 7.16107 2.19409   9
   5   0  -4 6.60785 1.79780   1
  -5   0   4 2.98073 1.49762   7
  -5   0   4 5.03226 1.71638   6
  -5   0   4 7.03809 1.74675   1
  -5   0   4 3.48291 2.15675   2
   4   0  -4 9.94487 1.79713   5
   4   0  -4 7.92452 2.03845   9
  -4   0   4 6.07468 2.49015   8
  -4   0   4 6.72682 2.11597   2
  -4   0   4 4.85017 1.38649   6
  -4   0   4 6.18680 2.09922   9
  -4   0   4 6.86438 2.35408   5
  -4   0   4 6.18872 1.37613   7
  -4   0   4 4.91151 2.55076  10
  -4   0   4 5.29240 1.82801   1
   3   0  -4 1.23619 1.34386   5
   3   0  -4 0.13576 0.87670   1
   3   0  -4 -1.8554 1.63166   9
   3   0  -4 0.98341 0.80534   7
  -3   0   4 -0.0607 1.45811   3
  -3   0   4 0.25604 1.88241  10
  -3   0   4 2.11805 1.72475   9
  -3   0   4 1.60839 0.97147   7
  -3   0   4 0.79366 1.78841   8
  -3   0   4 1.11753 0.94141   6
  -3   0   4 1.43011 1.92288   5
  -3   0   4 -0.3036 1.20709   1
  -3   0   4 -1.3778 1.64354   2
   2   0  -4 23.6812 4.56131   9
   2   0  -4 25.6465 6.26727   5
   2   0  -4 20.3822 1.11262   7
   2   0  -4 18.2067 1.14099   6
   2   0  -4 18.8591 1.94380   2
   2   0  -4 21.0577 1.32562   1
  -2   0   4 19.0094 1.91327   5
  -2   0   4 15.6515 2.01405   3
  -2   0   4 17.5224 1.27814   1
  -2   0   4 22.9920 1.90259   6
  -2   0   4 19.5793 2.03074   9
  -2   0   4 23.0126 6.58598   2
   1   0  -4 22.1751 4.97552   5
   1   0  -4 18.5865 1.18428   7
   1   0  -4 18.8272 1.14532   6
   1   0  -4 15.9846 1.43408   1
   1   0  -4 15.5002 1.79364   2
   1   0  -4 19.3783 4.11021   9
  -1   0   4 17.5931 1.16161   6
  -1   0   4 18.8807 1.02453   1
  -1   0   4 16.8944 1.51638   9
  -1   0   4 19.0815 1.83960   5
  -1   0   4 19.3917 1.99692   2
  -1   0   4 15.6813 1.62222   3
   0   0  -4 67.4683 2.60635   5
   0   0  -4 62.8316 2.21219   9
   0   0  -4 66.2859 1.77980   1
   0   0  -4 67.3804 2.61729   6
   0   0  -4 65.8716 3.04401   2
   0   0   4 61.0950 2.54534   5
   0   0   4 70.1549 2.52072   9
   0   0   4 65.9833 3.11359   2
   0   0   4 71.9986 3.00501   4
   0   0   4 63.3529 2.70252   3
  -1   0  -4 208.468 23.5776   2
  -1   0  -4 173.556 5.09631   9
  -1   0  -4 168.155 4.06587   3
  -1   0  -4 179.598 4.21339   6
   1   0   4 187.501 5.14734   2
   1   0   4 186.355 4.30786   5
   1   0   4 167.801 4.05862   9
   1   0   4 168.282 7.47311   3
   1   0   4 177.250 4.49561   4
  -2   0  -4 424.306 9.92250   1
  -2   0  -4 414.664 15.3519   4
  -2   0  -4 413.029 14.1145   9
  -2   0  -4 437.496 7.74577   6
  -2   0  -4 427.470 12.1305   3
  -2   0  -4 407.421 20.0385   2
   2   0   4 426.712 7.35818   9
   2   0   4 453.366 8.63854   4
   2   0   4 428.555 8.03790   5
   2   0   4 433.582 13.8406   2
   2   0   4 445.829 10.3845   3
  -3   0  -4 1.72014 1.84292   3
  -3   0  -4 2.13247 1.38052   1
  -3   0  -4 0.34175 1.92369   2
  -3   0  -4 -0.1062 1.92968   4
  -3   0  -4 -0.6232 0.67627   9
   3   0   4 2.42229 2.44960   2
   3   0   4 0.76517 1.80793   3
   3   0   4 -1.3219 1.31693   4
   3   0   4 1.11600 1.07066   5
   3   0   4 2.85661 0.96850   9
  -4   0  -4 261.323 9.96236   2
  -4   0  -4 305.119 9.10647   1
  -4   0  -4 272.342 7.41093   3
   4   0   4 266.533 6.00472   2
   4   0   4 281.627 6.19634   5
   4   0   4 276.239 7.68862   4
   4   0   4 278.087 7.86085   3
   4   0   4 289.919 5.77025   9
   4   0   4 293.339 6.29487   8
   4   0   4 291.848 6.79594  10
  -5   0  -4 6.96899 5.55967   1
  -5   0  -4 6.53245 2.25586   3
   5   0   4 11.6749 1.02248   5
   5   0   4 11.1648 0.92322   9
   5   0   4 9.06065 2.94937   4
   5   0   4 3.64365 2.80502  10
   5   0   4 7.90736 1.94800   2
   5   0   4 8.11470 1.84708   3
   5   0   4 5.95077 2.83568   8
  -6   0  -4 14.8823 3.14083   1
  -6   0  -4 18.7019 2.76574   3
   6   0   4 16.4985 3.51760   4
   6   0   4 24.5446 3.62215   8
   6   0   4 16.6152 3.63265  10
  -7   0  -4 366.543 11.5239   3
  -7   0  -4 367.714 12.3450   1
   7   0   4 356.310 11.9912   2
   7   0   4 361.432 9.23265   8
   7   0   4 351.731 10.9183   4
   7   0   4 332.706 14.5161  10
  -8   0  -4 16.1027 3.39883   1
  -8   0  -4 7.58606 2.87117   3
   8   0   4 11.8809 3.34562   8
   8   0   4 12.1714 3.09085   2
   8   0   4 13.8064 3.60241  10
   8   0   4 7.98982 4.31371   4
  -9   0  -4 39.5924 5.75406   1
   9   0   4 43.4784 4.82839   8
   9   0   4 38.1379 5.00599  10
   9   0   4 38.6812 4.85593   4
 -10   0  -4 75.1561 6.52962   6
 -10   0  -4 87.4772 6.60015   1
  10   0   4 70.8057 6.27047   8
  10   0   4 71.8395 7.01841  10
  10   0   4 62.0231 5.97724   4
  11  -1  -4 5.35889 5.24906  10
  11  -1  -4 4.13198 5.55445   8
 -11   1   4 6.00047 5.24128   1
  10  -1  -4 14.1436 5.33622   8
  10  -1  -4 16.3533 4.72874  10
  10  -1  -4 30.5967 4.76093   5
  10  -1  -4 25.3825 3.20639   9
 -10   1   4 23.9727 6.65163   1
   9  -1  -4 4.20625 3.15180   9
   9  -1  -4 9.18985 3.81390   5
   9  -1  -4 3.21418 3.29016   8
   9  -1  -4 5.16788 3.47433  10
  -9   1   4 2.62612 3.60871   1
   8  -1  -4 26.4190 2.67519   9
   8  -1  -4 16.3755 3.38516   8
   8  -1  -4 20.7611 3.53919   5
   8  -1  -4 17.4570 3.51356  10
  -8   1   4 8.26042 4.27928   1
   7  -1  -4 55.3883 3.58022   5
   7  -1  -4 62.4747 3.67288   9
  -7   1   4 58.5676 4.85763   1
  -7   1   4 44.9215 4.51778   3
  -7   1   4 47.4837 4.17825   7
   6  -1  -4 11.9856 7.03024   9
   6  -1  -4 17.2671 8.61743   5
  -6   1   4 6.71250 2.96147   1
  -6   1   4 9.51416 1.52187   3
  -6   1   4 6.75034 1.75647   3
  -6   1   4 10.1139 1.67178   7
   5  -1  -4 30.0001 2.66074   9
   5  -1  -4 26.0946 2.92924   1
   5  -1  -4 33.1981 3.10251   5
  -5   1   4 27.3006 2.03123   3
  -5   1   4 33.7213 2.53521   9
  -5   1   4 25.2729 2.92581   1
  -5   1   4 22.5269 1.96602   7
  -5   1   4 32.0677 3.48635   5
   4  -1  -4 188.307 8.38396   1
   4  -1  -4 196.397 6.88255   9
   4  -1  -4 195.055 5.63836   5
  -4   1   4 182.603 4.60635   1
  -4   1   4 185.242 6.30159   8
  -4   1   4 189.316 9.67434   7
  -4   1   4 198.612 6.99391   3
  -4   1   4 185.895 13.1687   5
  -4   1   4 194.520 10.0437   6
  -4   1   4 201.350 4.73744   9
  -4   1   4 194.842 7.52216  10
   3  -1  -4 229.705 5.26385   1
   3  -1  -4 225.513 4.81838   9
   3  -1  -4 220.132 4.94448   5
  -3   1   4 240.073 8.82948   6
  -3   1   4 229.121 8.83587   7
  -3   1   4 238.995 8.40170   3
  -3   1   4 231.427 7.00650   2
  -3   1   4 211.046 10.3077   8
  -3   1   4 216.272 10.1235  10
  -3   1   4 223.001 7.94744   9
  -3   1   4 239.512 5.51678   1
  -3   1   4 224.829 6.27926   5
   2  -1  -4 2.77778 3.13342   5
   2  -1  -4 1.21369 2.05196   9
   2  -1  -4 3.09798 1.13300   1
  -2   1   4 0.86684 2.36950   5
  -2   1   4 0.23096 1.42248   2
  -2   1   4 2.73219 0.96739   1
  -2   1   4 1.96230 0.36441   6
  -2   1   4 2.57898 1.33105   3
  -2   1   4 2.73214 1.65404   9
   1  -1  -4 11.4842 1.61600   3
   1  -1  -4 11.2801 1.51872   5
   1  -1  -4 10.8911 1.60458   9
   1  -1  -4 12.1864 0.73122   6
   1  -1  -4 8.77900 0.90413   1
   1  -1  -4 8.97378 1.46205   2
   1  -1  -4 10.7316 0.70198   7
  -1   1   4 11.8244 1.98805   2
  -1   1   4 12.4136 1.42544   3
  -1   1   4 12.2940 1.23315   1
  -1   1   4 9.13377 1.28349   9
  -1   1   4 9.29531 1.47859   5
   0  -1  -4 296.007 8.16990   5
   0  -1  -4 261.946 8.16796   1
   0  -1  -4 280.300 7.88512   2
   0  -1  -4 279.772 9.93342   9
   0  -1  -4 269.789 6.77201   3
   0  -1  -4 285.563 5.79807   6
   0   1   4 278.250 16.2105   5
   0   1   4 271.363 9.89126   9
   0   1   4 277.927 14.7443   3
   0   1   4 293.745 9.25959   2
   0   1   4 272.961 9.12799   1
  -1  -1  -4 4.10200 0.96498   1
  -1  -1  -4 1.23028 1.50711   3
  -1  -1  -4 2.60295 1.48316   2
  -1  -1  -4 2.87145 0.83939   9
  -1  -1  -4 2.04424 1.18888   5
   1   1   4 4.94875 4.94578   9
   1   1   4 1.36901 1.49230   2
   1   1   4 4.80688 6.80125   5
   1   1   4 4.73891 1.30030   3
   1   1   4 3.02291 1.27990   4
  -2  -1  -4 11.6838 1.62178   4
  -2  -1  -4 12.8731 1.17232   5
  -2  -1  -4 13.1239 1.17266   9
  -2  -1  -4 10.5244 1.90025   3
  -2  -1  -4 13.1381 1.81177   2
   2   1   4 15.0485 1.48328   9
   2   1   4 15.7580 1.50591   5
   2   1   4 13.0643 1.80400   2
   2   1   4 19.2588 2.62242   3
   2   1   4 13.4579 2.10158   4
  -3  -1  -4 9.01600 2.16124   4
  -3  -1  -4 6.78245 1.88441   3
  -3  -1  -4 6.15619 0.93738   9
  -3  -1  -4 7.64763 1.45238   2
   3   1   4 8.75381 2.06644   3
   3   1   4 8.55986 1.01318   5
   3   1   4 12.1025 1.88248   2
   3   1   4 6.78135 2.14711   4
   3   1   4 8.23923 1.00721   9
  -4  -1  -4 7.85206 2.10633   3
  -4  -1  -4 -0.7036 1.21805   1
  -4  -1  -4 0.31612 1.56301   4
  -4  -1  -4 0.14782 1.22721   2
   4   1   4 1.13934 1.88991   3
   4   1   4 -1.6820 2.26809  10
   4   1   4 1.50117 2.21966   8
   4   1   4 -0.5370 1.50109   4
   4   1   4 2.13790 1.70031   2
  -5  -1  -4 10.8762 2.44342   2
  -5  -1  -4 11.9045 2.56940   1
  -5  -1  -4 15.7993 2.53051   3
   5   1   4 14.4543 2.08278   3
   5   1   4 14.7825 3.13417  10
   5   1   4 16.9940 2.46332   2
   5   1   4 16.8544 3.05053   8
   5   1   4 18.5582 2.50707   4
  -6  -1  -4 13.8432 2.57886   1
  -6  -1  -4 13.1752 2.09382   3
   6   1   4 10.7260 3.30298   4
   6   1   4 10.6577 3.20455   8
   6   1   4 7.32629 3.25626  10
   6   1   4 13.1244 2.67716   2
  -7  -1  -4 71.3471 4.57053   3
  -7  -1  -4 73.7912 4.51584   1
   7   1   4 76.9427 4.45175   2
   7   1   4 60.4063 5.30606   8
   7   1   4 66.6256 4.47019   4
   7   1   4 72.9520 6.06015  10
  -8  -1  -4 7.57284 2.93660   3
  -8  -1  -4 8.21385 3.17507   1
   8   1   4 0.78913 4.19972   4
   8   1   4 4.65325 2.90468   8
   8   1   4 6.83330 3.25927  10
  -9  -1  -4 53.7126 5.09693   3
  -9  -1  -4 52.6706 6.07006   1
   9   1   4 52.2696 4.85761   8
   9   1   4 63.8261 5.46497  10
   9   1   4 61.6151 5.34495   4
 -10  -1  -4 2.73488 3.94057   1
  10   1   4 3.17380 4.01558  10
  10   1   4 4.90833 4.05004   4
  10   1   4 2.07927 3.68522   8
 -11  -1  -4 -3.1772 6.51486   1
  11   1   4 -1.8399 4.74728   8
  11   1   4 3.51552 4.79573   4
  11   1   4 2.58274 5.18726  10
 -11   2   4 34.3556 6.46074   1
  10  -2  -4 1.85303 3.49383   9
  10  -2  -4 2.24426 4.14854   8
  10  -2  -4 0.41209 4.15794  10
  10  -2  -4 -1.2114 3.77622   5
 -10   2   4 -3.3840 6.23942   1
   9  -2  -4 40.7313 4.75440   8
   9  -2  -4 42.0637 4.96331  10
   9  -2  -4 49.1919 4.16611   9
   9  -2  -4 45.7956 3.91275   5
  -9   2   4 37.7383 4.06796   6
  -9   2   4 36.5236 4.97362   1
   8  -2  -4 72.7602 3.66958   9
   8  -2  -4 78.6826 5.67524  10
   8  -2  -4 74.1503 4.74481   5
   8  -2  -4 61.2067 4.75429   8
  -8   2   4 70.3852 5.32502   1
   7  -2  -4 169.598 88.4036   5
   7  -2  -4 109.296 44.4973   9
   6  -2  -4 245.196 12.4767   9
   6  -2  -4 265.437 11.2511   5
  -6   2   4 227.215 24.0927   3
  -6   2   4 223.295 11.4854   7
  -6   2   4 235.372 13.3363   3
  -6   2   4 270.423 10.8032   1
   5  -2  -4 56.5388 3.15517   9
   5  -2  -4 58.0925 3.63146   5
  -5   2   4 47.1863 3.26900   5
  -5   2   4 49.8481 3.41753   7
  -5   2   4 47.1532 2.70676   3
  -5   2   4 52.8998 3.35455   1
   4  -2  -4 15.2850 2.38171   1
   4  -2  -4 17.3195 1.82926   9
   4  -2  -4 18.7044 2.15050   5
  -4   2   4 10.4876 2.49540   5
  -4   2   4 13.1389 1.24746   3
  -4   2   4 9.18991 2.11004  10
  -4   2   4 14.8878 1.29891   7
  -4   2   4 12.0413 2.15270   8
  -4   2   4 10.7287 1.89070   1
   3  -2  -4 283.437 5.87750   5
   3  -2  -4 274.248 6.28390   9
   3  -2  -4 277.598 12.9584   1
  -3   2   4 305.256 9.15293   5
  -3   2   4 286.574 11.6402   6
  -3   2   4 285.283 19.5301   8
  -3   2   4 256.721 14.8090   7
  -3   2   4 283.505 10.6423   3
  -3   2   4 255.751 20.5747  10
  -3   2   4 286.682 7.65698   1
   2  -2  -4 3.85184 0.95535   3
   2  -2  -4 2.75926 1.18231   9
   2  -2  -4 3.13340 1.34108   5
   2  -2  -4 3.37334 1.38688   1
  -2   2   4 4.50656 1.25820   1
  -2   2   4 6.12827 2.51307   5
  -2   2   4 1.91991 0.89782   3
   1  -2  -4 406.652 9.95243   3
   1  -2  -4 392.269 13.2257   9
   1  -2  -4 398.469 9.81047   5
   1  -2  -4 393.498 22.4095   1
  -1   2   4 392.241 7.18451   3
  -1   2   4 396.047 15.0945   5
  -1   2   4 390.870 18.4830   1
  -1   2   4 396.814 11.0697   2
   0  -2  -4 397.968 12.7218   1
   0  -2  -4 425.006 10.8030   9
   0  -2  -4 422.068 14.3268   7
   0  -2  -4 412.703 9.48939   5
   0  -2  -4 414.616 9.36172   3
   0  -2  -4 405.691 16.3968   2
   0   2   4 392.527 6.81322   3
   0   2   4 404.600 14.7907   2
   0   2   4 417.132 11.8989   1
   0   2   4 425.626 14.7997   5
  -1  -2  -4 0.19292 1.08244   1
  -1  -2  -4 0.52340 1.48560   3
  -1  -2  -4 -1.3460 1.01736   9
  -1  -2  -4 0.64678 1.08384   2
  -1  -2  -4 1.06792 1.19479   5
   1   2   4 0.61909 0.86686   5
   1   2   4 -0.5026 1.18088   2
   1   2   4 0.04739 1.68827   4
   1   2   4 2.48936 1.56085   3
  -2  -2  -4 151.311 3.66058   5
  -2  -2  -4 151.258 4.97732   3
  -2  -2  -4 152.861 8.19124   4
  -2  -2  -4 156.263 5.20093   2
  -2  -2  -4 150.935 4.05847   9
   2   2   4 154.276 4.86086   2
   2   2   4 148.116 7.72392   4
   2   2   4 151.110 4.61157   3
   2   2   4 144.296 7.32773   5
  -3  -2  -4 1154.42 33.1335   2
  -3  -2  -4 1179.03 30.8024   4
  -3  -2  -4 1143.99 30.5731   3
  -3  -2  -4 1155.77 28.2848   5
  -3  -2  -4 1170.94 24.5395   9
   3   2   4 1158.05 21.1143   3
   3   2   4 1073.24 44.7141   2
   3   2   4 1150.89 23.8289   4
   3   2   4 1135.23 31.4320   5
  -4  -2  -4 0.94944 0.60191   5
  -4  -2  -4 1.15005 0.60699   9
  -4  -2  -4 3.45383 2.21622   4
  -4  -2  -4 0.75290 1.94229   3
  -4  -2  -4 0.60534 1.05085   2
   4   2   4 1.94493 1.38507   2
   4   2   4 1.20696 0.69699   5
   4   2   4 1.16474 1.51941   4
   4   2   4 1.35102 2.25244   8
   4   2   4 -2.0046 2.25323  10
   4   2   4 0.71325 2.01829   3
   5   2   4 24.2549 5.48127   8
   5   2   4 12.8894 3.70998   4
   5   2   4 26.3009 5.25372  10
  -6  -2  -4 7.34054 2.27824   1
  -6  -2  -4 4.27798 2.23539   2
  -6  -2  -4 9.70768 2.73892   3
   6   2   4 4.88265 3.04840   4
   6   2   4 11.6619 2.24601   2
   6   2   4 4.97577 2.18834   8
   6   2   4 4.43089 2.22110  10
  -7  -2  -4 36.4312 4.18867   1
  -7  -2  -4 34.9958 3.75786   3
   7   2   4 30.9465 4.17864   4
   7   2   4 32.0647 4.30920  10
   7   2   4 32.1321 4.11243   8
  -8  -2  -4 39.7498 4.19126   3
  -8  -2  -4 54.4061 19.3452   1
   8   2   4 42.5462 4.18899   4
   8   2   4 44.1540 5.39552  10
   8   2   4 36.0437 4.84781   8
  -9  -2  -4 7.43277 3.56062   3
  -9  -2  -4 11.9777 5.00763   1
   9   2   4 -0.4411 4.55320  10
   9   2   4 6.53213 4.71636   4
   9   2   4 1.24287 4.33366   8
 -10  -2  -4 4.70913 5.67738   1
  10   2   4 1.17618 5.19077   4
  10   2   4 7.25005 5.58527  10
  10   2   4 -0.2169 5.05229   8
 -11  -2  -4 12.2065 5.25087   1
  11   2   4 6.64458 6.93862  10
  11   2   4 15.3298 6.61599   8
  11   2   4 9.16759 6.41109   4
 -11   3   4 11.4180 5.78902   1
 -10   3   4 79.5986 8.42454   1
   9  -3  -4 77.0512 9.05310   9
   9  -3  -4 83.3364 12.8785   5
  -9   3   4 66.8178 4.30630   6
  -9   3   4 88.0753 6.48165   1
   8  -3  -4 10.8506 2.74077   5
   8  -3  -4 1.61828 3.06377   8
   8  -3  -4 1.54403 3.08015  10
   8  -3  -4 6.05840 3.00929   9
  -8   3   4 5.25754 3.41842   1
  -8   3   4 5.43981 2.95317   6
   7  -3  -4 391.610 16.0642   5
   7  -3  -4 398.337 12.6734   9
  -7   3   4 402.706 16.2295   1
  -7   3   4 386.754 18.9520   6
   6  -3  -4 39.6746 2.74341   9
   6  -3  -4 34.5954 3.53885   5
  -6   3   4 22.9640 3.17513   1
  -6   3   4 29.1176 2.58174   6
   5  -3  -4 0.54531 2.34394   5
   5  -3  -4 1.36134 1.46845   9
  -5   3   4 0.05420 1.87451   1
  -5   3   4 0.33970 0.56973   3
  -5   3   4 0.91961 1.37047   6
   4  -3  -4 311.542 6.12507   9
   4  -3  -4 317.635 6.79829   5
  -4   3   4 311.879 16.4177   3
  -4   3   4 327.722 21.1763   6
  -4   3   4 337.489 10.4614   5
  -4   3   4 327.476 8.81271   1
   3  -3  -4 166.460 3.96711   3
   3  -3  -4 165.533 5.60050   1
   3  -3  -4 163.188 4.74176   5
   3  -3  -4 180.981 4.57759   9
  -3   3   4 182.531 11.4620   6
  -3   3   4 161.188 6.74862   8
  -3   3   4 169.608 7.24962   3
  -3   3   4 173.553 4.80127   1
  -3   3   4 161.255 7.92633   5
  -3   3   4 176.314 7.60745  10
   2  -3  -4 -0.2826 0.92997   3
   2  -3  -4 -0.5265 1.10948   9
   2  -3  -4 -0.8362 1.75536   5
   2  -3  -4 2.79700 1.59597   1
  -2   3   4 0.97241 1.12280   3
  -2   3   4 0.99517 1.35244   5
  -2   3   4 -0.7581 1.26125   1
   1  -3  -4 2143.72 64.8542   6
   1  -3  -4 2162.68 106.375   1
   1  -3  -4 2179.19 49.2007   5
   1  -3  -4 2126.80 59.8580   3
  -1   3   4 2187.14 85.9077   7
  -1   3   4 2232.59 63.1833   3
  -1   3   4 2272.90 102.096   5
  -1   3   4 2232.54 76.4721   1
   0  -3  -4 14.2646 1.73775   3
   0  -3  -4 11.6483 0.94668   7
   0  -3  -4 14.6310 1.48828   1
   0  -3  -4 13.7301 0.93607   6
   0   3   4 14.0850 1.64504   2
   0   3   4 12.5245 1.47262   3
   0   3   4 9.73687 1.80267   1
   0   3   4 14.2538 1.93083   5
   0   3   4 14.3157 1.09950   7
  -1  -3  -4 4.07651 1.22784   3
  -1  -3  -4 5.64928 1.19006   5
  -1  -3  -4 6.04483 1.53514   1
  -1  -3  -4 2.83885 1.07238   7
   1   3   4 4.64297 1.06804   2
   1   3   4 2.36837 1.62032   3
   1   3   4 5.99957 1.34761   1
   1   3   4 4.12828 1.79769   4
   1   3   4 6.27149 1.20585   5
  -2  -3  -4 120.846 5.30083   1
  -2  -3  -4 124.410 6.36070   4
  -2  -3  -4 120.511 3.64701   5
  -2  -3  -4 121.617 5.55937   2
  -2  -3  -4 123.582 3.73976   7
  -2  -3  -4 128.133 7.27704   3
   2   3   4 117.752 4.76094   3
   2   3   4 117.774 5.32717   5
   2   3   4 133.202 3.63313   4
   2   3   4 122.590 8.87544   2
  -3  -3  -4 118.988 4.35248   2
  -3  -3  -4 112.656 4.16473   3
  -3  -3  -4 117.369 6.03409   7
  -3  -3  -4 125.794 4.65002   4
  -3  -3  -4 120.776 3.21734   9
  -3  -3  -4 112.165 3.39250   5
   3   3   4 116.061 4.58455   2
   3   3   4 122.046 4.01417   4
   3   3   4 116.253 3.71013   5
   3   3   4 113.636 5.14982   3
  -4  -3  -4 0.84195 2.08221   4
  -4  -3  -4 0.65295 0.80613   9
  -4  -3  -4 -0.4990 2.14008   7
  -4  -3  -4 0.80566 0.75157   5
  -4  -3  -4 -1.0705 1.11111   2
  -4  -3  -4 -4.2658 2.09193   3
   4   3   4 -1.2819 2.08653   4
   4   3   4 2.39441 2.23877  10
   4   3   4 -0.3464 1.40845   3
   4   3   4 -0.7110 0.98169   2
   4   3   4 -0.8997 2.09753   8
  -5  -3  -4 45.3653 2.07387   9
  -5  -3  -4 51.2937 3.25510   3
  -5  -3  -4 35.9883 2.29282   2
  -5  -3  -4 42.9208 1.80741   5
   5   3   4 46.1299 7.26966   3
   5   3   4 49.0698 3.08402   8
   5   3   4 43.8690 2.40715   2
   5   3   4 40.8016 3.37364   4
   5   3   4 42.5805 3.03966  10
  -6  -3  -4 7.84824 2.87042   3
  -6  -3  -4 7.79612 2.00058   2
   6   3   4 9.86113 3.06888   8
   6   3   4 6.28488 2.28124   4
   6   3   4 8.85850 3.13171  10
  -7  -3  -4 23.2875 3.18841   1
  -7  -3  -4 20.9140 3.46013   3
  -7  -3  -4 11.4851 2.73553   2
   7   3   4 17.2433 2.89431   4
   7   3   4 19.8569 3.65925   8
   7   3   4 22.6695 3.96109  10
  -8  -3  -4 16.7104 4.28632   1
  -8  -3  -4 11.5216 3.68065   3
   8   3   4 10.9824 3.17774   8
   8   3   4 14.9121 4.19812   4
   8   3   4 15.7590 3.47729  10
  -9  -3  -4 1.90885 3.46601   1
  -9  -3  -4 3.18611 3.70708   3
   9   3   4 0.58048 3.00359   8
   9   3   4 -0.6859 3.13981  10
   9   3   4 -1.1408 2.98380   4
 -10  -3  -4 1.44248 4.27137   3
 -10  -3  -4 1.39135 4.00451   1
  10   3   4 -2.0358 3.57861   4
  10   3   4 -1.7011 5.17138  10
  10   3   4 0.99218 4.76773   8
 -11  -3  -4 5.12693 4.97139   1
  11   3   4 -2.7390 6.43237  10
  11   3   4 4.83727 4.44476   4
  11   3   4 4.10223 6.18086   8
 -10   4   4 36.7328 8.20911   1
   9  -4  -4 12.2434 4.25091   5
   9  -4  -4 13.4913 3.82787   9
  -9   4   4 11.5980 4.68938   1
  -9   4   4 9.56177 3.18043   6
   8  -4  -4 184.816 10.0673   9
   8  -4  -4 178.960 9.04822   5
  -8   4   4 167.781 11.8243   6
  -8   4   4 165.675 9.32424   1
   7  -4  -4 25.1234 3.78858   5
  -7   4   4 25.3847 3.33457   6
  -7   4   4 19.3985 4.85604   1
   6  -4  -4 19.4895 2.40308   9
   6  -4  -4 23.4325 2.86435   5
  -6   4   4 15.3956 2.49813   6
  -6   4   4 26.7228 4.61333   1
   5  -4  -4 180.056 5.95661   5
   5  -4  -4 167.247 4.70285   9
  -5   4   4 166.666 9.22805   6
  -5   4   4 164.957 7.20735   1
   4  -4  -4 178.586 4.61537   9
   4  -4  -4 176.470 6.20079   5
  -4   4   4 173.710 14.2683   1
  -4   4   4 169.344 5.84272   6
  -4   4   4 176.024 10.9687   3
   3  -4  -4 190.712 8.30816   1
   3  -4  -4 196.913 5.98888   5
   3  -4  -4 196.336 5.22986   3
  -3   4   4 204.790 6.30210   1
  -3   4   4 202.111 7.72501   3
  -3   4   4 199.331 7.62062   8
  -3   4   4 197.956 7.41875   5
  -3   4   4 204.700 5.58838   6
  -3   4   4 207.023 6.52859  10
   2  -4  -4 842.174 20.5177   1
   2  -4  -4 860.774 18.1069   5
   2  -4  -4 820.067 11.9216   3
   2  -4  -4 818.469 18.3977   6
  -2   4   4 893.217 37.2530   3
  -2   4   4 924.683 24.2732   8
  -2   4   4 897.425 51.9005   7
  -2   4   4 893.541 25.3976  10
  -2   4   4 872.156 16.7944   1
  -2   4   4 913.009 16.9003   5
  -2   4   4 892.106 35.3055   6
   1  -4  -4 37.5608 1.66896   6
   1  -4  -4 36.1112 2.40631   1
   1  -4  -4 37.1775 2.47324   5
   1  -4  -4 35.1236 2.04594   3
  -1   4   4 40.4580 2.59215   5
  -1   4   4 28.5748 2.89190   6
  -1   4   4 37.5384 3.40963   1
  -1   4   4 44.5494 5.51480   3
  -1   4   4 33.9372 2.77611   7
   0  -4  -4 65.7831 3.13794   7
   0  -4  -4 61.9306 2.79981   1
   0  -4  -4 65.8042 3.19310   6
   0  -4  -4 60.7889 2.50925   3
   0  -4  -4 59.4517 3.03942   5
   0   4   4 65.6471 3.83094   5
   0   4   4 69.3428 4.07954   1
   0   4   4 63.4561 3.40706   6
   0   4   4 62.8894 2.62565   7
   0   4   4 61.3786 2.94812   3
  -1  -4  -4 666.426 20.5099   5
  -1  -4  -4 652.307 16.6274   6
  -1  -4  -4 668.521 19.1304   3
  -1  -4  -4 673.825 23.8625   7
  -1  -4  -4 664.242 13.7536   1
   1   4   4 671.274 17.7673   4
   1   4   4 665.755 17.5726   1
   1   4   4 646.310 12.0757   5
   1   4   4 642.997 20.5840   2
   1   4   4 681.955 27.3982   7
   1   4   4 666.818 99.1317   3
  -2  -4  -4 203.069 4.75738   6
  -2  -4  -4 192.832 5.15876   7
  -2  -4  -4 198.847 4.80201   4
  -2  -4  -4 197.107 5.15475   3
  -2  -4  -4 197.853 9.65208   1
  -2  -4  -4 184.121 5.38178   5
   2   4   4 191.042 6.82749   7
   2   4   4 191.963 5.47915   3
   2   4   4 193.158 15.1621   5
   2   4   4 188.060 5.65309   4
   2   4   4 189.484 7.89781   2
  -3  -4  -4 228.295 6.02443   3
  -3  -4  -4 230.948 6.07016   2
  -3  -4  -4 236.343 8.35887   1
  -3  -4  -4 224.068 6.05624   5
  -3  -4  -4 238.626 5.16551   7
  -3  -4  -4 232.487 9.03126   4
   3   4   4 214.172 5.30301   2
   3   4   4 230.306 6.46477   4
   3   4   4 217.780 7.00272   3
  -4  -4  -4 258.423 5.32871   5
  -4  -4  -4 261.738 9.44728   3
  -4  -4  -4 265.849 8.50468   4
  -4  -4  -4 254.187 11.8428   7
  -4  -4  -4 257.551 6.74398   2
   4   4   4 246.703 12.1037  10
   4   4   4 249.765 8.57109   2
   4   4   4 246.246 15.4747   3
   4   4   4 260.574 12.0964   8
   4   4   4 273.835 7.03468   4
  -5  -4  -4 4.30305 1.10118   2
  -5  -4  -4 4.96166 2.66233   3
  -5  -4  -4 5.94535 1.08478   5
   5   4   4 6.37951 2.52531   8
   5   4   4 5.96377 2.55789  10
   5   4   4 6.88526 2.50794   4
  -6  -4  -4 67.4069 4.47493   3
  -6  -4  -4 70.7997 2.56954   9
  -6  -4  -4 72.9165 3.19795   5
  -6  -4  -4 65.6739 3.37699   2
   6   4   4 82.4238 4.05395   8
   6   4   4 65.1066 3.93593  10
   6   4   4 75.4370 3.98483   4
  -7  -4  -4 41.6849 4.26242   2
  -7  -4  -4 54.5894 3.99360   3
   7   4   4 54.7658 3.80799   8
   7   4   4 55.3710 3.99197  10
   7   4   4 52.2520 3.78072   4
  -8  -4  -4 8.01825 3.11208   1
  -8  -4  -4 4.31134 3.75125   3
   8   4   4 3.90731 3.71596   4
   8   4   4 8.12742 3.11972  10
   8   4   4 10.9075 3.07112   8
  -9  -4  -4 6.09074 23.6349   3
  -9  -4  -4 -1.6417 4.61020   1
   9   4   4 6.32222 3.18696   4
   9   4   4 7.79732 3.24305   8
   9   4   4 8.32726 3.45091  10
 -10  -4  -4 11.9282 5.95288   1
 -10  -4  -4 12.0503 4.83142   3
  10   4   4 21.7970 5.73737  10
  10   4   4 15.9400 5.18429   8
  10   4   4 15.4420 4.12114   4
 -11  -4  -4 -2.2599 6.66645   1
  11   4   4 -0.6678 7.28960   4
  11   4   4 5.07657 11.7822  10
  11   4   4 12.4181 11.4256   8
 -10   5   4 12.7800 8.63380   1
   9  -5  -4 96.6737 7.06091   5
   9  -5  -4 75.2556 4.60189   9
  -9   5   4 98.9710 11.1421   1
   8  -5  -4 101.299 6.20362   5
   8  -5  -4 106.002 5.40023   9
  -8   5   4 89.1555 5.98219   6
  -8   5   4 91.4828 9.36082   1
   7  -5  -4 17.7137 3.92807   5
   7  -5  -4 18.9883 3.51216   9
  -7   5   4 16.1627 3.65430   6
  -7   5   4 15.0679 4.22168   1
   6  -5  -4 372.130 10.8321   9
   6  -5  -4 380.239 10.3724   5
  -6   5   4 413.640 18.2166   1
  -6   5   4 386.772 14.8734   6
   5  -5  -4 2.98010 2.94463   5
  -5   5   4 1.75707 2.71902   1
  -5   5   4 2.87368 1.70331   6
   4  -5  -4 449.611 13.3242   3
   4  -5  -4 416.770 9.09526   5
  -4   5   4 466.170 21.6755   6
  -4   5   4 459.432 72.3913   1
   3  -5  -4 762.070 22.7688   6
   3  -5  -4 722.551 15.6280   3
   3  -5  -4 767.363 17.4401   5
  -3   5   4 810.363 52.3671   6
  -3   5   4 781.716 37.9000  10
  -3   5   4 776.083 26.8756   1
  -3   5   4 811.857 28.3147   7
  -3   5   4 777.128 53.0718   3
  -3   5   4 814.595 36.5364   8
   2  -5  -4 204.973 5.48706   5
   2  -5  -4 200.816 5.24878   3
   2  -5  -4 198.005 6.79095   6
  -2   5   4 215.777 5.92012   1
  -2   5   4 182.969 12.5552   5
  -2   5   4 207.867 7.96051   3
  -2   5   4 192.586 11.1088   6
  -2   5   4 199.678 9.22365   8
  -2   5   4 195.887 8.05761  10
  -2   5   4 206.698 6.95517   2
  -2   5   4 208.679 6.21635   7
   1  -5  -4 1406.66 27.6729   5
   1  -5  -4 1353.24 29.1911   3
   1  -5  -4 1392.04 51.8088   1
   1  -5  -4 1404.64 19.5740   6
  -1   5   4 1459.40 47.4942   6
  -1   5   4 1439.21 47.7936   3
  -1   5   4 1483.50 29.5550   2
  -1   5   4 1465.19 41.7244   5
  -1   5   4 1457.86 65.6562   7
  -1   5   4 1379.99 52.3522   1
   0  -5  -4 618.726 16.0679   5
   0  -5  -4 629.604 24.9543   7
   0  -5  -4 593.913 21.6687   1
   0  -5  -4 602.120 12.4054   6
   0  -5  -4 623.811 13.0111   3
   0   5   4 640.100 17.9759   2
   0   5   4 628.898 24.9092   6
   0   5   4 633.325 14.5655   1
   0   5   4 621.775 28.3881   5
   0   5   4 619.058 22.6795   7
   0   5   4 660.460 19.2642   3
  -1  -5  -4 2.18781 1.14614   6
  -1  -5  -4 3.21426 1.41281   5
  -1  -5  -4 2.87938 1.39613   3
  -1  -5  -4 2.77562 1.20851   7
  -1  -5  -4 2.73815 1.55562   1
   1   5   4 3.51404 1.04231   2
   1   5   4 2.50172 2.21149   7
   1   5   4 1.63895 1.87528   1
   1   5   4 2.08217 1.70625   4
   1   5   4 3.19323 1.48702   6
   1   5   4 3.13650 2.14585   3
  -2  -5  -4 247.920 7.04510   7
  -2  -5  -4 246.302 6.05074   5
  -2  -5  -4 263.700 19.3882   1
  -2  -5  -4 248.150 8.23391   3
  -2  -5  -4 244.312 5.23211   6
   2   5   4 251.886 4.86084   4
   2   5   4 238.577 12.1410   7
   2   5   4 236.351 16.8541   2
   2   5   4 234.739 13.5704   3
   2   5   4 242.360 11.5561   2
  -3  -5  -4 565.230 28.7679   1
  -3  -5  -4 567.923 26.9913   7
  -3  -5  -4 538.120 15.2600   3
  -3  -5  -4 561.859 15.3875   4
  -3  -5  -4 534.513 11.0205   5
  -3  -5  -4 541.200 16.5433   6
   3   5   4 555.775 12.7989   4
   3   5   4 543.521 17.2678   3
   3   5   4 538.163 21.2384   7
  -4  -5  -4 11.6935 2.80196   3
  -4  -5  -4 9.48337 1.40184   5
  -4  -5  -4 6.57159 2.27939   4
   4   5   4 11.9992 2.37102  10
   4   5   4 9.99482 2.24291   4
   4   5   4 14.8613 2.36694   8
  -5  -5  -4 132.915 4.83784   2
  -5  -5  -4 127.569 5.08938   5
  -5  -5  -4 116.985 5.27855   3
   5   5   4 127.045 4.44242   8
   5   5   4 147.784 4.96382   4
   5   5   4 135.349 4.56199  10
  -6  -5  -4 175.314 7.89125   2
  -6  -5  -4 190.131 6.50132   5
  -6  -5  -4 192.038 8.06658   3
   6   5   4 187.268 6.80325   4
   6   5   4 191.676 6.03816   8
   6   5   4 189.360 6.59386  10
  -7  -5  -4 1.70723 3.42266   3
  -7  -5  -4 0.35892 1.19766   5
   7   5   4 0.02747 3.01872   8
   7   5   4 2.21141 2.20983   4
   7   5   4 -4.4571 3.13195  10
  -8  -5  -4 9.69305 3.09165   3
   8   5   4 12.0332 3.07457   4
   8   5   4 12.1263 3.11529   8
   8   5   4 15.8004 3.38379  10
  -9  -5  -4 42.7289 4.86807   1
  -9  -5  -4 26.0448 5.17111   3
   9   5   4 35.3488 5.14514   8
   9   5   4 32.9689 4.14316   4
   9   5   4 36.2174 5.38309  10
 -10  -5  -4 -4.4128 5.51353   1
 -10  -5  -4 4.19811 5.19278   3
  10   5   4 -4.2250 4.90747   4
  10   5   4 -2.5800 4.66204   8
  10   5   4 -0.4551 4.99230  10
 -11  -5  -4 6.22049 5.28296   1
  11   5   4 11.2668 6.16822   8
  11   5   4 7.00685 4.37533   4
  11   5   4 10.1931 6.55236  10
   9  -6  -4 75.1224 5.90634   9
   9  -6  -4 78.9533 6.45218   5
  -9   6   4 59.0729 9.34556   1
   8  -6  -4 13.5704 3.91102   9
   8  -6  -4 13.2278 4.64245   5
  -8   6   4 14.0416 5.12773   1
  -8   6   4 8.49043 3.46713   6
   7  -6  -4 263.701 14.3304   5
   7  -6  -4 261.881 9.75231   9
  -7   6   4 252.789 16.9945   1
  -7   6   4 268.459 14.0847   6
   6  -6  -4 52.9382 4.96989   5
  -6   6   4 50.6138 5.04326   1
  -6   6   4 46.4028 4.33586   6
   5  -6  -4 22.3876 3.18339   5
  -5   6   4 22.2442 3.43116   6
  -5   6   4 24.1551 4.88028   1
   4  -6  -4 1487.43 33.3624   5
   4  -6  -4 1423.22 48.4081   3
  -4   6   4 1583.47 52.6828   1
  -4   6   4 1529.89 57.3160   6
   3  -6  -4 153.066 6.76910   3
   3  -6  -4 151.455 7.56836   6
   3  -6  -4 152.978 6.38264   5
  -3   6   4 149.430 9.17144   8
  -3   6   4 157.374 9.85096  10
  -3   6   4 159.215 7.38585   3
  -3   6   4 159.044 6.19985   7
  -3   6   4 156.977 9.70296   6
  -3   6   4 155.873 5.94625   1
   2  -6  -4 291.855 17.8227   6
   2  -6  -4 289.936 10.5237   3
   2  -6  -4 276.359 7.08801   5
  -2   6   4 301.251 9.41092   1
  -2   6   4 304.466 10.2788   3
  -2   6   4 292.925 13.6248  10
  -2   6   4 313.760 14.3000   8
  -2   6   4 313.229 15.2207   2
  -2   6   4 309.674 9.98845   7
  -2   6   4 303.783 11.8489   6
   1  -6  -4 582.303 20.0592   3
   1  -6  -4 596.973 10.7232   6
   1  -6  -4 587.425 14.7727   5
  -1   6   4 621.880 19.4806   6
  -1   6   4 607.208 18.8804   1
  -1   6   4 619.630 38.0488   2
  -1   6   4 602.231 18.2569   7
  -1   6   4 564.873 29.9425   3
   0  -6  -4 3.61010 1.72140   5
   0  -6  -4 2.74248 1.37683   6
   0  -6  -4 3.02411 1.92457   3
   0  -6  -4 3.54276 1.35614   7
   0   6   4 1.58522 2.20044   7
   0   6   4 1.31518 2.30653   6
   0   6   4 4.55223 2.72762   1
   0   6   4 2.70587 1.37880   2
   0   6   4 2.32369 2.13070   3
  -1  -6  -4 364.382 9.84647   6
  -1  -6  -4 355.907 7.43285   5
  -1  -6  -4 359.407 8.35928   3
  -1  -6  -4 363.364 13.3225   7
   1   6   4 337.492 20.2199   3
   1   6   4 359.420 7.88563   2
   1   6   4 348.510 16.7432   7
   1   6   4 341.018 17.3451   1
   1   6   4 351.786 8.73063   4
   1   6   4 337.028 16.6359   6
  -2  -6  -4 523.599 22.2903   7
  -2  -6  -4 530.978 18.3176   6
  -2  -6  -4 519.570 14.2603   5
  -2  -6  -4 531.667 12.9675   3
   2   6   4 493.361 15.5771   2
   2   6   4 519.369 20.7037   7
   2   6   4 515.097 17.3255   3
   2   6   4 520.778 19.1548   4
   2   6   4 503.045 24.9363   2
  -3  -6  -4 71.6923 3.35602   5
  -3  -6  -4 80.2784 3.45008   4
  -3  -6  -4 85.3784 4.75058   6
  -3  -6  -4 77.7254 3.91778   3
  -3  -6  -4 81.6368 4.38632   7
   3   6   4 83.3506 4.16669   4
   3   6   4 73.8476 4.58770   7
  -4  -6  -4 290.052 12.4475   4
  -4  -6  -4 285.330 8.00352   3
  -4  -6  -4 265.873 9.76630   5
   4   6   4 255.808 8.80711  10
   4   6   4 266.680 10.8931   7
   4   6   4 261.231 6.43542   4
   4   6   4 280.418 9.62837   8
  -5  -6  -4 169.076 9.07718   3
  -5  -6  -4 154.714 7.56420   5
   5   6   4 168.041 5.43124   4
   5   6   4 156.436 10.7019   7
   5   6   4 161.641 9.01840  10
   5   6   4 166.645 8.51246   8
  -6  -6  -4 3.99363 3.56998   3
  -6  -6  -4 2.52699 1.78814   5
   6   6   4 2.79881 2.02829  10
   6   6   4 3.75404 2.04611   8
   6   6   4 4.25451 2.80155   4
  -7  -6  -4 257.867 9.10160   3
  -7  -6  -4 235.094 15.5990   5
   7   6   4 254.255 11.3830  10
   7   6   4 257.778 7.85393   4
   7   6   4 248.317 10.7982   8
  -8  -6  -4 12.8779 4.48639   3
   8   6   4 24.2696 4.28437   4
   8   6   4 18.2378 4.40040  10
   8   6   4 26.6219 4.33366   8
  -9  -6  -4 -2.8196 3.40085   3
  -9  -6  -4 2.08636 3.56623   1
   9   6   4 1.13678 4.15953   8
   9   6   4 7.65504 4.56386  10
   9   6   4 -0.1624 4.26593   4
 -10  -6  -4 30.3349 6.20857   3
 -10  -6  -4 43.7052 7.16018   1
  10   6   4 53.3470 5.03694   8
  10   6   4 49.1598 5.23584  10
  10   6   4 51.5002 6.99705   4
 -11  -6  -4 4.39737 6.71881   3
 -11  -6  -4 8.15309 5.21125   1
  11   6   4 11.4449 6.13043   4
  11   6   4 11.6229 6.27000   8
  11   6   4 9.44942 6.57135  10
  -9   7   4 53.8604 9.68503   1
   8  -7  -4 55.7136 4.55031   9
   8  -7  -4 44.2651 5.76999   5
  -8   7   4 43.3287 6.45408   1
   7  -7  -4 28.7484 4.13967   5
  -7   7   4 33.6136 7.03408   1
  -7   7   4 23.0447 3.94886   6
   6  -7  -4 77.9907 5.93316   5
  -6   7   4 75.4972 4.78776   6
  -6   7   4 82.8699 7.44593   1
   5  -7  -4 238.615 9.64999   5
  -5   7   4 229.847 11.7106   1
  -5   7   4 243.228 11.7244   6
   4  -7  -4 538.757 20.0581   5
   4  -7  -4 533.921 19.1425   3
  -4   7   4 556.900 39.7845   7
  -4   7   4 563.071 25.4257   6
  -4   7   4 573.554 50.3824   1
   3  -7  -4 146.089 6.09382   3
   3  -7  -4 145.085 6.24097   5
  -3   7   4 140.223 9.21458   7
  -3   7   4 172.462 7.01349   1
  -3   7   4 149.004 8.15849   6
   2  -7  -4 894.210 31.4231   3
   2  -7  -4 885.836 51.5497   6
   2  -7  -4 892.632 22.4546   5
  -2   7   4 883.812 42.0368   6
  -2   7   4 909.038 28.3801   1
  -2   7   4 918.336 32.3701   7
  -2   7   4 889.106 56.9785   8
  -2   7   4 895.856 54.7750   3
  -2   7   4 913.880 61.3763  10
   1  -7  -4 46.6624 3.50812   5
   1  -7  -4 40.3468 3.29034   6
   1  -7  -4 42.6674 3.03159   3
  -1   7   4 42.7042 3.50831   7
  -1   7   4 49.5205 3.49508  10
  -1   7   4 37.5063 3.44874   3
  -1   7   4 49.9896 3.51685   6
  -1   7   4 51.3628 3.74218   8
  -1   7   4 38.6319 3.12800   2
  -1   7   4 43.0377 3.69683   1
   0  -7  -4 285.227 16.5421   6
   0  -7  -4 292.762 8.32931   5
   0  -7  -4 283.443 8.65009   3
   0   7   4 286.142 11.5093   2
   0   7   4 288.024 11.9418   1
   0   7   4 282.495 9.57880   6
   0   7   4 251.381 19.2393   3
   0   7   4 277.684 14.7358   7
  -1  -7  -4 880.838 51.4564   6
  -1  -7  -4 852.606 21.4214   5
  -1  -7  -4 879.813 26.3926   3
  -1  -7  -4 867.551 43.5708   7
   1   7   4 856.552 38.2435   1
   1   7   4 845.944 19.6346   2
   1   7   4 863.387 53.7545   6
   1   7   4 833.783 36.2067   4
   1   7   4 843.259 52.7577   7
  -2  -7  -4 51.7610 3.42437   3
  -2  -7  -4 45.8441 3.75300   5
   2   7   4 40.5468 3.51131   6
   2   7   4 50.2343 2.62962   4
   2   7   4 51.7376 2.27798   2
   2   7   4 37.9264 3.22610   7
  -3  -7  -4 480.289 13.9099   3
  -3  -7  -4 495.957 11.6306   5
   3   7   4 483.331 18.7632   4
   3   7   4 489.433 19.5180   7
  -4  -7  -4 409.112 19.5400   3
  -4  -7  -4 426.367 11.2526   5
  -4  -7  -4 417.187 16.1394   4
   4   7   4 427.320 15.2847   4
   4   7   4 407.767 7.66018  10
   4   7   4 414.400 8.20879   8
   4   7   4 416.114 18.7289   7
  -5  -7  -4 82.0969 5.95194   3
  -5  -7  -4 75.1221 4.09857   5
   5   7   4 80.8364 3.90420   8
   5   7   4 76.5971 5.70579   7
   5   7   4 95.9842 4.16013   4
   5   7   4 82.5503 4.10197  10
  -6  -7  -4 298.289 9.43141   3
  -6  -7  -4 276.936 11.9169   5
   6   7   4 408.311 38.7931   8
   6   7   4 251.754 18.8231   7
   6   7   4 434.503 80.2756   4
   6   7   4 420.186 41.8908  10
  -7  -7  -4 104.199 5.97612   5
  -7  -7  -4 114.572 6.36552   3
   7   7   4 114.711 6.75657   8
   7   7   4 116.473 6.79777  10
   7   7   4 112.448 5.43414   4
  -8  -7  -4 -0.0293 4.88498   3
   8   7   4 3.65638 3.67509   8
   8   7   4 4.08751 2.72853   4
   8   7   4 4.68783 3.95310  10
  -9  -7  -4 47.4833 8.77183   3
   9   7   4 58.5227 5.72907   4
   9   7   4 44.1883 5.19108   8
   9   7   4 47.8970 5.61021  10
 -10  -7  -4 -0.6530 6.03799   3
 -10  -7  -4 4.95558 4.60556   1
  10   7   4 8.40094 5.03901   8
  10   7   4 4.66781 5.24867  10
  10   7   4 9.78522 5.21899   4
 -11  -7  -4 8.55855 7.73113   1
 -11  -7  -4 52.6721 20.8869   3
  11   7   4 10.8814 6.22191   8
  11   7   4 5.96311 6.60338  10
  11   7   4 1.31265 4.24429   4
   8  -8  -4 2.87533 5.36074   5
   8  -8  -4 7.01821 4.91242   9
  -8   8   4 -0.0537 5.67758   1
   7  -8  -4 175.880 9.69420   5
  -7   8   4 151.427 11.9021   1
  -7   8   4 120.476 11.5739   6
   6  -8  -4 205.261 11.7768   5
  -6   8   4 192.357 10.6189   7
  -6   8   4 175.218 12.5637   6
  -6   8   4 209.653 12.1267   1
   5  -8  -4 147.115 7.52282   5
  -5   8   4 147.886 8.24703   1
  -5   8   4 143.839 11.0545   6
  -5   8   4 149.520 9.73946   7
   4  -8  -4 506.568 25.2298   3
   4  -8  -4 481.804 20.6494   5
  -4   8   4 509.930 34.2867   7
  -4   8   4 518.690 27.6570   6
  -4   8   4 525.097 27.8694   1
   3  -8  -4 220.117 11.5198   3
   3  -8  -4 221.139 7.91638   5
  -3   8   4 211.112 14.2244   6
  -3   8   4 226.538 10.6458   1
  -3   8   4 204.553 12.2208   7
   2  -8  -4 51.5721 4.83368   5
   2  -8  -4 56.2899 3.42107   3
  -2   8   4 51.4778 5.02043  10
  -2   8   4 51.5632 4.21569   8
  -2   8   4 44.5130 5.22005   1
  -2   8   4 44.0050 3.87286   6
  -2   8   4 49.5657 3.82424   7
  -2   8   4 36.7782 4.93018   4
   1  -8  -4 421.861 20.7398   3
   1  -8  -4 463.938 14.0386   5
  -1   8   4 404.891 29.5718   3
  -1   8   4 445.817 38.0921   1
  -1   8   4 446.395 32.0308   8
  -1   8   4 439.975 18.4409   6
  -1   8   4 433.170 19.8987   7
  -1   8   4 458.508 31.6848  10
   0  -8  -4 658.062 30.2480   3
   0  -8  -4 658.724 23.3876   5
   0   8   4 678.743 32.5334   7
   0   8   4 679.274 33.1889   2
   0   8   4 653.125 35.4902   4
   0   8   4 665.854 28.2306   6
   0   8   4 660.415 34.4589   1
   0   8   4 675.185 41.2344   8
   0   8   4 661.716 42.4854  10
  -1  -8  -4 43.7546 3.91682   3
  -1  -8  -4 45.8912 4.39611   5
   1   8   4 50.0194 3.36083   4
   1   8   4 49.8159 4.14062   1
   1   8   4 47.1495 2.48115   2
   1   8   4 36.1690 5.18806   6
  -2  -8  -4 427.615 12.4504   5
  -2  -8  -4 433.991 17.7639   3
   2   8   4 443.698 22.1121   2
   2   8   4 429.614 27.9846   6
   2   8   4 429.279 24.0332   4
   2   8   4 446.949 31.5773   7
  -3  -8  -4 343.624 14.6880   3
  -3  -8  -4 334.976 11.7574   5
   3   8   4 342.790 14.7348   4
   3   8   4 344.847 16.3029   7
  -4  -8  -4 116.014 8.07385   3
  -4  -8  -4 128.597 5.93290   5
   4   8   4 131.244 4.81678   8
   4   8   4 128.000 5.38443  10
   4   8   4 129.257 5.14668   4
   4   8   4 126.307 8.15792   7
  -5  -8  -4 289.560 12.6829   5
  -5  -8  -4 272.750 13.6062   4
  -5  -8  -4 304.303 12.4204   3
   5   8   4 302.785 8.46624   4
   5   8   4 272.019 12.4573   8
   5   8   4 286.288 16.2498   7
   5   8   4 296.447 12.5804  10
  -6  -8  -4 67.3290 4.80562   5
  -6  -8  -4 68.3341 5.15948   3
   6   8   4 71.8012 4.95376  10
   6   8   4 69.8728 5.83009   7
   6   8   4 80.8515 4.43469   8
   6   8   4 73.6941 4.34876   4
  -7  -8  -4 7.86807 4.99796   3
  -7  -8  -4 6.15641 2.30976   5
   7   8   4 10.3353 2.81593  10
   7   8   4 16.0232 2.83756   8
   7   8   4 12.8105 2.65928   4
  -8  -8  -4 23.2612 5.96931   3
   8   8   4 26.2534 4.29886   4
   8   8   4 28.4885 4.53029  10
   8   8   4 28.0989 4.30692   8
  -9  -8  -4 31.2117 5.52769   3
   9   8   4 35.5538 5.05237   8
   9   8   4 38.1126 5.28442   4
   9   8   4 28.4631 5.18717  10
 -10  -8  -4 8.13579 6.88434   3
  10   8   4 20.2698 4.22568   4
  10   8   4 13.8716 5.79307  10
  10   8   4 12.4107 5.38864   8
   7  -9  -4 115.230 10.4093   5
  -7   9   4 115.032 10.8727   1
  -7   9   4 101.326 21.6826   6
   6  -9  -4 19.3723 4.37064   5
  -6   9   4 12.4149 4.42962   7
  -6   9   4 19.2595 5.93939   1
  -6   9   4 10.9801 4.45051   6
   5  -9  -4 154.538 9.58738   5
  -5   9   4 168.199 11.3831   1
  -5   9   4 157.859 9.29581   6
  -5   9   4 141.045 9.53201   7
   4  -9  -4 165.048 9.72850   5
  -4   9   4 150.096 10.6686   6
  -4   9   4 168.114 10.6100   1
  -4   9   4 149.002 9.82819   7
   3  -9  -4 124.216 8.38718   3
   3  -9  -4 118.786 7.40181   5
  -3   9   4 110.948 8.31629   6
  -3   9   4 117.741 7.32438   7
  -3   9   4 113.229 8.81712   1
   2  -9  -4 221.351 8.79821   5
   2  -9  -4 244.180 10.2179   3
  -2   9   4 215.523 13.6586   7
  -2   9   4 223.250 13.3991   1
  -2   9   4 229.501 14.8581   6
   1  -9  -4 212.697 11.0794   3
   1  -9  -4 219.650 8.72862   5
  -1   9   4 162.456 21.4448   4
  -1   9   4 220.022 12.1796   1
  -1   9   4 181.885 21.3953   8
  -1   9   4 188.389 22.2755  10
  -1   9   4 186.608 11.4766   6
  -1   9   4 224.946 12.6256   7
   0  -9  -4 25.9885 2.98653   3
   0  -9  -4 39.6121 4.81637   5
   0   9   4 28.0706 3.39655   2
   0   9   4 28.3522 3.06922  10
   0   9   4 29.7615 3.99465   1
   0   9   4 19.7401 3.63945   7
   0   9   4 32.0638 2.93541   4
   0   9   4 23.2847 3.84393   6
   0   9   4 26.2043 3.11789   8
  -1  -9  -4 349.284 17.0218   3
  -1  -9  -4 356.481 16.0452   5
   1   9   4 324.490 23.0113   4
   1   9   4 292.490 30.8132  10
   1   9   4 319.843 19.9906   1
   1   9   4 348.196 18.7610   6
   1   9   4 319.736 15.1010   2
   1   9   4 356.909 21.8746   7
   1   9   4 299.170 31.9801   8
  -2  -9  -4 258.613 13.9541   5
  -2  -9  -4 243.117 12.4332   3
   2   9   4 239.620 12.6371   4
   2   9   4 271.641 15.7020   6
   2   9   4 254.115 17.1330   7
   2   9   4 231.103 15.4742   2
  -3  -9  -4 102.844 5.29437   5
  -3  -9  -4 96.9396 5.29672   3
   3   9   4 98.7179 4.71976   4
   3   9   4 77.2549 6.38684   7
   3   9   4 98.0415 7.29995   2
   3   9   4 95.4891 7.78032   6
   3   9   4 95.8993 5.96198  10
   3   9   4 98.3352 4.23890   8
  -4  -9  -4 652.675 24.6571   3
  -4  -9  -4 639.582 25.5027   5
   4   9   4 610.111 37.6593   7
   4   9   4 619.240 24.6089   8
   4   9   4 630.211 21.1435   4
   4   9   4 636.144 29.1224  10
  -5  -9  -4 28.2460 3.52846   5
  -5  -9  -4 35.7914 4.36539   3
   5   9   4 34.4270 2.97179   4
   5   9   4 32.7556 2.96820  10
   5   9   4 30.0265 5.63713   7
   5   9   4 40.8394 3.14702   8
  -6  -9  -4 8.13037 3.66944   3
  -6  -9  -4 5.79329 13.6876   5
   6   9   4 4.81348 5.61906   7
   6   9   4 11.9432 3.06955   8
   6   9   4 12.0833 2.96451   4
   6   9   4 14.9232 3.26873  10
  -7  -9  -4 202.791 12.4907   3
  -7  -9  -4 182.708 8.54933   5
   7   9   4 214.974 12.8765  10
   7   9   4 191.924 16.8460   7
   7   9   4 203.321 12.1685   8
   7   9   4 205.047 13.7244   4
  -8  -9  -4 9.77665 6.10743   3
   8   9   4 10.1266 2.86581   8
   8   9   4 10.7153 2.94181   4
   8   9   4 7.65156 3.03054  10
  -9  -9  -4 9.22889 5.10901   3
   9   9   4 18.2891 3.93363  10
   9   9   4 21.9084 4.95148   4
   9   9   4 20.6548 3.86143   8
 -10  -9  -4 33.1088 8.56006   3
  10   9   4 55.9369 8.74827   4
  10   9   4 55.5684 6.42962   8
  10   9   4 52.1737 6.79507  10
   6 -10  -4 111.389 8.84744   5
  -6  10   4 99.7375 8.91465   6
  -6  10   4 102.257 9.54847   7
  -6  10   4 126.407 10.1067   1
   5 -10  -4 95.6145 7.83728   5
  -5  10   4 75.6639 7.47966   1
  -5  10   4 61.2178 7.99533   6
  -5  10   4 65.7197 7.75941   7
  -4  10   4 43.9438 7.95907   1
  -4  10   4 38.5003 5.38555   7
  -4  10   4 26.8568 5.21907   6
   3 -10  -4 156.592 10.4731   5
   3 -10  -4 147.557 14.6846   3
  -3  10   4 145.519 10.1238   6
  -3  10   4 163.980 14.2585   1
  -3  10   4 163.777 12.7087   7
   2 -10  -4 63.4387 5.86214   3
   2 -10  -4 67.9891 6.38502   5
  -2  10   4 53.9898 5.69908   1
  -2  10   4 41.3657 4.92374   7
  -2  10   4 52.5965 5.44581   6
   1 -10  -4 113.085 8.46377   3
   1 -10  -4 130.482 8.61434   5
  -1  10   4 126.315 10.4793   1
  -1  10   4 107.017 8.67730   6
  -1  10   4 112.666 7.43820   7
   0 -10  -4 303.222 11.6946   5
   0 -10  -4 326.049 16.6798   3
   0  10   4 271.717 34.2001   4
   0  10   4 292.839 15.9392   6
   0  10   4 285.688 20.1349   7
   0  10   4 316.415 19.0631   1
  -1 -10  -4 204.821 11.8447   3
  -1 -10  -4 204.233 10.5131   5
   1  10   4 191.827 16.0377   6
   1  10   4 192.363 15.1361   4
   1  10   4 211.767 14.2365   1
   1  10   4 205.027 12.2359   7
  -2 -10  -4 178.935 11.0978   3
  -2 -10  -4 184.853 8.49381   5
   2  10   4 162.939 11.7714   7
   2  10   4 184.176 9.13371   4
   2  10   4 173.791 10.3480  10
   2  10   4 171.060 10.0168   8
   2  10   4 165.555 11.7647   6
  -3 -10  -4 204.397 10.3306   5
  -3 -10  -4 207.181 11.0154   3
   3  10   4 213.733 12.3066   8
   3  10   4 210.711 14.4943   7
   3  10   4 203.440 12.8254  10
   3  10   4 217.213 11.7697   4
   3  10   4 216.872 15.6700   6
  -4 -10  -4 222.813 13.7041   3
  -4 -10  -4 227.441 10.0475   5
   4  10   4 240.298 12.8505   8
   4  10   4 223.799 11.5208   4
   4  10   4 198.140 15.5892   7
   4  10   4 229.781 13.2471  10
  -5 -10  -4 0.82513 2.96149   5
  -5 -10  -4 -4.0437 4.61546   3
   5  10   4 -1.5174 2.10090   8
   5  10   4 -0.4160 2.55544   4
   5  10   4 -1.6038 2.20649  10
   5  10   4 -0.4759 4.00399   7
  -6 -10  -4 168.840 12.4370   3
  -6 -10  -4 173.026 10.6834   5
   6  10   4 185.737 10.3890   4
   6  10   4 173.773 11.1944  10
   6  10   4 161.156 14.0884   7
   6  10   4 177.428 10.9797   8
  -7 -10  -4 3.81679 4.54415   5
  -7 -10  -4 -0.3112 5.73555   3
   7  10   4 6.23580 7.06854   7
   7  10   4 3.30790 3.58772   4
   7  10   4 3.02458 3.83859   8
  -8 -10  -4 18.1991 7.05911   3
   8  10   4 29.7003 6.30148   7
  -9 -10  -4 47.7209 7.07406   3
   4 -11  -4 125.609 9.76215   5
  -4  11   4 88.1763 9.28071   6
  -4  11   4 110.488 10.5933   1
  -4  11   4 88.5723 7.73507   7
   3 -11  -4 54.4596 6.49964   5
  -3  11   4 41.7860 7.86431   6
  -3  11   4 45.9357 8.49560   1
  -3  11   4 44.2262 10.7186   7
   2 -11  -4 57.6872 6.20201   3
   2 -11  -4 73.5123 7.40934   5
  -2  11   4 44.9162 5.99250   7
  -2  11   4 38.1963 6.06389   6
  -2  11   4 58.9205 8.38803   1
   1 -11  -4 172.784 11.3962   5
   1 -11  -4 163.197 12.3412   3
  -1  11   4 182.195 25.4043   1
  -1  11   4 143.493 11.2174   7
  -1  11   4 152.793 10.6935   6
   0 -11  -4 46.7752 11.0840   3
   0 -11  -4 38.1237 6.25026   5
   0  11   4 47.8324 8.04668   1
   0  11   4 29.6156 8.93591   7
   0  11   4 45.1110 8.85918   6
  -1 -11  -4 117.078 8.89302   3
  -1 -11  -4 116.391 7.78903   5
   1  11   4 108.565 7.83501   6
   1  11   4 112.935 9.52339   7
   1  11   4 125.213 9.97933   1
  -2 -11  -4 92.5566 6.86588   3
  -2 -11  -4 97.9932 6.39047   5
   2  11   4 85.8362 8.69930   7
   2  11   4 97.4144 8.46313   6
  -3 -11  -4 61.9705 6.52129   5
  -3 -11  -4 53.2438 6.14816   3
   3  11   4 53.1285 6.25461   6
   3  11   4 47.7284 5.74502   7
  -4 -11  -4 99.6848 7.38622   5
  -4 -11  -4 105.269 8.84605   3
   4  11   4 98.3363 9.24592   7
  -5 -11  -4 5.27109 5.58881   3
  -5 -11  -4 4.02091 5.18703   5
   5  11   4 0.37777 6.76415   7
  -6 -11  -4 35.7392 6.28334   3
  -6 -11  -4 22.1754 4.51025   5
   6  11   4 22.7780 17.2135   7
  -7 -11  -4 10.8929 5.01392   3
  -7 -11  -4 10.2281 5.53251   5
   7  11   4 1.55767 8.00509   7
  -8 -11  -4 2.40511 5.35740   3
   8  11   4 23.1602 6.80572   7
   3 -12  -4 65.7446 8.67427   5
  -3  12   4 48.2429 10.6257   6
  -3  12   4 43.8046 7.27131   7
  -3  12   4 47.8184 9.83529   1
   2 -12  -4 68.9164 12.9242   5
  -2  12   4 57.0974 9.27052   7
  -2  12   4 62.7907 7.59601   1
  -2  12   4 59.2349 7.70774   6
   1 -12  -4 24.4688 6.03420   3
   1 -12  -4 19.2005 5.04853   5
  -1  12   4 9.65765 5.89555   6
  -1  12   4 12.1625 5.49169   7
  -1  12   4 19.3902 7.60750   1
   0 -12  -4 29.5471 7.31368   5
   0 -12  -4 25.8337 4.55330   3
   0  12   4 22.8099 5.72412   1
   0  12   4 26.7247 6.28539   6
   0  12   4 21.6086 5.79493   7
  -1 -12  -4 138.614 10.2534   5
  -1 -12  -4 137.373 10.3280   3
   1  12   4 124.661 10.2416   7
   1  12   4 115.555 10.7017   1
   1  12   4 123.450 10.6926   6
  -2 -12  -4 27.9283 6.25737   3
   2  12   4 19.5646 5.99597   7
   2  12   4 21.3765 8.16852   6
  -3 -12  -4 74.6442 7.71325   5
  -3 -12  -4 105.878 8.29944   3
   3  12   4 84.4101 9.46349   6
   3  12   4 78.8317 7.44908   7
  -4 -12  -4 36.2895 7.45362   3
  -4 -12  -4 39.8394 5.60545   5
   4  12   4 42.3455 7.39649   6
   4  12   4 42.5327 8.64486   7
  -5 -12  -4 -0.0282 4.51021   3
  -5 -12  -4 -5.2343 5.89418   5
   5  12   4 -2.2976 5.40113   7
  -6 -12  -4 19.4323 5.72251   3
  -6 -12  -4 15.8246 6.52381   5
   6  12   4 24.7079 8.93188   7
  -7 -12  -4 66.0070 51.1892   3
   7  12   4 53.4482 15.0933   7
   0 -13  -4 75.8910 8.00218   3
   0 -13  -4 75.1106 7.95857   5
   0  13   4 58.1350 8.14376   7
   0  13   4 58.9834 7.92478   1
   0  13   4 81.0406 8.91408   6
  -1 -13  -4 38.8405 6.71670   5
  -1 -13  -4 36.9565 5.77144   3
   1  13   4 19.2606 6.88468   7
   1  13   4 23.6471 7.13218   6
  -2 -13  -4 4.17266 6.50443   3
  -2 -13  -4 9.75806 5.31642   5
   2  13   4 7.08215 6.48078   6
   2  13   4 12.2817 6.76770   7
  -3 -13  -4 27.2174 7.33968   3
  -3 -13  -4 22.3115 7.44065   5
   3  13   4 16.8248 6.66856   7
   3  13   4 16.6772 7.17545   6
  -4 -13  -4 -2.6948 6.93870   5
  -4 -13  -4 2.22215 4.94797   3
   4  13   4 0.27834 9.48129   7
   4  13   4 9.99183 7.61202   6
  -5 -13  -4 4.07288 7.70311   3
  -5 -13  -4 5.53700 7.25393   5
   5  13   4 9.71087 6.80264   7
   4   9  -5 -2.6373 5.88925   6
  -4  -9   5 -1.4193 6.48180   3
   3   9  -5 4.15398 10.8507   7
   3   9  -5 -0.2931 10.1496   6
  -3  -9   5 -1.6632 7.61134   2
  -3  -9   5 -1.0978 5.76748   3
   2   9  -5 -0.4096 6.32072   7
   2   9  -5 2.74771 6.75242   6
  -2  -9   5 2.94555 5.81828   3
  -2  -9   5 -7.1850 7.38013   2
   1   9  -5 -2.8862 9.01179   6
   1   9  -5 -10.541 8.65777   7
  -1  -9   5 7.27321 7.99215   2
  -1  -9   5 -5.8536 5.68309   3
   6   8  -5 5.13026 5.16934   7
   6   8  -5 2.91835 5.27726   6
  -6  -8   5 -1.2616 5.67967   3
  -6  -8   5 1.12791 5.04686   2
   5   8  -5 8.28139 5.22087   6
   5   8  -5 7.67738 5.26729   7
  -5  -8   5 11.2020 8.10983   3
  -5  -8   5 1.53313 4.60474   2
   4   8  -5 2.06836 4.86528   7
   4   8  -5 0.93447 4.76896   6
  -4  -8   5 8.90663 7.38603   3
  -4  -8   5 6.98565 4.86099   2
   3   8  -5 -0.2344 4.74928   6
   3   8  -5 4.36657 5.57742   7
  -3  -8   5 5.06664 8.58496   2
  -3  -8   5 5.02242 5.18217   3
   2   8  -5 1.27529 4.63654   7
   2   8  -5 0.35230 4.90151   6
  -2  -8   5 2.52086 6.27424   2
   1   8  -5 -0.7798 4.78364   6
   1   8  -5 0.05809 6.47001   7
  -1  -8   5 -2.4885 6.39529   2
   0   8  -5 14.3743 5.70686   7
   0   8  -5 18.5634 5.56966   6
   0  -8   5 21.7292 7.29691   2
  -1   8  -5 -1.4431 5.32448   7
  -1   8  -5 -3.1026 5.30234   6
   1  -8   5 1.08828 5.10862   2
  -2   8  -5 0.82609 5.39153   7
  -2   8  -5 -0.2013 5.90032   6
   2  -8   5 -0.2637 6.96720   2
  -3   8  -5 0.95542 6.11909   6
   8   7  -5 -2.4760 6.51709   7
  -8  -7   5 2.65076 5.89348   3
  -8  -7   5 -0.0895 7.11820   2
   7   7  -5 33.9389 13.8628   7
  -7  -7   5 15.5310 5.90621   3
  -7  -7   5 25.4907 5.42812   2
   6   7  -5 -0.2103 6.54876   6
   6   7  -5 0.32441 4.57944   7
  -6  -7   5 2.52731 4.28931   2
  -6  -7   5 0.99041 4.93461   3
   5   7  -5 -0.4714 3.92084   6
   5   7  -5 -0.3591 4.05672   7
  -5  -7   5 -1.4328 3.88981   2
  -5  -7   5 -3.8788 4.54066   3
   4   7  -5 1.03763 4.04840   7
   4   7  -5 5.26368 6.01213   6
  -4  -7   5 -3.0312 4.32482   3
  -4  -7   5 3.22674 4.03475   2
   3   7  -5 19.6523 4.83132   6
   3   7  -5 27.1188 4.74659   7
  -3  -7   5 22.6914 8.66903   2
   2   7  -5 11.6289 4.32083   7
   2   7  -5 8.12804 4.54329   6
  -2  -7   5 7.43495 5.67918   2
   1   7  -5 1.93316 3.89826   7
   1   7  -5 1.30983 4.17793   6
  -1  -7   5 0.80907 5.31929   2
   0   7  -5 6.16858 5.69821   7
   0   7  -5 9.75213 5.96726   6
   0  -7   5 0.41659 5.40809   2
  -1   7  -5 9.88428 4.59650   7
  -1   7  -5 12.8187 5.00459   6
   1  -7   5 8.43970 4.64418   2
  -2   7  -5 1.29831 4.61290   7
  -2   7  -5 -0.6771 4.43711   6
   2  -7   5 -3.9728 6.25520   2
  -3   7  -5 4.44027 7.25685   6
  -3   7  -5 1.66018 6.95116   7
   3  -7   5 4.65119 4.44675   2
  -4   7  -5 -1.8396 5.53015   6
   4  -7   5 0.05828 6.90829   2
   9   6  -5 6.45980 8.39765   7
  -9  -6   5 11.4100 7.83203   3
  -9  -6   5 8.04723 5.17520   2
   8   6  -5 23.1720 5.00631   7
  -8  -6   5 16.6752 5.09993   2
  -8  -6   5 13.0990 5.32008   3
   7   6  -5 1.96414 5.30794   7
  -7  -6   5 -0.2668 5.63282   2
  -7  -6   5 -1.2571 4.30704   3
   6   6  -5 9.92587 5.39005   7
   6   6  -5 4.43548 4.11781   6
  -6  -6   5 -2.4938 5.14136   2
  -6  -6   5 1.82931 4.08628   3
   5   6  -5 54.1289 6.22633   6
   5   6  -5 51.0935 5.98081   7
  -5  -6   5 40.4560 5.35618   3
  -5  -6   5 47.2639 7.81609   2
   4   6  -5 3.92899 4.82601   6
   4   6  -5 4.20059 3.47829   7
  -4  -6   5 3.95689 3.75316   2
   3   6  -5 124.126 6.98422   7
   3   6  -5 104.877 7.92422   6
  -3  -6   5 100.460 7.06798   2
   2   6  -5 36.3297 4.50757   6
   2   6  -5 45.9102 4.67197   7
  -2  -6   5 49.7581 4.90174   2
   1   6  -5 1.68363 3.19564   6
   1   6  -5 2.05148 3.25088   7
  -1  -6   5 -3.1335 3.23473   2
   0   6  -5 33.6723 4.59162   7
   0   6  -5 33.5156 4.44577   6
   0  -6   5 26.9239 5.57866   2
  -1   6  -5 4.75387 3.65046   6
  -1   6  -5 -0.8532 5.00194   7
   1  -6   5 -1.0991 4.81348   2
  -2   6  -5 0.96649 3.78318   6
  -2   6  -5 0.00000 3.89475   7
   2  -6   5 -0.5080 3.63833   2
  -3   6  -5 2.84480 4.14288   6
   3  -6   5 6.44928 5.60404   2
  -4   6  -5 -0.5248 6.37499   6
   4  -6   5 8.67635 6.09174   2
  -5   6  -5 -8.1133 7.05644   6
   5  -6   5 1.95636 6.62453   2
  -6   6  -5 1.51218 8.01909   6
   6  -6   5 -1.4035 5.01126   2
  -9  -5   5 8.81738 6.87541   3
  -9  -5   5 -4.4891 6.68803   2
   8   5  -5 34.7450 4.73647   7
  -8  -5   5 34.7691 6.49472   2
  -8  -5   5 41.4548 6.95880   3
   7   5  -5 -0.9360 3.14057   7
  -7  -5   5 -0.9556 4.14823   3
  -7  -5   5 2.74544 3.81579   2
   6   5  -5 71.9362 7.56115   7
  -6  -5   5 72.0107 6.08163   2
  -6  -5   5 73.1173 6.71147   3
   5   5  -5 8.57778 3.94697   7
   5   5  -5 11.6527 4.43148   6
  -5  -5   5 -0.5933 4.37888   2
   4   5  -5 6.41980 2.86206   6
   4   5  -5 10.8392 3.04110   7
  -4  -5   5 4.61462 14.9246   2
   3   5  -5 266.298 18.3187   7
   3   5  -5 286.371 19.7927   6
  -3  -5   5 290.458 16.7110   2
  -3  -5   5 275.875 20.6398   4
   2   5  -5 6.05989 3.85007   6
   2   5  -5 1.47796 3.51630   7
  -2  -5   5 -0.0599 3.96774   2
  -2  -5   5 3.54342 3.33225   4
   1   5  -5 39.8779 5.57734   7
   1   5  -5 45.3141 6.69020   6
  -1  -5   5 26.7271 4.74637   2
  -1  -5   5 44.1473 6.67461   4
   0   5  -5 59.4803 5.14855   6
   0   5  -5 67.8967 5.46544   7
   0  -5   5 66.0806 4.23708   4
   0  -5   5 57.7383 5.66152   2
  -1   5  -5 -0.1436 0.68137   1
  -1   5  -5 -2.0524 11.8910   7
  -1   5  -5 2.60789 11.7505   6
   1  -5   5 4.77140 4.40535   2
   1  -5   5 0.81406 2.14653   4
   1  -5   5 -0.1201 1.97523   8
   1  -5   5 -2.0705 2.10515  10
  -2   5  -5 60.6216 4.21056   1
  -2   5  -5 53.8663 5.41223   6
   2  -5   5 53.5638 4.39446   8
   2  -5   5 48.5957 4.62581  10
   2  -5   5 53.8304 3.90767   4
   2  -5   5 56.2569 6.07707   2
  -3   5  -5 8.67574 3.71959   6
  -3   5  -5 7.75964 2.23924   1
   3  -5   5 8.24127 3.20894  10
   3  -5   5 5.81165 4.98762   2
   3  -5   5 5.43845 2.92259   4
   3  -5   5 4.88348 2.99837   8
  -4   5  -5 -0.6608 3.79733   6
   4  -5   5 -1.4660 2.31847   4
   4  -5   5 -0.9291 3.53600   2
   4  -5   5 -1.9128 3.43121  10
   4  -5   5 -1.4904 3.24725   8
  -5   5  -5 10.6781 4.52505   6
   5  -5   5 16.6616 4.58571   2
   5  -5   5 13.5877 4.19239   8
   5  -5   5 12.0151 4.41013  10
  -6   5  -5 8.63244 4.96078   6
   6  -5   5 4.38604 6.03852   2
  -7   5  -5 -0.2692 7.85322   6
   7  -5   5 2.41556 4.83354   2
 -10  -4   5 33.8103 13.1306   1
 -10  -4   5 35.5079 8.76660   2
   9   4  -5 15.8299 3.81993   9
  -9  -4   5 6.86133 5.96850   3
  -9  -4   5 8.01199 4.72294   1
  -9  -4   5 10.4403 5.18341   2
   8   4  -5 6.56218 3.30475   7
   8   4  -5 2.97253 4.14225   9
  -8  -4   5 5.27572 4.16927   2
  -8  -4   5 5.57860 3.98828   1
  -8  -4   5 3.45990 5.18766   3
   7   4  -5 32.1792 4.63813   7
   7   4  -5 30.3012 4.48305   9
  -7  -4   5 25.7711 5.46692   2
  -7  -4   5 23.6770 5.44311   3
  -7  -4   5 20.3082 3.62384   1
   6   4  -5 66.6280 6.00054   7
   6   4  -5 72.0874 5.00469   9
  -6  -4   5 63.6421 5.92948   2
  -6  -4   5 51.6154 4.12579   1
   5   4  -5 8.60214 3.44049   9
   5   4  -5 15.3480 2.84783   6
   5   4  -5 10.4216 2.70383   7
  -5  -4   5 4.08595 4.04641   2
  -5  -4   5 9.00098 2.17799   1
   4   4  -5 199.363 123.095   6
   4   4  -5 164.962 12.8463   9
   4   4  -5 188.252 118.890   7
  -4  -4   5 132.748 10.2261   8
  -4  -4   5 140.591 7.85529   1
  -4  -4   5 149.973 7.84258   2
  -4  -4   5 115.149 9.89760  10
   3   4  -5 332.632 15.6507   6
   3   4  -5 333.515 18.0776   7
  -3  -4   5 349.139 20.8506   1
  -3  -4   5 349.244 19.3331   2
  -3  -4   5 299.756 28.4660  10
  -3  -4   5 305.315 29.4418   8
   2   4  -5 11.9659 2.50735   6
   2   4  -5 8.01373 2.22830   7
  -2  -4   5 7.05271 3.69723   2
  -2  -4   5 7.99991 2.25578   4
   1   4  -5 219.517 12.1451   7
   1   4  -5 231.000 15.8546   6
  -1  -4   5 229.167 12.8131   2
  -1  -4   5 214.116 10.4810   4
   0   4  -5 -0.9232 3.20824   6
   0   4  -5 -3.3077 3.03981   7
   0  -4   5 -0.5103 1.96446   4
   0  -4   5 0.17925 2.52458   2
  -1   4  -5 76.9391 3.45685   1
  -1   4  -5 74.3714 4.52845   6
   1  -4   5 68.9135 7.18625   2
   1  -4   5 62.6012 4.14907   4
  -2   4  -5 54.5863 3.24389   1
  -2   4  -5 64.0886 5.23824   6
   2  -4   5 53.3185 3.61996   4
   2  -4   5 50.4807 3.37157   8
   2  -4   5 48.9502 4.40052   2
   2  -4   5 50.4935 3.58052  10
  -3   4  -5 24.1013 3.76027   6
  -3   4  -5 31.2951 2.59450   1
   3  -4   5 26.2921 3.42786   4
   3  -4   5 22.6246 3.33875   8
   3  -4   5 29.8655 4.07833   2
   3  -4   5 34.5041 3.71016  10
  -4   4  -5 92.8554 8.06211   1
  -4   4  -5 107.530 7.05492   6
   4  -4   5 99.1380 6.48224   4
   4  -4   5 88.8103 6.29693  10
   4  -4   5 97.2210 5.94879   2
   4  -4   5 92.3951 5.03437   8
  -5   4  -5 93.6509 7.42169   1
  -5   4  -5 80.6298 7.14090   6
   5  -4   5 81.9418 6.34148   2
   5  -4   5 82.2048 5.51421   4
   5  -4   5 82.8536 5.51291   8
   5  -4   5 85.9056 5.81268  10
  -6   4  -5 -1.0875 2.65488   1
  -6   4  -5 -2.5319 5.79982   6
   6  -4   5 0.79857 4.14420   8
   6  -4   5 1.21928 2.98801   4
   6  -4   5 -1.5632 5.31047   2
   6  -4   5 3.66791 4.42854  10
  -7   4  -5 13.7179 4.99707   1
  -7   4  -5 17.0394 5.21675   6
   7  -4   5 12.7568 5.14356   8
   7  -4   5 11.7150 5.51142  10
   7  -4   5 11.3107 5.36143   4
   7  -4   5 13.5184 6.11333   2
  -8   4  -5 37.6601 45.2602   6
   8  -4   5 8.03937 4.89917   2
   8  -4   5 16.9446 6.81355   4
   8  -4   5 22.2885 7.20026  10
   8  -4   5 23.0857 6.50220   8
  10   3  -5 6.55647 6.09570   9
 -10  -3   5 4.02627 5.29800   2
 -10  -3   5 4.61766 5.65637   1
   9   3  -5 47.8261 5.19109   9
  -9  -3   5 33.2463 5.49195   2
  -9  -3   5 27.4916 5.26347   1
  -9  -3   5 24.7294 5.57424   3
   8   3  -5 111.373 7.59609   9
  -8  -3   5 94.8366 7.11476   3
  -8  -3   5 92.9566 10.2605   2
  -8  -3   5 111.499 5.44675   1
   7   3  -5 3.76099 2.55636   9
   7   3  -5 5.09142 3.23374   7
  -7  -3   5 1.39278 3.39573   2
  -7  -3   5 -0.1742 11.9028   3
  -7  -3   5 1.83970 2.20345   1
   6   3  -5 98.9106 7.12931   7
   6   3  -5 97.1642 5.35625   9
  -6  -3   5 74.3617 5.41999   1
  -6  -3   5 77.0941 6.05196   2
   5   3  -5 410.593 13.3239   9
   5   3  -5 412.008 21.5356   7
  -5  -3   5 415.363 26.7131   2
  -5  -3   5 401.207 26.1139   1
   4   3  -5 55.5243 3.91251   7
   4   3  -5 45.1520 3.60299   6
   4   3  -5 54.3345 7.04203   9
  -4  -3   5 49.3417 2.37738   1
  -4  -3   5 43.7733 4.56151   2
  -4  -3   5 42.1716 4.01744  10
  -4  -3   5 35.2386 4.05824   8
  -4  -3   5 37.8934 4.13085   6
   3   3  -5 250.658 14.9011   7
   3   3  -5 254.499 17.2518   6
   3   3  -5 272.578 9.86771   9
  -3  -3   5 276.714 11.3533   2
  -3  -3   5 269.972 21.3567   1
  -3  -3   5 266.362 19.2822   1
  -3  -3   5 269.104 17.9849  10
  -3  -3   5 296.138 22.6481   6
  -3  -3   5 268.657 15.9865   8
   2   3  -5 263.441 13.0556   7
   2   3  -5 286.964 14.7989   9
   2   3  -5 272.300 14.5944   6
  -2  -3   5 299.046 18.2514   6
  -2  -3   5 296.259 14.9141   2
   1   3  -5 48.6256 11.6195   6
   1   3  -5 48.5690 13.3525   7
   1   3  -5 46.5923 3.05084   9
  -1  -3   5 43.4002 3.66350   2
  -1  -3   5 44.6752 2.90724   4
   0   3  -5 173.213 8.61139   6
   0  -3   5 176.019 53.4458   2
   0  -3   5 168.306 9.41413   4
  -1   3  -5 673.544 15.1207   6
  -1   3  -5 651.140 30.7314   1
   1  -3   5 667.146 39.4120   4
   1  -3   5 690.845 26.6273   2
  -2   3  -5 3.68277 1.36447   1
  -2   3  -5 7.43006 3.26407   6
   2  -3   5 5.36431 2.38939  10
   2  -3   5 4.07071 2.32013   4
   2  -3   5 4.11842 3.64967   2
   2  -3   5 4.60045 2.27692   8
  -3   3  -5 240.454 8.65355   6
  -3   3  -5 245.983 11.3734   1
   3  -3   5 265.249 8.65987   8
   3  -3   5 254.583 10.3187   2
   3  -3   5 257.225 7.71034  10
   3  -3   5 259.917 9.81788   4
  -4   3  -5 90.9805 4.98715   1
  -4   3  -5 92.5112 5.88119   6
   4  -3   5 88.4087 5.59308  10
   4  -3   5 89.6602 4.90625   8
   4  -3   5 97.9644 5.54344   2
   4  -3   5 93.3529 4.62552   4
  -5   3  -5 123.156 7.07843   6
  -5   3  -5 135.289 8.08089   1
   5  -3   5 109.855 6.84805  10
   5  -3   5 135.248 6.15491   4
   5  -3   5 125.191 6.83056   8
   5  -3   5 132.491 7.98515   2
  -6   3  -5 98.2477 6.48032   1
  -6   3  -5 87.7592 6.92289   6
   6  -3   5 86.0617 6.11523   8
   6  -3   5 85.2047 5.84589   4
   6  -3   5 96.9213 8.07764   2
   6  -3   5 92.4720 5.61206  10
  -7   3  -5 14.5197 3.38369   1
  -7   3  -5 7.56009 4.10723   6
   7  -3   5 4.92953 4.81512   8
   7  -3   5 5.09370 3.73997   2
   7  -3   5 2.69410 4.91159  10
   7  -3   5 1.46462 3.35478   4
  -8   3  -5 11.6500 4.91068   6
  -8   3  -5 17.9642 4.12843   1
   8  -3   5 11.3356 6.03483  10
   8  -3   5 7.00915 5.75586   4
   8  -3   5 16.5849 6.25812   2
   8  -3   5 4.99946 5.43588   8
 -11  -2   5 3.28030 6.06498   2
 -11  -2   5 1.05706 4.60890   1
  10   2  -5 54.4952 5.63946   9
 -10  -2   5 42.1729 6.51233   2
 -10  -2   5 52.5015 5.52870   1
   9   2  -5 129.883 7.54806   9
  -9  -2   5 107.450 7.50456   1
  -9  -2   5 111.178 11.1697   2
   8   2  -5 20.9741 3.87788   9
  -8  -2   5 8.53014 5.60898   2
  -8  -2   5 9.89342 4.19070   3
  -8  -2   5 14.1488 4.22301   1
   7   2  -5 121.269 4.88629   9
  -7  -2   5 101.472 10.7790   2
  -7  -2   5 99.7098 8.16625   3
  -7  -2   5 110.199 5.92399   1
   6   2  -5 425.776 16.5477   9
   6   2  -5 419.778 26.5427   7
  -6  -2   5 410.031 19.7877   1
  -6  -2   5 369.824 37.9338   7
  -6  -2   5 389.764 31.5959   6
  -6  -2   5 442.799 28.2904   2
   5   2  -5 135.097 6.14443   9
   5   2  -5 139.305 10.3187   7
  -5  -2   5 120.798 11.2335   7
  -5  -2   5 134.237 7.33848   2
  -5  -2   5 127.494 11.6474   6
  -5  -2   5 140.989 4.62152   1
   4   2  -5 409.178 16.5161   9
   4   2  -5 444.815 19.8296   7
   4   2  -5 440.232 24.5323   6
  -4  -2   5 450.263 24.0416   1
  -4  -2   5 453.611 29.0578   6
  -4  -2   5 458.337 30.6201   7
  -4  -2   5 442.233 23.2936   2
   3   2  -5 625.381 11.7402   9
   3   2  -5 609.702 39.0752   6
   3   2  -5 621.646 32.9394   7
  -3  -2   5 626.294 35.3669   8
  -3  -2   5 658.275 40.6192   1
  -3  -2   5 668.294 42.1239   6
  -3  -2   5 640.220 37.3927  10
  -3  -2   5 648.469 25.7036   2
   2   2  -5 98.9456 4.21346   7
   2   2  -5 106.408 4.28848   6
   2   2  -5 94.5409 4.67005   9
  -2  -2   5 96.8919 4.25895   1
  -2  -2   5 91.3369 4.90515   2
  -2  -2   5 100.284 4.27998   1
  -2  -2   5 104.792 5.72783   6
   1   2  -5 425.398 14.0570   6
   1   2  -5 428.765 10.3376   9
   1   2  -5 433.518 8.47362   7
  -1  -2   5 463.474 19.6433   6
  -1  -2   5 436.369 15.3874   2
  -1  -2   5 447.384 17.3172   4
   0   2  -5 456.162 10.6963   9
   0   2  -5 475.419 14.4222   6
   0  -2   5 476.593 19.7538   6
   0  -2   5 469.188 18.3205   4
   0  -2   5 477.564 11.7635   2
  -1   2  -5 29.9413 1.19159   1
  -1   2  -5 26.3407 2.53771   6
   1  -2   5 25.5969 2.67790   9
   1  -2   5 29.6560 2.66956   5
   1  -2   5 24.4031 2.66791   4
   1  -2   5 24.5401 3.55859   2
  -2   2  -5 808.532 33.5912   6
  -2   2  -5 844.570 25.7610   4
  -2   2  -5 824.866 32.7460   1
   2  -2   5 875.577 67.2029   9
   2  -2   5 852.274 28.9026   4
   2  -2   5 899.114 16.5244   2
   2  -2   5 871.115 55.8009   5
  -3   2  -5 428.062 18.0186   1
  -3   2  -5 426.958 16.4703   6
   3  -2   5 422.800 13.9094   8
   3  -2   5 408.194 14.3457   2
   3  -2   5 441.913 18.6338   5
   3  -2   5 419.218 15.2342  10
   3  -2   5 417.026 14.6269   4
   3  -2   5 450.713 26.5960   9
  -4   2  -5 94.9748 4.30186   1
  -4   2  -5 93.4725 5.37616   6
   4  -2   5 86.5457 4.68839   9
   4  -2   5 96.2870 5.66029   5
   4  -2   5 85.4836 4.71715   8
   4  -2   5 89.1504 5.00374  10
   4  -2   5 82.6167 5.95161   2
   4  -2   5 86.5555 4.79332   4
  -5   2  -5 508.163 21.7959   1
  -5   2  -5 495.609 18.1609   6
   5  -2   5 484.132 17.0367   2
   5  -2   5 522.891 22.0270   9
   5  -2   5 513.840 14.2158   4
   5  -2   5 526.440 22.4326   5
   5  -2   5 545.417 18.5350   8
   5  -2   5 510.088 19.2542  10
  -6   2  -5 14.7879 4.54287   6
  -6   2  -5 16.7738 3.49750   1
   6  -2   5 13.5224 3.45391   2
   6  -2   5 11.1670 3.04389   8
   6  -2   5 10.6582 3.21301  10
   6  -2   5 12.1888 4.16717   4
  -7   2  -5 1.91820 2.65701   1
  -7   2  -5 1.15839 3.94962   6
   7  -2   5 -4.1394 4.33212   4
   7  -2   5 0.68923 3.05753   2
   7  -2   5 -4.5764 4.62566  10
   7  -2   5 -6.5597 4.37443   8
  -8   2  -5 104.509 7.61479   1
  -8   2  -5 89.9510 7.17053   6
   8  -2   5 83.8655 6.46421   8
   8  -2   5 97.9915 8.12908   4
   8  -2   5 104.224 7.11514   2
   8  -2   5 95.7731 6.88208  10
  -9   2  -5 -0.4851 4.05585   1
  -9   2  -5 -2.8844 6.40574   6
   9  -2   5 4.88253 4.56294  10
   9  -2   5 -4.6681 6.07489   4
   9  -2   5 -0.7052 3.99165   8
   9  -2   5 -0.7335 5.86487   2
 -11  -1   5 14.1635 7.43486   1
 -11  -1   5 11.8912 8.63052   2
  10   1  -5 150.610 11.8162   9
 -10  -1   5 124.666 9.85365   2
 -10  -1   5 133.137 10.5651   1
   9   1  -5 27.4837 3.34802   9
  -9  -1   5 78.3065 35.2873   1
  -9  -1   5 21.8362 5.00124   2
   8   1  -5 111.156 4.83606   9
  -8  -1   5 97.4393 7.16269   3
  -8  -1   5 87.4335 9.18964   1
  -8  -1   5 113.475 7.76572   2
   7   1  -5 251.497 11.5625   9
  -7  -1   5 206.243 13.7965   3
  -7  -1   5 231.593 12.4389   1
  -7  -1   5 217.753 13.6862   2
   6   1  -5 198.440 11.4951   9
   6   1  -5 167.490 6.15283   5
  -6  -1   5 165.563 11.4553   7
  -6  -1   5 185.812 12.9719   2
  -6  -1   5 196.702 9.30060   1
  -6  -1   5 173.003 14.4620   6
   5   1  -5 446.302 10.8253   9
   5   1  -5 453.253 25.8952   7
   5   1  -5 473.152 14.5824   5
  -5  -1   5 445.054 15.6948   1
  -5  -1   5 464.591 35.8445   6
  -5  -1   5 446.150 38.6235   7
  -5  -1   5 445.184 24.3931   2
   4   1  -5 360.630 16.8829   7
   4   1  -5 354.677 9.95266   5
   4   1  -5 349.793 6.75842   9
  -4  -1   5 343.612 15.4423   2
  -4  -1   5 359.248 31.7705   6
  -4  -1   5 339.796 34.9560   7
  -4  -1   5 355.740 24.0939   1
   3   1  -5 181.396 9.89563   6
   3   1  -5 189.809 4.95393   9
   3   1  -5 179.730 6.42261   7
  -3  -1   5 179.315 6.38568   1
  -3  -1   5 177.162 7.75802   3
  -3  -1   5 182.977 7.49198   2
  -3  -1   5 161.919 15.2791   6
   2   1  -5 1073.42 36.6840   6
   2   1  -5 1110.07 27.0133   9
   2   1  -5 1038.60 31.7837   7
  -2  -1   5 1100.03 28.7608   2
  -2  -1   5 1126.16 71.1653   1
  -2  -1   5 1145.65 58.8964   6
  -2  -1   5 1173.95 51.3614   3
   1   1  -5 533.933 8.83184   9
   1   1  -5 526.955 10.9762   6
   1   1  -5 534.092 14.5623   7
   1   1  -5 528.895 23.4315   2
  -1  -1   5 543.231 12.8813   2
  -1  -1   5 534.625 18.5188   9
  -1  -1   5 532.408 33.9531   5
  -1  -1   5 552.619 19.1644   3
  -1  -1   5 551.183 12.7864   6
   0   1  -5 785.932 45.7820   2
   0   1  -5 793.059 28.3017   6
   0   1  -5 783.771 9.15027   9
   0  -1   5 793.811 20.8029   4
   0  -1   5 808.078 17.3650   2
   0  -1   5 807.726 20.5967   9
   0  -1   5 799.903 39.4092   3
   0  -1   5 786.081 14.8564   6
   0  -1   5 815.746 30.6628   5
  -1   1  -5 577.907 8.96499   6
  -1   1  -5 559.789 14.8026   1
  -1   1  -5 545.403 25.6605   1
  -1   1  -5 577.796 12.3468   9
   1  -1   5 584.577 15.4671   9
   1  -1   5 586.512 12.1745   2
   1  -1   5 581.159 14.7435   4
   1  -1   5 578.807 44.3357   5
  -2   1  -5 884.390 18.0014   9
  -2   1  -5 895.759 18.2743   6
  -2   1  -5 851.957 43.3117   1
  -2   1  -5 891.937 35.5321   4
   2  -1   5 891.874 23.9975   4
   2  -1   5 905.959 45.2975   5
   2  -1   5 927.456 29.5822   2
   2  -1   5 928.578 23.0319   9
  -3   1  -5 153.466 4.73607   1
  -3   1  -5 148.640 5.16143   6
   3  -1   5 155.770 5.25133   4
   3  -1   5 154.858 9.78545   5
   3  -1   5 154.792 6.30445   9
   3  -1   5 166.442 5.89452   2
  -4   1  -5 898.380 27.4994   1
  -4   1  -5 912.280 18.7384   6
   4  -1   5 913.078 32.5362   8
   4  -1   5 936.591 29.6323   9
   4  -1   5 929.644 21.8125   4
   4  -1   5 946.286 32.4372   5
   4  -1   5 884.528 22.4583   2
   4  -1   5 909.735 34.0594  10
  -5   1  -5 586.237 14.4420   6
  -5   1  -5 577.888 17.9290   1
   5  -1   5 588.574 14.9351   4
   5  -1   5 568.857 32.1973   9
   5  -1   5 576.625 12.3403   2
   5  -1   5 578.921 36.3677   5
   5  -1   5 594.718 15.7494   8
   5  -1   5 591.249 15.1105  10
  -6   1  -5 1.13663 1.95787   1
  -6   1  -5 -0.1975 2.10871   3
  -6   1  -5 0.82695 2.70891   6
   6  -1   5 0.34904 3.63042  10
   6  -1   5 1.04186 2.51034   4
   6  -1   5 -1.1847 3.39909   8
   6  -1   5 1.49687 2.55510   2
  -7   1  -5 370.583 17.5528   1
  -7   1  -5 371.416 13.6907   6
   7  -1   5 358.877 18.4309   8
   7  -1   5 364.863 18.8784  10
   7  -1   5 365.504 16.9284   4
   7  -1   5 381.243 15.9027   2
  -8   1  -5 56.4611 5.52629   6
  -8   1  -5 60.0706 5.81116   1
   8  -1   5 38.1300 4.83679   4
   8  -1   5 34.4092 5.66047   8
   8  -1   5 51.2950 5.75876   2
   8  -1   5 49.8748 6.37875  10
  -9   1  -5 29.4338 7.38845   6
  -9   1  -5 39.9568 6.12639   1
   9  -1   5 21.4721 5.93298   8
   9  -1   5 20.6828 6.29720   4
   9  -1   5 20.4282 6.37082  10
 -10   1  -5 94.3076 8.54804   1
 -10   1  -5 129.774 16.4332   6
  10  -1   5 72.2691 8.53096   4
  10  -1   5 75.0062 9.62957  10
  10  -1   5 75.1189 8.53283   8
 -11   0   5 43.9028 7.47639   2
 -11   0   5 47.8076 6.61178   1
  10   0  -5 32.7277 4.66077   9
 -10   0   5 24.3163 5.87399   2
 -10   0   5 18.4836 4.91297   1
   9   0  -5 138.080 7.94099   5
   9   0  -5 121.033 6.99398   9
  -9   0   5 119.091 8.39843   1
  -9   0   5 125.578 8.91796   2
   8   0  -5 239.030 11.1494   9
   8   0  -5 255.890 10.5140   5
  -8   0   5 224.890 21.0655   3
  -8   0   5 226.281 13.2144   2
  -8   0   5 253.034 14.7414   1
   7   0  -5 98.9306 4.78297   9
   7   0  -5 105.070 5.23541   5
  -7   0   5 81.8369 5.68984   3
  -7   0   5 91.3109 5.65145   2
  -7   0   5 96.1518 6.39234   1
   6   0  -5 535.196 19.3410   9
   6   0  -5 538.944 14.8073   5
  -6   0   5 540.988 38.3345   1
  -6   0   5 545.077 46.6496   7
  -6   0   5 558.705 50.6150   6
  -6   0   5 566.844 26.4506   2
  -6   0   5 559.677 42.6708   3
   5   0  -5 601.719 11.0494   5
   5   0  -5 591.072 31.8986   1
   5   0  -5 609.181 11.5559   9
  -5   0   5 592.345 40.7351   7
  -5   0   5 602.757 40.3831   6
  -5   0   5 596.345 32.5432   2
  -5   0   5 550.199 42.9624   1
  -5   0   5 573.389 30.5916   3
   4   0  -5 319.036 16.7742   1
   4   0  -5 303.340 7.63099   9
   4   0  -5 316.305 10.3295   5
   4   0  -5 312.627 16.1611   7
  -4   0   5 303.677 26.6853   7
  -4   0   5 318.690 12.4412   2
  -4   0   5 314.590 19.1740   6
  -4   0   5 309.645 15.8204   1
  -4   0   5 326.105 11.5053   3
   3   0  -5 1249.71 48.1311   5
   3   0  -5 1239.75 52.7970   7
   3   0  -5 1258.24 17.0904   9
   3   0  -5 1238.10 54.0217   1
  -3   0   5 1288.32 33.8183   1
  -3   0   5 1263.40 37.3908   2
  -3   0   5 1290.07 38.6069   3
  -3   0   5 1282.44 92.4618   6
   2   0  -5 1420.98 53.4339   6
   2   0  -5 1416.36 45.1189   7
   2   0  -5 1391.70 32.4598   1
   2   0  -5 1431.53 23.4786   9
   2   0  -5 1399.10 22.5620   5
   2   0  -5 1458.12 39.7381   2
  -2   0   5 1455.15 57.9553   6
  -2   0   5 1487.63 37.3695   1
  -2   0   5 1425.05 40.5611   2
  -2   0   5 1502.10 35.8537   9
  -2   0   5 1508.45 32.1173   3
  -2   0   5 1484.89 65.4651   5
   1   0  -5 607.380 13.3594   5
   1   0  -5 586.127 25.3074   7
   1   0  -5 599.543 16.2060   6
   1   0  -5 613.222 19.2461   2
   1   0  -5 618.186 17.3627   9
   1   0  -5 585.418 37.5674   1
  -1   0   5 632.106 27.3858   6
  -1   0   5 629.370 20.8780   2
  -1   0   5 636.864 11.4051   9
  -1   0   5 625.579 23.7870   3
  -1   0   5 621.981 21.0642   5
  -1   0   5 597.634 30.4787   1
   0   0  -5 1144.78 25.9020   9
   0   0  -5 1117.53 74.0391   2
   0   0  -5 1079.44 46.9660   1
   0   0  -5 1130.08 27.8388   5
   0   0  -5 1134.74 16.6294   6
   0   0   5 1153.06 29.6028   5
   0   0   5 1162.82 39.9262   3
   0   0   5 1114.04 40.4360   2
   0   0   5 1189.36 32.7219   4
   0   0   5 1140.23 25.0142   9
  -1   0  -5 981.645 17.8071   9
  -1   0  -5 951.466 26.3065   3
  -1   0  -5 978.122 27.4706   1
  -1   0  -5 962.910 29.4252   6
  -1   0  -5 984.657 39.5468   1
  -1   0  -5 982.826 22.5982   2
   1   0   5 989.568 21.8952   4
   1   0   5 997.970 48.2181   5
   1   0   5 1000.69 17.8504   9
   1   0   5 993.066 30.1529   2
   1   0   5 1011.72 45.8964   3
  -2   0  -5 1659.48 26.3366   1
  -2   0  -5 1708.98 36.5390   6
  -2   0  -5 1750.12 77.2248   2
  -2   0  -5 1734.51 65.9235   4
  -2   0  -5 1691.86 37.9927   3
  -2   0  -5 1731.44 38.8383   9
   2   0   5 1788.27 27.6416   4
   2   0   5 1717.80 38.8780   5
   2   0   5 1749.31 40.5329   9
   2   0   5 1783.59 77.3128   3
   2   0   5 1745.73 41.1176   2
  -3   0  -5 1267.10 27.4878   1
  -3   0  -5 1321.93 28.3041   9
  -3   0  -5 1262.47 27.5701   3
  -3   0  -5 1269.98 26.3417   6
  -3   0  -5 1303.94 53.7098   2
   3   0   5 1295.89 28.1753   4
   3   0   5 1315.62 36.5504   5
   3   0   5 1327.71 43.7403   9
   3   0   5 1320.81 49.0652   2
  -4   0  -5 497.034 13.1798   6
  -4   0  -5 526.372 12.8505   3
  -4   0  -5 504.049 11.9718   1
   4   0   5 512.685 13.9752   9
   4   0   5 518.868 10.9970   8
   4   0   5 507.922 13.6337   2
   4   0   5 506.752 11.8108  10
   4   0   5 515.197 11.6974   4
   4   0   5 514.672 18.8978   5
  -5   0  -5 364.898 11.3595   1
  -5   0  -5 359.012 8.88104   3
  -5   0  -5 382.892 10.7265   6
   5   0   5 387.269 13.2147   9
   5   0   5 381.790 14.8018   8
   5   0   5 379.196 14.2759   5
   5   0   5 359.422 10.5579   4
   5   0   5 363.577 15.7853  10
   5   0   5 375.415 8.19364   2
  -6   0  -5 157.030 5.91126   3
  -6   0  -5 228.662 100.942   1
   6   0   5 153.954 6.92360   4
   6   0   5 164.053 7.10237   5
   6   0   5 159.196 6.68442  10
   6   0   5 148.765 6.26617   8
   6   0   5 173.576 7.36949   2
   6   0   5 157.211 7.10667   5
  -7   0  -5 190.149 6.47414   3
  -7   0  -5 197.377 12.6769   1
   7   0   5 188.984 9.68420   2
   7   0   5 181.964 8.86480  10
   7   0   5 172.396 7.61260   8
   7   0   5 186.173 9.86343   4
  -8   0  -5 91.9681 5.99225   6
  -8   0  -5 80.1455 5.96642   1
  -8   0  -5 78.0684 5.06444   3
   8   0   5 83.2968 5.65514   8
   8   0   5 93.9394 5.90043   4
   8   0   5 83.2744 5.53693   2
   8   0   5 87.2116 6.07537  10
  -9   0  -5 302.717 14.0308   6
  -9   0  -5 298.394 18.1747   1
   9   0   5 266.868 12.3610   8
   9   0   5 247.495 11.8535  10
   9   0   5 271.743 16.1017   4
 -10   0  -5 14.9135 6.26086   1
 -10   0  -5 10.9861 5.02665   6
  10   0   5 15.9833 6.85603   4
  10   0   5 23.5539 7.22224  10
  10   0   5 16.4550 6.49314   8
 -11   1   5 4.10414 7.63249   1
  10  -1  -5 202.644 9.50377   9
  10  -1  -5 177.212 11.1995   5
 -10   1   5 186.010 11.2502   1
   9  -1  -5 138.456 7.44577   9
   9  -1  -5 145.054 7.17240   5
  -9   1   5 147.928 12.0278   1
   8  -1  -5 112.701 4.68445   9
   8  -1  -5 124.840 6.06239   5
  -8   1   5 110.538 7.01729   1
   7  -1  -5 442.281 15.3808   5
   7  -1  -5 452.367 19.6444   9
  -7   1   5 438.375 36.2412   3
  -7   1   5 432.423 26.2171   1
   6  -1  -5 357.024 10.6026   9
   6  -1  -5 368.814 10.9352   5
  -6   1   5 374.468 20.3468   6
  -6   1   5 394.535 11.6980   1
  -6   1   5 371.294 18.6122   7
  -6   1   5 360.747 20.0254   3
   5  -1  -5 272.428 6.62509   5
   5  -1  -5 271.776 7.21793   9
  -5   1   5 283.949 10.6347   1
  -5   1   5 265.808 13.5633   3
  -5   1   5 289.476 9.29789   2
  -5   1   5 265.331 16.7275   6
  -5   1   5 282.605 11.5603   7
   4  -1  -5 1523.41 33.0264   9
   4  -1  -5 1532.40 57.3611   5
   4  -1  -5 1552.29 56.0453   1
  -4   1   5 1615.39 97.4631   7
  -4   1   5 1574.83 48.4033   2
  -4   1   5 1564.82 30.9459   1
  -4   1   5 1601.49 107.070   6
  -4   1   5 1591.00 87.9297   3
   3  -1  -5 776.619 11.6812   5
   3  -1  -5 779.017 15.4147   9
   3  -1  -5 762.436 20.2532   1
  -3   1   5 759.388 33.9886   2
  -3   1   5 786.507 57.4014   6
  -3   1   5 771.692 31.8473   5
  -3   1   5 771.622 29.3819   9
  -3   1   5 814.114 19.5614   1
  -3   1   5 806.697 27.9541   3
   2  -1  -5 1772.33 46.3421   5
   2  -1  -5 1795.75 54.2510   9
   2  -1  -5 1783.42 55.1485   1
   2  -1  -5 1745.34 64.6555   6
   2  -1  -5 1780.87 57.4870   7
  -2   1   5 1846.96 107.812   3
  -2   1   5 1827.03 48.3293   1
  -2   1   5 1892.15 79.2056   9
  -2   1   5 1846.02 43.1651   2
  -2   1   5 1862.51 79.6228   5
   1  -1  -5 1804.91 31.8931   5
   1  -1  -5 1739.58 27.1177   3
   1  -1  -5 1726.23 28.0454   9
   1  -1  -5 1672.31 41.8262   1
   1  -1  -5 1778.60 49.3823   2
   1  -1  -5 1686.57 53.0113   6
  -1   1   5 1760.47 85.3740   1
  -1   1   5 1788.88 57.6221   5
  -1   1   5 1814.46 59.3391   3
  -1   1   5 1812.16 90.4236   9
  -1   1   5 1783.52 43.0017   2
   0  -1  -5 814.373 15.8222   3
   0  -1  -5 785.174 23.4585   9
   0  -1  -5 773.784 26.2444   1
   0  -1  -5 843.505 26.3639   2
   0  -1  -5 804.839 15.9468   6
   0  -1  -5 791.405 18.6982   5
   0   1   5 838.529 20.0509   3
   0   1   5 800.387 25.4195   2
   0   1   5 823.957 19.8396   4
   0   1   5 811.844 19.6562   5
   0   1   5 826.939 17.6669   9
  -1  -1  -5 954.653 39.8413   5
  -1  -1  -5 990.128 20.7025   9
  -1  -1  -5 984.642 31.1391   1
  -1  -1  -5 963.119 22.2912   3
  -1  -1  -5 976.037 29.5686   2
  -1  -1  -5 950.301 28.8819   6
   1   1   5 965.214 30.4356   2
   1   1   5 985.960 35.0121   3
   1   1   5 980.744 23.5495   4
   1   1   5 971.300 21.6300   5
   1   1   5 982.997 20.2789   9
  -2  -1  -5 2657.40 80.9322   2
  -2  -1  -5 2591.14 59.2421   9
  -2  -1  -5 2607.09 71.9515   3
  -2  -1  -5 2576.55 84.5058   5
  -2  -1  -5 2617.74 111.883   4
   2   1   5 2687.78 95.6864   2
   2   1   5 2715.27 109.176   3
   2   1   5 2620.94 45.6021   4
   2   1   5 2615.96 84.7687   5
   2   1   5 2581.95 54.0902   9
  -3  -1  -5 523.966 16.6251   9
  -3  -1  -5 504.658 12.3862   3
  -3  -1  -5 518.351 15.3340   4
  -3  -1  -5 509.394 21.0614   2
   3   1   5 527.695 14.9061   5
   3   1   5 515.459 14.3023   2
   3   1   5 518.566 14.5979   9
   3   1   5 539.540 18.9860   4
   3   1   5 541.975 14.3439   3
  -4  -1  -5 703.343 26.1221   2
  -4  -1  -5 726.930 17.4452   1
  -4  -1  -5 708.845 18.1998   9
  -4  -1  -5 716.364 18.6697   3
   4   1   5 697.814 11.8575   4
   4   1   5 707.239 9.87472   8
   4   1   5 701.113 19.5761   5
   4   1   5 709.174 19.5493   9
   4   1   5 703.895 10.7120  10
   4   1   5 692.171 11.4021   2
  -5  -1  -5 765.253 25.1467   3
  -5  -1  -5 753.218 24.7120   1
   5   1   5 763.715 15.4844   2
   5   1   5 762.354 29.8143   5
   5   1   5 751.366 13.4150  10
   5   1   5 786.901 12.4974   4
   5   1   5 774.039 17.6066   8
  -6  -1  -5 177.595 6.56595   1
  -6  -1  -5 171.439 5.84633   3
   6   1   5 164.929 8.05046   4
   6   1   5 172.124 5.78557   2
   6   1   5 164.611 6.85206   8
   6   1   5 157.923 7.40184  10
  -7  -1  -5 373.519 15.0891   3
  -7  -1  -5 388.167 13.5191   1
   7   1   5 355.047 14.9373   4
   7   1   5 358.679 11.6433   2
   7   1   5 348.906 20.3722  10
   7   1   5 353.737 19.7980   8
  -8  -1  -5 389.514 17.5401   1
  -8  -1  -5 395.085 18.6495   3
   8   1   5 408.769 18.1180  10
   8   1   5 385.502 16.4124   4
   8   1   5 397.519 17.7228   2
   8   1   5 392.946 16.8924   8
  -9  -1  -5 106.215 6.53714   1
  -9  -1  -5 87.1088 7.07361   3
   9   1   5 103.416 7.99732  10
   9   1   5 91.6321 7.16834   8
   9   1   5 107.330 7.58464   4
 -10  -1  -5 64.8959 7.53573   1
  10   1   5 54.1842 5.76916   8
  10   1   5 52.4276 6.09873  10
  10   1   5 54.0958 7.46649   4
 -11   2   5 82.9054 8.05307   1
  10  -2  -5 95.5034 7.99611   5
  10  -2  -5 96.1603 5.89660   9
 -10   2   5 79.0773 8.36963   1
   9  -2  -5 24.8006 4.07338   9
   9  -2  -5 25.7535 3.70239   5
  -9   2   5 27.9714 6.33528   1
   8  -2  -5 348.790 12.2432   9
   8  -2  -5 339.709 14.4254   5
  -8   2   5 347.990 16.5947   1
   7  -2  -5 154.870 6.93040   9
   7  -2  -5 148.644 8.19020   5
  -7   2   5 138.425 9.06561   1
   6  -2  -5 237.503 6.48284   9
   6  -2  -5 241.990 7.51489   5
  -6   2   5 236.740 12.1770   7
  -6   2   5 232.279 13.0133   3
  -6   2   5 251.893 10.5912   1
   5  -2  -5 1282.93 34.2028   5
   5  -2  -5 1245.07 39.4154   9
  -5   2   5 1266.44 66.4431   3
  -5   2   5 1277.07 69.6986   7
  -5   2   5 1271.94 105.473   1
   4  -2  -5 850.095 43.8615   1
   4  -2  -5 843.807 16.0094   9
   4  -2  -5 860.548 19.5709   5
  -4   2   5 849.804 42.7281   3
  -4   2   5 876.132 28.5562   1
  -4   2   5 863.503 42.9955   6
  -4   2   5 825.626 31.8023   7
  -4   2   5 890.527 39.0931   6
   3  -2  -5 969.731 16.0399   9
   3  -2  -5 996.068 31.9908   1
   3  -2  -5 999.087 14.7399   5
  -3   2   5 1021.52 40.7908   5
  -3   2   5 996.198 49.7331  10
  -3   2   5 996.815 47.1855   8
  -3   2   5 1014.20 23.1254   2
  -3   2   5 1019.05 18.8323   1
  -3   2   5 971.604 61.1310   3
   2  -2  -5 2238.74 37.5030   9
   2  -2  -5 2173.43 48.9338   3
   2  -2  -5 2214.98 83.9559   5
   2  -2  -5 2134.29 38.3455   1
  -2   2   5 2251.96 114.686   2
  -2   2   5 2264.17 56.5503   9
  -2   2   5 2257.53 54.0471   1
  -2   2   5 2287.36 78.2752   5
  -2   2   5 2245.31 97.1534   3
   1  -2  -5 901.653 32.7716   6
   1  -2  -5 931.701 16.2106   9
   1  -2  -5 921.629 28.3725   7
   1  -2  -5 922.945 32.2842   3
   1  -2  -5 931.365 33.7605   5
   1  -2  -5 937.286 22.8877   1
  -1   2   5 957.009 22.5002   9
  -1   2   5 950.432 25.4423   2
  -1   2   5 956.631 34.4795   3
  -1   2   5 932.725 20.1380   5
  -1   2   5 967.945 24.4947   1
   0  -2  -5 1684.19 43.5308   3
   0  -2  -5 1691.45 30.0845   9
   0  -2  -5 1731.74 36.9465   5
   0  -2  -5 1712.33 41.1254   2
   0  -2  -5 1672.54 45.2727   1
   0   2   5 1683.06 56.9580   1
   0   2   5 1709.72 58.1798   3
   0   2   5 1712.59 63.9190   2
   0   2   5 1746.38 34.7907   5
   0   2   5 1748.86 82.0385   9
  -1  -2  -5 3219.84 133.517   1
  -1  -2  -5 3155.39 68.0715   3
  -1  -2  -5 3184.18 80.4191   5
  -1  -2  -5 3245.56 88.7608   2
  -1  -2  -5 3201.48 87.8395   9
   1   2   5 3147.35 92.7328   2
   1   2   5 3262.69 161.679   4
   1   2   5 3186.14 58.8425   5
   1   2   5 3252.81 74.0565   3
   1   2   5 3159.12 67.5470   9
  -2  -2  -5 1595.90 38.3195   2
  -2  -2  -5 1581.48 39.8586   9
  -2  -2  -5 1615.49 28.2749   1
  -2  -2  -5 1565.04 39.8560   5
  -2  -2  -5 1541.36 31.0773   3
  -2  -2  -5 1584.60 33.7790   4
   2   2   5 1621.25 78.2630   3
   2   2   5 1530.29 27.5059   4
   2   2   5 1534.05 27.5689   2
   2   2   5 1568.70 48.4669   5
  -3  -2  -5 1005.48 25.5369   5
  -3  -2  -5 1056.49 44.8533   4
  -3  -2  -5 1034.07 25.5342   2
  -3  -2  -5 1016.36 15.1194   9
  -3  -2  -5 1029.89 25.0567   3
   3   2   5 1050.72 22.6122   4
   3   2   5 1043.07 44.5790   5
   3   2   5 1047.39 57.2605   3
   3   2   5 1027.84 17.0813   2
  -4  -2  -5 1152.08 28.2472   3
  -4  -2  -5 1165.58 37.9051   2
  -4  -2  -5 1166.45 30.2154   5
  -4  -2  -5 1161.32 36.8114   9
   4   2   5 1152.50 21.2932   5
   4   2   5 1170.51 31.1815   2
   4   2   5 1130.31 19.2226   4
  -5  -2  -5 734.133 33.0311   2
  -5  -2  -5 767.981 18.2066   1
  -5  -2  -5 787.987 19.3362   3
   5   2   5 737.876 10.6483   4
   5   2   5 749.695 12.2183   8
   5   2   5 734.876 13.8574   2
   5   2   5 740.589 13.2791  10
  -6  -2  -5 469.187 15.0741   3
  -6  -2  -5 483.943 16.8459   1
   6   2   5 478.138 24.6786   4
   6   2   5 470.155 9.37780   8
   6   2   5 455.968 14.3483   2
   6   2   5 474.586 9.83742  10
  -7  -2  -5 809.612 29.5494   3
  -7  -2  -5 806.367 28.4919   1
   7   2   5 763.420 32.9634   2
   7   2   5 787.323 20.5936   8
   7   2   5 777.439 38.0552   4
   7   2   5 783.574 24.4475  10
  -8  -2  -5 253.178 23.6714   3
  -8  -2  -5 235.741 11.7820   1
   8   2   5 245.268 11.3351  10
   8   2   5 237.593 10.6269   8
   8   2   5 230.348 9.61418   4
  -9  -2  -5 213.491 11.5876   3
  -9  -2  -5 216.593 11.1862   1
   9   2   5 211.732 9.73629   8
   9   2   5 198.868 10.2593  10
   9   2   5 214.368 10.3906   4
 -10  -2  -5 217.159 14.8812   1
  10   2   5 197.563 14.3877   4
  10   2   5 202.282 13.5035   8
  10   2   5 203.099 13.9809  10
 -11  -2  -5 18.4543 7.45071   1
  11   2   5 22.6480 20.3572   4
  11   2   5 30.6786 19.8624  10
  11   2   5 19.9561 19.9113   8
  10  -3  -5 14.3557 4.41454   9
  10  -3  -5 15.0290 4.92170   5
 -10   3   5 16.2090 7.10551   1
   9  -3  -5 294.345 15.3101   9
   9  -3  -5 299.902 16.2185   5
  -9   3   5 305.284 17.9256   1
   8  -3  -5 124.918 6.72844   5
   8  -3  -5 116.169 5.36209   9
  -8   3   5 96.5247 6.01078   6
  -8   3   5 96.2013 7.20855   1
   7  -3  -5 251.331 8.97025   5
   7  -3  -5 250.741 8.91060   9
  -7   3   5 263.992 11.9107   1
  -7   3   5 277.063 11.4606   6
   6  -3  -5 515.871 15.2866   9
   6  -3  -5 518.613 12.4943   5
  -6   3   5 530.769 17.9658   6
  -6   3   5 500.741 40.3902   1
  -6   3   5 504.242 29.7015   7
  -6   3   5 500.735 49.5469   3
   5  -3  -5 949.066 22.6104   9
   5  -3  -5 954.759 37.9867   5
  -5   3   5 947.669 57.3948   6
  -5   3   5 978.333 43.8455   3
  -5   3   5 1014.78 45.6028   7
  -5   3   5 972.188 34.5165   1
   4  -3  -5 685.103 13.5325   5
   4  -3  -5 662.051 13.5389   9
  -4   3   5 692.741 38.5826   6
  -4   3   5 648.159 22.3324   7
  -4   3   5 671.402 30.9982   3
  -4   3   5 684.954 21.1991   1
   3  -3  -5 2464.87 45.3003   9
   3  -3  -5 2419.06 41.9776   3
   3  -3  -5 2513.15 54.9415   5
   3  -3  -5 2521.57 117.492   1
  -3   3   5 2552.50 104.815   3
  -3   3   5 2368.09 119.710   7
  -3   3   5 2561.61 116.230   5
  -3   3   5 2532.94 66.7366   1
  -3   3   5 2677.84 125.491   6
  -3   3   5 2655.31 121.173   7
   2  -3  -5 2059.97 26.0563   9
   2  -3  -5 2087.12 34.9079   5
   2  -3  -5 2061.03 44.9431   1
   2  -3  -5 1967.92 33.0306   3
  -2   3   5 2125.42 72.1480   3
  -2   3   5 2158.84 54.0162   5
  -2   3   5 2146.99 60.9975   1
   1  -3  -5 867.680 16.3443   3
   1  -3  -5 869.160 23.9837   1
   1  -3  -5 894.833 18.0094   5
   1  -3  -5 894.698 27.8508   9
   1  -3  -5 881.819 34.2047   6
  -1   3   5 905.295 21.4025   5
  -1   3   5 898.236 23.1111   3
  -1   3   5 896.286 23.0634   1
  -1   3   5 908.980 29.5967   2
   0  -3  -5 1724.37 28.9436   9
   0  -3  -5 1675.44 41.0444   1
   0  -3  -5 1688.49 68.1979   3
   0  -3  -5 1724.58 52.0409   6
   0  -3  -5 1705.61 44.2084   7
   0  -3  -5 1677.68 35.8227   5
   0   3   5 1661.79 48.8377   2
   0   3   5 1715.32 78.1413   1
   0   3   5 1726.02 41.2210   5
   0   3   5 1732.90 102.422   3
  -1  -3  -5 1316.71 30.8938   9
  -1  -3  -5 1289.96 40.5220   2
  -1  -3  -5 1320.61 39.4234   5
  -1  -3  -5 1284.85 44.0195   7
  -1  -3  -5 1303.46 26.9466   3
  -1  -3  -5 1311.72 29.6331   1
   1   3   5 1243.83 45.6019   2
   1   3   5 1306.96 85.7852   4
   1   3   5 1302.19 20.4869   5
   1   3   5 1276.87 38.4299   3
  -2  -3  -5 1977.88 67.6716   2
  -2  -3  -5 2007.58 33.0724   7
  -2  -3  -5 1940.96 40.4842   3
  -2  -3  -5 1961.56 39.3085   9
  -2  -3  -5 1966.60 42.0928   5
  -2  -3  -5 2019.45 42.4891   1
  -2  -3  -5 1990.84 43.9002   4
   2   3   5 1925.63 32.9480   5
   2   3   5 1962.52 37.9950   4
   2   3   5 1889.36 55.8970   2
   2   3   5 1972.66 42.9801   3
  -3  -3  -5 2086.60 66.4001   7
  -3  -3  -5 1928.88 36.3054   9
  -3  -3  -5 1960.34 57.2887   5
  -3  -3  -5 1936.01 77.1093   4
  -3  -3  -5 1944.27 50.2770   3
  -3  -3  -5 1902.94 48.1122   2
   3   3   5 1853.00 40.4839   2
   3   3   5 1913.14 65.5322   3
   3   3   5 1873.90 39.3320   5
   3   3   5 1893.13 40.3701   4
  -4  -3  -5 506.379 20.0938   7
  -4  -3  -5 606.140 25.4568   9
  -4  -3  -5 596.481 12.9494   3
  -4  -3  -5 601.581 15.7161   2
  -4  -3  -5 616.440 27.6420   5
   4   3   5 594.434 13.9846   5
   4   3   5 578.272 16.2427   2
   4   3   5 590.195 11.8983   4
  -5  -3  -5 999.285 43.2410   9
  -5  -3  -5 1018.27 46.4757   2
  -5  -3  -5 991.378 41.0103   5
  -5  -3  -5 990.053 19.1549   3
   5   3   5 970.294 25.1377   2
   5   3   5 1014.09 56.1462  10
   5   3   5 1006.75 40.3893   4
   5   3   5 1005.39 49.2703   8
  -6  -3  -5 1019.46 22.9608   3
  -6  -3  -5 935.465 64.3335   2
   6   3   5 1012.16 24.4271  10
   6   3   5 915.490 30.5945   2
   6   3   5 943.937 19.3745   4
   6   3   5 966.158 20.1472   8
  -7  -3  -5 227.324 10.4292   1
  -7  -3  -5 238.961 9.52438   3
   7   3   5 251.933 7.80634  10
   7   3   5 237.069 8.24260   4
   7   3   5 228.991 8.02716   8
   7   3   5 252.578 9.89286   2
  -8  -3  -5 498.469 18.8175   1
  -8  -3  -5 504.992 26.7285   3
   8   3   5 493.955 17.9650   8
   8   3   5 469.552 16.0412  10
   8   3   5 508.612 17.7136   4
  -9  -3  -5 234.371 13.3751   1
  -9  -3  -5 216.085 12.4425   3
   9   3   5 228.137 12.4720   4
   9   3   5 246.132 10.5215   8
   9   3   5 210.192 11.2152  10
 -10  -3  -5 51.8559 5.92431   1
 -10  -3  -5 52.9733 5.78618   3
  10   3   5 57.7593 7.20750  10
  10   3   5 49.4027 6.85710   4
  10   3   5 60.1734 6.90800   8
 -11  -3  -5 36.1341 6.24319   1
  11   3   5 39.9979 7.71079   4
  11   3   5 45.8703 5.91843   8
  11   3   5 43.0397 6.23655  10
 -10   4   5 162.299 12.9263   1
   9  -4  -5 92.2320 5.61272   5
   9  -4  -5 83.5732 4.97228   9
  -9   4   5 88.9571 7.10306   1
   8  -4  -5 97.1523 6.04196   5
   8  -4  -5 90.6072 4.86146   9
  -8   4   5 82.8430 7.50794   1
   7  -4  -5 456.367 25.0537   5
   7  -4  -5 448.431 15.0334   9
  -7   4   5 473.136 23.7212   1
  -7   4   5 458.601 21.7958   6
   6  -4  -5 86.5358 4.48678   9
   6  -4  -5 73.5508 4.94696   5
  -6   4   5 83.6335 5.28454   1
  -6   4   5 73.5834 4.89883   6
   5  -4  -5 1434.28 36.4866   5
   5  -4  -5 1422.45 36.3683   9
  -5   4   5 1474.27 57.4129   1
  -5   4   5 1438.68 96.7331   6
  -5   4   5 1485.87 97.9079   3
   4  -4  -5 1680.97 23.6294   9
   4  -4  -5 1660.20 36.8561   5
  -4   4   5 1773.50 66.0403   6
  -4   4   5 1728.66 57.3783   1
  -4   4   5 1759.79 94.1735   3
   3  -4  -5 401.058 8.90773   3
   3  -4  -5 412.068 7.54108   9
   3  -4  -5 419.071 14.9305   5
  -3   4   5 425.934 12.9821   7
  -3   4   5 423.422 16.6156   3
  -3   4   5 420.834 11.5485   1
  -3   4   5 427.484 15.9793   6
   2  -4  -5 1447.77 22.2389   3
   2  -4  -5 1440.88 75.9480   1
   2  -4  -5 1437.63 23.9087   5
   2  -4  -5 1424.24 51.2980   6
   2  -4  -5 1439.03 21.5388   9
  -2   4   5 1521.67 35.6473   1
  -2   4   5 1534.09 69.5294   6
  -2   4   5 1515.68 60.5627   3
  -2   4   5 1523.44 73.9687   7
  -2   4   5 1495.87 72.3638   5
   1  -4  -5 1195.43 22.4109   3
   1  -4  -5 1218.73 30.2500   6
   1  -4  -5 1256.42 40.2323   1
   1  -4  -5 1197.90 23.7288   5
  -1   4   5 1261.51 88.4846   7
  -1   4   5 1270.81 28.9705   1
  -1   4   5 1274.18 36.2747   3
  -1   4   5 1316.31 48.3099   5
   0  -4  -5 745.298 30.5383   7
   0  -4  -5 747.729 17.7720   6
   0  -4  -5 749.733 15.5947   3
   0  -4  -5 769.989 45.1167   1
   0  -4  -5 756.576 18.1853   5
   0   4   5 772.831 23.6038   5
   0   4   5 751.622 28.6658   3
   0   4   5 761.772 58.1767   1
   0   4   5 738.692 23.7629   2
   0   4   5 748.579 47.3785   7
  -1  -4  -5 2000.00 58.5172   3
  -1  -4  -5 2059.72 43.1777   6
  -1  -4  -5 2095.51 59.5011   7
  -1  -4  -5 2113.66 48.7234   1
  -1  -4  -5 2092.71 65.2160   5
   1   4   5 2126.79 57.1176   1
   1   4   5 2030.25 109.640   2
   1   4   5 2076.91 126.186   5
   1   4   5 2067.37 54.4320   4
   1   4   5 2141.41 57.6030   3
  -2  -4  -5 2908.34 106.177   5
  -2  -4  -5 2845.77 76.9369   2
  -2  -4  -5 2894.93 92.0000   7
  -2  -4  -5 3012.47 71.3415   1
  -2  -4  -5 2879.94 68.8288   3
   2   4   5 2950.03 133.497   3
   2   4   5 2874.19 68.0566   5
   2   4   5 2807.78 142.651   2
   2   4   5 2910.05 48.2190   4
  -3  -4  -5 320.306 8.04131   4
  -3  -4  -5 327.336 9.56511   7
  -3  -4  -5 314.200 8.39134   5
  -3  -4  -5 323.044 10.2657   2
  -3  -4  -5 309.450 11.5270   3
  -3  -4  -5 312.935 9.78528   1
   3   4   5 312.108 17.3208   3
   3   4   5 314.712 10.3569   5
   3   4   5 319.780 6.30834   4
   3   4   5 306.356 17.0138   2
  -4  -4  -5 1725.01 36.3307   9
  -4  -4  -5 1738.05 47.8608   2
  -4  -4  -5 1699.96 43.1547   5
  -4  -4  -5 1688.50 33.9206   3
   4   4   5 1632.13 28.1333   4
   4   4   5 1575.85 51.8135   2
  -5  -4  -5 1156.06 61.7649   5
  -5  -4  -5 1096.00 38.5043   3
  -5  -4  -5 1160.15 43.3827   2
  -5  -4  -5 1177.80 35.7609   9
   5   4   5 1131.66 27.0927  10
   5   4   5 1146.82 22.2409   8
   5   4   5 1103.15 35.2698   2
   5   4   5 1084.26 34.8846   4
  -6  -4  -5 531.961 25.9339   2
  -6  -4  -5 530.652 23.9105   9
  -6  -4  -5 537.719 13.0243   3
  -6  -4  -5 530.223 32.7997   5
   6   4   5 520.185 10.6271   8
   6   4   5 518.237 18.8577   4
   6   4   5 540.532 11.6571  10
  -7  -4  -5 681.985 24.1302   3
   7   4   5 623.620 14.9242   4
   7   4   5 623.190 21.6480   8
   7   4   5 634.368 19.1351  10
  -8  -4  -5 474.714 22.3770   3
  -8  -4  -5 452.892 21.7608   1
   8   4   5 442.274 16.5776   4
   8   4   5 425.588 16.3154   8
   8   4   5 451.086 18.4777  10
  -9  -4  -5 118.038 7.77254   3
  -9  -4  -5 114.952 7.47555   1
   9   4   5 113.862 7.90773   8
   9   4   5 120.745 7.26263  10
   9   4   5 122.311 7.09644   4
 -10  -4  -5 241.985 18.3567   1
 -10  -4  -5 263.821 17.0107   3
  10   4   5 263.395 16.9196   4
  10   4   5 254.832 10.2329   8
  10   4   5 275.066 11.4402  10
 -11  -4  -5 30.8099 8.23734   1
  11   4   5 33.5128 7.02923   8
  11   4   5 40.7320 7.53166   4
  11   4   5 40.2996 7.68628  10
 -10   5   5 38.4708 7.37005   1
   9  -5  -5 20.3840 4.64159   9
   9  -5  -5 24.5807 5.23176   5
  -9   5   5 16.1988 5.68297   1
   8  -5  -5 189.724 8.15114   9
   8  -5  -5 187.028 9.39557   5
  -8   5   5 168.209 15.2635   1
   7  -5  -5 142.936 6.74035   5
   7  -5  -5 147.462 7.55845   9
  -7   5   5 136.151 7.79680   1
  -7   5   5 143.316 7.44726   6
   6  -5  -5 397.995 11.1469   9
   6  -5  -5 390.473 16.2599   5
  -6   5   5 390.229 17.6283   6
  -6   5   5 392.870 18.0617   1
   5  -5  -5 1797.12 52.1795   9
   5  -5  -5 1766.58 69.7954   5
  -5   5   5 1808.40 76.2399   6
  -5   5   5 1839.14 58.5252   1
   4  -5  -5 185.956 8.76844   5
   4  -5  -5 182.479 8.35128   9
   4  -5  -5 179.382 6.51367   3
  -4   5   5 188.352 6.15699   6
  -4   5   5 176.256 11.1937   3
  -4   5   5 176.227 5.58357   7
  -4   5   5 192.080 10.0121   1
   3  -5  -5 1015.03 18.2570   5
   3  -5  -5 1040.12 27.7112   3
  -3   5   5 1122.95 34.9399   7
  -3   5   5 1102.88 43.7462   3
  -3   5   5 1120.45 39.8036   6
  -3   5   5 1117.14 23.5145   1
   2  -5  -5 1162.53 23.0901   5
   2  -5  -5 1156.52 32.5866   3
   2  -5  -5 1177.43 53.8572   6
  -2   5   5 1244.21 56.8545   7
  -2   5   5 1258.82 43.1058   6
  -2   5   5 1241.15 74.5641   3
  -2   5   5 1191.50 100.373   1
   1  -5  -5 223.858 5.18914   3
   1  -5  -5 241.347 6.12930   6
   1  -5  -5 247.096 9.09271   1
   1  -5  -5 235.962 5.89998   5
  -1   5   5 225.292 12.1485   6
  -1   5   5 227.361 17.0121   5
  -1   5   5 238.064 9.79819   3
  -1   5   5 246.223 8.41402   1
  -1   5   5 226.068 11.1003   7
   0  -5  -5 4023.00 74.3002   6
   0  -5  -5 4013.02 79.7386   5
   0  -5  -5 3995.53 96.2772   3
   0  -5  -5 3954.09 61.7484   7
   0  -5  -5 4055.17 227.999   1
   0   5   5 3991.81 102.700   1
   0   5   5 4241.31 209.900   5
   0   5   5 4033.36 152.932   7
   0   5   5 4159.97 296.859   3
  -1  -5  -5 1355.35 47.8451   6
  -1  -5  -5 1337.00 30.3938   5
  -1  -5  -5 1371.44 47.2400   1
  -1  -5  -5 1360.99 30.1372   7
  -1  -5  -5 1342.52 29.1853   3
   1   5   5 1396.88 37.2506   7
   1   5   5 1346.94 56.1733   5
   1   5   5 1343.61 37.2803   4
   1   5   5 1349.87 49.3996   2
   1   5   5 1421.10 92.5285   3
   1   5   5 1357.95 29.2843   1
  -2  -5  -5 1044.55 19.4123   6
  -2  -5  -5 995.763 17.3159   3
  -2  -5  -5 1009.28 24.5328   5
  -2  -5  -5 1027.34 13.2134   7
  -2  -5  -5 1074.50 38.3642   1
   2   5   5 1042.32 52.3842   7
   2   5   5 1028.99 32.7331   3
   2   5   5 1018.62 22.5610   4
   2   5   5 987.744 47.1159   5
   2   5   5 947.677 55.2658   2
  -3  -5  -5 2139.70 63.4027   4
  -3  -5  -5 2056.61 44.2013   3
  -3  -5  -5 2126.42 85.5340   6
  -3  -5  -5 2132.96 62.7669   7
  -3  -5  -5 2036.76 68.6726   5
   3   5   5 2067.16 38.0800   4
   3   5   5 1947.80 112.855   2
  -4  -5  -5 1218.31 21.1109   3
  -4  -5  -5 1229.03 30.5666   5
  -4  -5  -5 1214.85 28.5995   2
   4   5   5 1169.14 49.4946   2
   4   5   5 1198.04 20.1497   4
  -5  -5  -5 633.822 14.0034   3
  -5  -5  -5 645.652 21.5462   5
  -5  -5  -5 630.810 16.9890   2
   5   5   5 600.023 15.8416   4
   5   5   5 599.233 11.1156   8
   5   5   5 616.379 12.5175  10
  -6  -5  -5 1332.44 65.0306   2
  -6  -5  -5 1330.28 60.8302   5
  -6  -5  -5 1331.96 37.0471   3
   6   5   5 1291.46 29.6310   8
   6   5   5 1282.67 47.0118   4
   6   5   5 1269.40 26.5817  10
  -7  -5  -5 323.576 15.8910   3
   7   5   5 306.823 9.95092   4
   7   5   5 327.026 14.0495   8
   7   5   5 332.728 13.3414  10
  -8  -5  -5 172.666 8.90130   3
   8   5   5 187.358 7.78302  10
   8   5   5 178.554 9.46122   4
   8   5   5 186.745 7.93082   8
  -9  -5  -5 320.819 32.5921   1
  -9  -5  -5 356.929 19.2653   3
   9   5   5 346.685 21.1393  10
   9   5   5 353.630 18.5160   4
   9   5   5 355.919 17.2106   8
 -10  -5  -5 77.8779 7.21494   3
 -10  -5  -5 86.8645 8.02502   1
  10   5   5 99.4558 7.89224  10
  10   5   5 103.552 7.57683   8
  10   5   5 110.000 9.42714   4
 -11  -5  -5 23.0103 7.85888   1
  11   5   5 21.2549 6.97312   4
  11   5   5 27.2211 6.76574   8
  11   5   5 17.1589 7.05401  10
   9  -6  -5 64.0346 5.82118   9
   9  -6  -5 59.5745 5.46221   5
  -9   6   5 62.2771 7.40884   1
   8  -6  -5 140.399 8.19275   9
   8  -6  -5 132.146 8.71022   5
  -8   6   5 117.503 11.9373   1
   7  -6  -5 213.961 7.70381   9
   7  -6  -5 202.969 9.33798   5
  -7   6   5 189.341 15.3375   6
  -7   6   5 209.572 13.8896   1
   6  -6  -5 430.873 12.6077   9
   6  -6  -5 425.918 15.9672   5
  -6   6   5 426.236 18.8757   1
  -6   6   5 423.222 21.8721   6
   5  -6  -5 604.556 16.9553   5
  -5   6   5 609.811 46.5488   1
  -5   6   5 616.253 29.9605   6
   4  -6  -5 274.853 8.94297   3
   4  -6  -5 266.570 9.46202   5
  -4   6   5 331.845 14.8489   1
  -4   6   5 270.809 21.8028   3
  -4   6   5 283.082 12.4286   6
  -4   6   5 280.074 17.0670   7
   3  -6  -5 886.773 24.3909   3
   3  -6  -5 898.794 21.0947   5
   3  -6  -5 886.026 43.2624   6
  -3   6   5 951.569 25.6535   1
  -3   6   5 958.100 60.1181   6
  -3   6   5 938.213 49.3161   7
  -3   6   5 926.402 63.2834   3
   2  -6  -5 706.866 44.6084   6
   2  -6  -5 726.949 22.1816   3
   2  -6  -5 725.603 13.8164   5
  -2   6   5 709.860 42.7043   8
  -2   6   5 771.498 19.8361   1
  -2   6   5 726.113 43.7830   3
  -2   6   5 722.718 49.2531  10
  -2   6   5 762.352 28.4267   6
  -2   6   5 773.099 47.7208   2
  -2   6   5 758.874 27.3650   7
   1  -6  -5 1288.99 27.6047   5
   1  -6  -5 1314.31 38.8605   6
   1  -6  -5 1294.31 28.7967   3
  -1   6   5 1380.84 45.5864   7
  -1   6   5 1352.40 42.4272   1
  -1   6   5 1354.47 97.8925   3
  -1   6   5 1401.28 70.1401   6
  -1   6   5 1367.10 67.6080   2
   0  -6  -5 754.383 23.7514   7
   0  -6  -5 752.858 16.1371   3
   0  -6  -5 762.070 24.6793   6
   0  -6  -5 745.382 21.7973   5
   0   6   5 753.321 41.7034   7
   0   6   5 738.368 23.8985   1
   0   6   5 750.674 44.0397   6
   0   6   5 801.077 46.2469   2
   0   6   5 797.420 25.4535   3
  -1  -6  -5 740.022 27.2024   6
  -1  -6  -5 735.555 12.5677   7
  -1  -6  -5 729.420 22.2028   5
  -1  -6  -5 697.205 16.6990   3
   1   6   5 739.137 25.5211   4
   1   6   5 746.246 26.9352   3
   1   6   5 722.385 51.2679   2
   1   6   5 697.251 19.3539   1
   1   6   5 728.685 22.5794   7
  -2  -6  -5 1748.29 25.4521   5
  -2  -6  -5 1768.92 102.649   7
  -2  -6  -5 1763.59 55.2824   6
  -2  -6  -5 1728.88 34.5986   3
   2   6   5 1649.84 110.631   2
   2   6   5 1770.30 48.7704   7
   2   6   5 1756.33 91.2537   2
   2   6   5 1686.89 107.057   4
  -3  -6  -5 1344.58 65.1014   7
  -3  -6  -5 1299.07 31.4895   5
  -3  -6  -5 1310.30 25.5632   3
  -3  -6  -5 1327.46 60.9387   6
   3   6   5 1280.88 17.6607   4
   3   6   5 1279.65 53.9119   7
  -4  -6  -5 589.192 17.9467   3
  -4  -6  -5 595.994 14.2382   5
   4   6   5 584.121 16.2903   4
  -5  -6  -5 1164.07 32.9218   3
  -5  -6  -5 1139.55 35.2881   5
   5   6   5 1101.04 57.5429   8
   5   6   5 1120.48 54.7573  10
   5   6   5 1161.04 23.1364   4
  -6  -6  -5 217.750 13.8024   3
  -6  -6  -5 202.973 8.53129   5
   6   6   5 203.435 7.71903  10
   6   6   5 218.620 7.29032   4
   6   6   5 219.861 6.24086   8
  -7  -6  -5 208.045 9.43672   3
  -7  -6  -5 202.788 15.6628   5
   7   6   5 224.160 8.26296   8
   7   6   5 208.630 10.0274   4
   7   6   5 206.730 7.93766  10
  -8  -6  -5 457.244 23.1842   3
   8   6   5 412.678 21.9927  10
   8   6   5 465.438 18.6019   4
   8   6   5 438.375 20.9874   8
  -9  -6  -5 175.778 11.7183   3
  -9  -6  -5 183.883 14.4740   1
   9   6   5 194.347 8.38605   8
   9   6   5 185.463 10.6780   4
   9   6   5 184.558 8.61851  10
 -10  -6  -5 40.1308 7.22197   1
 -10  -6  -5 56.7143 7.24956   3
  10   6   5 51.2160 6.45169   8
  10   6   5 48.9150 6.53133   4
  10   6   5 60.6911 6.92579  10
 -11  -6  -5 60.7970 7.02382   1
 -11  -6  -5 36.9928 7.35485   3
  11   6   5 59.2996 6.52425  10
  11   6   5 60.4781 7.84166   4
  11   6   5 59.6478 6.12728   8
   8  -7  -5 179.725 11.6726   9
   8  -7  -5 190.459 11.9692   5
  -8   7   5 184.591 15.9132   1
   7  -7  -5 123.138 10.5193   5
   7  -7  -5 121.906 6.43331   9
  -7   7   5 126.772 8.32960   1
   6  -7  -5 137.784 8.41699   5
  -6   7   5 125.345 7.78182   6
  -6   7   5 123.767 8.47221   1
   5  -7  -5 526.911 19.8036   5
  -5   7   5 494.175 29.5480   7
  -5   7   5 520.509 49.7908   1
  -5   7   5 522.221 29.8984   6
   4  -7  -5 265.022 9.56802   3
   4  -7  -5 279.359 9.66960   5
  -4   7   5 266.019 12.3120   1
  -4   7   5 285.922 13.8860   7
  -4   7   5 263.630 16.1732   6
   3  -7  -5 150.331 5.95571   5
   3  -7  -5 147.541 5.41141   3
   3  -7  -5 140.912 12.7939   6
  -3   7   5 131.786 7.87249   3
  -3   7   5 131.891 7.21837   7
  -3   7   5 135.999 17.3369   1
  -3   7   5 129.803 8.63608   6
   2  -7  -5 432.469 18.1912   6
   2  -7  -5 416.772 16.4942   3
   2  -7  -5 427.121 13.4492   5
  -2   7   5 430.177 22.1160   3
  -2   7   5 445.657 19.3887   7
  -2   7   5 427.764 22.8164   6
  -2   7   5 439.329 27.8776   1
   1  -7  -5 839.180 58.8712   6
   1  -7  -5 867.166 33.5228   3
   1  -7  -5 864.147 22.5360   5
  -1   7   5 899.954 34.5296   6
  -1   7   5 883.264 40.9417   7
  -1   7   5 858.822 55.7727   3
  -1   7   5 857.352 31.5073   1
  -1   7   5 901.719 70.0189   2
   0  -7  -5 445.389 22.7317   6
   0  -7  -5 428.038 20.2138   7
   0  -7  -5 433.408 14.9999   3
   0  -7  -5 430.921 14.7604   5
   0   7   5 430.041 19.2980   2
   0   7   5 421.899 19.2354   1
   0   7   5 422.777 20.7882   6
   0   7   5 430.170 31.1047   7
   0   7   5 387.817 32.3602   3
  -1  -7  -5 1728.87 45.1753   3
  -1  -7  -5 1812.91 111.667   7
  -1  -7  -5 1732.35 42.9064   5
  -1  -7  -5 1748.62 126.234   6
   1   7   5 1725.21 57.5267   1
   1   7   5 1767.11 126.496   6
   1   7   5 1709.44 76.6013   4
   1   7   5 1732.77 105.093   7
   1   7   5 1736.71 61.7233   2
  -2  -7  -5 926.210 30.8677   5
  -2  -7  -5 943.152 28.4215   3
   2   7   5 907.283 54.4650   4
   2   7   5 957.045 39.6227   7
   2   7   5 937.799 53.8863   2
   2   7   5 942.464 35.8892   2
  -3  -7  -5 645.477 20.5406   5
  -3  -7  -5 655.176 25.6821   3
   3   7   5 653.933 38.8059   7
   3   7   5 650.119 21.7933   4
  -4  -7  -5 605.771 17.9350   5
  -4  -7  -5 652.216 18.5348   3
   4   7   5 632.045 17.0629   4
   4   7   5 664.679 29.5000   7
  -5  -7  -5 307.997 8.70557   5
  -5  -7  -5 325.609 15.6944   3
   5   7   5 326.688 9.49851   4
   5   7   5 328.469 7.43464  10
   5   7   5 316.272 7.52637   8
  -6  -7  -5 426.849 19.8463   3
  -6  -7  -5 413.617 22.0009   5
   6   7   5 407.717 14.5710  10
   6   7   5 426.716 17.6656   4
   6   7   5 406.710 13.8013   8
  -7  -7  -5 351.754 24.1708   5
  -7  -7  -5 383.951 22.2357   3
   7   7   5 407.645 17.0602  10
   7   7   5 377.868 13.2469   4
   7   7   5 408.026 17.6064   8
  -8  -7  -5 192.722 15.5100   3
   8   7   5 225.737 14.4106   8
   8   7   5 232.518 10.3988   4
   8   7   5 211.913 14.9689  10
  -9  -7  -5 136.923 10.0813   3
   9   7   5 138.110 9.46710   8
   9   7   5 127.520 8.73792   4
   9   7   5 125.958 9.40639  10
 -10  -7  -5 117.112 10.7719   1
 -10  -7  -5 109.587 8.73905   3
  10   7   5 134.001 8.42213  10
  10   7   5 125.080 8.53964   8
  10   7   5 130.591 8.20793   4
 -11  -7  -5 8.66485 5.78391   1
 -11  -7  -5 11.2690 5.74756   3
  11   7   5 11.8027 5.10628  10
  11   7   5 15.5408 4.92317   8
  11   7   5 20.6744 5.28908   4
   8  -8  -5 99.9244 7.78227   9
   8  -8  -5 89.5599 10.1289   5
  -8   8   5 69.0322 10.1616   1
   7  -8  -5 20.1226 5.65983   5
   7  -8  -5 14.8083 3.66268   9
  -7   8   5 11.7223 5.90392   1
   6  -8  -5 314.190 13.7702   5
  -6   8   5 296.128 22.7390   7
  -6   8   5 311.106 20.5576   1
  -6   8   5 264.500 24.7645   6
   5  -8  -5 101.682 6.80314   5
  -5   8   5 73.9875 6.28381   7
  -5   8   5 81.0987 5.78663   6
  -5   8   5 95.1459 8.60617   1
   4  -8  -5 67.5597 4.44629   3
   4  -8  -5 66.5900 5.73366   5
  -4   8   5 56.7111 4.06246   7
  -4   8   5 50.4442 4.74964   6
  -4   8   5 68.1620 5.82965   1
   3  -8  -5 479.490 16.0412   5
   3  -8  -5 480.795 27.3751   3
  -3   8   5 453.817 42.4428   6
  -3   8   5 518.068 22.6361   1
  -3   8   5 473.276 29.5073   7
   2  -8  -5 415.423 15.1372   3
   2  -8  -5 425.682 24.4541   5
  -2   8   5 424.079 20.7425   6
  -2   8   5 427.178 26.3364   7
  -2   8   5 366.601 26.3361   3
  -2   8   5 426.539 22.9671   1
   1  -8  -5 337.156 11.7299   3
   1  -8  -5 326.578 12.6756   5
  -1   8   5 346.855 22.2130   7
  -1   8   5 347.948 24.9713   8
  -1   8   5 363.908 17.4258   1
  -1   8   5 326.374 19.2115   2
  -1   8   5 341.116 16.9013   6
  -1   8   5 335.058 25.6745  10
   0  -8  -5 983.575 31.6926   3
   0  -8  -5 971.124 34.0832   5
   0   8   5 1028.20 48.9256   6
   0   8   5 1035.65 85.1720   1
   0   8   5 966.539 55.1979   2
   0   8   5 980.844 51.0374   4
   0   8   5 1033.28 55.4901   7
  -1  -8  -5 456.626 15.1980   5
  -1  -8  -5 484.152 19.0412   3
   1   8   5 466.560 35.3836   6
   1   8   5 471.867 19.2474   4
   1   8   5 454.616 20.3477   2
   1   8   5 487.188 23.3847   1
   1   8   5 463.479 32.6801   7
  -2  -8  -5 298.674 10.3494   5
  -2  -8  -5 309.730 12.1974   3
   2   8   5 310.195 14.2322   2
   2   8   5 296.300 13.6972   4
   2   8   5 306.311 21.5534   7
   2   8   5 278.984 18.4884   6
  -3  -8  -5 1347.87 53.8470   5
  -3  -8  -5 1399.88 59.5247   3
   3   8   5 1304.71 66.4558   4
   3   8   5 1392.03 77.1158   7
  -4  -8  -5 77.8024 4.68161   5
  -4  -8  -5 95.1317 5.27383   3
   4   8   5 96.5963 4.44212   4
   4   8   5 77.1527 5.30329   7
   4   8   5 95.5381 5.18614   8
   4   8   5 94.2282 5.61450  10
  -5  -8  -5 269.221 8.42423   5
  -5  -8  -5 279.965 12.9841   3
   5   8   5 261.686 16.4805   7
   5   8   5 279.351 12.2804   8
   5   8   5 274.481 10.6982   4
   5   8   5 273.518 13.0304  10
  -6  -8  -5 443.888 25.5681   3
  -6  -8  -5 455.613 21.3269   5
   6   8   5 467.331 16.5555   4
   6   8   5 447.504 17.4821  10
   6   8   5 466.602 16.1089   8
  -7  -8  -5 79.6173 6.72477   3
   7   8   5 89.7636 5.08911   8
   7   8   5 84.1118 5.15516   4
   7   8   5 78.2039 5.14306  10
  -8  -8  -5 158.098 12.2068   3
   8   8   5 177.159 20.5601   4
   8   8   5 168.296 21.8479  10
   8   8   5 149.436 19.4632   8
  -9  -8  -5 108.341 10.0073   3
   9   8   5 145.613 10.5128  10
   9   8   5 139.378 10.5493   8
   9   8   5 128.835 11.1086   4
 -10  -8  -5 18.6151 7.25857   3
  10   8   5 24.2821 4.90487  10
  10   8   5 25.2802 4.64022   8
  10   8   5 23.5239 6.11982   4
   7  -9  -5 109.644 10.0416   5
  -7   9   5 123.425 10.0152   1
   6  -9  -5 18.7642 5.90734   5
  -6   9   5 6.67614 5.51678   1
   5  -9  -5 64.9537 6.53239   5
  -5   9   5 53.3926 6.38682   7
  -5   9   5 71.0069 8.38808   1
  -5   9   5 54.8822 5.08727   6
   4  -9  -5 166.076 9.12748   5
  -4   9   5 147.944 9.86953   6
  -4   9   5 150.920 10.9670   1
  -4   9   5 148.003 9.20363   7
   3  -9  -5 61.1543 5.86138   5
   3  -9  -5 60.2482 5.57891   3
  -3   9   5 52.6945 4.45302   7
  -3   9   5 55.3112 5.54523   1
  -3   9   5 49.3770 5.53393   6
   2  -9  -5 251.931 12.5374   3
   2  -9  -5 260.400 9.39155   5
  -2   9   5 244.414 14.4172   1
  -2   9   5 232.243 11.6351   7
  -2   9   5 251.211 15.2228   6
   1  -9  -5 450.109 20.3492   5
   1  -9  -5 449.126 23.8619   3
  -1   9   5 453.455 20.6867   7
  -1   9   5 456.304 25.5399   1
  -1   9   5 411.182 52.6730  10
  -1   9   5 405.128 52.4449   8
  -1   9   5 445.929 25.9583   6
   0  -9  -5 115.942 6.29231   5
   0  -9  -5 126.738 6.41662   3
   0   9   5 113.258 11.7024   8
   0   9   5 126.951 16.4914   1
   0   9   5 124.630 7.93443   6
   0   9   5 114.660 7.27106   2
   0   9   5 113.778 12.0123  10
   0   9   5 108.588 8.84265   7
   0   9   5 120.662 8.95428   4
  -1  -9  -5 372.236 18.6110   3
  -1  -9  -5 332.757 12.7810   5
   1   9   5 345.421 17.5261   7
   1   9   5 342.875 20.7474   1
   1   9   5 339.270 18.1081   6
   1   9   5 333.852 16.9165   2
   1   9   5 318.533 25.1912   4
  -2  -9  -5 412.930 17.9173   5
  -2  -9  -5 424.401 22.3456   3
   2   9   5 414.781 22.3084   4
   2   9   5 438.202 22.7174   7
   2   9   5 420.747 21.0994   2
   2   9   5 457.391 24.1908   6
  -3  -9  -5 221.099 11.0980   3
  -3  -9  -5 208.461 9.54259   5
   3   9   5 197.849 15.4348   7
   3   9   5 233.848 10.1375   4
  -4  -9  -5 16.6837 3.51037   3
  -4  -9  -5 17.4546 3.96130   5
   4   9   5 16.3303 3.71818   7
   4   9   5 20.7398 2.72692   4
   4   9   5 24.1547 2.76621   8
   4   9   5 16.9013 2.72460  10
  -5  -9  -5 404.001 22.7616   5
  -5  -9  -5 375.568 18.7974   3
   5   9   5 400.760 28.8667   7
   5   9   5 405.783 16.8598   8
   5   9   5 398.613 14.6085  10
   5   9   5 401.320 20.8353   4
  -6  -9  -5 41.2501 4.54745   5
  -6  -9  -5 44.2706 5.02286   3
   6   9   5 48.4951 4.09867   4
   6   9   5 44.0153 4.05712  10
   6   9   5 43.2683 3.88215   8
   6   9   5 42.7187 6.57252   7
  -7  -9  -5 108.103 7.45500   3
  -7  -9  -5 85.9318 7.40930   5
   7   9   5 108.457 6.72019   4
   7   9   5 120.886 6.14763   8
   7   9   5 116.353 5.99432  10
  -8  -9  -5 249.360 16.2861   3
   8   9   5 268.901 15.8485  10
   8   9   5 265.511 13.5045   4
   8   9   5 266.845 16.5792   8
  -9  -9  -5 10.9551 6.85250   3
   9   9   5 13.9478 3.90996  10
   9   9   5 17.1535 5.20783   4
   9   9   5 18.7028 3.88250   8
 -10  -9  -5 41.8174 6.73259   3
  10   9   5 61.6107 7.22065   8
  10   9   5 46.3149 7.34899  10
  10   9   5 49.7730 7.47399   4
   6 -10  -5 -1.2422 6.53311   5
  -6  10   5 4.39942 6.17127   1
   5 -10  -5 115.791 8.43472   5
  -5  10   5 86.4745 6.90052   6
  -5  10   5 113.285 10.2925   1
  -5  10   5 80.8458 6.35209   7
   4 -10  -5 57.9604 6.77832   5
  -4  10   5 54.9318 6.72131   1
  -4  10   5 45.7090 6.70408   6
  -4  10   5 40.9837 5.02925   7
   3 -10  -5 86.3652 7.30104   5
  -3  10   5 65.9190 5.44644   7
  -3  10   5 69.2579 7.36073   6
  -3  10   5 89.6808 8.76035   1
   2 -10  -5 151.837 8.11488   3
   2 -10  -5 141.923 7.16216   5
  -2  10   5 141.678 9.27281   6
  -2  10   5 142.482 10.5771   7
  -2  10   5 129.712 8.69895   1
   1 -10  -5 14.7108 3.73222   3
   1 -10  -5 11.6077 4.82331   5
  -1  10   5 12.2699 5.65543   1
  -1  10   5 9.42529 3.75318   7
  -1  10   5 4.99632 5.18252   6
   0 -10  -5 267.473 12.6157   5
   0 -10  -5 287.762 15.9051   3
   0  10   5 288.258 16.1333   1
   0  10   5 272.759 22.9527   4
   0  10   5 286.277 13.0115   7
   0  10   5 286.448 21.2192   6
  -1 -10  -5 194.160 11.3658   3
  -1 -10  -5 178.871 10.2805   5
   1  10   5 184.870 13.1239   4
   1  10   5 154.385 10.3930   6
   1  10   5 211.013 11.6912   1
   1  10   5 167.392 11.9774   7
  -2 -10  -5 152.122 7.73062   3
  -2 -10  -5 142.809 8.26928   5
   2  10   5 143.040 11.6707   4
   2  10   5 129.816 9.54333   6
   2  10   5 148.588 9.19192   7
  -3 -10  -5 133.592 6.53734   3
  -3 -10  -5 137.901 7.24886   5
   3  10   5 113.019 10.7592   7
   3  10   5 127.826 6.78899   8
   3  10   5 139.066 8.36993  10
   3  10   5 137.314 9.26444   4
  -4 -10  -5 48.0507 4.91575   3
  -4 -10  -5 46.3427 5.39057   5
   4  10   5 54.1646 6.06811   4
   4  10   5 51.1960 5.24844   8
   4  10   5 44.4888 5.21297   7
   4  10   5 53.9953 5.63380  10
  -5 -10  -5 69.4925 6.43589   5
  -5 -10  -5 78.0390 6.89609   3
   5  10   5 91.7559 4.91336  10
   5  10   5 88.6208 5.59751   4
   5  10   5 71.4747 7.18893   7
   5  10   5 89.9781 4.33064   8
  -6 -10  -5 198.847 14.7392   3
  -6 -10  -5 167.701 10.2590   5
   6  10   5 190.940 11.1047   4
   6  10   5 172.475 15.6338   7
   6  10   5 198.515 10.3923  10
   6  10   5 198.796 9.42268   8
  -7 -10  -5 133.214 11.0255   5
  -7 -10  -5 131.592 10.2178   3
   7  10   5 127.019 12.4143   7
   7  10   5 135.068 7.57489   8
   7  10   5 146.677 8.49098  10
   7  10   5 152.491 10.9035   4
  -8 -10  -5 14.1327 7.04015   3
   8  10   5 15.1117 4.77550  10
   8  10   5 17.4328 4.56119   4
   8  10   5 11.9117 4.35910   8
  -9 -10  -5 41.9479 8.69175   3
   9  10   5 31.9709 5.97518  10
   9  10   5 42.0255 6.05972   4
   9  10   5 46.0714 5.91896   8
   5 -11  -5 5.50449 4.90534   5
  -5  11   5 5.05276 6.81204   1
   4 -11  -5 36.1918 5.59070   5
  -4  11   5 25.2542 5.61942   6
  -4  11   5 26.9071 5.49085   7
  -4  11   5 26.6801 8.70575   1
   3 -11  -5 37.8969 6.84131   5
  -3  11   5 37.5524 8.40784   1
  -3  11   5 28.6686 5.76049   6
  -3  11   5 33.7135 5.67941   7
   2 -11  -5 13.9916 5.92556   5
   2 -11  -5 10.3587 2.88969   3
  -2  11   5 13.4300 4.80534   7
  -2  11   5 12.1143 5.12076   6
  -2  11   5 20.8153 7.30058   1
   1 -11  -5 121.456 9.46850   5
   1 -11  -5 109.429 9.16728   3
  -1  11   5 108.856 8.96790   7
  -1  11   5 120.883 9.04499   1
  -1  11   5 117.094 9.66293   6
   0 -11  -5 270.020 15.5868   5
   0 -11  -5 250.287 21.3381   3
   0  11   5 265.234 75.8901   7
   0  11   5 239.420 16.5976   1
   0  11   5 262.262 88.6448   6
  -1 -11  -5 -1.0962 3.39591   5
  -1 -11  -5 -2.2851 4.17024   3
   1  11   5 -3.3743 4.42712   6
   1  11   5 3.93992 4.28808   1
   1  11   5 -3.7328 4.21011   7
  -2 -11  -5 114.319 8.37206   3
  -2 -11  -5 103.420 7.41198   5
   2  11   5 100.041 8.21743   7
   2  11   5 94.8326 8.31533   6
  -3 -11  -5 62.3527 5.64204   5
  -3 -11  -5 53.3455 6.18471   3
   3  11   5 50.9060 5.87422   7
   3  11   5 47.2517 6.22640   6
  -4 -11  -5 1.68605 5.06310   3
  -4 -11  -5 1.04646 4.91204   5
   4  11   5 -1.2904 4.26246   7
  -5 -11  -5 163.495 12.8403   3
  -5 -11  -5 158.034 9.62854   5
   5  11   5 155.130 12.8806   7
  -6 -11  -5 48.5060 6.26030   5
  -6 -11  -5 61.7814 8.48405   3
   6  11   5 48.9600 7.24060   7
  -7 -11  -5 5.88892 5.36713   5
  -7 -11  -5 12.9934 7.07484   3
   7  11   5 11.3598 6.21246   7
  -8 -11  -5 11.8315 7.92880   3
   8  11   5 16.1017 6.83971   7
   3 -12  -5 1.92657 5.83640   5
  -3  12   5 10.4940 6.45650   6
  -3  12   5 3.29343 6.36999   1
  -3  12   5 9.06330 5.92194   7
   2 -12  -5 25.8682 7.21856   5
  -2  12   5 16.8447 6.17026   6
  -2  12   5 10.3056 5.49472   7
  -2  12   5 19.2106 6.44193   1
   1 -12  -5 39.9488 7.26068   5
   1 -12  -5 33.8914 7.59722   3
  -1  12   5 31.0861 6.00653   1
  -1  12   5 13.3999 5.40335   7
  -1  12   5 25.9961 6.14641   6
   0 -12  -5 1.78149 3.39600   3
   0 -12  -5 7.97749 4.52437   5
   0  12   5 -0.2164 5.29770   6
   0  12   5 -4.6261 5.18159   7
   0  12   5 8.72623 7.62464   1
  -1 -12  -5 20.9341 5.54139   3
  -1 -12  -5 18.0145 4.74273   5
   1  12   5 23.2150 40.7243   6
   1  12   5 18.8469 40.0881   7
   1  12   5 17.0440 5.77975   1
  -2 -12  -5 14.3931 4.51124   5
  -2 -12  -5 16.2760 4.21064   3
   2  12   5 16.4360 8.11026   6
   2  12   5 15.5983 7.51108   7
  -3 -12  -5 0.47850 5.77286   5
  -3 -12  -5 2.71233 3.85633   3
   3  12   5 6.54919 5.90263   6
   3  12   5 6.51412 5.58496   7
  -4 -12  -5 35.7951 6.89679   5
  -4 -12  -5 55.2414 7.30251   3
   4  12   5 42.6549 7.80762   7
  -5 -12  -5 44.0412 11.8856   5
  -5 -12  -5 44.2154 5.99320   3
   5  12   5 38.6096 33.1207   7
  -6 -12  -5 -6.3005 6.82712   3
  -6 -12  -5 -0.2537 5.94237   5
   6  12   5 8.15859 6.10840   7
  -7 -12  -5 28.0017 6.56837   3
  -7 -12  -5 14.9796 6.59925   5
   7  12   5 32.1781 9.97901   7
   0 -13  -5 16.6603 6.09329   3
   0 -13  -5 20.3945 39.7904   5
   0  13   5 2.29513 8.84841   7
   0  13   5 4.90991 8.89760   6
   0  13   5 12.3216 6.32911   1
  -1 -13  -5 5.75538 5.03728   5
  -1 -13  -5 5.14207 6.48490   3
   1  13   5 6.69287 18.2808   7
   1  13   5 12.3344 9.19705   6
  -2 -13  -5 2.23056 6.39660   3
  -2 -13  -5 -0.2202 6.70100   5
   2  13   5 9.97007 8.69357   7
   2  13   5 12.0760 9.34768   6
  -3 -13  -5 33.1181 7.57026   3
   3  13   5 25.9436 7.18073   7
   3  13   5 39.9602 10.0645   6
  -4 -13  -5 2.16803 7.20574   3
  -4 -13  -5 3.26192 5.20315   5
   4  13   5 7.78473 6.40955   7
  -5 -13  -5 5.38243 7.25353   5
  -5 -13  -5 10.1979 7.94450   3
   5  13   5 6.67364 6.94316   7
   4   8  -6 28.2244 6.33848   7
   4   8  -6 22.2984 6.10539   6
  -4  -8   6 96.3395 69.6008   3
  -4  -8   6 12.7556 8.21590   2
   3   8  -6 9.19824 5.91485   6
   3   8  -6 -1.7945 5.54327   7
  -3  -8   6 -3.8776 8.01894   2
   2   8  -6 15.9222 6.39613   6
   2   8  -6 21.9967 8.61878   7
  -2  -8   6 -0.1787 7.64323   2
   1   8  -6 19.3863 11.3176   6
   1   8  -6 21.0731 8.39268   7
  -1  -8   6 10.2966 7.66575   2
   0   8  -6 0.71895 8.33673   7
   0   8  -6 3.37444 9.01164   6
   0  -8   6 -4.4664 7.72260   2
  -7  -7   6 -3.1991 5.97765   3
   6   7  -6 36.2108 7.74570   6
   6   7  -6 31.1195 7.71288   7
  -6  -7   6 23.5332 6.55037   3
  -6  -7   6 28.1218 7.86807   2
   5   7  -6 1.13777 4.48015   6
   5   7  -6 -4.5351 4.74229   7
  -5  -7   6 -2.6582 6.49865   2
  -5  -7   6 1.87050 7.57005   3
   4   7  -6 62.7070 8.56593   7
   4   7  -6 73.7277 9.03064   6
  -4  -7   6 59.4180 8.12249   2
   3   7  -6 11.2231 6.24061   7
   3   7  -6 9.05241 6.61777   6
  -3  -7   6 15.2657 6.59150   2
   2   7  -6 1.04166 6.18793   7
   2   7  -6 8.51585 5.02685   6
  -2  -7   6 2.27363 4.58362   2
   1   7  -6 31.9688 6.75942   7
   1   7  -6 36.4766 7.68157   6
   0   7  -6 24.7087 5.44939   6
   0   7  -6 20.4956 5.22022   7
   0  -7   6 22.0701 7.13162   2
  -1   7  -6 25.1713 5.87827   7
  -1   7  -6 21.7411 7.70451   6
   1  -7   6 15.3508 5.55485   2
  -2   7  -6 26.1748 6.13418   6
  -2   7  -6 21.9677 6.09280   7
   2  -7   6 6.19361 5.49705   2
  -3   7  -6 23.9638 7.69742   6
  -3   7  -6 32.1758 8.70455   7
   3  -7   6 18.7678 15.0642   2
   8   6  -6 -0.0604 4.53055   7
  -8  -6   6 2.51013 7.45856   2
  -8  -6   6 6.23648 5.86999   3
   7   6  -6 35.3090 5.12785   7
  -7  -6   6 28.3743 5.59912   2
  -7  -6   6 30.6492 6.62654   3
   6   6  -6 10.6733 5.96038   7
   6   6  -6 3.24564 4.48052   6
  -6  -6   6 0.46338 4.72272   3
  -6  -6   6 17.0058 6.67999   2
   5   6  -6 3.63370 5.43794   6
   5   6  -6 6.95681 5.37849   7
  -5  -6   6 12.3707 6.18003   2
   4   6  -6 271.678 20.6200   6
   4   6  -6 275.141 22.3503   7
  -4  -6   6 266.745 19.7365   2
   3   6  -6 -0.9276 3.78796   6
   3   6  -6 3.95171 3.51065   7
  -3  -6   6 2.06121 3.90810   2
   2   6  -6 52.7101 6.34048   7
   2   6  -6 58.6559 6.73443   6
  -2  -6   6 39.9987 6.55349   2
   1   6  -6 68.1537 6.64845   7
   1   6  -6 65.4375 5.87405   6
  -1  -6   6 65.2517 6.07470   2
   0   6  -6 17.2404 5.71598   6
   0   6  -6 9.32649 5.60502   7
   0  -6   6 -2.5735 5.71884   2
  -1   6  -6 92.8532 6.62307   6
  -1   6  -6 85.9345 6.49539   7
   1  -6   6 88.0354 6.73970   2
  -2   6  -6 80.7898 6.74324   6
  -2   6  -6 71.3189 6.28643   7
   2  -6   6 79.8822 8.24795   2
  -3   6  -6 39.4120 6.04267   6
   3  -6   6 33.6392 5.92272   2
  -4   6  -6 33.5743 8.07379   6
   4  -6   6 36.2936 7.69907   2
   5  -6   6 25.8730 6.15186   2
  -9  -5   6 3.98845 5.46489   3
  -9  -5   6 2.76541 7.71023   2
   8   5  -6 15.1243 5.76543   7
  -8  -5   6 5.81723 5.16058   3
  -8  -5   6 8.36371 7.05963   2
   7   5  -6 18.7815 5.53440   7
  -7  -5   6 11.6512 4.81381   3
  -7  -5   6 7.75656 31.2837   2
   6   5  -6 44.7517 5.90923   7
  -6  -5   6 36.9486 6.69235   2
   5   5  -6 109.666 8.10983   7
   5   5  -6 107.365 10.8905   6
  -5  -5   6 102.131 8.36584   2
   4   5  -6 88.3567 12.1678   7
   4   5  -6 69.4914 11.8855   6
  -4  -5   6 77.6664 7.20804   2
   3   5  -6 15.9668 4.76769   6
   3   5  -6 24.4041 3.69266   7
  -3  -5   6 16.0670 3.14038   4
  -3  -5   6 28.5096 4.57631   2
   2   5  -6 135.984 9.38594   7
   2   5  -6 130.958 10.1168   6
  -2  -5   6 132.020 9.88040   2
   1   5  -6 22.3983 3.73559   7
   1   5  -6 28.4473 4.06520   6
  -1  -5   6 11.2582 5.12069   2
   0   5  -6 257.502 15.4819   7
   0   5  -6 244.478 18.3350   6
   0  -5   6 241.730 14.4816   2
  -1   5  -6 114.266 7.33619   6
  -1   5  -6 116.468 7.74086   7
   1  -5   6 112.375 6.72658   2
  -2   5  -6 42.6204 6.14179   6
   2  -5   6 43.7343 5.32687   2
  -3   5  -6 214.887 12.1433   6
   3  -5   6 220.692 15.1065   2
  -4   5  -6 117.607 8.96984   6
   4  -5   6 105.538 8.43325   2
  -5   5  -6 21.5436 5.75404   6
   5  -5   6 25.1790 5.54147   2
  -6   5  -6 49.7317 6.91773   6
   6  -5   6 40.9883 8.34256   2
   9   4  -6 23.8556 4.48333   9
  -9  -4   6 14.0432 5.71865   2
  -9  -4   6 13.8707 6.99297   3
   8   4  -6 0.10251 4.75981   9
   8   4  -6 1.32443 3.23291   7
  -8  -4   6 4.61000 6.20500   3
  -8  -4   6 6.67031 32.6246   2
   7   4  -6 75.9019 5.75735   9
   7   4  -6 54.3358 7.35869   7
  -7  -4   6 78.2855 8.14772   2
  -7  -4   6 64.6239 6.09230   3
   6   4  -6 80.8528 8.76979   7
   6   4  -6 80.6732 5.33119   9
  -6  -4   6 81.2896 7.41520   2
   5   4  -6 54.2952 4.84515   6
   5   4  -6 59.9413 4.82562   7
   5   4  -6 36.8643 4.70854   9
  -5  -4   6 34.2521 5.60505   2
   4   4  -6 146.652 6.67349   9
   4   4  -6 147.925 10.2417   6
   4   4  -6 160.897 10.2545   7
  -4  -4   6 159.018 9.38763   2
   3   4  -6 82.8668 6.12580   7
   3   4  -6 97.6154 6.64021   6
  -3  -4   6 83.7490 7.26419   2
   2   4  -6 74.7265 4.70101   6
   2   4  -6 82.3829 4.99095   7
  -2  -4   6 66.6989 5.07468   2
  -2  -4   6 74.8572 6.26994   4
   1   4  -6 205.479 11.4759   6
   1   4  -6 217.502 12.7709   7
  -1  -4   6 204.926 10.4452   4
  -1  -4   6 213.881 14.6335   2
   0   4  -6 254.580 14.4482   6
   0   4  -6 267.755 12.8465   7
   0  -4   6 236.077 16.9063   4
   0  -4   6 268.694 15.9614   2
  -1   4  -6 163.755 8.88559   6
   1  -4   6 164.385 9.42651   4
   1  -4   6 141.651 7.50008   2
  -2   4  -6 307.755 14.3930   6
   2  -4   6 285.875 18.3976   8
   2  -4   6 308.463 16.1885   2
   2  -4   6 280.431 19.1437  10
   2  -4   6 294.010 12.0928   4
  -3   4  -6 124.700 7.33020   6
   3  -4   6 115.504 7.70702   2
   3  -4   6 97.6513 5.65618  10
   3  -4   6 100.828 6.49369   4
   3  -4   6 106.191 5.48802   8
  -4   4  -6 168.205 10.0829   6
   4  -4   6 166.609 10.0635   8
   4  -4   6 156.990 7.38674   4
   4  -4   6 173.782 9.36709  10
   4  -4   6 189.011 10.1883   2
  -5   4  -6 101.296 8.43324   6
   5  -4   6 77.8041 5.89987   8
   5  -4   6 76.6992 5.91300   4
   5  -4   6 79.6216 7.76589   2
   5  -4   6 74.5117 6.14122  10
  -6   4  -6 36.8435 7.64238   6
   6  -4   6 30.4413 5.64255   4
   6  -4   6 32.3478 4.36708   8
   6  -4   6 26.3975 5.32497   2
   6  -4   6 39.6924 4.92203  10
  -7   4  -6 51.6288 7.24693   6
   7  -4   6 37.1189 6.89743  10
   7  -4   6 41.9436 5.41625   4
   7  -4   6 60.1711 8.32192   2
   7  -4   6 44.1221 6.51106   8
  10   3  -6 15.6519 4.18670   9
 -10  -3   6 10.0645 8.84858   2
   9   3  -6 -8.3386 4.85306   9
  -9  -3   6 -1.8172 5.84257   3
  -9  -3   6 5.72865 5.48409   2
   8   3  -6 37.2644 5.23465   9
  -8  -3   6 30.0547 3.72770   1
  -8  -3   6 25.6356 4.75178   3
  -8  -3   6 33.6719 5.64601   2
   7   3  -6 149.817 8.51426   9
   7   3  -6 158.081 13.4152   7
  -7  -3   6 159.820 12.9236   2
  -7  -3   6 143.356 8.16614   1
  -7  -3   6 150.851 10.5228   3
   6   3  -6 16.8483 2.66362   7
   6   3  -6 15.7291 3.19337   9
  -6  -3   6 7.35574 2.72957   1
  -6  -3   6 14.7653 3.89240   2
   5   3  -6 164.726 7.43391   9
   5   3  -6 143.887 10.6056   6
   5   3  -6 180.193 13.8584   7
  -5  -3   6 161.513 10.5915   2
  -5  -3   6 141.746 10.7427   1
   4   3  -6 161.891 10.4704   9
   4   3  -6 140.016 9.60626   7
   4   3  -6 131.132 9.97463   6
  -4  -3   6 139.009 11.8047   1
  -4  -3   6 149.704 7.44930   2
   3   3  -6 137.273 7.79496   6
   3   3  -6 117.935 6.37237   9
   3   3  -6 140.229 8.47227   7
  -3  -3   6 136.928 7.96814   2
   2   3  -6 162.038 10.7278   6
   2   3  -6 168.291 8.52386   9
   2   3  -6 182.287 10.0200   7
  -2  -3   6 176.920 12.7553   2
  -2  -3   6 174.162 10.7956   4
   1   3  -6 569.464 16.5778   9
   1   3  -6 559.231 19.7006   7
   1   3  -6 543.043 30.1028   6
  -1  -3   6 598.346 38.5918   2
  -1  -3   6 552.147 27.8690   4
   0   3  -6 77.8109 5.20743   7
   0   3  -6 80.7989 4.36387   6
   0  -3   6 72.7225 3.93329   4
   0  -3   6 87.9796 5.77509   2
  -1   3  -6 482.054 16.4181   6
   1  -3   6 530.035 20.3624   2
   1  -3   6 504.133 23.0132   4
  -2   3  -6 434.082 17.4522   6
  -2   3  -6 430.629 25.4788   1
   2  -3   6 443.680 22.3497   4
   2  -3   6 471.271 23.6712   2
  -3   3  -6 264.140 17.4433   1
  -3   3  -6 264.486 11.7588   6
   3  -3   6 261.859 16.3478   2
   3  -3   6 286.825 11.5153  10
   3  -3   6 264.191 11.1057   8
   3  -3   6 270.809 13.0820   4
  -4   3  -6 482.514 25.4963   1
  -4   3  -6 498.036 21.1654   6
   4  -3   6 495.270 49.2668  10
   4  -3   6 490.351 49.3750   4
   4  -3   6 494.436 49.8166   8
   4  -3   6 503.509 20.7086   2
  -5   3  -6 18.1632 3.02003   1
  -5   3  -6 11.7768 3.89404   6
   5  -3   6 10.4517 3.33744  10
   5  -3   6 5.37190 4.18133   4
   5  -3   6 15.0090 3.30438   8
   5  -3   6 16.0524 14.8579   2
  -6   3  -6 124.578 8.25074   1
  -6   3  -6 111.396 7.03861   6
   6  -3   6 106.782 7.39833  10
   6  -3   6 91.5185 7.66435   8
   6  -3   6 106.096 6.95499   4
   6  -3   6 119.813 7.13040   2
  -7   3  -6 172.650 10.0768   6
   7  -3   6 166.360 12.1493   2
   7  -3   6 160.714 11.9495   4
   7  -3   6 170.760 13.5284   8
   7  -3   6 170.589 13.1323  10
  -8   3  -6 39.1070 6.66569   6
   8  -3   6 36.6796 7.41797  10
   8  -3   6 45.6852 7.67950   2
   8  -3   6 57.8516 7.43945   8
   8  -3   6 45.2761 7.41045   4
  10   2  -6 -5.8833 5.32248   9
 -10  -2   6 3.67514 5.85300   1
 -10  -2   6 1.47495 8.12851   2
   9   2  -6 70.2593 6.06156   9
  -9  -2   6 67.1958 6.56342   1
  -9  -2   6 77.1970 9.82946   2
  -8  -2   6 24.0172 4.56812   1
  -8  -2   6 23.4923 4.09736   3
  -8  -2   6 32.8209 5.44991   2
   7   2  -6 39.3260 4.23101   9
  -7  -2   6 39.4968 5.02290   2
  -7  -2   6 34.3091 4.10322   1
   6   2  -6 141.463 12.0493   7
   6   2  -6 139.919 5.40671   9
  -6  -2   6 150.883 7.14493   1
  -6  -2   6 163.903 10.6698   2
   5   2  -6 137.281 5.18062   9
   5   2  -6 130.131 11.4636   7
  -5  -2   6 132.104 7.71176   2
  -5  -2   6 138.343 7.22118   1
  -5  -2   6 113.997 11.4148   6
   4   2  -6 84.7302 6.14139   7
   4   2  -6 82.8359 7.20578   6
   4   2  -6 82.3650 4.05636   9
  -4  -2   6 78.5831 5.09439   1
  -4  -2   6 63.3535 7.22548   6
  -4  -2   6 74.7383 6.33160   2
   3   2  -6 639.851 48.1923   7
   3   2  -6 642.125 24.7312   9
   3   2  -6 632.655 56.8711   6
  -3  -2   6 676.837 62.3848   6
  -3  -2   6 644.452 33.9704   2
  -3  -2   6 655.554 48.7350   1
   2   2  -6 354.775 13.4441   9
   2   2  -6 335.494 19.3697   7
   2   2  -6 347.475 23.6326   6
  -2  -2   6 354.707 13.2988   2
  -2  -2   6 349.792 22.3273   6
   1   2  -6 257.647 13.0844   6
   1   2  -6 266.823 9.19555   9
   1   2  -6 272.039 17.7871   7
  -1  -2   6 264.711 10.8200   4
  -1  -2   6 267.219 14.4689   6
  -1  -2   6 261.641 11.2673   2
   0   2  -6 767.060 21.0059   6
   0   2  -6 801.589 16.3065   9
   0  -2   6 767.717 42.0721   4
   0  -2   6 755.564 34.0000   2
  -1   2  -6 703.092 24.8831   6
   1  -2   6 722.930 25.2713   2
   1  -2   6 708.618 28.6660   4
  -2   2  -6 233.284 7.25147   6
  -2   2  -6 214.477 6.85953   1
   2  -2   6 230.035 14.2361   2
   2  -2   6 209.355 9.72954   4
  -3   2  -6 463.949 12.9786   6
  -3   2  -6 452.464 21.6475   1
   3  -2   6 438.608 20.6839  10
   3  -2   6 455.068 12.2138   4
   3  -2   6 470.100 18.6648   2
   3  -2   6 460.874 19.9417   8
  -4   2  -6 512.537 24.2488   1
  -4   2  -6 525.227 18.7163   6
   4  -2   6 523.856 22.1632   8
   4  -2   6 532.871 22.0916  10
   4  -2   6 542.265 22.0164   4
   4  -2   6 536.634 21.2733   2
  -5   2  -6 5.07812 3.08744   6
  -5   2  -6 2.36327 2.45194   1
   5  -2   6 0.77349 3.88783  10
   5  -2   6 -1.3269 3.66524   4
   5  -2   6 0.02955 3.67389   8
   5  -2   6 4.94979 4.22174   2
  -6   2  -6 628.851 32.9443   6
  -6   2  -6 574.902 37.1310   1
   6  -2   6 579.108 23.3884   4
   6  -2   6 590.707 29.1473   2
   6  -2   6 579.997 42.8735  10
   6  -2   6 566.376 41.3871   8
  -7   2  -6 101.983 8.42426   6
  -7   2  -6 115.463 8.41674   1
   7  -2   6 116.092 7.57918   4
   7  -2   6 106.662 8.37769  10
   7  -2   6 106.836 8.73049   8
   7  -2   6 125.999 7.99816   2
  -8   2  -6 116.046 7.25550   1
  -8   2  -6 115.914 9.34476   6
   8  -2   6 87.2491 8.63326   8
   8  -2   6 94.8244 8.16512   4
   8  -2   6 108.636 9.10566  10
   8  -2   6 104.641 8.53289   2
  10   1  -6 35.9083 5.54574   9
 -10  -1   6 25.1125 6.72327   1
 -10  -1   6 22.3024 6.57656   2
   9   1  -6 17.3216 8.87066   9
  -9  -1   6 15.8516 4.14021   1
  -9  -1   6 16.0789 7.35869   2
   8   1  -6 3.86488 3.84047   9
  -8  -1   6 5.16805 4.34172   2
  -8  -1   6 4.15013 4.07026   3
  -8  -1   6 6.20443 3.17437   1
   7   1  -6 189.919 7.78930   9
  -7  -1   6 188.154 10.0715   1
  -7  -1   6 199.585 16.4742   2
   6   1  -6 83.5571 4.88008   9
  -6  -1   6 84.9757 7.12408   2
  -6  -1   6 95.8260 4.78072   1
   5   1  -6 85.8685 6.97128   7
   5   1  -6 91.6371 4.18227   9
  -5  -1   6 89.1936 5.60614   2
  -5  -1   6 69.0747 7.45261   7
  -5  -1   6 89.1667 4.49323   1
  -5  -1   6 77.6005 8.20585   6
   4   1  -6 689.613 25.6643   9
   4   1  -6 720.073 29.7170   7
  -4  -1   6 769.211 32.1945   1
  -4  -1   6 754.692 57.1815   6
  -4  -1   6 709.657 40.3890   2
   3   1  -6 257.792 14.8211   6
   3   1  -6 245.380 9.61707   9
   3   1  -6 244.795 13.9085   7
  -3  -1   6 249.796 19.6942   6
  -3  -1   6 250.256 65.9012   2
  -3  -1   6 262.900 12.0856   1
   2   1  -6 254.843 12.1534   7
   2   1  -6 268.562 9.44519   9
   2   1  -6 257.198 12.8043   6
  -2  -1   6 286.941 12.6991   2
  -2  -1   6 263.831 17.6761   1
  -2  -1   6 284.456 17.8823   6
   1   1  -6 546.446 13.3385   7
   1   1  -6 546.300 14.6905   6
   1   1  -6 550.717 16.5018   9
  -1  -1   6 556.491 19.5355   2
  -1  -1   6 552.281 18.7743   4
  -1  -1   6 580.323 35.9411   6
   0   1  -6 444.669 18.4665   9
   0   1  -6 471.368 10.0771   6
   0  -1   6 470.569 15.7474   4
   0  -1   6 442.581 15.1628   2
  -1   1  -6 912.386 25.8769   9
  -1   1  -6 888.549 25.1375   6
   1  -1   6 903.531 30.5963   2
   1  -1   6 932.657 22.7858   4
  -2   1  -6 788.630 19.1682   9
  -2   1  -6 765.838 16.1059   1
  -2   1  -6 793.876 14.0078   6
   2  -1   6 790.683 35.3085   4
   2  -1   6 787.986 59.5595   9
   2  -1   6 803.376 44.8049   5
   2  -1   6 807.211 30.2981   2
  -3   1  -6 314.183 6.64793   1
  -3   1  -6 297.143 8.51314   6
   3  -1   6 328.079 13.0883   2
   3  -1   6 317.110 21.0265   5
   3  -1   6 305.596 16.7389   9
   3  -1   6 317.106 10.1141   4
  -4   1  -6 260.548 8.79275   1
  -4   1  -6 272.988 8.52125   6
   4  -1   6 269.604 16.0888   5
   4  -1   6 281.631 11.3754  10
   4  -1   6 273.871 13.6106   9
   4  -1   6 273.514 10.6836   8
   4  -1   6 275.843 13.8914   2
   4  -1   6 276.813 8.80545   4
  -5   1  -6 280.336 10.4703   6
  -5   1  -6 273.694 9.96668   1
   5  -1   6 258.614 19.9044   9
   5  -1   6 252.966 12.1459   4
   5  -1   6 283.548 10.9421  10
   5  -1   6 265.345 10.4332   8
   5  -1   6 270.790 11.1101   2
   5  -1   6 266.707 14.5494   5
  -6   1  -6 325.433 16.4208   6
  -6   1  -6 295.843 15.1868   1
   6  -1   6 317.014 15.3683   2
   6  -1   6 298.261 11.5483   8
   6  -1   6 293.773 13.9202  10
   6  -1   6 320.094 14.8966   4
  -7   1  -6 213.689 11.3160   6
  -7   1  -6 211.939 12.8564   1
   7  -1   6 198.796 10.2837   4
   7  -1   6 196.775 13.9583   8
   7  -1   6 190.188 12.6155  10
   7  -1   6 220.690 8.98200   2
  -8   1  -6 308.795 22.2302   6
  -8   1  -6 325.151 14.5277   1
   8  -1   6 311.520 20.3603  10
   8  -1   6 319.294 17.5602   2
   8  -1   6 312.397 18.5526   4
   8  -1   6 317.990 19.0820   8
  -9   1  -6 37.7240 5.93521   6
  -9   1  -6 49.8894 6.54814   1
   9  -1   6 40.9949 7.48635  10
   9  -1   6 46.1276 7.46154   4
   9  -1   6 54.7248 7.16686   2
   9  -1   6 54.8587 7.51212   8
  10   0  -6 2.22583 3.36581   9
 -10   0   6 -0.2458 7.85963   2
 -10   0   6 0.47593 4.26497   1
   9   0  -6 11.1090 4.02980   5
   9   0  -6 6.11540 10.4262   9
  -9   0   6 5.04635 5.14915   1
  -9   0   6 7.02372 6.70136   2
   8   0  -6 112.943 6.18809   9
   8   0  -6 108.196 6.28161   5
  -8   0   6 93.5352 6.51116   1
  -8   0   6 97.3525 6.82516   2
   7   0  -6 37.2488 4.18787   9
   7   0  -6 43.6907 4.20962   5
  -7   0   6 34.3596 4.77931   2
  -7   0   6 36.6106 3.71074   1
   6   0  -6 90.4938 6.02432   9
   6   0  -6 98.2337 7.30718   5
  -6   0   6 97.9118 5.95618   2
  -6   0   6 86.6212 5.89874   1
   5   0  -6 385.273 9.91251   9
   5   0  -6 377.245 19.1067   1
   5   0  -6 379.515 12.0939   5
  -5   0   6 382.187 35.2582   6
  -5   0   6 388.047 24.1219   2
  -5   0   6 384.174 14.7322   1
  -5   0   6 369.855 35.6075   7
   4   0  -6 122.502 7.10820   1
   4   0  -6 136.096 4.58013   9
   4   0  -6 133.941 5.49522   5
   4   0  -6 126.881 7.60225   7
  -4   0   6 122.747 46.6323   2
  -4   0   6 126.925 7.22443   1
  -4   0   6 127.133 11.7138   6
   3   0  -6 538.149 9.09649   9
   3   0  -6 547.778 14.4751   5
   3   0  -6 535.724 21.7354   7
   3   0  -6 526.132 25.9270   6
   3   0  -6 537.119 27.8501   1
  -3   0   6 535.917 48.1446   6
  -3   0   6 556.205 24.6258   1
  -3   0   6 527.553 23.5865   2
   2   0  -6 686.669 22.7173   5
   2   0  -6 680.733 28.4380   1
   2   0  -6 735.260 10.5984   9
   2   0  -6 695.894 28.9510   6
   2   0  -6 688.832 26.9334   7
  -2   0   6 739.638 22.8906   2
  -2   0   6 692.389 39.9955   1
  -2   0   6 729.047 46.6101   6
   1   0  -6 424.258 10.6563   7
   1   0  -6 438.741 7.18429   9
   1   0  -6 423.037 8.94360   6
   1   0  -6 410.177 26.3243   1
   1   0  -6 419.551 9.11092   5
  -1   0   6 427.798 14.9277   2
   0   0  -6 767.232 16.0612   5
   0   0  -6 760.769 23.4885   6
   0   0  -6 758.872 41.9057   1
   0   0  -6 788.819 30.6864   9
   0   0   6 810.912 32.5687   2
   0   0   6 814.837 21.6350   4
   0   0   6 798.621 50.3060   5
   0   0   6 812.899 23.5911   9
  -1   0  -6 1062.30 31.8476   6
  -1   0  -6 1062.01 40.3898   1
  -1   0  -6 1103.95 25.3681   9
  -1   0  -6 1068.36 51.4126   1
   1   0   6 1144.17 20.3866   9
   1   0   6 1136.36 33.3748   2
   1   0   6 1097.81 54.5120   5
   1   0   6 1105.61 30.0800   4
  -2   0  -6 108.315 2.62115   1
  -2   0  -6 103.799 4.79847   3
  -2   0  -6 107.573 3.53152   9
  -2   0  -6 106.486 4.18367   6
   2   0   6 103.953 5.35310   2
   2   0   6 111.225 6.99478   5
   2   0   6 112.755 4.83130   9
   2   0   6 100.598 5.23495   4
  -3   0  -6 758.846 17.1879   1
  -3   0  -6 729.400 23.2847   3
  -3   0  -6 750.592 10.5675   6
  -3   0  -6 722.599 21.3835   9
   3   0   6 751.206 28.4326   4
   3   0   6 760.732 31.6734   2
   3   0   6 763.005 29.1772   9
   3   0   6 776.103 47.7466   5
  -4   0  -6 707.364 12.9564   6
  -4   0  -6 694.204 13.9053   1
  -4   0  -6 656.474 15.1507   3
   4   0   6 718.667 38.6671   5
   4   0   6 734.494 29.0731   8
   4   0   6 716.579 33.1875  10
   4   0   6 710.685 18.5921   4
   4   0   6 719.868 17.3011   2
   4   0   6 709.159 29.2843   9
  -5   0  -6 264.248 10.2768   1
  -5   0  -6 245.741 8.00924   3
  -5   0  -6 260.740 8.55233   6
   5   0   6 256.710 12.1236   9
   5   0   6 247.512 7.17623   8
   5   0   6 247.419 9.32781  10
   5   0   6 241.735 9.13318   4
   5   0   6 264.086 9.61282   2
   5   0   6 260.789 15.2004   5
  -6   0  -6 585.364 22.6144   3
  -6   0  -6 585.093 24.5410   1
  -6   0  -6 623.101 21.8980   6
   6   0   6 623.363 22.4363  10
   6   0   6 576.034 21.6401   8
   6   0   6 598.649 18.4094   2
   6   0   6 575.367 19.4983   4
  -7   0  -6 429.465 25.5805   1
  -7   0  -6 444.402 23.9827   6
  -7   0  -6 505.373 38.2376   3
   7   0   6 436.702 19.9054   2
   7   0   6 449.551 18.4642   4
   7   0   6 447.647 22.0078  10
   7   0   6 437.940 17.1234   8
  -8   0  -6 69.3044 5.28345   3
  -8   0  -6 76.3670 7.18755   6
  -8   0  -6 85.1714 6.74602   1
   8   0   6 80.6793 6.17615  10
   8   0   6 84.1607 5.59222   2
   8   0   6 68.5393 6.76109   4
   8   0   6 90.4722 6.13971   8
  -9   0  -6 162.966 10.4856   6
  -9   0  -6 162.747 12.6450   1
   9   0   6 154.746 39.7794  10
   9   0   6 169.559 10.3897   2
   9   0   6 151.084 36.7270   4
   9   0   6 153.531 37.9720   8
  10  -1  -6 5.41043 3.52355   9
  10  -1  -6 9.09477 5.72277   5
 -10   1   6 6.42203 5.81920   2
 -10   1   6 12.4868 6.55447   1
   9  -1  -6 59.4806 5.16541   5
   9  -1  -6 63.8814 5.40319   9
  -9   1   6 72.9933 7.09680   2
  -9   1   6 59.6238 6.81878   1
   8  -1  -6 21.3909 3.75924   5
   8  -1  -6 14.3003 3.02931   9
  -8   1   6 18.6405 4.96158   1
  -8   1   6 14.2948 6.07612   2
   7  -1  -6 8.42871 3.85897   5
   7  -1  -6 7.00015 3.35470   9
  -7   1   6 11.2441 3.96152   1
  -7   1   6 9.62616 3.90884   2
   6  -1  -6 490.276 19.6392   5
   6  -1  -6 492.539 8.58961   9
  -6   1   6 480.032 24.1196   2
  -6   1   6 478.798 30.7459   1
  -6   1   6 453.110 29.9201   3
   5  -1  -6 110.487 5.23373   5
   5  -1  -6 105.543 4.24000   9
  -5   1   6 102.182 7.73092   7
  -5   1   6 115.730 5.19911   1
  -5   1   6 104.170 9.81341   6
  -5   1   6 95.8583 6.52452   2
  -5   1   6 99.2108 5.98247   3
   4  -1  -6 359.653 12.7456   5
   4  -1  -6 379.560 10.5198   9
   4  -1  -6 363.994 20.8450   1
  -4   1   6 401.840 15.9861   1
  -4   1   6 402.190 17.7639   3
  -4   1   6 380.354 34.3385   6
  -4   1   6 369.303 18.4082   2
   3  -1  -6 1010.02 35.0216   1
   3  -1  -6 992.535 37.5343   9
   3  -1  -6 1009.49 25.2636   5
  -3   1   6 1020.53 33.8302   2
  -3   1   6 1026.67 64.0204   6
  -3   1   6 1059.22 37.8616   1
  -3   1   6 1055.81 46.8276   3
   2  -1  -6 13.3452 1.93326   9
   2  -1  -6 15.1140 1.53902   1
   2  -1  -6 12.7725 2.74327   5
   2  -1  -6 13.7041 0.92830   6
   2  -1  -6 14.9533 0.92020   7
  -2   1   6 12.5297 2.39468   3
  -2   1   6 13.3306 3.21486   2
  -2   1   6 14.5660 1.76683   1
   1  -1  -6 347.920 21.8142   1
   1  -1  -6 382.544 10.1541   5
   1  -1  -6 375.238 13.2238   2
   1  -1  -6 371.147 16.0819   9
   1  -1  -6 352.056 7.80815   6
  -1   1   6 362.746 17.1556   9
  -1   1   6 362.679 13.1659   2
  -1   1   6 365.146 14.2664   1
  -1   1   6 377.505 13.8164   3
  -1   1   6 342.823 22.3119   5
   0  -1  -6 1214.77 39.5066   3
   0  -1  -6 1225.37 24.1246   5
   0  -1  -6 1208.33 23.0914   6
   0  -1  -6 1280.81 59.2064   2
   0  -1  -6 1253.36 28.0875   9
   0  -1  -6 1169.56 45.0621   1
   0   1   6 1238.77 48.5522   2
   0   1   6 1284.44 82.3064   3
   0   1   6 1305.73 30.6593   9
   0   1   6 1286.93 62.9267   5
   0   1   6 1279.05 27.1249   4
  -1  -1  -6 700.551 16.2909   6
  -1  -1  -6 700.032 29.3946   1
  -1  -1  -6 721.002 18.4784   9
  -1  -1  -6 712.936 29.8102   2
  -1  -1  -6 717.082 20.5899   3
  -1  -1  -6 716.977 16.4993   5
   1   1   6 724.764 24.6424   5
   1   1   6 749.077 11.7362   9
   1   1   6 706.962 17.8171   2
   1   1   6 719.121 19.2656   4
  -2  -1  -6 594.724 12.8203   6
  -2  -1  -6 583.793 12.0931   5
  -2  -1  -6 555.653 33.1705   2
  -2  -1  -6 589.996 23.1130   1
  -2  -1  -6 579.182 11.8496   9
  -2  -1  -6 585.422 13.9613   3
   2   1   6 596.283 17.6602   2
   2   1   6 597.261 11.9304   9
   2   1   6 581.963 42.2824   5
   2   1   6 592.151 13.5404   4
  -3  -1  -6 728.623 22.9989   9
  -3  -1  -6 721.051 16.7506   1
  -3  -1  -6 717.936 14.1100   6
  -3  -1  -6 704.575 15.6420   3
   3   1   6 770.161 36.9002   9
   3   1   6 734.945 23.5299   5
   3   1   6 727.182 16.7395   2
   3   1   6 753.540 23.6329   4
  -4  -1  -6 195.508 8.54868   3
  -4  -1  -6 195.151 6.59590   9
  -4  -1  -6 199.168 5.13146   1
   4   1   6 199.687 9.43440   9
   4   1   6 208.505 11.2752   2
   4   1   6 205.148 8.90820   5
   4   1   6 202.726 6.43247   4
  -5  -1  -6 583.704 16.5184   1
  -5  -1  -6 556.484 17.6373   3
   5   1   6 563.134 14.9291   2
   5   1   6 577.857 15.4587  10
   5   1   6 570.992 28.8264   5
   5   1   6 592.921 12.8866   8
   5   1   6 586.847 26.5129   4
  -6  -1  -6 405.768 14.8016   3
  -6  -1  -6 398.306 14.9332   1
   6   1   6 424.074 13.8183   4
   6   1   6 388.225 13.6409   8
   6   1   6 395.211 19.4275   5
   6   1   6 402.935 14.1219  10
   6   1   6 391.238 12.7404   2
  -7  -1  -6 253.844 12.7195   1
  -7  -1  -6 265.805 10.5108   3
   7   1   6 252.866 11.2896  10
   7   1   6 264.730 11.4350   8
   7   1   6 272.128 10.7545   4
   7   1   6 280.916 8.44036   2
  -8  -1  -6 203.661 13.2418   3
  -8  -1  -6 222.898 11.9146   1
   8   1   6 207.976 10.2490   8
   8   1   6 215.675 9.87729  10
   8   1   6 218.814 23.0399   2
   8   1   6 214.238 13.2628   4
  -9  -1  -6 113.912 8.24710   3
  -9  -1  -6 131.710 8.09117   1
   9   1   6 105.739 7.72629   4
   9   1   6 110.975 7.05977   8
   9   1   6 114.114 7.47284  10
   9   1   6 125.053 7.52461   2
 -10  -1  -6 33.5451 5.95828   6
 -10  -1  -6 38.5562 5.74291   1
  10   1   6 34.2114 7.53167   4
  10   1   6 24.5415 7.12283   8
  10   1   6 33.7698 7.71576  10
  10  -2  -6 70.3362 5.05938   9
  10  -2  -6 77.7960 6.01584   5
 -10   2   6 61.7664 6.57690   1
   9  -2  -6 2.86898 3.17098   5
   9  -2  -6 -2.9642 4.01041   9
  -9   2   6 -0.5880 3.94158   1
   8  -2  -6 2.07364 3.61876   9
   8  -2  -6 5.89021 4.13900   5
  -8   2   6 2.09960 3.29887   1
   7  -2  -6 155.984 6.04270   9
   7  -2  -6 158.253 6.33204   5
  -7   2   6 146.151 10.0032   1
   6  -2  -6 193.659 6.49481   5
   6  -2  -6 183.891 6.41988   9
  -6   2   6 187.006 11.4782   6
  -6   2   6 162.904 13.6218   1
   5  -2  -6 124.393 4.56755   9
   5  -2  -6 124.300 5.22775   5
  -5   2   6 112.531 5.31283   1
  -5   2   6 125.259 6.37664   2
  -5   2   6 110.186 9.00312   6
  -5   2   6 118.039 6.93865   6
  -5   2   6 117.611 7.14958   3
  -5   2   6 113.589 9.13750   7
   4  -2  -6 372.861 8.38782   9
   4  -2  -6 397.298 22.8151   1
   4  -2  -6 401.113 8.23648   5
  -4   2   6 389.611 22.7901   1
  -4   2   6 400.011 12.8014   2
  -4   2   6 382.632 23.0248   3
   3  -2  -6 60.8542 2.81773   1
   3  -2  -6 63.0717 4.13300   5
   3  -2  -6 58.0616 3.11439   9
  -3   2   6 64.2402 4.64702   2
  -3   2   6 56.6571 4.74574   1
  -3   2   6 52.2879 3.53128   3
   2  -2  -6 105.329 5.17736   5
   2  -2  -6 115.817 4.34205   1
   2  -2  -6 112.027 3.82352   3
   2  -2  -6 111.450 4.03490   9
  -2   2   6 108.512 3.97387   1
  -2   2   6 112.467 6.41055   3
  -2   2   6 108.817 4.89419   2
   1  -2  -6 1087.51 20.8374   3
   1  -2  -6 1025.62 19.4539   1
   1  -2  -6 1085.57 24.6741   5
   1  -2  -6 1064.98 33.3768   6
   1  -2  -6 1071.35 21.5932   9
  -1   2   6 1140.18 48.5974   5
  -1   2   6 1093.30 81.4088   9
  -1   2   6 1112.19 34.6766   2
  -1   2   6 1089.08 66.4080   3
  -1   2   6 1083.35 28.8230   1
   0  -2  -6 244.012 10.5804   6
   0  -2  -6 255.387 5.70611   3
   0  -2  -6 266.252 5.36305   9
   0  -2  -6 240.379 9.51044   5
   0  -2  -6 244.724 10.6816   1
   0  -2  -6 247.755 8.87631   2
   0   2   6 251.142 8.64854   4
   0   2   6 244.773 8.91976   3
   0   2   6 234.615 18.2010   5
   0   2   6 253.684 10.9999   2
   0   2   6 250.392 9.83585   9
   0   2   6 249.638 11.9302   1
  -1  -2  -6 967.575 18.4316   9
  -1  -2  -6 960.796 48.8329   1
  -1  -2  -6 997.650 18.2298   2
  -1  -2  -6 972.695 23.4409   5
  -1  -2  -6 967.345 15.5561   3
   1   2   6 985.432 22.0896   9
   1   2   6 1026.72 28.1844   5
   1   2   6 994.422 19.5773   4
   1   2   6 927.926 33.3996   2
   1   2   6 985.325 42.6606   3
  -2  -2  -6 287.081 9.31295   5
  -2  -2  -6 280.964 9.27593   2
  -2  -2  -6 304.113 9.20196   1
  -2  -2  -6 288.758 6.15455   9
  -2  -2  -6 279.846 8.41818   3
   2   2   6 300.678 9.63734   5
   2   2   6 301.587 7.45629   2
   2   2   6 297.242 8.12627   4
   2   2   6 281.892 7.95883   9
  -3  -2  -6 287.493 8.36359   3
  -3  -2  -6 289.826 8.52097   5
  -3  -2  -6 307.636 15.2704   2
  -3  -2  -6 300.929 8.03004   9
   3   2   6 298.386 6.80516   4
   3   2   6 323.426 8.11083   2
   3   2   6 302.511 8.15379   5
  -4  -2  -6 970.016 33.5751   9
  -4  -2  -6 967.126 60.4505   2
  -4  -2  -6 967.377 26.3824   3
   4   2   6 977.881 35.2578   4
   4   2   6 978.351 23.4496   2
   4   2   6 969.735 42.6109   5
  -5  -2  -6 651.327 15.8416   9
  -5  -2  -6 627.997 14.5471   3
  -5  -2  -6 671.190 19.7565   1
   5   2   6 609.534 21.1583   2
   5   2   6 653.428 21.8815   5
   5   2   6 626.732 29.7554   4
   5   2   6 647.182 19.3127   8
   5   2   6 655.996 18.8158  10
  -6  -2  -6 229.283 8.25536   3
  -6  -2  -6 237.472 8.63673   1
   6   2   6 223.568 7.56428   4
   6   2   6 218.228 6.51081   2
   6   2   6 216.588 8.94362   8
   6   2   6 208.430 8.26131  10
  -7  -2  -6 400.917 16.1961   3
  -7  -2  -6 379.973 15.8567   1
   7   2   6 383.649 15.2300   2
   7   2   6 376.179 12.3460   8
   7   2   6 382.972 14.4310  10
   7   2   6 370.854 11.7708   4
  -8  -2  -6 148.786 8.65525   3
  -8  -2  -6 143.972 9.20547   1
   8   2   6 160.014 8.77016   2
   8   2   6 162.794 8.23201   4
   8   2   6 149.990 7.39529   8
   8   2   6 143.743 7.57095  10
  -9  -2  -6 45.1343 5.43354   3
  -9  -2  -6 61.4714 6.75866   1
   9   2   6 54.3112 6.72134   8
   9   2   6 65.8306 6.88584   4
   9   2   6 63.0549 7.15089  10
 -10  -2  -6 77.8820 6.97388   1
  10   2   6 84.6781 6.89877   8
  10   2   6 80.2086 7.15254  10
  10   2   6 75.3428 8.59572   4
  10  -3  -6 10.6187 5.30086   5
  10  -3  -6 7.35827 4.82777   9
 -10   3   6 4.44834 7.28170   1
   9  -3  -6 -3.4820 4.57774   5
   9  -3  -6 -1.2105 4.00967   9
  -9   3   6 1.71519 5.97050   1
   8  -3  -6 147.938 7.22390   5
   8  -3  -6 150.423 8.19217   9
  -8   3   6 146.520 9.42226   1
   7  -3  -6 0.15827 2.30890   9
   7  -3  -6 6.66159 4.01526   5
  -7   3   6 0.73127 4.81997   1
   6  -3  -6 358.325 16.0008   5
   6  -3  -6 358.312 13.3382   9
  -6   3   6 371.862 20.9259   6
  -6   3   6 360.524 31.2021   1
   5  -3  -6 164.613 6.29167   5
   5  -3  -6 173.348 5.61285   9
  -5   3   6 159.526 9.55756   6
  -5   3   6 145.648 9.33695   3
  -5   3   6 158.541 13.9295   6
  -5   3   6 165.583 8.74818   7
  -5   3   6 181.657 7.34842   1
   4  -3  -6 9.91189 2.38340   5
   4  -3  -6 9.28832 2.21355   9
  -4   3   6 5.26613 1.80495   3
  -4   3   6 3.78849 2.84343   1
   3  -3  -6 354.784 6.91169   9
   3  -3  -6 363.133 20.1655   1
   3  -3  -6 356.476 7.58718   5
  -3   3   6 383.456 9.97962   2
  -3   3   6 362.131 13.8178   3
  -3   3   6 394.898 12.0333   1
   2  -3  -6 244.871 7.79377   1
   2  -3  -6 259.113 5.18285   3
   2  -3  -6 262.569 8.75049   5
   2  -3  -6 250.887 7.92478   9
  -2   3   6 263.695 6.84666   3
  -2   3   6 272.277 7.53641   2
  -2   3   6 262.497 20.5321   1
   1  -3  -6 407.498 18.9559   7
   1  -3  -6 399.527 7.58755   1
   1  -3  -6 389.576 9.04008   3
   1  -3  -6 384.551 16.7674   6
   1  -3  -6 412.565 14.8315   6
   1  -3  -6 421.184 13.9680   9
   1  -3  -6 418.786 12.1358   5
  -1   3   6 417.031 12.0134   3
  -1   3   6 418.413 15.8558   2
  -1   3   6 429.038 13.6784   1
  -1   3   6 427.466 14.8407   5
   0  -3  -6 681.486 18.6896   7
   0  -3  -6 695.842 16.1469   5
   0  -3  -6 693.834 18.6397   9
   0  -3  -6 670.997 15.5378   1
   0  -3  -6 662.445 29.4456   3
   0   3   6 691.310 27.4203   2
   0   3   6 677.441 22.1496   1
   0   3   6 696.848 23.6478   3
   0   3   6 685.820 25.8166   5
  -1  -3  -6 746.423 26.7189   9
  -1  -3  -6 733.871 22.3622   3
  -1  -3  -6 774.683 27.9618   7
  -1  -3  -6 750.186 16.4202   5
  -1  -3  -6 767.139 21.6542   1
  -1  -3  -6 748.739 19.7324   2
   1   3   6 747.664 34.1185   3
   1   3   6 765.957 20.5301   5
   1   3   6 723.436 26.6311   2
   1   3   6 756.943 19.6681   4
  -2  -3  -6 132.436 4.57939   3
  -2  -3  -6 125.171 6.02872   2
  -2  -3  -6 128.079 3.78044   9
  -2  -3  -6 138.839 4.54242   7
  -2  -3  -6 133.129 4.98556   1
  -2  -3  -6 129.891 3.81999   5
   2   3   6 125.127 4.50858   4
   2   3   6 121.879 4.24020   5
   2   3   6 126.136 5.16051   2
  -3  -3  -6 1115.32 44.1586   2
  -3  -3  -6 1067.65 23.4533   3
  -3  -3  -6 1168.29 48.7450   1
  -3  -3  -6 1094.79 40.4717   5
  -3  -3  -6 1082.20 23.3082   9
   3   3   6 1105.74 31.4366   4
   3   3   6 1086.38 67.5630   5
   3   3   6 1094.22 32.7569   2
  -4  -3  -6 543.637 11.2020   3
  -4  -3  -6 527.606 14.3023   5
  -4  -3  -6 528.537 20.8877   2
  -4  -3  -6 518.944 11.2165   9
   4   3   6 507.590 20.9684   2
   4   3   6 523.631 16.9171   5
   4   3   6 536.257 9.42008   4
  -5  -3  -6 226.160 9.93672   2
  -5  -3  -6 224.770 8.43044   3
  -5  -3  -6 229.003 13.7076   5
  -5  -3  -6 223.300 12.4068   9
   5   3   6 244.910 7.61973  10
   5   3   6 223.106 6.91349   4
   5   3   6 219.194 6.51097   8
   5   3   6 219.841 9.60154   5
   5   3   6 226.937 8.15380   2
  -6  -3  -6 417.576 13.9865   3
  -6  -3  -6 396.251 23.1568   2
  -6  -3  -6 409.896 12.8730   1
   6   3   6 404.180 15.0030   2
   6   3   6 403.817 12.7392  10
   6   3   6 415.298 11.9718   8
   6   3   6 404.895 11.4090   4
  -7  -3  -6 154.734 7.26707   3
  -7  -3  -6 165.468 7.55405   1
   7   3   6 143.833 9.04366   8
   7   3   6 154.714 9.72606  10
   7   3   6 167.913 7.46024   2
   7   3   6 155.217 7.05094   4
  -8  -3  -6 109.553 7.44468   3
  -8  -3  -6 115.323 6.72082   1
   8   3   6 107.847 6.14684   4
   8   3   6 102.497 7.05154  10
   8   3   6 107.619 7.22456   8
   8   3   6 102.347 4.81987   2
  -9  -3  -6 243.516 17.0338   1
  -9  -3  -6 232.115 13.0995   3
   9   3   6 221.514 11.7849   8
   9   3   6 206.596 11.6765  10
   9   3   6 218.735 13.0373   4
 -10  -3  -6 14.2938 6.82423   1
 -10  -3  -6 11.0742 5.23707   3
  10   3   6 9.55022 4.42541   8
  10   3   6 13.5972 5.01469  10
  10   3   6 23.8743 5.25727   4
  10  -4  -6 1.07825 5.44566   5
  10  -4  -6 -3.1259 4.72976   9
 -10   4   6 2.68879 8.20178   1
   9  -4  -6 49.3766 5.67962   9
   9  -4  -6 52.3428 6.15724   5
  -9   4   6 27.6854 7.40141   1
   8  -4  -6 -4.0967 3.67979   9
   8  -4  -6 -1.9666 4.28611   5
  -8   4   6 0.91317 4.08056   1
   7  -4  -6 68.0010 4.20482   9
   7  -4  -6 57.5389 5.33173   5
  -7   4   6 73.7710 6.84475   1
   6  -4  -6 257.437 10.8021   5
   6  -4  -6 246.108 7.54173   9
  -6   4   6 259.055 19.9266   6
  -6   4   6 232.407 14.7585   1
   5  -4  -6 91.3161 5.97927   5
   5  -4  -6 93.2030 4.70808   9
  -5   4   6 97.6894 5.18090   1
  -5   4   6 95.8388 4.00120   6
  -5   4   6 82.3298 4.01347   3
   4  -4  -6 238.318 7.10603   5
   4  -4  -6 251.805 7.61579   9
  -4   4   6 248.272 13.4766   3
  -4   4   6 255.899 17.3391   6
  -4   4   6 258.256 10.0504   1
  -4   4   6 231.462 13.6279   7
  -4   4   6 261.016 16.0031   7
   3  -4  -6 304.092 6.33175   9
   3  -4  -6 320.341 7.44292   5
   3  -4  -6 316.398 8.53788   3
  -3   4   6 329.227 12.3835   3
  -3   4   6 323.035 9.64896   1
   2  -4  -6 24.9002 2.80872   9
   2  -4  -6 27.1911 2.76923   5
   2  -4  -6 18.1821 2.51148   1
   2  -4  -6 22.1186 2.23143   3
  -2   4   6 21.7614 2.64897   2
  -2   4   6 21.3082 2.59102   1
  -2   4   6 21.3314 2.42915   3
   1  -4  -6 543.588 13.1398   9
   1  -4  -6 529.067 17.4631   1
   1  -4  -6 535.086 14.2391   5
   1  -4  -6 539.679 23.6153   6
   1  -4  -6 499.790 16.0506   3
  -1   4   6 556.056 17.7733   2
  -1   4   6 554.974 12.1986   3
  -1   4   6 545.777 21.8239   1
   0  -4  -6 300.419 6.05887   3
   0  -4  -6 320.597 18.4414   6
   0  -4  -6 313.364 8.62344   9
   0  -4  -6 322.453 7.28400   5
   0  -4  -6 310.836 18.9587   1
   0  -4  -6 312.185 10.9213   7
   0   4   6 324.183 10.2815   3
   0   4   6 329.462 17.4553   5
   0   4   6 327.575 11.2529   1
   0   4   6 329.125 11.7492   2
  -1  -4  -6 146.023 5.24449   9
  -1  -4  -6 146.414 4.33018   6
  -1  -4  -6 141.710 5.14657   7
  -1  -4  -6 135.277 5.14688   5
  -1  -4  -6 141.892 4.61291   3
  -1  -4  -6 141.271 4.46859   1
   1   4   6 133.151 6.93918   3
   1   4   6 124.011 6.52765   2
   1   4   6 130.826 4.58690   4
   1   4   6 132.776 5.76348   5
  -2  -4  -6 1120.82 53.1211   1
  -2  -4  -6 1037.65 25.4589   2
  -2  -4  -6 1049.09 26.3228   5
  -2  -4  -6 1028.51 25.1390   9
  -2  -4  -6 1037.41 23.1758   3
  -2  -4  -6 1063.69 51.8462   7
   2   4   6 1046.35 49.4989   4
   2   4   6 1053.91 40.8117   5
   2   4   6 1015.19 41.2792   2
  -3  -4  -6 233.522 12.8017   7
  -3  -4  -6 242.708 7.81565   3
  -3  -4  -6 222.278 18.5505   1
  -3  -4  -6 216.113 9.17594   5
  -3  -4  -6 214.497 14.0281   2
  -3  -4  -6 219.980 7.41815   9
   3   4   6 213.921 8.20547   2
   3   4   6 233.159 8.11550   4
   3   4   6 214.904 9.48832   5
  -4  -4  -6 140.777 5.78481   9
  -4  -4  -6 147.239 5.52142   5
  -4  -4  -6 141.357 5.85632   3
  -4  -4  -6 145.565 7.53874   2
   4   4   6 141.933 5.14221   4
   4   4   6 154.264 7.26318   5
   4   4   6 147.109 4.49753   2
  -5  -4  -6 269.309 12.4720   5
  -5  -4  -6 270.238 12.4958   2
  -5  -4  -6 258.824 7.83467   9
  -5  -4  -6 253.503 8.91351   3
   5   4   6 257.614 8.08062   4
   5   4   6 251.236 8.78973  10
   5   4   6 255.980 10.6546   2
   5   4   6 253.398 8.11359   8
  -6  -4  -6 133.817 19.4598   5
  -6  -4  -6 131.786 6.27702   3
  -6  -4  -6 131.905 19.4912   9
  -6  -4  -6 117.848 6.27038   2
   6   4   6 124.421 5.34479   8
   6   4   6 115.529 4.22539   2
   6   4   6 116.393 5.84142   4
   6   4   6 131.586 5.79978  10
  -7  -4  -6 122.475 6.03674   3
   7   4   6 117.123 5.84591  10
   7   4   6 130.301 6.52667   2
   7   4   6 114.882 5.69185   4
   7   4   6 116.354 5.63390   8
  -8  -4  -6 263.876 13.8823   1
  -8  -4  -6 261.706 12.1475   3
   8   4   6 241.328 10.6592   8
   8   4   6 249.116 10.6730   4
   8   4   6 244.779 11.3173  10
  -9  -4  -6 7.74163 4.93265   3
  -9  -4  -6 9.74921 5.25132   1
   9   4   6 6.39943 5.30284  10
   9   4   6 17.5926 5.45857   8
   9   4   6 8.99339 5.20392   4
 -10  -4  -6 12.9052 5.03802   1
 -10  -4  -6 14.3152 5.68641   3
  10   4   6 14.8816 4.48564   8
  10   4   6 6.31317 6.10323   4
  10   4   6 19.6447 5.07232  10
   9  -5  -6 0.28223 3.17823   9
   9  -5  -6 0.84274 3.73355   5
  -9   5   6 -1.2753 5.36011   1
   8  -5  -6 3.97263 12.0685   5
   8  -5  -6 1.13586 9.97174   9
  -8   5   6 9.12321 6.58955   1
   7  -5  -6 18.8412 3.69387   5
   7  -5  -6 22.4588 3.30338   9
  -7   5   6 16.1087 4.47165   1
   6  -5  -6 34.9304 3.89354   5
   6  -5  -6 35.9124 4.08986   9
  -6   5   6 39.2219 5.72263   1
   5  -5  -6 4.85409 4.15972   5
   5  -5  -6 6.72448 3.58370   9
  -5   5   6 4.60698 1.73838   6
  -5   5   6 -0.8311 2.86661   1
  -5   5   6 6.45841 2.14170   7
   4  -5  -6 45.1923 3.26008   9
   4  -5  -6 38.8685 3.62368   5
   4  -5  -6 40.8794 2.11669   3
  -4   5   6 38.3581 3.88134   1
  -4   5   6 32.4736 1.99499   6
  -4   5   6 35.4009 2.54384   7
  -4   5   6 34.7040 2.68732   3
   3  -5  -6 42.6470 7.68342   3
   3  -5  -6 44.8785 4.07630   5
   3  -5  -6 47.3875 3.68038   9
  -3   5   6 33.7031 2.95415   3
  -3   5   6 42.6706 4.46786   1
  -3   5   6 41.3206 3.00901   6
  -3   5   6 40.2067 2.80537   7
   2  -5  -6 477.719 15.1443   9
   2  -5  -6 492.201 10.5640   5
   2  -5  -6 469.067 14.6872   3
   2  -5  -6 469.507 15.9175   6
  -2   5   6 464.235 36.7748   7
  -2   5   6 502.874 24.3700   3
  -2   5   6 464.758 40.7919   6
  -2   5   6 477.035 15.9962   1
   1  -5  -6 107.410 4.56227   6
   1  -5  -6 93.5363 3.54663   3
   1  -5  -6 92.6753 4.61274   5
  -1   5   6 94.0111 4.99592   7
  -1   5   6 98.3620 9.24540   1
  -1   5   6 84.6155 6.01182   3
   0  -5  -6 207.988 7.45209   6
   0  -5  -6 180.881 10.7844   1
   0  -5  -6 197.844 6.37488   3
   0  -5  -6 206.144 5.51874   7
   0  -5  -6 191.860 5.80846   5
   0   5   6 183.442 7.48525   1
   0   5   6 171.298 12.6394   3
   0   5   6 200.386 9.41987   2
   0   5   6 195.132 11.9077   7
  -1  -5  -6 504.412 24.3278   7
  -1  -5  -6 499.747 13.1707   5
  -1  -5  -6 477.625 34.2477   1
  -1  -5  -6 493.628 12.5550   3
  -1  -5  -6 497.181 21.3179   6
   1   5   6 503.981 42.7741   5
   1   5   6 508.026 24.0420   2
   1   5   6 491.655 25.0379   3
   1   5   6 522.039 11.6935   1
   1   5   6 520.053 15.0031   4
  -2  -5  -6 122.460 4.49174   5
  -2  -5  -6 116.547 4.51590   3
  -2  -5  -6 122.606 4.44927   7
  -2  -5  -6 124.513 5.80961   6
   2   5   6 120.093 8.99481   5
   2   5   6 114.442 7.88970   2
   2   5   6 113.557 4.70822   4
  -3  -5  -6 3.43750 2.24038   7
  -3  -5  -6 2.81833 2.67703   3
  -3  -5  -6 5.17799 1.58652   5
   3   5   6 4.05673 1.29561   2
   3   5   6 1.96074 1.91718   5
   3   5   6 8.91247 2.81976   4
  -4  -5  -6 543.196 21.0035   3
  -4  -5  -6 557.401 22.1358   2
  -4  -5  -6 556.498 24.0506   5
  -4  -5  -6 550.303 14.6793   9
   4   5   6 548.121 14.5324   4
   4   5   6 531.516 28.4768   2
  -5  -5  -6 98.7116 5.59525   2
  -5  -5  -6 88.2929 5.50509   3
  -5  -5  -6 102.190 4.54773   5
  -5  -5  -6 106.972 3.40116   9
   5   5   6 97.3706 4.80759  10
   5   5   6 106.944 3.95810   2
   5   5   6 99.5532 4.60366   8
   5   5   6 103.509 4.72125   4
  -6  -5  -6 47.2215 3.91912   9
  -6  -5  -6 41.6377 2.85949   5
  -6  -5  -6 40.1395 3.89972   3
   6   5   6 46.9246 4.38991   8
   6   5   6 47.8049 4.54794   4
   6   5   6 47.0226 4.61235  10
  -7  -5  -6 347.643 11.6277   3
   7   5   6 334.575 13.5241   4
   7   5   6 334.724 13.1859   8
   7   5   6 338.549 12.3463  10
  -8  -5  -6 40.5273 4.56634   3
   8   5   6 33.9925 5.38112  10
   8   5   6 44.6092 5.55736   4
   8   5   6 34.6223 5.23490   8
  -9  -5  -6 35.2341 4.98304   1
  -9  -5  -6 40.2500 4.94840   3
   9   5   6 33.0981 6.04524  10
   9   5   6 44.2060 5.05707   4
   9   5   6 28.6586 5.70246   8
 -10  -5  -6 41.5010 7.24265   1
 -10  -5  -6 52.3982 7.01721   3
  10   5   6 32.5701 5.43957  10
  10   5   6 43.3134 5.32331   8
  10   5   6 52.4396 7.07771   4
   9  -6  -6 29.2027 4.29546   9
   9  -6  -6 19.0773 5.96870   5
  -9   6   6 19.0908 6.35155   1
   8  -6  -6 1.17458 4.87327   5
   8  -6  -6 4.58534 4.48641   9
  -8   6   6 0.71241 6.83467   1
   7  -6  -6 -1.6818 3.80953   9
   7  -6  -6 0.23666 4.38197   5
  -7   6   6 4.61147 4.34980   1
   6  -6  -6 9.29328 3.80391   9
   6  -6  -6 7.56512 4.25465   5
  -6   6   6 4.02441 3.82642   1
   5  -6  -6 25.8431 3.17538   9
   5  -6  -6 29.1609 4.41348   5
  -5   6   6 25.3115 5.87088   1
  -5   6   6 23.1667 2.67399   6
  -5   6   6 24.1173 2.77218   7
   4  -6  -6 2.44256 2.45546   5
   4  -6  -6 3.42843 3.00931   9
   4  -6  -6 1.55390 1.23585   3
  -4   6   6 0.06269 1.84998   6
  -4   6   6 0.31493 1.87017   7
  -4   6   6 -0.2897 3.94094   1
   3  -6  -6 72.9108 8.48027   5
   3  -6  -6 74.7703 3.11507   3
  -3   6   6 64.7208 4.71306   3
  -3   6   6 66.7140 3.92196   6
  -3   6   6 64.4806 3.62280   7
  -3   6   6 65.4463 4.61824   1
   2  -6  -6 71.0091 4.52875   6
   2  -6  -6 81.0742 4.39282   5
   2  -6  -6 75.7809 3.37984   3
  -2   6   6 66.7315 4.27881   7
  -2   6   6 80.2054 4.71901   1
  -2   6   6 71.8283 4.53862   6
  -2   6   6 70.0550 4.42410   3
   1  -6  -6 29.6100 2.70460   3
   1  -6  -6 33.3943 3.19465   5
   1  -6  -6 27.2050 2.13081   6
  -1   6   6 23.0013 2.00365   7
  -1   6   6 28.0671 3.29568   1
  -1   6   6 21.3550 2.00433   6
  -1   6   6 20.8608 3.04263   3
   0  -6  -6 208.496 8.58563   6
   0  -6  -6 199.607 6.77852   5
   0  -6  -6 213.232 7.27139   7
   0  -6  -6 199.960 5.64955   3
   0   6   6 199.301 8.86126   3
   0   6   6 187.097 10.6791   7
   0   6   6 215.656 6.75865   2
   0   6   6 205.728 13.9419   1
  -1  -6  -6 41.7686 3.57202   5
  -1  -6  -6 44.8264 2.73000   7
  -1  -6  -6 39.4180 2.51504   6
  -1  -6  -6 41.2630 3.50000   3
   1   6   6 41.4000 3.56862   1
   1   6   6 36.4077 3.29940   7
   1   6   6 44.3194 2.71771   2
   1   6   6 46.1888 3.21290   4
  -2  -6  -6 53.5566 3.92781   3
  -2  -6  -6 45.6527 3.09090   5
  -2  -6  -6 52.0898 3.01708   7
  -2  -6  -6 56.2316 3.11353   6
   2   6   6 42.1103 4.90872   4
   2   6   6 49.7493 3.83721   2
  -3  -6  -6 123.067 5.43776   3
  -3  -6  -6 125.990 5.46788   5
   3   6   6 136.210 10.3463   4
   3   6   6 124.369 10.6193   2
  -4  -6  -6 -0.2531 2.99464   3
  -4  -6  -6 0.84416 2.06596   5
   4   6   6 0.33444 0.39580   2
   4   6   6 3.02896 2.06865   4
  -5  -6  -6 96.1864 5.63344   3
  -5  -6  -6 97.6009 4.07966   5
   5   6   6 108.679 5.38594  10
   5   6   6 96.3994 4.55582   4
   5   6   6 99.5797 5.01166   8
  -6  -6  -6 110.144 6.29069   3
  -6  -6  -6 107.937 7.85447   5
   6   6   6 118.145 5.76432   4
   6   6   6 114.844 5.34893  10
   6   6   6 108.277 4.95695   8
  -7  -6  -6 17.8866 3.61781   3
   7   6   6 16.7070 3.27694  10
   7   6   6 24.2609 3.46448   8
   7   6   6 29.6639 3.67111   4
  -8  -6  -6 17.5854 4.00851   3
   8   6   6 13.1644 3.65852  10
   8   6   6 24.4188 3.82318   8
   8   6   6 16.8766 4.85009   4
  -9  -6  -6 75.6280 7.08507   3
  -9  -6  -6 79.0384 6.59273   1
   9   6   6 72.3694 7.48674  10
   9   6   6 70.5473 6.59260   8
   9   6   6 76.9529 6.73316   4
 -10  -6  -6 -2.3981 6.38422   1
 -10  -6  -6 -6.2834 5.94428   3
  10   6   6 -2.7932 3.78178   8
  10   6   6 -2.2169 5.68544   4
  10   6   6 -0.9406 4.18906  10
   8  -7  -6 27.2284 6.43758   5
   8  -7  -6 18.0785 5.08332   9
  -8   7   6 25.5153 8.19267   1
   7  -7  -6 5.48445 4.28518   9
   7  -7  -6 12.9519 5.20311   5
  -7   7   6 -0.1923 4.53761   1
   6  -7  -6 30.4137 5.18129   5
   6  -7  -6 26.8326 4.62616   9
  -6   7   6 23.0911 5.17203   1
   5  -7  -6 17.0391 3.95472   9
   5  -7  -6 14.2393 4.49029   5
  -5   7   6 7.70524 5.28106   1
  -5   7   6 5.98386 2.93848   6
  -5   7   6 12.9114 2.49440   7
   4  -7  -6 26.2231 3.61824   5
   4  -7  -6 27.6971 2.17885   3
  -4   7   6 22.7914 4.15344   1
  -4   7   6 22.0601 3.01685   7
  -4   7   6 26.5418 2.56989   6
   3  -7  -6 12.1032 3.01333   5
   3  -7  -6 10.7514 2.08569   6
   3  -7  -6 10.3488 1.94976   3
  -3   7   6 5.50391 2.58847   7
  -3   7   6 6.91658 2.54546   3
  -3   7   6 10.2520 2.85634   6
  -3   7   6 6.24381 4.34083   1
   2  -7  -6 4.15104 2.00010   3
   2  -7  -6 3.47964 2.43020   5
   2  -7  -6 1.91989 1.88906   6
  -2   7   6 0.54706 1.96912   3
  -2   7   6 5.03142 2.48258   6
  -2   7   6 1.82528 1.58054   7
  -2   7   6 2.34154 3.82611   1
   1  -7  -6 13.1590 3.49067   5
   1  -7  -6 13.5390 2.54115   3
   1  -7  -6 12.1151 1.71038   6
  -1   7   6 12.8807 3.26566   6
  -1   7   6 12.5454 2.67691   7
  -1   7   6 16.5588 2.94376   2
  -1   7   6 10.0474 2.41374   3
  -1   7   6 18.2087 3.21026   1
   0  -7  -6 -4.7258 1.86807   7
   0  -7  -6 0.67626 4.58374   3
   0  -7  -6 2.01243 1.96938   6
   0  -7  -6 0.97430 4.34087   5
   0   7   6 -0.2875 1.56789   7
   0   7   6 -1.0453 1.65941   6
   0   7   6 3.22203 1.93888   2
   0   7   6 0.41044 3.45005   1
  -1  -7  -6 -0.0824 2.50913   3
  -1  -7  -6 -1.6626 1.46463   7
  -1  -7  -6 0.98117 2.65325   5
  -1  -7  -6 -2.6915 2.00554   6
   1   7   6 -1.0352 1.55303   2
   1   7   6 1.45282 1.96081   7
   1   7   6 -0.6601 1.29761   2
   1   7   6 2.42923 2.78101   4
   1   7   6 1.43983 2.44961   1
  -2  -7  -6 125.195 11.2914   6
  -2  -7  -6 140.376 12.4374   7
  -2  -7  -6 130.192 5.20645   3
  -2  -7  -6 133.518 5.32164   5
   2   7   6 143.008 9.28090   2
   2   7   6 134.769 5.47689   4
   2   7   6 135.121 10.4782   2
   2   7   6 130.204 7.55515   7
  -3  -7  -6 89.8401 4.72672   3
  -3  -7  -6 94.3641 4.59564   5
   3   7   6 80.8425 6.01248   7
   3   7   6 102.183 4.31626   4
  -4  -7  -6 24.5473 3.32367   3
  -4  -7  -6 29.0114 3.16572   5
   4   7   6 26.3813 3.41731   4
  -5  -7  -6 59.7114 5.31872   3
  -5  -7  -6 51.6541 3.57316   5
   5   7   6 62.4354 4.56996  10
   5   7   6 67.7513 4.57496   4
   5   7   6 66.9818 4.46587   8
  -6  -7  -6 0.31653 2.09421   5
  -6  -7  -6 1.44784 2.90031   3
   6   7   6 1.70417 3.34530  10
   6   7   6 0.94242 3.26141   8
   6   7   6 1.25132 2.28284   4
  -7  -7  -6 143.650 8.78370   3
   7   7   6 165.192 6.91610   4
   7   7   6 137.493 8.76485   8
   7   7   6 152.149 9.78590  10
  -8  -7  -6 15.8981 5.44049   3
   8   7   6 20.8693 3.84285   4
   8   7   6 16.1593 4.86338  10
   8   7   6 18.9213 4.70227   8
  -9  -7  -6 -2.7582 4.05003   3
   9   7   6 7.63691 3.76655   8
   9   7   6 8.12892 3.85778  10
   9   7   6 2.19092 4.88289   4
 -10  -7  -6 3.50261 6.63389   3
 -10  -7  -6 15.5730 5.34319   1
  10   7   6 20.4094 4.82760   4
  10   7   6 19.0847 4.54265   8
  10   7   6 20.6803 4.93857  10
   8  -8  -6 -2.0613 4.21547   5
   8  -8  -6 0.92704 5.18574   9
  -8   8   6 3.52169 6.75946   1
   7  -8  -6 45.3454 5.29470   5
   7  -8  -6 48.3950 4.80496   9
  -7   8   6 61.1557 10.5486   1
   6  -8  -6 3.67618 3.17275   9
   6  -8  -6 6.04756 3.68270   5
  -6   8   6 -0.7107 4.76438   1
   5  -8  -6 2.92933 3.36617   5
  -5   8   6 2.10091 4.31811   1
   4  -8  -6 54.5124 3.62419   3
   4  -8  -6 59.1383 5.00617   5
  -4   8   6 52.7403 4.53296   7
  -4   8   6 47.9786 3.77971   6
  -4   8   6 51.9663 5.46212   1
   3  -8  -6 3.49346 3.94068   5
   3  -8  -6 7.33924 2.13252   3
  -3   8   6 3.70787 3.64975   1
  -3   8   6 4.72732 2.55406   6
  -3   8   6 7.75499 3.29297   7
   2  -8  -6 1.71005 2.20179   3
   2  -8  -6 -2.6311 2.95927   6
   2  -8  -6 0.75842 3.82790   5
  -2   8   6 0.35125 2.27610   6
  -2   8   6 2.07676 2.20008   7
  -2   8   6 4.81596 4.59792   1
   1  -8  -6 0.58807 2.33032   3
   1  -8  -6 4.12880 3.47349   5
   1  -8  -6 0.35631 2.74037   6
  -1   8   6 -0.2230 3.01804   6
  -1   8   6 -2.0331 2.07697   7
  -1   8   6 1.99109 4.24589   1
   0  -8  -6 6.07662 3.39588   5
   0  -8  -6 1.03200 2.70595   3
   0   8   6 11.9867 2.44211   2
   0   8   6 -0.0316 2.90780   7
   0   8   6 8.00691 4.17994   1
   0   8   6 4.10368 3.15562   6
   0   8   6 10.6473 3.21358   4
  -1  -8  -6 10.9855 3.50399   5
  -1  -8  -6 21.3792 3.49231   3
   1   8   6 16.4630 2.20088   2
   1   8   6 9.17645 2.60389   7
   1   8   6 13.9301 3.77078   1
   1   8   6 11.8112 2.33947   4
  -2  -8  -6 37.4942 4.07683   5
  -2  -8  -6 38.5724 3.55104   3
   2   8   6 34.1831 3.06436   4
   2   8   6 24.9755 4.01212   7
   2   8   6 35.7394 2.24419   2
   2   8   6 31.7275 3.05617   2
  -3  -8  -6 74.0591 4.63836   3
  -3  -8  -6 69.9672 4.65104   5
   3   8   6 79.3514 4.11071   4
   3   8   6 63.8173 5.45036   7
  -4  -8  -6 148.036 16.9047   3
  -4  -8  -6 137.608 5.59922   5
   4   8   6 156.000 104.641   4
   4   8   6 127.298 9.06858   7
  -5  -8  -6 -0.7840 3.89602   3
  -5  -8  -6 2.06538 2.80182   5
   5   8   6 6.50993 3.49763   4
   5   8   6 6.57985 3.47745  10
   5   8   6 4.64377 3.24557   8
  -6  -8  -6 30.5092 4.19886   3
  -6  -8  -6 30.0538 3.48829   5
   6   8   6 44.3305 5.44878   8
   6   8   6 43.0971 4.66534   4
   6   8   6 43.4103 5.06406  10
  -7  -8  -6 8.80762 5.12346   3
   7   8   6 7.16863 2.90168   4
   7   8   6 12.2947 4.22004  10
   7   8   6 11.6557 4.01019   8
  -8  -8  -6 -4.8100 5.32042   3
   8   8   6 1.47635 3.10477  10
   8   8   6 -3.1406 2.97246   8
   8   8   6 4.52551 4.42827   4
  -9  -8  -6 6.65340 4.48451   3
   9   8   6 14.1446 5.16670   4
   9   8   6 10.0363 5.36760  10
   9   8   6 10.2152 5.21630   8
 -10  -8  -6 4.44063 7.43901   3
  10   8   6 0.18879 4.34713  10
  10   8   6 1.08770 4.15420   8
  10   8   6 10.1888 6.07318   4
   7  -9  -6 6.85730 6.14629   5
   7  -9  -6 7.03472 5.52734   9
  -7   9   6 9.03567 6.69305   1
   6  -9  -6 1.59886 5.65063   5
  -6   9   6 4.61073 7.88649   1
   5  -9  -6 29.9282 5.99381   5
  -5   9   6 26.0538 5.79455   1
   4  -9  -6 4.21511 3.52701   5
  -4   9   6 6.22788 11.5457   1
  -4   9   6 7.12805 2.98708   7
  -4   9   6 4.18296 3.17565   6
   3  -9  -6 4.22185 3.27845   5
   3  -9  -6 7.48461 2.47464   3
  -3   9   6 6.05353 5.81544   1
  -3   9   6 4.16981 4.23708   6
  -3   9   6 3.94111 2.93454   7
   2  -9  -6 61.2305 4.23012   3
   2  -9  -6 42.0585 5.25917   5
  -2   9   6 43.5020 4.86748   6
  -2   9   6 47.2365 4.77604   7
  -2   9   6 52.8323 5.46738   1
   1  -9  -6 10.1399 3.14326   3
   1  -9  -6 6.33349 4.08213   5
  -1   9   6 0.95153 3.98987   6
  -1   9   6 10.9226 5.18185   1
   0  -9  -6 51.8027 4.41864   5
   0  -9  -6 54.8994 3.88681   3
   0   9   6 50.3247 5.33958   4
   0   9   6 44.7572 4.52729   6
   0   9   6 47.1639 4.43511   2
   0   9   6 45.3561 5.72702   1
   0   9   6 40.4955 3.98768   7
  -1  -9  -6 31.2399 3.76154   5
  -1  -9  -6 34.3070 3.54681   3
   1   9   6 38.2285 3.56116   4
   1   9   6 31.6674 4.31650   1
   1   9   6 31.2215 2.91926   2
   1   9   6 26.9664 3.73271   6
   1   9   6 27.7889 3.77159   7
  -2  -9  -6 3.05611 3.56323   5
  -2  -9  -6 0.90560 3.48069   3
   2   9   6 1.90645 4.01553   7
   2   9   6 -0.2886 2.47778   4
   2   9   6 -0.0942 1.32837   2
   2   9   6 0.36648 1.14105   2
  -3  -9  -6 15.1225 4.31295   3
  -3  -9  -6 18.1257 4.02986   5
   3   9   6 7.08784 4.42477   7
   3   9   6 13.9432 2.93973   4
  -4  -9  -6 3.25278 3.49246   5
  -4  -9  -6 5.44100 4.30767   3
   4   9   6 10.7774 2.95611   4
   4   9   6 4.65284 3.59659   7
  -5  -9  -6 0.86147 3.15045   3
  -5  -9  -6 -2.4216 10.7190   5
   5   9   6 0.05537 8.46063   8
   5   9   6 1.33535 9.23268  10
   5   9   6 -4.6828 5.15570   7
   5   9   6 -1.3373 8.94933   4
  -6  -9  -6 1.70579 2.39617   5
  -6  -9  -6 -0.4469 4.79472   3
   6   9   6 -0.1391 3.34290   4
   6   9   6 -0.1110 3.38441   8
   6   9   6 4.85578 3.65130  10
  -7  -9  -6 9.51746 4.17374   3
   7   9   6 16.1855 4.24938   8
   7   9   6 15.8166 4.38805  10
   7   9   6 16.3163 3.40455   4
  -8  -9  -6 2.48173 4.15675   3
   8   9   6 0.60238 3.00648   8
   8   9   6 -0.7442 4.37311   4
   8   9   6 -0.0835 3.11254  10
  -9  -9  -6 -4.3833 6.76439   3
   9   9   6 -4.1600 9.15288   8
   9   9   6 0.13752 9.80249  10
   9   9   6 8.93616 9.68274   4
 -10  -9  -6 2.27407 7.53529   3
  10   9   6 -2.2743 6.36263  10
   6 -10  -6 31.5352 7.25357   5
  -6  10   6 48.6635 10.1169   1
   5 -10  -6 -2.7329 5.88325   5
  -5  10   6 -1.4131 8.12342   1
   4 -10  -6 14.7987 4.45380   5
  -4  10   6 18.3393 5.78570   1
   3 -10  -6 90.6616 6.86048   5
  -3  10   6 93.4007 8.35334   1
  -3  10   6 73.6533 5.54161   6
  -3  10   6 80.1894 6.54031   7
   2 -10  -6 0.73927 2.17012   3
   2 -10  -6 5.14990 4.77450   5
  -2  10   6 0.81527 3.45195   6
  -2  10   6 -1.9775 3.37110   7
  -2  10   6 3.48193 4.31620   1
   1 -10  -6 1.09129 4.56828   5
   1 -10  -6 2.07142 2.31535   3
  -1  10   6 1.85950 3.28618   4
  -1  10   6 -2.3803 4.63798   7
  -1  10   6 8.65481 5.66187   1
  -1  10   6 -4.0385 4.80363   6
   0 -10  -6 167.636 8.86742   3
   0 -10  -6 157.019 8.56773   5
   0  10   6 161.884 12.7193   4
   0  10   6 148.776 9.83967   6
   0  10   6 134.637 14.4636   1
   0  10   6 152.660 10.4736   7
  -1 -10  -6 -0.2190 3.75874   3
  -1 -10  -6 -0.9735 3.03260   5
   1  10   6 -1.2270 5.22261   1
   1  10   6 -5.0056 3.38760   7
   1  10   6 -2.4379 3.68661   6
   1  10   6 5.67680 2.86240   4
  -2 -10  -6 29.4138 4.98401   3
  -2 -10  -6 30.0795 5.02427   5
   2  10   6 21.7103 4.23690   7
   2  10   6 35.0854 3.46625   4
  -3 -10  -6 41.7295 5.14216   5
  -3 -10  -6 58.2689 5.03284   3
   3  10   6 49.7603 5.04956   7
   3  10   6 66.9562 4.26423   4
  -4 -10  -6 35.7382 4.92385   5
  -4 -10  -6 38.1142 5.80648   3
   4  10   6 42.4884 3.88615   4
   4  10   6 39.5630 3.23634  10
   4  10   6 42.2721 3.43398   8
   4  10   6 30.2848 5.99417   7
  -5 -10  -6 6.31134 4.05211   5
  -5 -10  -6 1.03543 5.10645   3
   5  10   6 5.92250 3.18205   8
   5  10   6 10.2342 3.36561  10
   5  10   6 11.2720 3.30332   4
   5  10   6 0.80131 4.19239   7
  -6 -10  -6 -0.6706 5.56358   3
  -6 -10  -6 4.45007 3.90119   5
   6  10   6 4.32749 6.33341  10
   6  10   6 5.06644 6.82429   4
   6  10   6 5.87450 6.52426   8
   6  10   6 6.28511 6.54226   7
  -7 -10  -6 4.04473 4.44777   3
   7  10   6 10.1305 4.56230   8
   7  10   6 8.23607 4.62194  10
   7  10   6 11.6251 4.21302   4
  -8 -10  -6 2.38761 4.65371   3
   8  10   6 11.1423 6.71924   8
   8  10   6 15.0728 6.68875  10
   8  10   6 19.4490 6.39392   4
   9  10   6 23.2487 8.18931   8
   9  10   6 16.1611 7.53890   4
   9  10   6 19.7102 9.47400  10
   5 -11  -6 0.71681 5.16417   5
   4 -11  -6 122.895 11.4420   5
  -4  11   6 103.836 10.5879   1
   3 -11  -6 4.86984 5.83901   5
  -3  11   6 -1.0489 4.66489   6
  -3  11   6 0.39962 7.75415   1
  -3  11   6 -1.2900 6.03639   7
   2 -11  -6 5.72860 9.08083   3
   2 -11  -6 -0.7641 3.85649   5
  -2  11   6 1.24979 4.38507   6
  -2  11   6 1.95718 7.07134   1
  -2  11   6 3.83390 5.94872   7
   1 -11  -6 94.9481 8.37075   3
   1 -11  -6 97.9552 6.80756   5
  -1  11   6 84.9802 7.68936   6
  -1  11   6 85.5761 8.85205   7
  -1  11   6 96.1342 7.39310   1
   0 -11  -6 -1.1078 2.79362   3
   0 -11  -6 1.18256 5.11174   5
   0  11   6 -3.7744 4.07403   7
   0  11   6 -2.4888 4.32378   6
   0  11   6 1.67199 6.57051   1
  -1 -11  -6 26.1431 5.70428   5
  -1 -11  -6 25.0266 4.00324   3
   1  11   6 20.0733 5.10469   1
   1  11   6 19.3764 6.53172   6
   1  11   6 17.6290 6.10418   7
  -2 -11  -6 21.5074 5.21220   3
  -2 -11  -6 21.8106 4.21104   5
   2  11   6 14.4879 4.75835   7
   2  11   6 11.7402 4.94394   6
  -3 -11  -6 -3.4954 4.86290   3
  -3 -11  -6 1.45197 3.25913   5
   3  11   6 -5.7939 5.77719   7
  -4 -11  -6 0.19210 4.60031   5
  -4 -11  -6 2.31520 5.33109   3
   4  11   6 -1.9259 4.42340   7
  -5 -11  -6 4.74141 4.26346   3
  -5 -11  -6 4.43742 4.80706   5
   5  11   6 -3.0939 6.81335   7
  -6 -11  -6 -0.0272 4.74361   5
  -6 -11  -6 1.87992 6.27805   3
   6  11   6 -2.1707 5.32561   7
  -7 -11  -6 16.5042 5.47014   3
   7  11   6 18.4045 31.2018   7
  -8 -11  -6 1.11512 5.45143   3
   3 -12  -6 3.96695 6.69559   5
  -3  12   6 -1.4445 6.37296   1
   2 -12  -6 7.41713 4.88280   5
  -2  12   6 6.43849 5.18807   7
  -2  12   6 5.86275 5.58965   6
  -2  12   6 16.0063 6.41248   1
   1 -12  -6 4.70825 4.66086   3
   1 -12  -6 -4.4908 6.59286   5
  -1  12   6 0.87670 4.86289   7
  -1  12   6 1.57638 5.08414   6
  -1  12   6 -2.2188 5.12128   1
   0 -12  -6 86.8625 8.85717   3
   0 -12  -6 81.9032 8.13766   5
   0  12   6 72.4509 7.23940   6
   0  12   6 75.1740 6.94351   7
   0  12   6 64.3939 9.21975   1
  -1 -12  -6 25.3468 5.71027   3
  -1 -12  -6 47.8324 18.3458   5
   1  12   6 17.1225 5.90051   6
   1  12   6 20.9521 7.40346   7
   1  12   6 18.1465 5.89368   1
  -2 -12  -6 -0.6864 3.69461   3
  -2 -12  -6 -4.4181 5.40118   5
   2  12   6 -2.0876 7.23355   7
   2  12   6 -5.5826 7.34974   6
  -3 -12  -6 25.5776 4.94871   3
  -3 -12  -6 15.2255 4.46427   5
   3  12   6 16.9740 37.5466   7
  -4 -12  -6 8.20843 4.59389   3
  -4 -12  -6 -0.1098 5.57701   5
   4  12   6 2.94088 7.71148   7
  -5 -12  -6 -3.7640 6.38484   3
  -5 -12  -6 1.84375 5.74185   5
   5  12   6 -3.5125 7.74136   7
  -6 -12  -6 25.9726 6.41635   5
  -6 -12  -6 31.1647 6.14985   3
   6  12   6 27.5469 6.89508   7
  -7 -12  -6 -6.1895 7.89584   3
   7  12   6 -1.0519 6.55020   7
   1 -13  -6 15.0924 7.57517   5
  -1  13   6 25.4684 41.1670   7
  -1  13   6 38.9205 58.3495   6
   0 -13  -6 33.6268 8.07359   5
   0 -13  -6 50.0629 8.12768   3
   0  13   6 27.3509 7.11598   6
   0  13   6 28.2717 8.99625   7
   0  13   6 42.6724 11.1425   1
  -1 -13  -6 -3.2761 6.86616   5
  -1 -13  -6 4.14191 6.16854   3
   1  13   6 0.87303 8.26635   7
   1  13   6 -4.9621 6.15284   6
  -2 -13  -6 4.70735 6.79694   5
  -2 -13  -6 8.59244 4.90790   3
   2  13   6 0.82386 8.73368   6
   2  13   6 1.03495 8.93292   7
  -3 -13  -6 9.45589 5.34175   3
  -3 -13  -6 3.04876 4.79031   5
   3  13   6 10.5066 8.88113   7
  -4 -13  -6 0.46516 6.52302   5
  -4 -13  -6 -2.0991 5.05658   3
   4  13   6 -6.1926 6.52217   7
  -5 -13  -6 5.05286 6.96253   5
  -5 -13  -6 12.0168 6.11824   3
   5  13   6 5.76221 6.69206   7
   4   7  -7 23.2317 6.77249   7
   4   7  -7 30.9670 6.55529   6
  -4  -7   7 20.0505 8.57943   2
   3   7  -7 3.34318 5.21580   7
   3   7  -7 6.19385 5.19135   6
  -3  -7   7 7.94294 5.89062   2
   2   7  -7 9.32906 5.44582   7
   2   7  -7 13.7769 5.75156   6
  -2  -7   7 10.1970 8.12360   2
   1   7  -7 1.35875 5.02511   7
   1   7  -7 2.21120 5.41876   6
  -1  -7   7 -1.0981 7.62071   2
   0   7  -7 14.3087 5.92341   7
   0   7  -7 22.6948 8.15702   6
   0  -7   7 15.2401 7.93601   2
  -1   7  -7 5.61645 8.02350   6
   1  -7   7 0.53017 5.85714   2
   6   6  -7 7.05762 5.06232   6
   6   6  -7 9.90334 6.59474   7
  -6  -6   7 5.44149 5.20083   2
  -6  -6   7 5.08204 6.07693   3
   5   6  -7 -0.6380 5.98084   6
   5   6  -7 3.82770 5.88685   7
  -5  -6   7 -0.5623 6.99694   2
   4   6  -7 1.61645 4.26057   6
   4   6  -7 3.09768 4.26539   7
  -4  -6   7 -3.1207 6.50592   2
   3   6  -7 14.3407 5.80160   7
   3   6  -7 8.02837 4.43926   6
  -3  -6   7 7.96599 6.64394   2
   2   6  -7 3.11005 4.42278   6
   2   6  -7 1.52890 4.27816   7
  -2  -6   7 -2.0362 4.41524   2
   1   6  -7 46.9712 5.52447   7
   1   6  -7 43.1642 5.72640   6
  -1  -6   7 38.3049 5.99141   2
   0   6  -7 6.07606 4.58054   6
   0   6  -7 8.17196 4.72065   7
   0  -6   7 4.23353 6.73969   2
  -1   6  -7 5.90696 4.98048   6
  -1   6  -7 1.21424 4.54859   7
   1  -6   7 -0.7321 4.69589   2
  -2   6  -7 14.1514 5.39921   7
  -2   6  -7 20.2190 7.45466   6
   2  -6   7 6.99007 7.67816   2
  -3   6  -7 17.3574 6.33371   7
  -3   6  -7 22.0183 6.22650   6
   3  -6   7 15.0346 6.05716   2
  -8  -5   7 9.76682 6.10490   2
  -8  -5   7 7.94307 6.17939   3
  -7  -5   7 2.35420 6.15019   3
  -7  -5   7 -2.8665 7.25863   2
   6   5  -7 2.09095 4.89473   7
  -6  -5   7 0.43800 4.40261   2
   5   5  -7 7.78554 4.62004   6
   5   5  -7 7.43633 4.08567   7
  -5  -5   7 1.17547 4.50712   2
   4   5  -7 2.00127 3.36816   6
   4   5  -7 5.25810 3.46449   7
  -4  -5   7 -4.0717 4.20414   2
   3   5  -7 0.46083 3.44944   6
   3   5  -7 5.23517 3.25492   7
  -3  -5   7 -1.0659 3.99965   2
   2   5  -7 34.2901 13.5116   6
   2   5  -7 38.9627 13.0465   7
  -2  -5   7 35.1376 6.59310   2
   1   5  -7 4.49528 3.56639   7
   1   5  -7 7.47861 4.95023   6
  -1  -5   7 1.33197 3.99780   2
   0   5  -7 -3.1347 5.01998   6
   0   5  -7 0.11381 3.56785   7
   0  -5   7 -5.1085 5.70153   2
  -1   5  -7 100.674 6.46364   7
  -1   5  -7 92.1686 6.36264   6
   1  -5   7 83.2214 8.07893   2
  -2   5  -7 20.5370 6.36882   6
  -2   5  -7 9.78767 4.60999   7
   2  -5   7 1.84889 4.42567   2
  -3   5  -7 10.4069 4.79008   6
   3  -5   7 6.67101 7.37810   2
  -4   5  -7 7.73456 7.10847   6
   4  -5   7 0.86986 5.35081   2
  -5   5  -7 1.67475 5.57855   6
   5  -5   7 0.20332 7.43641   2
   8   4  -7 4.32720 5.52727   9
  -8  -4   7 8.23891 5.25283   2
  -8  -4   7 -1.8675 7.34341   3
   7   4  -7 3.35368 4.92104   9
  -7  -4   7 13.0969 5.23449   3
  -7  -4   7 -1.8516 6.59933   2
   6   4  -7 6.16498 4.76114   9
   6   4  -7 3.39232 2.97014   7
  -6  -4   7 5.79454 4.62398   2
   5   4  -7 3.72582 4.44097   9
   5   4  -7 -2.1660 3.84430   7
   5   4  -7 -0.1476 2.84812   6
  -5  -4   7 1.39775 4.12690   2
   4   4  -7 1.29964 2.94546   9
   4   4  -7 -0.5818 3.75777   6
   4   4  -7 3.18082 3.90519   7
  -4  -4   7 1.53558 3.92248   2
   3   4  -7 1.39208 2.84194   6
   3   4  -7 3.66921 2.74514   7
  -3  -4   7 0.32653 5.27511   2
  -3  -4   7 0.33574 3.51656   4
   2   4  -7 4.81130 3.71313   7
   2   4  -7 6.69744 16.1629   6
  -2  -4   7 3.56364 3.27860   4
  -2  -4   7 8.33718 3.98749   2
   1   4  -7 1.85987 3.72104   7
   1   4  -7 2.93738 3.94311   6
  -1  -4   7 1.03147 3.01310   4
  -1  -4   7 6.34646 5.18653   2
   0   4  -7 37.9155 4.21584   7
   0   4  -7 26.7807 3.80467   6
   0  -4   7 25.5203 3.76965   4
   0  -4   7 34.2608 6.07157   2
  -1   4  -7 6.98037 3.43861   6
  -1   4  -7 7.47227 3.49654   7
   1  -4   7 1.85034 3.12419   4
   1  -4   7 4.88559 5.27892   2
  -2   4  -7 1.42959 4.84437   6
   2  -4   7 5.06438 3.57141   8
   2  -4   7 5.04390 3.74600  10
   2  -4   7 6.01480 7.36446   2
   2  -4   7 -1.1545 3.41378   4
  -3   4  -7 73.4170 7.06847   6
   3  -4   7 65.0833 5.67581  10
   3  -4   7 62.2816 5.19715   4
   3  -4   7 65.4660 5.71091   8
   3  -4   7 81.2714 6.57573   2
  -4   4  -7 25.5208 5.14492   6
   4  -4   7 20.1440 5.04674  10
   4  -4   7 23.0824 5.03381   8
   4  -4   7 27.2700 5.20474   4
   4  -4   7 27.7657 6.81432   2
  -5   4  -7 39.0477 5.93706   6
   5  -4   7 42.3061 7.42610   2
  -6   4  -7 38.3126 6.53676   6
   6  -4   7 43.3902 6.48253   2
   9   3  -7 0.35375 5.54858   9
  -9  -3   7 -0.5786 5.95583   2
   8   3  -7 6.85978 3.84964   9
  -8  -3   7 5.96493 5.20711   2
  -8  -3   7 2.49957 6.30118   3
   7   3  -7 -0.6617 4.58444   9
  -7  -3   7 -0.9367 6.36434   2
   6   3  -7 15.5750 4.89304   7
   6   3  -7 2.09681 4.38897   9
  -6  -3   7 3.27161 3.80371   2
   5   3  -7 0.05908 3.18525   7
   5   3  -7 -2.0010 2.38425   6
   5   3  -7 -3.3852 3.89388   9
  -5  -3   7 1.49376 3.56764   2
   4   3  -7 2.99308 3.00424   7
   4   3  -7 4.89338 3.18006   6
   4   3  -7 -1.3607 2.60284   9
  -4  -3   7 -1.2204 3.48422   2
   3   3  -7 -0.6347 1.92047   7
   3   3  -7 -0.1740 2.13967   6
   3   3  -7 -6.8455 3.50715   9
  -3  -3   7 0.56754 4.74335   2
   2   3  -7 10.9152 2.48869   7
   2   3  -7 12.7466 2.71057   6
   2   3  -7 13.8834 3.69397   9
  -2  -3   7 8.45600 3.48668   4
  -2  -3   7 -0.3887 4.72169   2
   1   3  -7 36.5576 3.48951   9
   1   3  -7 40.2442 4.21896   7
   1   3  -7 38.6873 3.50078   6
  -1  -3   7 32.1288 3.13475   4
  -1  -3   7 43.3163 4.67826   2
   0   3  -7 19.7964 3.85223   7
   0   3  -7 21.6693 3.25909   6
   0  -3   7 21.0688 5.08449   2
   0  -3   7 12.3720 3.30652   4
  -1   3  -7 4.83227 2.78908   6
   1  -3   7 4.32427 3.19485   4
   1  -3   7 5.37434 4.71147   2
  -2   3  -7 14.3258 3.39934   6
   2  -3   7 17.2164 5.20490   2
   2  -3   7 7.25770 3.45669   4
  -3   3  -7 5.14203 3.29096   6
   3  -3   7 2.61709 3.59589   8
   3  -3   7 1.46058 3.74610  10
   3  -3   7 4.29997 3.68725   4
   3  -3   7 0.77193 4.89044   2
  -4   3  -7 9.82519 6.80004   6
   4  -3   7 7.00067 5.52882   2
   4  -3   7 3.75895 3.03928   8
   4  -3   7 3.80241 4.13069   4
   4  -3   7 4.10957 3.25566  10
  -5   3  -7 143.337 9.92450   6
   5  -3   7 146.096 10.7626  10
   5  -3   7 140.280 7.82702   8
   5  -3   7 150.445 11.0875   2
   5  -3   7 144.224 8.92411   4
  -6   3  -7 -0.7058 6.61920   6
   6  -3   7 7.43355 5.50371   8
   6  -3   7 0.14867 5.57910  10
   6  -3   7 3.56921 6.14050   2
   6  -3   7 4.09121 5.34914   4
  -7   3  -7 26.0588 6.04396   6
   7  -3   7 15.6269 8.32236  10
   7  -3   7 8.68032 4.51389   4
   7  -3   7 15.1853 5.38538   2
   7  -3   7 14.6371 7.06036   8
   9   2  -7 0.55671 3.82210   9
  -9  -2   7 5.25289 8.31109   2
   8   2  -7 9.93105 3.66206   9
  -8  -2   7 8.35012 7.30443   2
  -8  -2   7 5.86298 5.59740   3
   7   2  -7 10.1585 4.48292   9
  -7  -2   7 4.66638 6.23385   2
   6   2  -7 15.1628 3.00672   7
   6   2  -7 10.1750 3.97316   9
  -6  -2   7 11.1010 4.12559   2
   5   2  -7 16.2995 2.87728   7
   5   2  -7 7.15951 3.63994   9
  -5  -2   7 13.3234 3.89047   2
   4   2  -7 10.7500 2.47971   7
   4   2  -7 11.4475 2.59843   6
   4   2  -7 11.6958 3.54364   9
  -4  -2   7 8.36420 3.50974   2
   3   2  -7 11.0649 2.07517   6
   3   2  -7 11.1609 2.03360   7
   3   2  -7 9.12349 3.39690   9
  -3  -2   7 9.94266 4.62969   2
   2   2  -7 28.3161 3.27256   6
   2   2  -7 30.4618 2.67900   7
   2   2  -7 27.4511 3.09352   9
  -2  -2   7 25.1233 4.76943   2
  -2  -2   7 24.4099 3.95731   4
   1   2  -7 17.9273 3.40577   9
  -1  -2   7 19.0395 4.57485   2
  -1  -2   7 16.9614 2.75170   4
   0   2  -7 2.16240 2.79630   9
   0   2  -7 5.65931 2.98646   6
   0  -2   7 2.59579 2.87940   2
   0  -2   7 2.22008 3.00932   4
  -1   2  -7 -0.0567 1.99196   9
  -1   2  -7 -0.7128 3.02533   6
   1  -2   7 -3.9432 3.07970   4
   1  -2   7 18.5063 9.99979   2
  -2   2  -7 8.47023 3.57797   6
   2  -2   7 10.0346 3.25857   2
   2  -2   7 7.20990 3.37455   4
  -3   2  -7 -1.3243 1.52248   1
  -3   2  -7 3.12992 3.99129   6
   3  -2   7 0.27036 2.37879   8
   3  -2   7 1.37918 3.45615   4
   3  -2   7 2.47276 4.27110   2
   3  -2   7 1.26039 2.54057  10
  -4   2  -7 7.37386 4.39079   6
  -4   2  -7 5.74497 1.88650   1
   4  -2   7 4.67138 3.94125   4
   4  -2   7 5.32719 3.84575   8
   4  -2   7 3.41533 4.03392  10
   4  -2   7 4.92365 4.90688   2
  -5   2  -7 9.40726 5.07457   6
   5  -2   7 9.70972 4.48651   4
   5  -2   7 10.7136 4.43438   8
   5  -2   7 22.1936 5.54754   2
   5  -2   7 11.4997 4.69671  10
  -6   2  -7 1.56767 5.50594   6
   6  -2   7 4.86255 5.05437   4
   6  -2   7 4.99737 4.07723   2
   6  -2   7 4.79959 4.96766   8
   6  -2   7 3.43688 5.13199  10
  -7   2  -7 30.2257 5.47588   6
   7  -2   7 17.5097 6.30981  10
   7  -2   7 19.3493 4.67322   4
   7  -2   7 30.7528 6.80170   2
   7  -2   7 16.6327 6.05473   8
  -8   2  -7 1.12160 5.10453   6
   8  -2   7 0.96729 4.89332  10
   8  -2   7 3.47986 4.56277   8
   8  -2   7 -0.8984 6.49613   4
   8  -2   7 -2.5355 6.46406   2
  10   1  -7 2.78536 3.97899   9
 -10  -1   7 -0.9284 8.92239   2
  -9  -1   7 28.1868 28.6881   2
   8   1  -7 47.2952 4.39331   9
  -8  -1   7 38.9732 4.56011   3
  -8  -1   7 47.5400 4.43886   1
  -8  -1   7 40.4734 7.67754   2
   7   1  -7 4.58225 4.09715   9
  -7  -1   7 -6.0165 5.84305   2
  -7  -1   7 0.84146 3.36095   1
   6   1  -7 3.37851 2.72604   9
  -6  -1   7 6.23396 2.91565   1
  -6  -1   7 3.58578 3.91826   2
   5   1  -7 45.9498 5.01582   7
   5   1  -7 52.8732 3.91567   9
  -5  -1   7 60.1233 5.30280   2
  -5  -1   7 51.7962 3.41753   1
   4   1  -7 2.56644 1.70591   7
   4   1  -7 0.15462 1.23099   6
   4   1  -7 1.66402 3.36591   9
  -4  -1   7 0.67593 1.63668   1
  -4  -1   7 3.10502 3.18923   2
   3   1  -7 38.1311 2.54434   7
   3   1  -7 40.7619 2.53859   6
   3   1  -7 35.1585 3.70269   9
  -3  -1   7 26.5463 3.44956   6
  -3  -1   7 31.3796 2.13404   1
  -3  -1   7 41.6805 11.2961   2
   2   1  -7 75.1244 4.53871   7
   2   1  -7 66.7351 4.15312   9
   2   1  -7 65.2789 3.38659   6
  -2  -1   7 58.5468 5.21398   6
  -2  -1   7 69.8023 5.71312   2
   1   1  -7 0.91501 2.61185   9
   1   1  -7 12.5567 1.93268   7
   1   1  -7 9.69086 2.23776   6
  -1  -1   7 7.88118 3.37556   4
  -1  -1   7 5.44859 2.79016   2
   0   1  -7 14.6897 2.91401   9
   0   1  -7 22.4295 2.39290   6
   0  -1   7 13.5134 3.34813   4
   0  -1   7 22.4342 7.12109   2
  -1   1  -7 213.540 8.25536   6
  -1   1  -7 201.346 7.90545   9
   1  -1   7 217.730 10.2751   2
   1  -1   7 205.279 10.7530   4
  -2   1  -7 1.64024 2.31831   9
  -2   1  -7 3.42119 5.68909   6
  -2   1  -7 4.85658 0.95407   1
  -2   1  -7 4.89951 0.90403   1
   2  -1   7 1.49275 2.66547   2
   2  -1   7 5.50393 3.30290   4
  -3   1  -7 2.39673 1.25349   1
  -3   1  -7 1.98192 2.36476   6
   3  -1   7 1.69008 3.29720   4
   3  -1   7 0.51063 2.67980   2
  -4   1  -7 0.02527 1.79863   1
  -4   1  -7 -0.9549 3.56385   6
   4  -1   7 3.88279 3.85320  10
   4  -1   7 0.36060 3.65773   8
   4  -1   7 -1.2058 15.3082   2
   4  -1   7 2.17042 3.74384   4
  -5   1  -7 26.1012 4.98128   6
  -5   1  -7 32.9944 3.21097   1
   5  -1   7 31.0295 4.29789   2
   5  -1   7 28.4644 3.87688   8
   5  -1   7 23.2687 3.79795  10
   5  -1   7 35.5016 4.92959   4
  -6   1  -7 16.2458 3.48495   1
  -6   1  -7 13.1205 5.10573   6
   6  -1   7 23.2109 5.34702   2
   6  -1   7 18.8696 6.01804   4
   6  -1   7 19.0165 5.59798  10
   6  -1   7 17.3861 4.99507   8
  -7   1  -7 5.52607 5.43372   6
  -7   1  -7 5.61629 2.80890   1
   7  -1   7 -1.6081 5.33072   4
   7  -1   7 15.3430 5.59946   8
   7  -1   7 4.68179 5.61885  10
   7  -1   7 8.60992 5.43133   2
  -8   1  -7 22.8382 10.7160   6
   8  -1   7 -0.9735 4.17225   4
   8  -1   7 -4.5989 5.57397   2
   8  -1   7 -1.6639 4.15712   8
   8  -1   7 -0.2291 4.23782  10
  10   0  -7 7.88073 5.49170   9
 -10   0   7 1.81455 4.63525   1
 -10   0   7 -0.3703 6.48388   2
   9   0  -7 68.5491 5.14123   9
  -9   0   7 66.6096 6.57922   1
  -9   0   7 44.9445 6.93537   2
   8   0  -7 -0.7676 2.97971   9
   8   0  -7 -2.1354 3.56216   5
  -8   0   7 2.87265 4.73186   2
  -8   0   7 -0.8297 4.09468   1
   7   0  -7 9.88929 4.07771   9
   7   0  -7 18.7368 3.76259   5
  -7   0   7 8.04481 2.83934   1
  -7   0   7 8.08627 4.25546   2
   6   0  -7 103.880 6.03269   9
   6   0  -7 94.9267 6.88623   5
  -6   0   7 90.1216 9.22797   2
  -6   0   7 103.509 5.58542   1
   5   0  -7 32.0305 3.67728   1
   5   0  -7 34.7618 4.08487   9
   5   0  -7 31.0469 3.82190   5
  -5   0   7 26.9205 3.22596   1
  -5   0   7 33.8744 5.40793   2
   4   0  -7 8.48125 2.79885   5
   4   0  -7 13.2462 1.41345   7
   4   0  -7 10.5298 3.26941   9
   4   0  -7 11.3623 2.09266   1
  -4   0   7 11.8222 7.93051   2
  -4   0   7 9.90999 2.22134   1
  -4   0   7 8.92763 1.55467   6
   3   0  -7 471.871 18.4715   9
   3   0  -7 455.154 28.0241   1
   3   0  -7 472.693 15.7837   5
   3   0  -7 459.538 21.1490   7
   3   0  -7 460.532 29.1426   6
  -3   0   7 483.388 38.1166   6
  -3   0   7 488.721 20.8228   2
  -3   0   7 476.694 34.3459   1
   2   0  -7 2.44476 0.96887   1
   2   0  -7 2.93395 1.02937   6
   2   0  -7 0.87444 2.06842   5
   2   0  -7 2.31291 1.27410   7
   2   0  -7 -0.0803 1.85157   9
  -2   0   7 -0.6041 3.40257   2
  -2   0   7 0.58770 1.06364   1
   1   0  -7 3.30975 3.46722   7
   1   0  -7 2.97912 1.84801   9
   1   0  -7 3.06124 3.62252   6
   1   0  -7 1.56587 2.07692   5
  -1   0   7 4.24768 2.50723   2
  -1   0   7 3.39044 3.23180   4
   0   0  -7 69.9192 3.66749   9
   0   0  -7 73.5336 4.19806   6
   0   0   7 73.1888 4.45106   2
   0   0   7 71.1365 3.98512   4
  -1   0  -7 36.4290 2.03647   1
  -1   0  -7 30.5267 2.44194   9
  -1   0  -7 38.2317 4.74737   6
  -1   0  -7 36.4111 1.54589   1
   1   0   7 35.9917 3.85233   4
   1   0   7 31.8362 4.89076   2
  -2   0  -7 0.34713 1.97433   9
  -2   0  -7 -0.1332 0.94253   1
  -2   0  -7 2.05001 1.71663   6
  -2   0  -7 1.19455 0.94413   1
   2   0   7 -1.0782 3.19359   2
   2   0   7 2.53660 3.08631   4
  -3   0  -7 14.4413 3.22152   6
  -3   0  -7 12.7963 1.71388   1
  -3   0  -7 11.6303 2.79708   3
  -3   0  -7 10.1733 2.16627   9
   3   0   7 7.35118 3.53118   4
   3   0   7 20.3912 3.94252   2
   3   0   7 20.5243 7.13334   5
   3   0   7 15.8429 5.42086   9
  -4   0  -7 -1.5629 3.23494   3
  -4   0  -7 0.02671 2.13133   6
  -4   0  -7 0.55405 1.78089   1
   4   0   7 -2.4932 3.52630   4
   4   0   7 -0.6160 2.06390   9
   4   0   7 0.21701 2.18563   5
   4   0   7 1.00647 3.51038   2
  -5   0  -7 3.28288 2.40731   1
  -5   0  -7 6.18165 2.92640   6
  -5   0  -7 0.80900 3.49463   3
   5   0   7 1.41500 2.86441   4
   5   0   7 5.68064 3.89445   2
   5   0   7 0.87724 2.68016   8
   5   0   7 4.46257 3.01080  10
  -6   0  -7 10.7835 4.07853   3
  -6   0  -7 22.8065 4.99195   6
  -6   0  -7 22.4047 3.59958   1
   6   0   7 19.5637 4.98770   8
   6   0   7 17.1532 3.77072   4
   6   0   7 15.1293 5.05689  10
   6   0   7 15.9499 4.64111   2
  -7   0  -7 2.63255 2.98665   3
  -7   0  -7 1.46889 3.64433   1
  -7   0  -7 12.7971 5.41571   6
   7   0   7 6.19882 4.75610   2
   7   0   7 4.93790 3.76233   4
   7   0   7 3.70851 3.70245  10
   7   0   7 6.00539 3.74326   8
  -8   0  -7 -3.0870 3.38662   3
  -8   0  -7 1.70720 4.32649   1
  -8   0  -7 -1.7060 5.81297   6
   8   0   7 -1.3268 5.73355   4
   8   0   7 2.56132 4.17002   8
   8   0   7 2.09303 4.40275  10
   8   0   7 -4.8638 4.79685   2
  -9   0  -7 6.93455 7.14659   6
  -9   0  -7 0.00000 4.76868   1
   9   0   7 4.18558 4.77477   4
   9   0   7 -0.6006 5.44926   2
   9   0   7 -6.2999 6.63822   8
   9   0   7 0.28883 7.13728  10
  10  -1  -7 45.4606 6.30719   9
  10  -1  -7 51.7637 7.48126   5
 -10   1   7 49.9666 7.77624   2
 -10   1   7 26.0480 7.28307   1
   9  -1  -7 0.41343 4.82727   9
   9  -1  -7 3.21435 4.01598   5
  -9   1   7 -1.7008 5.29782   2
  -9   1   7 -1.6382 5.41465   1
   8  -1  -7 2.46078 2.98657   9
   8  -1  -7 4.87468 3.61218   5
  -8   1   7 1.58140 4.52551   2
  -8   1   7 -2.4651 4.45522   1
   7  -1  -7 61.2887 5.04017   5
   7  -1  -7 52.6107 4.13633   9
  -7   1   7 42.4839 4.96686   1
  -7   1   7 58.7027 5.99499   2
   6  -1  -7 79.3903 19.2104   5
   6  -1  -7 80.4873 19.1486   9
  -6   1   7 65.3749 5.03103   1
  -6   1   7 62.2720 5.56658   2
   5  -1  -7 60.2192 5.01101   5
   5  -1  -7 60.4913 4.37505   9
  -5   1   7 73.9633 7.60241   2
  -5   1   7 54.6328 4.26531   1
   4  -1  -7 227.988 14.9205   1
   4  -1  -7 241.269 8.39304   5
   4  -1  -7 240.361 7.08685   9
  -4   1   7 250.617 11.7580   2
  -4   1   7 245.529 11.2134   1
   3  -1  -7 15.4785 3.38207   5
   3  -1  -7 15.6208 1.06205   7
   3  -1  -7 14.0962 3.01882   9
   3  -1  -7 14.2276 1.93195   1
  -3   1   7 16.5743 2.30361   1
  -3   1   7 16.5675 3.21248   2
   2  -1  -7 7.00221 2.00303   9
   2  -1  -7 3.38826 0.90375   6
   2  -1  -7 4.17921 1.32887   1
   2  -1  -7 5.33606 2.86229   5
   2  -1  -7 2.46405 0.82448   7
  -2   1   7 1.55920 2.32300   2
  -2   1   7 4.74118 1.57013   1
   1  -1  -7 284.367 39.1669   6
   1  -1  -7 282.193 12.0058   5
   1  -1  -7 302.189 41.1995   7
   1  -1  -7 287.099 10.0875   9
   1  -1  -7 269.687 18.6628   1
  -1   1   7 281.586 11.9371   2
  -1   1   7 285.225 17.5417   1
   0  -1  -7 33.1747 2.16952   6
   0  -1  -7 30.3497 2.45126   9
   0  -1  -7 39.4793 3.22494   3
   0  -1  -7 28.0675 3.29337   5
   0  -1  -7 30.7720 2.35096   1
   0   1   7 26.2942 3.65687   2
   0   1   7 24.1238 2.99553   4
  -1  -1  -7 128.483 6.02327   5
  -1  -1  -7 131.530 4.69464   6
  -1  -1  -7 122.253 7.98137   1
  -1  -1  -7 128.827 4.23411   9
  -1  -1  -7 125.480 6.37196   3
   1   1   7 124.902 5.75482   4
   1   1   7 124.960 5.49804   2
  -2  -1  -7 104.634 3.79616   6
  -2  -1  -7 113.528 4.79244   1
  -2  -1  -7 98.0767 3.61929   9
  -2  -1  -7 114.441 6.39346   3
   2   1   7 104.383 4.86360   9
   2   1   7 110.245 5.59884   5
   2   1   7 103.785 5.09775   4
   2   1   7 105.784 5.29747   2
  -3  -1  -7 40.0684 2.44443   1
  -3  -1  -7 36.6395 3.46085   6
  -3  -1  -7 32.8021 2.06811   9
  -3  -1  -7 34.9069 4.03529   3
  -3  -1  -7 39.9800 2.48099   1
   3   1   7 32.2638 3.37328   4
   3   1   7 39.4266 4.00896   2
   3   1   7 31.9644 2.75613   9
   3   1   7 36.9683 2.99431   5
  -4  -1  -7 48.7870 2.53089   9
  -4  -1  -7 53.6383 4.21315   6
  -4  -1  -7 40.3140 3.69746   3
  -4  -1  -7 54.8600 3.19416   1
   4   1   7 45.7227 3.85392   4
   4   1   7 47.0984 2.79742   9
   4   1   7 43.9472 3.70294   5
   4   1   7 55.1518 3.88716   2
  -5  -1  -7 35.8717 4.43897   3
  -5  -1  -7 44.2811 4.46342   6
  -5  -1  -7 50.9582 3.73834   1
   5   1   7 34.4509 4.95914  10
   5   1   7 31.8287 4.66387   8
   5   1   7 52.5434 4.65212   2
   5   1   7 45.5635 2.88636   5
   5   1   7 30.9889 4.52979   4
  -6  -1  -7 -1.6261 3.79160   6
  -6  -1  -7 0.21358 3.66757   3
  -6  -1  -7 4.51329 3.09645   1
   6   1   7 1.01805 3.03462  10
   6   1   7 -1.1958 3.47387   2
   6   1   7 0.19930 2.99313   8
   6   1   7 0.74393 2.94609   4
  -7  -1  -7 13.1536 3.39004   3
  -7  -1  -7 8.70211 4.74396   6
  -7  -1  -7 19.3906 3.30677   1
   7   1   7 4.80003 3.45787   8
   7   1   7 10.0989 3.25807   2
   7   1   7 8.27046 5.05709   4
   7   1   7 8.86316 3.75710  10
  -8  -1  -7 4.46128 4.63826   1
  -8  -1  -7 2.43463 5.24964   6
  -8  -1  -7 0.16079 4.41615   3
   8   1   7 10.9425 5.81896   4
   8   1   7 9.89045 5.57669   8
   8   1   7 3.35736 4.34420   2
   8   1   7 10.4617 5.90713  10
  -9  -1  -7 0.18591 4.39146   6
  -9  -1  -7 5.06240 5.47102   1
   9   1   7 3.08334 5.03045   2
   9   1   7 -1.7553 4.35739   8
   9   1   7 0.39569 4.44682  10
   9   1   7 -0.2262 4.24724   4
  10  -2  -7 3.98959 4.72284   5
  10  -2  -7 3.71063 4.24880   9
 -10   2   7 1.65748 5.11239   1
 -10   2   7 0.15461 8.90615   2
   9  -2  -7 9.02301 4.93086   9
   9  -2  -7 4.13382 5.57335   5
  -9   2   7 -1.3193 4.03994   1
  -9   2   7 3.94224 5.57948   2
   8  -2  -7 140.734 7.88259   5
   8  -2  -7 128.832 6.44155   9
  -8   2   7 160.402 69.0391   1
  -8   2   7 126.531 8.20000   2
   7  -2  -7 0.88638 2.64284   9
   7  -2  -7 2.05558 4.24409   5
  -7   2   7 -3.3096 3.01820   1
  -7   2   7 3.70136 5.78549   2
   6  -2  -7 187.440 20.7124   9
   6  -2  -7 202.037 27.9529   5
  -6   2   7 191.061 11.0571   2
  -6   2   7 187.808 10.2365   1
   5  -2  -7 290.417 12.3540   5
   5  -2  -7 302.385 9.44095   9
  -5   2   7 289.044 14.1860   2
  -5   2   7 315.246 13.6003   1
  -5   2   7 287.386 16.7094   3
   4  -2  -7 5.96595 3.32004   5
   4  -2  -7 9.83766 2.98938   9
  -4   2   7 11.2995 2.29346   1
  -4   2   7 16.7761 7.32954   2
   3  -2  -7 508.538 12.5543   9
   3  -2  -7 516.206 11.3916   5
   3  -2  -7 511.729 17.4168   1
  -3   2   7 548.232 24.1781   2
  -3   2   7 544.172 21.5052   1
   2  -2  -7 314.027 8.97849   1
   2  -2  -7 318.397 9.60763   5
   2  -2  -7 326.495 9.05639   9
  -2   2   7 303.955 14.1678   2
  -2   2   7 317.935 13.4010   1
   1  -2  -7 2.97433 0.87656   6
   1  -2  -7 3.08322 1.71047   3
   1  -2  -7 1.14565 1.38493   1
   1  -2  -7 4.40991 2.32850   9
   1  -2  -7 3.59761 2.60586   5
  -1   2   7 0.37103 2.09031   2
  -1   2   7 1.71537 1.18256   1
   0  -2  -7 120.191 2.91915   6
   0  -2  -7 119.730 4.19072   9
   0  -2  -7 112.683 4.70851   5
   0  -2  -7 115.384 5.10012   3
   0  -2  -7 114.111 3.88610   1
   0   2   7 119.965 5.03103   4
   0   2   7 120.333 5.16133   2
  -1  -2  -7 258.378 8.15603   9
  -1  -2  -7 249.973 6.84901   5
  -1  -2  -7 248.920 7.47265   3
  -1  -2  -7 247.292 13.5872   1
  -1  -2  -7 242.676 17.1030   2
  -1  -2  -7 256.378 6.75138   6
   1   2   7 251.324 12.8798   2
   1   2   7 254.928 11.8250   4
   1   2   7 267.723 15.8643   5
   1   2   7 250.951 14.3106   9
  -2  -2  -7 11.1515 2.05850   9
  -2  -2  -7 9.79965 2.34823   5
  -2  -2  -7 13.1654 1.76957   6
  -2  -2  -7 12.8594 1.60095   1
  -2  -2  -7 9.68084 2.99126   3
   2   2   7 12.1643 2.53561   4
   2   2   7 11.2494 8.44571   2
   2   2   7 13.6142 2.51893   5
   2   2   7 10.3618 1.63953   9
  -3  -2  -7 310.555 7.39518   5
  -3  -2  -7 312.739 16.3471   9
  -3  -2  -7 311.711 7.94887   3
  -3  -2  -7 328.256 17.9506   1
   3   2   7 312.936 13.1004   2
   3   2   7 303.887 12.5909   5
   3   2   7 309.405 9.77368   4
  -4  -2  -7 205.760 8.15956   3
  -4  -2  -7 205.355 6.15171   9
   4   2   7 203.785 12.2466   5
   4   2   7 210.354 8.57365   4
   4   2   7 216.792 9.64505   2
  -5  -2  -7 3.61694 1.23557   9
  -5  -2  -7 7.17203 2.07190   1
  -5  -2  -7 7.75252 3.57011   3
   5   2   7 9.11522 1.87176   5
   5   2   7 4.25490 3.88979  10
   5   2   7 3.76912 3.80110   4
   5   2   7 17.0454 67.4143   2
   5   2   7 3.36381 3.66993   8
  -6  -2  -7 30.3289 3.88561   1
  -6  -2  -7 27.0611 3.65793   3
   6   2   7 31.3010 3.97722   2
   6   2   7 34.0052 4.95549   4
   6   2   7 24.6906 3.91195  10
   6   2   7 33.6515 3.93031   8
  -7  -2  -7 18.7229 4.59613   3
  -7  -2  -7 28.6786 7.33296   1
   7   2   7 20.4514 5.10105   4
   7   2   7 23.8287 4.03092   8
   7   2   7 22.0173 4.06007  10
  -8  -2  -7 0.62859 3.24237   1
  -8  -2  -7 2.34492 3.08850   3
   8   2   7 3.19573 3.77496   2
   8   2   7 0.08619 5.34307  10
   8   2   7 -4.6546 5.07440   8
   8   2   7 1.94332 5.37589   4
  -9  -2  -7 24.8315 4.48645   3
  -9  -2  -7 36.5009 5.69250   1
   9   2   7 33.6524 5.35442   2
   9   2   7 31.9249 5.42141   4
   9   2   7 23.2660 6.65630   8
   9   2   7 24.1737 6.91230  10
 -10  -2  -7 -2.0480 4.62907   1
  10   2   7 4.02488 7.06536   4
  10   2   7 4.24960 7.00574   8
  10   2   7 8.14789 7.42490  10
  10  -3  -7 4.13821 6.00315   5
  10  -3  -7 1.40218 5.52349   9
 -10   3   7 9.54424 8.17730   1
   9  -3  -7 104.314 7.38478   9
   9  -3  -7 122.979 8.67281   5
  -9   3   7 86.2720 8.54401   1
   8  -3  -7 14.5829 3.35262   9
   8  -3  -7 14.6077 3.97616   5
  -8   3   7 10.0901 7.87546   1
   7  -3  -7 7.96591 4.36311   5
   7  -3  -7 7.28770 3.88627   9
  -7   3   7 0.81490 4.94319   1
   6  -3  -7 910.084 36.7457   5
   6  -3  -7 856.607 53.0106   9
  -6   3   7 883.774 45.1434   2
  -6   3   7 924.115 53.3310   1
   5  -3  -7 50.3866 4.20923   9
   5  -3  -7 50.5697 4.90470   5
  -5   3   7 63.4386 5.07849   2
  -5   3   7 48.8502 5.16171   1
  -5   3   7 44.3745 3.91665   3
   4  -3  -7 308.820 12.9101   9
   4  -3  -7 279.555 16.1733   5
  -4   3   7 255.542 18.1328   3
  -4   3   7 292.078 10.6435   1
  -4   3   7 267.903 19.3804   2
   3  -3  -7 344.467 11.7706   1
   3  -3  -7 341.593 10.2165   5
   3  -3  -7 345.335 7.42710   9
  -3   3   7 303.727 19.0069   3
  -3   3   7 351.648 14.1285   2
  -3   3   7 346.192 11.5062   1
   2  -3  -7 7.39308 1.97840   9
   2  -3  -7 7.74605 2.09146   1
   2  -3  -7 6.48703 2.95290   5
   2  -3  -7 6.16020 5.64350   3
  -2   3   7 4.68546 2.48620   1
  -2   3   7 4.35773 1.79819   3
  -2   3   7 8.27652 3.29425   2
   1  -3  -7 284.887 7.00736   5
   1  -3  -7 274.309 11.4942   7
   1  -3  -7 278.734 12.0373   6
   1  -3  -7 270.058 5.77307   9
   1  -3  -7 270.091 10.6547   6
   1  -3  -7 281.147 6.92521   3
   1  -3  -7 275.950 18.0407   1
  -1   3   7 286.243 16.5044   2
  -1   3   7 297.011 13.0291   1
   0  -3  -7 633.756 21.2432   6
   0  -3  -7 641.175 19.0763   1
   0  -3  -7 686.304 16.8497   7
   0  -3  -7 642.830 9.82720   9
   0  -3  -7 632.587 12.9696   5
   0  -3  -7 634.746 22.3564   3
   0   3   7 642.188 29.0146   2
   0   3   7 641.204 25.7425   1
   0   3   7 637.754 19.3985   4
  -1  -3  -7 141.081 6.34506   1
  -1  -3  -7 132.180 4.65899   9
  -1  -3  -7 137.270 5.14858   3
  -1  -3  -7 139.679 6.33298   2
  -1  -3  -7 134.237 5.75049   5
  -1  -3  -7 165.675 4.46645   7
   1   3   7 140.665 8.63244   4
   1   3   7 132.562 10.4128   5
   1   3   7 146.212 6.56049   2
  -2  -3  -7 426.046 9.75056   9
  -2  -3  -7 428.832 24.4962   2
  -2  -3  -7 420.263 8.52710   3
  -2  -3  -7 430.270 15.0340   1
  -2  -3  -7 439.259 11.2779   5
   2   3   7 425.645 14.3888   5
   2   3   7 432.893 11.2914   4
   2   3   7 412.242 15.7244   2
  -3  -3  -7 129.895 5.03314   5
  -3  -3  -7 129.934 9.48631   3
  -3  -3  -7 128.856 5.26806   1
  -3  -3  -7 118.053 6.04785   2
  -3  -3  -7 131.878 4.14516   9
   3   3   7 116.427 5.52519   4
   3   3   7 133.197 5.29762   2
   3   3   7 139.894 6.96741   5
  -4  -3  -7 17.6759 2.10559   5
  -4  -3  -7 17.4094 1.84342   9
  -4  -3  -7 19.8114 2.92096   3
  -4  -3  -7 15.0085 2.83408   2
   4   3   7 20.9900 3.89860   4
   4   3   7 16.1185 2.71311   2
   4   3   7 20.6020 2.41099   5
  -5  -3  -7 254.961 13.8253   9
  -5  -3  -7 261.812 8.38366   3
   5   3   7 257.231 9.36631   5
   5   3   7 259.281 7.58315   2
   5   3   7 245.218 15.1411   4
  -6  -3  -7 51.2718 4.25967   3
  -6  -3  -7 48.7369 4.49228   1
   6   3   7 52.7116 4.50295   4
   6   3   7 47.1094 4.20997   8
   6   3   7 49.4221 3.82315   2
   6   3   7 49.2114 4.48487  10
  -7  -3  -7 8.56793 4.17009   1
  -7  -3  -7 15.0417 4.30894   3
   7   3   7 13.5818 2.58155   2
   7   3   7 14.2528 3.93848  10
   7   3   7 8.55965 3.50257   8
   7   3   7 10.3459 3.50909   4
  -8  -3  -7 78.5011 6.42693   1
  -8  -3  -7 108.385 65.2197   3
   8   3   7 77.9356 5.87498   8
   8   3   7 88.9293 12.5172   2
   8   3   7 91.2987 6.34135  10
   8   3   7 80.2093 6.06763   4
  -9  -3  -7 11.1793 5.15507   3
  -9  -3  -7 8.53835 4.28951   1
   9   3   7 13.5170 7.35284  10
   9   3   7 9.96266 5.95679   4
   9   3   7 10.8342 6.70315   8
 -10  -3  -7 0.02654 4.67372   1
  10   3   7 3.70760 4.90009   4
  10   3   7 6.39731 5.36689  10
  10   3   7 5.46250 5.11605   8
   9  -4  -7 16.8899 4.35659   5
   9  -4  -7 11.9791 3.99555   9
  -9   4   7 8.22587 5.48245   1
   8  -4  -7 55.2949 6.28654   5
   8  -4  -7 65.5141 5.76716   9
  -8   4   7 53.2217 7.43166   1
   7  -4  -7 186.286 9.13602   5
   7  -4  -7 206.602 8.86327   9
  -7   4   7 200.687 13.5091   1
   6  -4  -7 323.165 13.0200   5
   6  -4  -7 310.341 10.8554   9
  -6   4   7 317.844 14.3273   1
   5  -4  -7 58.4180 3.88087   9
   5  -4  -7 68.8708 4.67029   5
  -5   4   7 62.0103 4.61876   1
   4  -4  -7 600.953 17.8366   5
   4  -4  -7 636.481 16.8143   9
  -4   4   7 668.354 25.0642   1
  -4   4   7 632.806 40.5445   3
   3  -4  -7 8.93006 2.58629   5
   3  -4  -7 12.1035 2.17260   3
   3  -4  -7 5.12335 2.86864   9
  -3   4   7 6.75055 3.28617   1
  -3   4   7 11.9677 3.84954   2
  -3   4   7 2.50724 2.23349   3
   2  -4  -7 348.240 8.90370   9
   2  -4  -7 337.027 25.5037   1
   2  -4  -7 320.414 6.28001   3
   2  -4  -7 333.867 14.1569   5
  -2   4   7 307.414 20.7671   3
  -2   4   7 338.523 14.2770   1
  -2   4   7 366.540 14.5695   2
   1  -4  -7 966.946 51.2644   1
   1  -4  -7 1023.83 17.4904   5
   1  -4  -7 972.029 25.8128   9
   1  -4  -7 979.742 20.8715   3
   1  -4  -7 985.393 49.2590   6
   1  -4  -7 939.442 39.0243   6
  -1   4   7 1001.83 34.9088   1
  -1   4   7 960.392 44.9437   3
  -1   4   7 980.257 39.7723   2
   0  -4  -7 30.2303 2.92471   9
   0  -4  -7 35.6170 1.77075   6
   0  -4  -7 36.9961 2.61106   1
   0  -4  -7 29.1205 3.08553   3
   0  -4  -7 38.2285 1.66486   7
   0  -4  -7 33.7243 3.40293   5
   0   4   7 27.2296 3.08780   1
   0   4   7 34.7153 3.28264   4
   0   4   7 31.2328 3.23223   2
  -1  -4  -7 668.134 11.9628   3
  -1  -4  -7 662.392 11.4892   9
  -1  -4  -7 657.522 24.1839   7
  -1  -4  -7 679.337 13.6557   5
  -1  -4  -7 623.006 40.5095   1
   1   4   7 661.845 14.5893   4
   1   4   7 635.901 30.1622   2
   1   4   7 646.376 53.9233   5
  -2  -4  -7 733.130 21.8871   3
  -2  -4  -7 765.353 16.4976   9
  -2  -4  -7 791.038 30.2192   7
  -2  -4  -7 780.232 35.4638   1
  -2  -4  -7 771.312 20.3605   2
  -2  -4  -7 768.712 14.5834   5
   2   4   7 752.375 43.3218   4
   2   4   7 761.532 46.9382   5
   2   4   7 738.811 29.8468   2
  -3  -4  -7 123.858 6.51466   3
  -3  -4  -7 148.913 6.52774   7
  -3  -4  -7 118.143 8.59808   2
  -3  -4  -7 137.966 5.05327   5
  -3  -4  -7 129.045 4.26661   9
   3   4   7 134.125 6.32331   5
   3   4   7 127.884 5.44816   4
   3   4   7 132.842 8.21494   2
  -4  -4  -7 437.501 14.3557   9
  -4  -4  -7 420.350 20.6964   5
  -4  -4  -7 437.521 19.0056   2
  -4  -4  -7 427.461 14.7441   3
   4   4   7 420.288 35.1613   5
   4   4   7 436.065 12.6342   4
   4   4   7 421.100 13.9400   2
  -5  -4  -7 346.697 18.3314   3
  -5  -4  -7 313.374 20.9535   2
  -5  -4  -7 314.491 18.8704   9
  -5  -4  -7 307.743 16.6284   5
   5   4   7 308.786 16.0865   2
   5   4   7 328.460 13.7153   5
   5   4   7 338.149 9.65897   4
  -6  -4  -7 3.70228 3.85385   3
   6   4   7 3.51178 3.86057   4
   6   4   7 1.31478 2.10011   2
   6   4   7 0.93002 3.92079  10
   6   4   7 3.68381 3.85360   8
  -7  -4  -7 204.763 8.51957   1
  -7  -4  -7 206.989 7.84308   3
   7   4   7 195.801 10.3007  10
   7   4   7 187.970 10.8867   4
   7   4   7 183.804 9.66011   8
   7   4   7 199.430 8.65301   2
  -8  -4  -7 20.4434 4.10340   3
  -8  -4  -7 23.4369 5.49739   1
   8   4   7 29.6603 4.18664   2
   8   4   7 42.2065 6.74047  10
   8   4   7 37.4161 6.53453   4
  -9  -4  -7 23.3658 4.69244   1
  -9  -4  -7 22.4496 4.53552   3
   9   4   7 20.0612 4.62298   8
   9   4   7 25.0246 4.97342  10
   9   4   7 17.9506 4.60986   4
 -10  -4  -7 29.3798 6.27675   3
 -10  -4  -7 33.6635 7.60247   1
  10   4   7 21.9409 7.22109   8
  10   4   7 36.7608 8.57725  10
  10   4   7 19.7648 7.07194   4
   9  -5  -7 148.305 10.4923   9
   9  -5  -7 142.500 12.5399   5
  -9   5   7 110.820 12.5585   1
   8  -5  -7 99.3185 7.30127   5
   8  -5  -7 110.933 5.79870   9
  -8   5   7 83.3875 7.05918   1
   7  -5  -7 104.444 6.49278   5
   7  -5  -7 92.8288 5.15992   9
  -7   5   7 92.8551 8.36682   1
   6  -5  -7 347.476 14.0106   5
   6  -5  -7 337.476 17.1516   9
  -6   5   7 358.871 16.4888   1
   5  -5  -7 239.268 9.02858   5
   5  -5  -7 224.827 6.57364   9
  -5   5   7 205.669 19.7049   1
   4  -5  -7 21.6735 3.33656   5
   4  -5  -7 21.1010 2.89625   9
   4  -5  -7 22.3009 2.18981   3
  -4   5   7 19.4381 4.26017   1
  -4   5   7 19.4867 2.61675   3
   3  -5  -7 774.439 21.5695   9
   3  -5  -7 765.059 18.5128   5
   3  -5  -7 729.314 21.3617   3
  -3   5   7 758.754 67.3480   1
  -3   5   7 767.827 42.2090   3
   2  -5  -7 788.841 41.2510   9
   2  -5  -7 727.872 21.8237   3
   2  -5  -7 792.376 36.9650   5
  -2   5   7 759.904 25.0129   1
  -2   5   7 729.442 53.3319   3
  -2   5   7 801.708 30.0384   2
   1  -5  -7 97.4110 5.78205   6
   1  -5  -7 87.4154 4.88517   5
   1  -5  -7 83.0202 4.22158   9
   1  -5  -7 109.560 12.3697   3
  -1   5   7 75.3552 6.54452   3
  -1   5   7 97.1404 6.08884   2
  -1   5   7 102.908 7.28601   1
   0  -5  -7 958.273 18.5641   9
   0  -5  -7 995.460 21.0590   5
   0  -5  -7 983.881 19.3483   3
   0  -5  -7 1003.24 46.1166   7
   0  -5  -7 998.414 51.6981   6
   0   5   7 1014.94 32.6901   1
   0   5   7 969.126 50.5701   2
   0   5   7 989.870 32.7674   4
  -1  -5  -7 701.057 15.4814   5
  -1  -5  -7 717.606 32.0360   6
  -1  -5  -7 683.851 12.3844   3
  -1  -5  -7 697.701 22.6524   7
  -1  -5  -7 701.643 15.3474   9
   1   5   7 699.217 42.5431   4
   1   5   7 687.823 37.4213   2
  -2  -5  -7 303.925 6.06920   9
  -2  -5  -7 297.686 7.74350   3
  -2  -5  -7 318.190 10.0592   7
  -2  -5  -7 316.857 15.1820   6
  -2  -5  -7 289.990 10.6527   5
   2   5   7 313.206 14.9313   4
   2   5   7 305.144 22.3190   2
   2   5   7 288.539 19.1012   5
  -3  -5  -7 1002.26 65.2006   7
  -3  -5  -7 984.873 21.2689   3
  -3  -5  -7 1001.64 46.5786   5
  -3  -5  -7 974.831 36.0751   2
  -3  -5  -7 984.214 26.3626   9
   3   5   7 937.686 72.8885   2
   3   5   7 975.500 65.4327   4
   3   5   7 973.719 87.0007   5
  -4  -5  -7 212.520 8.04283   2
  -4  -5  -7 220.787 6.98577   3
  -4  -5  -7 219.041 11.7493   5
  -4  -5  -7 219.145 8.65493   9
   4   5   7 210.744 13.1206   2
   4   5   7 218.618 8.81001   4
   4   5   7 216.937 14.6926   5
  -5  -5  -7 66.1114 4.14005   9
  -5  -5  -7 67.9136 4.66063   3
  -5  -5  -7 62.4261 4.27920   5
   5   5   7 67.3371 3.00208   2
   5   5   7 71.6379 5.09569   4
  -6  -5  -7 203.005 9.32153   3
   6   5   7 186.242 9.13547   8
   6   5   7 216.945 10.4380  10
   6   5   7 201.870 9.44525   4
   6   5   7 207.572 11.2426   2
  -7  -5  -7 131.180 6.59541   3
   7   5   7 123.601 6.21029   4
   7   5   7 123.328 7.20588  10
   7   5   7 125.442 6.93142   8
   7   5   7 128.464 6.06375   2
  -8  -5  -7 81.8238 6.14997   3
  -8  -5  -7 83.1789 5.97545   1
   8   5   7 81.3475 6.70658   8
   8   5   7 75.5335 5.72799   4
   8   5   7 69.2240 6.78736  10
  -9  -5  -7 111.965 8.76449   1
  -9  -5  -7 100.044 7.29246   3
   9   5   7 89.6923 6.73170  10
   9   5   7 87.6255 6.34124   8
   9   5   7 96.6594 8.27446   4
 -10  -5  -7 0.54738 4.45022   3
 -10  -5  -7 0.29178 4.54107   1
  10   5   7 -2.6687 6.47509   8
  10   5   7 7.14889 6.86718  10
  10   5   7 -1.6499 4.38942   4
   9  -6  -7 93.1431 8.22502   5
   9  -6  -7 86.0391 7.65192   9
  -9   6   7 90.4928 8.53944   1
   8  -6  -7 41.4396 6.42351   5
   8  -6  -7 37.1987 5.66968   9
  -8   6   7 33.6855 7.94727   1
   7  -6  -7 186.927 7.88398   9
   7  -6  -7 187.511 12.3657   5
  -7   6   7 200.734 13.3972   1
   6  -6  -7 149.827 8.51446   5
   6  -6  -7 136.404 5.83686   9
  -6   6   7 128.901 12.1536   1
   5  -6  -7 156.710 7.46650   5
   5  -6  -7 157.641 7.59985   9
  -5   6   7 174.457 10.3700   1
   4  -6  -7 448.831 16.2233   3
   4  -6  -7 446.103 16.3091   9
   4  -6  -7 490.550 16.4189   5
  -4   6   7 485.277 23.7113   1
   3  -6  -7 279.733 12.1683   5
   3  -6  -7 291.210 9.84357   3
   3  -6  -7 291.303 8.28333   9
  -3   6   7 288.993 19.1510   1
  -3   6   7 291.221 17.2978   3
  -3   6   7 285.922 28.8151   6
  -3   6   7 269.371 21.9425   7
   2  -6  -7 196.339 7.39687   3
   2  -6  -7 199.024 6.70559   9
   2  -6  -7 190.702 12.8728   6
   2  -6  -7 184.285 7.47880   5
  -2   6   7 192.223 13.9591   3
  -2   6   7 189.890 11.6015   1
  -2   6   7 184.269 18.0850   7
   1  -6  -7 735.945 24.2508   3
   1  -6  -7 738.144 18.9923   9
   1  -6  -7 729.046 18.3642   5
   1  -6  -7 743.315 48.3486   6
  -1   6   7 782.727 27.8097   2
  -1   6   7 734.342 76.5064   7
  -1   6   7 779.277 74.2878   1
   0  -6  -7 616.926 9.74500   3
   0  -6  -7 643.406 36.9240   6
   0  -6  -7 641.581 34.1742   7
   0  -6  -7 601.743 14.8314   5
   0   6   7 628.859 29.1317   2
   0   6   7 619.944 23.6696   1
   0   6   7 643.232 23.9808   4
   0   6   7 509.429 34.0942   7
  -1  -6  -7 438.321 20.9832   7
  -1  -6  -7 424.248 11.4435   3
  -1  -6  -7 440.786 17.3460   6
  -1  -6  -7 418.736 9.43758   5
   1   6   7 446.531 18.0626   1
   1   6   7 416.510 32.9657   4
   1   6   7 444.515 30.9181   2
  -2  -6  -7 1717.25 77.4345   7
  -2  -6  -7 1744.74 85.6246   6
  -2  -6  -7 1659.92 45.8476   3
  -2  -6  -7 1703.31 41.4071   5
   2   6   7 1592.04 103.228   2
   2   6   7 1711.33 73.9686   4
  -3  -6  -7 30.3511 3.91483   3
  -3  -6  -7 28.4744 3.19527   5
   3   6   7 26.5265 3.81844   4
   3   6   7 26.6857 2.74476   2
  -4  -6  -7 131.737 14.3176   3
  -4  -6  -7 116.198 5.78248   9
  -4  -6  -7 110.523 4.75109   5
   4   6   7 135.623 7.25110   2
   4   6   7 128.594 6.39781   4
  -5  -6  -7 598.196 29.5602   9
  -5  -6  -7 569.859 16.3679   3
  -5  -6  -7 590.531 37.0573   5
   5   6   7 562.547 37.9523   4
   5   6   7 578.136 27.7824   2
  -6  -6  -7 88.1364 6.00238   9
  -6  -6  -7 77.6588 5.92887   3
  -6  -6  -7 77.7658 6.79523   5
   6   6   7 96.7372 19.8583  10
   6   6   7 96.1132 19.6517   4
   6   6   7 93.9811 18.7860   8
  -7  -6  -7 112.913 7.21166   3
   7   6   7 121.880 7.48460   4
   7   6   7 116.870 6.72816   8
   7   6   7 119.674 7.02802  10
  -8  -6  -7 221.264 11.4241   3
   8   6   7 214.840 12.7016  10
   8   6   7 244.061 12.6123   4
   8   6   7 219.653 12.4962   8
  -9  -6  -7 17.3038 6.36009   1
  -9  -6  -7 36.4165 35.0200   3
   9   6   7 8.03874 4.06819   8
   9   6   7 9.23879 4.25732  10
   9   6   7 3.98819 5.56463   4
 -10  -6  -7 28.0949 6.02776   1
 -10  -6  -7 26.7274 7.32309   3
  10   6   7 33.2385 7.57970  10
  10   6   7 26.2842 7.23996   8
  10   6   7 27.6367 5.40580   4
   8  -7  -7 141.108 10.5462   5
   8  -7  -7 136.120 10.3821   9
  -8   7   7 131.984 13.1062   1
   7  -7  -7 57.6723 4.91048   9
   7  -7  -7 60.7230 6.90081   5
  -7   7   7 59.1545 6.98699   1
   6  -7  -7 96.8256 6.77924   5
   6  -7  -7 101.014 5.78570   9
  -6   7   7 95.3624 7.16665   1
   5  -7  -7 314.922 16.2583   5
   5  -7  -7 296.124 10.3397   9
  -5   7   7 334.167 26.0912   1
   4  -7  -7 142.580 6.39354   3
   4  -7  -7 130.864 5.58311   9
   4  -7  -7 132.163 7.98401   5
  -4   7   7 126.415 9.47333   1
   3  -7  -7 298.561 10.6685   3
   3  -7  -7 330.976 11.7546   5
  -3   7   7 286.457 23.9909   6
  -3   7   7 316.498 20.1680   7
  -3   7   7 293.753 14.9214   1
   2  -7  -7 549.750 37.3834   6
   2  -7  -7 544.279 15.7610   3
   2  -7  -7 554.002 18.5475   5
  -2   7   7 611.671 35.8455   1
  -2   7   7 531.992 50.9283   3
  -2   7   7 570.612 35.7864   7
  -2   7   7 555.895 48.5414   6
   1  -7  -7 527.790 14.3943   3
   1  -7  -7 547.611 16.8945   5
   1  -7  -7 517.575 48.0957   6
  -1   7   7 531.955 24.1939   1
  -1   7   7 524.933 40.6082   7
   0  -7  -7 526.434 12.5297   3
   0  -7  -7 505.935 32.7821   6
   0  -7  -7 528.516 11.3803   5
   0  -7  -7 517.778 31.3205   7
   0   7   7 523.100 19.7661   1
   0   7   7 535.038 23.2885   2
   0   7   7 531.963 23.2030   4
   0   7   7 502.264 30.7768   7
  -1  -7  -7 608.037 27.9903   7
  -1  -7  -7 626.080 20.0874   5
  -1  -7  -7 623.069 18.5598   3
  -1  -7  -7 624.802 43.7726   6
   1   7   7 621.060 31.4568   2
   1   7   7 625.134 41.8513   7
   1   7   7 645.569 23.6932   4
   1   7   7 618.590 22.3818   1
  -2  -7  -7 875.997 36.5672   5
  -2  -7  -7 863.098 24.4558   3
  -2  -7  -7 838.610 57.2815   7
  -2  -7  -7 867.022 41.9370   6
   2   7   7 872.372 61.2350   4
   2   7   7 683.996 43.0944   7
   2   7   7 828.401 71.8085   2
  -3  -7  -7 41.1945 3.83120   5
  -3  -7  -7 31.5758 4.22072   3
   3   7   7 43.4930 4.14753   2
   3   7   7 36.7956 3.28138   4
  -4  -7  -7 692.402 30.1263   5
  -4  -7  -7 692.990 23.9840   3
   4   7   7 683.669 27.1116   4
  -5  -7  -7 131.179 6.50636   5
  -5  -7  -7 145.229 7.73656   3
   5   7   7 166.028 8.65650   4
  -6  -7  -7 245.611 14.4705   5
  -6  -7  -7 256.958 11.9114   3
   6   7   7 262.562 19.1417  10
   6   7   7 255.826 9.99541   4
   6   7   7 247.341 15.8170   8
  -7  -7  -7 324.257 16.4269   3
   7   7   7 324.940 18.0948   4
   7   7   7 306.980 13.5669   8
   7   7   7 331.954 15.1853  10
  -8  -7  -7 40.1788 6.39468   3
   8   7   7 38.9744 5.92509  10
   8   7   7 44.6380 6.01702   4
   8   7   7 47.9741 5.93495   8
  -9  -7  -7 88.1563 8.19033   3
   9   7   7 75.3787 6.81391   4
   9   7   7 81.9915 6.35903  10
   9   7   7 80.3044 6.35626   8
 -10  -7  -7 53.8062 9.40313   1
 -10  -7  -7 50.0178 6.56213   3
  10   7   7 57.2306 8.19689  10
  10   7   7 61.6938 7.75472   4
  10   7   7 47.7395 7.73744   8
   7  -8  -7 33.8221 5.29158   5
   7  -8  -7 31.8990 4.48170   9
  -7   8   7 31.4494 6.95268   1
   6  -8  -7 244.682 14.7882   9
   6  -8  -7 250.467 17.3726   5
  -6   8   7 233.738 15.7124   1
   5  -8  -7 117.905 6.74728   9
   5  -8  -7 121.926 7.85514   5
  -5   8   7 130.365 8.56331   1
   4  -8  -7 159.294 8.54138   5
  -4   8   7 155.592 9.97557   1
   3  -8  -7 566.125 18.9254   5
   3  -8  -7 549.454 28.3193   3
  -3   8   7 593.394 33.6469   1
  -3   8   7 572.041 42.6928   7
  -3   8   7 562.807 37.6821   6
   2  -8  -7 207.476 8.96132   5
   2  -8  -7 190.597 11.5678   6
   2  -8  -7 205.441 6.70097   3
  -2   8   7 207.581 10.0697   7
  -2   8   7 192.779 14.1762   6
  -2   8   7 190.121 13.3350   1
   1  -8  -7 587.261 21.6276   5
   1  -8  -7 589.962 22.6891   3
   1  -8  -7 564.860 42.2178   6
  -1   8   7 576.168 51.1474   1
  -1   8   7 614.084 40.2104   7
  -1   8   7 597.804 50.8459   6
   0  -8  -7 571.193 21.5455   5
   0  -8  -7 596.314 21.6968   3
   0  -8  -7 630.219 38.8700   6
   0   8   7 609.882 33.7217   4
   0   8   7 600.828 42.3555   7
   0   8   7 608.497 54.6639   2
   0   8   7 630.829 33.8855   1
  -1  -8  -7 382.698 9.38165   5
  -1  -8  -7 413.971 16.3547   3
   1   8   7 368.303 26.9964   7
   1   8   7 385.941 25.7243   2
   1   8   7 405.068 30.6378   2
   1   8   7 383.806 20.7143   4
   1   8   7 367.668 35.8711   1
  -2  -8  -7 425.064 17.0033   5
  -2  -8  -7 435.309 16.9197   3
   2   8   7 394.804 37.6268   2
   2   8   7 401.866 36.0146   2
   2   8   7 420.592 24.5385   7
   2   8   7 423.910 25.2488   4
  -3  -8  -7 204.123 8.99428   5
  -3  -8  -7 197.818 8.09624   3
   3   8   7 180.470 10.8984   7
   3   8   7 182.327 12.9436   4
  -4  -8  -7 298.731 14.5491   3
  -4  -8  -7 303.946 13.5299   5
   4   8   7 332.704 13.1695   4
  -5  -8  -7 243.821 8.25990   5
  -5  -8  -7 232.900 12.5199   3
   5   8   7 238.059 16.0853   4
  -6  -8  -7 253.338 12.3139   3
  -6  -8  -7 245.359 14.4950   5
   6   8   7 251.117 10.8508   8
   6   8   7 250.542 14.1392   4
   6   8   7 230.800 12.2334  10
  -7  -8  -7 120.315 8.88784   3
   7   8   7 120.351 6.31017   4
   7   8   7 113.652 6.43902  10
   7   8   7 120.030 6.03118   8
  -8  -8  -7 67.3878 7.44534   3
   8   8   7 85.1247 10.9949   8
   8   8   7 77.9324 12.5826  10
   8   8   7 114.477 12.6933   4
  -9  -8  -7 106.716 11.1963   3
   9   8   7 97.9554 7.86447  10
   9   8   7 105.037 8.28315   8
   9   8   7 95.3589 7.66048   4
 -10  -8  -7 7.45210 5.27902   3
  10   8   7 6.92782 5.24496  10
  10   8   7 3.04238 4.90709   8
  10   8   7 8.50485 4.69865   4
   7  -9  -7 146.880 9.97092   9
   7  -9  -7 147.959 12.9918   5
  -7   9   7 179.118 60.1134   1
   6  -9  -7 27.8990 4.47401   9
   6  -9  -7 27.8382 6.39318   5
  -6   9   7 44.8868 29.2283   1
   5  -9  -7 224.625 11.2776   5
  -5   9   7 218.432 17.3667   1
   4  -9  -7 331.650 16.4632   5
  -4   9   7 368.676 22.6653   1
   3  -9  -7 43.7105 4.95809   5
   3  -9  -7 41.9396 3.42089   3
  -3   9   7 43.3866 6.91584   1
   2  -9  -7 262.844 16.3470   3
   2  -9  -7 239.558 13.0563   5
  -2   9   7 246.169 14.9846   1
  -2   9   7 244.809 17.4836   7
  -2   9   7 254.218 24.2059   6
   1  -9  -7 583.583 25.2223   3
   1  -9  -7 547.401 18.5176   5
  -1   9   7 562.455 32.7331   1
  -1   9   7 550.344 34.3051   7
  -1   9   7 559.951 36.7908   6
   0  -9  -7 105.155 6.89127   5
   0  -9  -7 110.863 5.35863   3
   0   9   7 101.750 6.97998   6
   0   9   7 95.5482 5.74619   7
   0   9   7 108.650 9.58336   4
   0   9   7 121.097 7.81076   1
  -1  -9  -7 549.479 24.1885   5
  -1  -9  -7 569.394 24.1964   3
   1   9   7 525.596 49.6286   1
   1   9   7 544.968 46.0659   7
   1   9   7 555.293 32.8395   4
   1   9   7 557.296 37.4153   2
  -2  -9  -7 378.334 15.1247   3
  -2  -9  -7 354.854 14.7941   5
   2   9   7 353.487 19.7050   4
   2   9   7 349.763 26.3782   7
   2   9   7 341.736 32.5533   2
  -3  -9  -7 39.5510 4.24488   3
  -3  -9  -7 30.5292 4.39806   5
   3   9   7 25.9029 3.94983   7
   3   9   7 42.0897 4.33589   4
  -4  -9  -7 292.729 15.1856   3
  -4  -9  -7 304.650 15.0881   5
   4   9   7 315.957 16.0792   4
   4   9   7 298.319 18.4708   7
  -5  -9  -7 299.454 16.5421   3
  -5  -9  -7 297.154 20.0802   5
   5   9   7 286.146 17.8606   4
   5   9   7 299.746 16.8199  10
   5   9   7 306.022 14.7749   8
  -6  -9  -7 162.390 10.7947   5
  -6  -9  -7 152.221 10.9237   3
   6   9   7 178.794 8.60667   8
   6   9   7 180.964 10.0580   4
   6   9   7 163.603 9.17860  10
  -7  -9  -7 117.294 9.84742   3
   7   9   7 128.357 21.0657   8
   7   9   7 141.423 21.6520  10
   7   9   7 138.013 23.1989   4
  -8  -9  -7 121.774 8.85410   3
   8   9   7 115.670 8.65495   8
   8   9   7 113.867 7.86507   4
   8   9   7 124.705 9.41150  10
  -9  -9  -7 10.8845 5.38029   3
   9   9   7 12.7943 5.89533   8
   9   9   7 16.3592 6.26426  10
   9   9   7 14.8092 4.63325   4
   6 -10  -7 87.0674 7.61743   9
   6 -10  -7 84.6877 8.74891   5
  -6  10   7 83.0156 8.80873   1
   5 -10  -7 222.547 15.2463   5
  -5  10   7 238.554 18.7066   1
   4 -10  -7 16.4798 4.75112   5
  -4  10   7 14.2204 5.69800   1
   3 -10  -7 121.027 8.71129   5
  -3  10   7 134.341 11.2674   1
   2 -10  -7 431.805 20.1315   3
   2 -10  -7 429.877 20.5079   5
  -2  10   7 409.218 27.5960   1
  -2  10   7 411.969 28.9685   7
  -2  10   7 393.900 35.0579   6
   1 -10  -7 175.127 9.11657   5
   1 -10  -7 182.526 10.2775   3
  -1  10   7 169.777 11.7819   1
  -1  10   7 164.577 17.5659   4
  -1  10   7 186.924 13.4964   7
  -1  10   7 183.084 14.5223   6
   0 -10  -7 245.251 14.9249   5
   0 -10  -7 261.932 16.4600   3
   0  10   7 259.425 19.2527   7
   0  10   7 277.745 24.0926   4
   0  10   7 261.941 18.7657   6
   0  10   7 282.586 18.7613   1
  -1 -10  -7 215.092 9.35997   5
  -1 -10  -7 211.270 13.5120   3
   1  10   7 222.560 14.1393   1
   1  10   7 202.736 26.8965   7
   1  10   7 221.287 19.8651   4
  -2 -10  -7 77.4759 5.90017   3
  -2 -10  -7 70.1791 6.04086   5
   2  10   7 72.7583 6.58798   7
   2  10   7 72.8673 7.98152   4
  -3 -10  -7 293.162 15.8916   5
  -3 -10  -7 271.525 18.9661   3
   3  10   7 272.643 22.2112   7
   3  10   7 297.186 22.7575   4
  -4 -10  -7 268.789 18.2444   5
  -4 -10  -7 260.274 19.8177   3
   4  10   7 303.489 16.4331   4
   4  10   7 254.875 22.8586   7
  -5 -10  -7 154.167 8.37720   5
  -5 -10  -7 186.950 13.5358   3
   5  10   7 155.015 10.3091  10
   5  10   7 169.604 11.0963   8
   5  10   7 139.208 11.0878   7
   5  10   7 167.082 10.8787   4
  -6 -10  -7 154.968 14.5977   3
  -6 -10  -7 153.124 12.8248   5
   6  10   7 162.833 9.45493   4
   6  10   7 190.094 9.37659  10
   6  10   7 179.276 8.94952   8
  -7 -10  -7 80.1359 7.00055   3
   7  10   7 88.4572 6.26771   8
   7  10   7 85.0265 5.43275   4
   7  10   7 94.2883 7.57216  10
  -8 -10  -7 22.3132 7.29972   3
   8  10   7 21.5779 5.50207   8
   8  10   7 31.2922 7.36512   4
   8  10   7 30.8279 5.56222  10
  -9 -10  -7 50.6090 8.93406   3
   9  10   7 59.4944 7.50626  10
   9  10   7 60.3470 7.38271   8
   9  10   7 59.4487 7.04246   4
   4 -11  -7 46.4861 7.83478   5
  -4  11   7 32.0650 9.97075   1
   3 -11  -7 179.240 13.1369   5
  -3  11   7 172.261 15.6761   1
   2 -11  -7 28.3887 16.7508   3
   2 -11  -7 28.0293 6.49235   5
  -2  11   7 33.8653 6.17318   1
   1 -11  -7 255.801 21.1562   3
   1 -11  -7 256.940 13.7531   5
  -1  11   7 249.775 24.1864   4
  -1  11   7 266.902 17.0567   1
  -1  11   7 244.398 25.2215   7
  -1  11   7 247.125 13.4174   6
   0 -11  -7 120.483 8.42522   5
   0 -11  -7 128.693 9.93913   3
   0  11   7 100.058 9.69598   6
   0  11   7 114.321 10.5209   4
   0  11   7 129.780 11.3196   1
   0  11   7 94.9283 8.42028   7
  -1 -11  -7 52.4434 6.41843   5
  -1 -11  -7 70.4339 6.48660   3
   1  11   7 82.0728 8.59169   1
   1  11   7 56.3195 5.97795   6
   1  11   7 49.1015 7.25999   7
   1  11   7 74.9952 5.75422   4
  -2 -11  -7 234.555 15.0525   3
  -2 -11  -7 254.818 15.2569   5
   2  11   7 244.797 21.9992   4
   2  11   7 233.184 21.8321   7
  -3 -11  -7 170.930 24.4254   3
  -3 -11  -7 138.073 8.15559   5
   3  11   7 149.034 11.9794   4
   3  11   7 122.908 11.1026   7
  -4 -11  -7 55.0569 8.89788   3
  -4 -11  -7 43.2810 4.82587   5
   4  11   7 55.4715 5.11241  10
   4  11   7 60.4744 5.05858   4
   4  11   7 53.8778 4.65188   8
   4  11   7 47.0547 5.82087   7
  -5 -11  -7 178.302 11.7864   5
  -5 -11  -7 197.590 15.8951   3
   5  11   7 181.406 14.5482  10
   5  11   7 187.592 11.7166   4
   5  11   7 165.237 14.4746   7
   5  11   7 179.214 13.6508   8
  -6 -11  -7 22.8867 5.41105   5
  -6 -11  -7 34.3748 5.65615   3
   6  11   7 37.4893 7.67822   8
   6  11   7 45.2909 8.90500   4
   6  11   7 41.6205 7.39952  10
   6  11   7 27.3067 6.28426   7
  -7 -11  -7 33.7588 6.09650   3
   7  11   7 49.1155 5.65152   4
   7  11   7 47.9022 6.21748  10
   7  11   7 40.2920 5.44009   8
  -8 -11  -7 32.8890 8.65278   3
   3 -12  -7 20.6020 7.58747   5
  -3  12   7 28.7919 9.71504   1
   2 -12  -7 135.577 11.0504   5
  -2  12   7 126.783 11.7883   1
   1 -12  -7 84.5891 7.37750   3
   1 -12  -7 92.1975 7.20575   5
  -1  12   7 69.4818 8.17738   7
  -1  12   7 91.1574 10.3474   1
  -1  12   7 60.0406 8.32048   6
   0 -12  -7 9.93156 5.36397   3
   0 -12  -7 9.80138 4.66165   5
   0  12   7 10.1663 8.75848   1
   0  12   7 0.03118 4.71351   7
   0  12   7 6.48421 7.11681   6
  -1 -12  -7 158.443 14.9948   3
  -1 -12  -7 143.072 12.2042   5
   1  12   7 137.790 10.7815   6
   1  12   7 136.557 10.6422   7
   1  12   7 167.925 13.3184   1
  -2 -12  -7 88.8451 9.16011   3
  -2 -12  -7 82.3665 8.66156   5
   2  12   7 88.4366 8.81445   7
  -3 -12  -7 34.2572 5.28125   5
  -3 -12  -7 34.1243 5.23376   3
   3  12   7 27.3084 11.3354   7
  -4 -12  -7 143.509 12.4763   3
  -4 -12  -7 128.911 9.80121   5
   4  12   7 131.206 20.8335   7
  -5 -12  -7 26.5768 5.58487   3
  -5 -12  -7 25.6862 6.48023   5
   5  12   7 32.1253 6.42063   7
  -6 -12  -7 33.5751 6.52557   5
  -6 -12  -7 41.2668 8.25134   3
   6  12   7 30.6031 6.85414   7
  -7 -12  -7 64.6353 7.73598   3
   0 -13  -7 84.7297 10.6168   3
   0 -13  -7 77.6636 9.07509   5
   0  13   7 67.0740 9.83939   6
   0  13   7 73.1832 10.6105   1
   0  13   7 47.8404 9.05565   7
  -1 -13  -7 46.1350 7.15541   3
  -1 -13  -7 43.8886 8.02268   5
   1  13   7 21.0679 9.06065   7
   1  13   7 27.4836 9.24465   6
  -2 -13  -7 38.0650 6.12196   5
  -2 -13  -7 46.1624 5.95269   3
   2  13   7 38.6460 6.70768   7
  -3 -13  -7 78.7080 8.66852   3
  -3 -13  -7 78.2277 9.59781   5
   3  13   7 61.1560 7.87149   7
  -4 -13  -7 20.3021 7.74864   3
  -4 -13  -7 4.70998 4.87515   5
   4  13   7 7.02405 6.51672   7
  -5 -13  -7 19.5368 6.26819   5
  -5 -13  -7 30.5124 8.78459   3
   5  13   7 23.2328 7.25956   7
   4   6  -8 15.0078 5.23599   6
   4   6  -8 15.5438 7.06676   7
  -4  -6   8 4.08579 8.43959   2
   3   6  -8 1.31926 4.82075   7
   3   6  -8 0.51547 4.85046   6
  -3  -6   8 -1.5385 8.15087   2
   2   6  -8 8.23134 5.15198   7
   2   6  -8 8.88723 7.28373   6
  -2  -6   8 2.75880 7.98548   2
   1   6  -8 11.0771 7.49245   6
   1   6  -8 10.5753 5.17496   7
  -1  -6   8 25.4430 8.48613   2
   0   6  -8 1.37272 5.25892   6
   0   6  -8 0.76885 5.25173   7
   0  -6   8 -2.6798 5.53080   2
  -1   6  -8 10.1123 5.65756   6
   1  -6   8 12.5859 6.02344   2
  -6  -5   8 16.8279 8.80200   2
  -5  -5   8 17.5708 5.76473   2
   4   5  -8 9.62386 7.03421   6
   4   5  -8 18.9388 6.08658   7
  -4  -5   8 7.64969 26.4232   2
   3   5  -8 19.1810 5.92956   6
   3   5  -8 25.8474 5.76317   7
  -3  -5   8 14.4001 5.38864   2
   2   5  -8 15.0804 4.59438   6
   2   5  -8 16.9650 4.58457   7
  -2  -5   8 6.83503 4.87529   2
   1   5  -8 -6.9105 5.66735   6
   1   5  -8 1.45568 5.80055   7
  -1  -5   8 0.47152 6.63332   2
   0   5  -8 82.6845 7.69354   6
   0   5  -8 78.3729 7.73580   7
   0  -5   8 57.1435 6.74453   2
  -1   5  -8 34.1459 5.50415   6
  -1   5  -8 21.0721 5.22570   7
   1  -5   8 43.1397 34.1805   2
  -2   5  -8 -0.0275 4.67281   7
  -2   5  -8 -3.7390 4.72497   6
   2  -5   8 -2.7065 5.27521   2
  -3   5  -8 76.8216 12.1391   7
  -3   5  -8 75.0368 8.28391   6
   3  -5   8 75.2700 9.76450   2
   7   4  -8 23.3425 6.34686   9
  -7  -4   8 16.9605 6.23467   2
   6   4  -8 7.84481 4.10641   9
  -6  -4   8 15.4459 7.53056   2
   5   4  -8 1.45250 3.60928   9
   5   4  -8 1.51589 7.21216   6
  -5  -4   8 3.04821 6.56296   2
   4   4  -8 47.5616 6.21735   6
   4   4  -8 43.6580 5.02355   7
  -4  -4   8 52.4646 7.80154   2
   3   4  -8 14.6180 4.46022   7
   3   4  -8 11.9755 3.53515   6
  -3  -4   8 2.40039 6.24406   2
   2   4  -8 54.3007 4.75507   7
   2   4  -8 46.0069 4.66581   6
  -2  -4   8 42.1198 5.80737   2
   1   4  -8 42.4505 5.75575   7
   1   4  -8 48.4859 5.81348   6
  -1  -4   8 36.6611 6.91775   2
   0   4  -8 47.5086 5.35837   6
   0   4  -8 51.7414 5.13552   7
   0  -4   8 41.7113 5.78165   2
  -1   4  -8 8.34346 8.02110   7
  -1   4  -8 4.74944 3.85266   6
   1  -4   8 -4.4273 6.17134   2
  -2   4  -8 81.6678 6.25693   6
   2  -4   8 74.5223 8.59431   2
  -3   4  -8 63.9569 6.23370   6
   3  -4   8 49.7429 6.72663   2
  -4   4  -8 9.84211 7.02295   6
   4  -4   8 2.58169 7.52331   2
   8   3  -8 22.8474 6.29675   9
  -8  -3   8 16.5153 7.76186   3
  -8  -3   8 21.4310 6.32879   2
   7   3  -8 6.32187 3.98286   9
  -7  -3   8 5.17955 7.39185   2
   6   3  -8 9.67323 3.72444   9
  -6  -3   8 13.0297 5.19099   2
   5   3  -8 49.9303 6.07135   7
   5   3  -8 49.0453 4.72954   9
   5   3  -8 55.6294 5.51844   6
  -5  -3   8 57.8098 7.79350   2
   4   3  -8 109.647 10.1778   7
   4   3  -8 108.216 9.33873   6
   4   3  -8 94.6228 8.76418   9
  -4  -3   8 111.278 10.7838   2
   3   3  -8 31.8292 4.20221   7
   3   3  -8 27.0266 3.78681   9
   3   3  -8 31.1131 4.32756   6
  -3  -3   8 36.4228 5.35038   2
  -3  -3   8 30.2658 5.05949   4
   2   3  -8 71.1801 7.26818   6
   2   3  -8 62.3433 4.53923   9
   2   3  -8 59.6858 5.65353   7
  -2  -3   8 70.8355 7.24623   2
  -2  -3   8 55.1428 5.16489   4
   1   3  -8 33.6529 4.47661   7
   1   3  -8 34.3020 3.73433   6
  -1  -3   8 26.1875 4.37565   4
  -1  -3   8 28.8965 4.89795   2
   0   3  -8 190.501 18.9427   6
   0   3  -8 209.596 20.7246   7
   0  -3   8 189.765 13.9618   2
   0  -3   8 180.009 18.1233   4
  -1   3  -8 85.2627 5.39565   6
   1  -3   8 67.3540 6.51230   4
   1  -3   8 67.8031 7.55322   2
  -2   3  -8 74.5128 6.36198   6
   2  -3   8 53.5380 5.37807   4
   2  -3   8 60.6594 7.27186   2
  -3   3  -8 43.2281 11.9188   6
   3  -3   8 31.6167 5.03894   4
   3  -3   8 18.1415 4.97961  10
   3  -3   8 23.1393 4.88603   8
   3  -3   8 31.3502 6.68891   2
  -4   3  -8 7.76445 4.28650   6
   4  -3   8 8.90766 6.76887   2
   4  -3   8 0.84712 4.87450   4
   4  -3   8 2.37930 5.25090  10
   4  -3   8 5.60230 5.12009   8
  -5   3  -8 28.1712 7.54809   6
   5  -3   8 32.8373 5.79853   2
   5  -3   8 26.2863 6.31903  10
   5  -3   8 22.7283 6.09592   8
   5  -3   8 15.6730 5.90213   4
  -6   3  -8 31.8579 6.49957   6
   6  -3   8 24.0903 6.09966   2
   6  -3   8 21.6966 5.04494   4
   6  -3   8 20.4301 6.69530   8
   6  -3   8 17.9302 6.84207  10
   9   2  -8 5.18385 4.58245   9
   8   2  -8 4.04790 5.54171   9
  -8  -2   8 4.22351 8.32037   2
  -8  -2   8 4.07892 4.79431   3
   7   2  -8 16.8415 4.04960   9
  -7  -2   8 29.3119 7.93820   2
   6   2  -8 131.130 6.36950   9
  -6  -2   8 138.649 14.8095   2
   5   2  -8 46.1876 4.09539   7
   5   2  -8 52.3021 4.49417   9
  -5  -2   8 42.5624 5.39628   2
   4   2  -8 137.353 6.75874   9
   4   2  -8 141.400 10.3927   7
   4   2  -8 146.944 8.87033   6
  -4  -2   8 124.490 9.34482   2
   3   2  -8 94.1627 5.18911   9
   3   2  -8 93.1604 7.70659   6
   3   2  -8 96.5246 8.33493   7
  -3  -2   8 106.166 7.54614   2
   2   2  -8 69.7579 5.02689   7
   2   2  -8 60.1157 4.29117   9
   2   2  -8 63.1010 4.66389   6
  -2  -2   8 67.2925 5.70421   2
  -2  -2   8 56.2973 5.30704   4
   1   2  -8 119.423 8.15120   6
   1   2  -8 100.742 4.87418   9
   1   2  -8 114.482 4.78972   7
  -1  -2   8 102.349 6.67034   4
  -1  -2   8 108.761 8.32038   2
   0   2  -8 382.393 17.0519   7
   0   2  -8 385.567 15.3947   6
   0   2  -8 367.094 17.2801   9
   0  -2   8 371.946 29.8648   4
   0  -2   8 378.691 26.0487   2
  -1   2  -8 58.1093 4.26003   6
   1  -2   8 55.0588 4.49078   4
   1  -2   8 63.1807 5.45681   2
  -2   2  -8 100.131 5.41514   6
   2  -2   8 81.8230 6.78534   2
   2  -2   8 81.3526 7.23991   4
  -3   2  -8 138.298 7.70238   6
   3  -2   8 115.461 8.77533  10
   3  -2   8 107.757 7.56536   4
   3  -2   8 114.913 8.73564   8
   3  -2   8 123.103 9.74411   2
  -4   2  -8 35.8437 6.05855   6
   4  -2   8 25.6430 5.34657  10
   4  -2   8 22.7064 4.04012   4
   4  -2   8 20.5410 5.00101   8
   4  -2   8 20.9543 6.43662   2
  -5   2  -8 102.319 6.81937   6
   5  -2   8 84.4514 7.37288  10
   5  -2   8 93.5531 6.90920   4
   5  -2   8 93.8248 8.10937   2
   5  -2   8 81.6131 6.96685   8
  -6   2  -8 83.4379 9.09499   6
   6  -2   8 81.4275 6.84211  10
   6  -2   8 78.9136 6.90218   2
   6  -2   8 80.6159 6.40762   4
   6  -2   8 70.1799 6.13370   8
  -7   2  -8 41.8982 6.56555   6
   7  -2   8 39.6066 6.51834   2
   7  -2   8 28.8732 7.66267  10
   7  -2   8 34.6893 7.49291   4
   7  -2   8 35.4143 7.48871   8
   9   1  -8 11.9972 5.84395   9
  -9  -1   8 6.17521 6.44883   2
   8   1  -8 4.78901 3.87384   9
  -8  -1   8 7.77457 5.79650   2
   7   1  -8 186.442 11.2311   9
  -7  -1   8 186.962 16.6628   2
   6   1  -8 49.3638 11.8965   9
  -6  -1   8 32.9343 7.02094   2
   5   1  -8 94.1080 5.09378   9
  -5  -1   8 69.2323 7.84608   2
   4   1  -8 243.642 29.6973   7
   4   1  -8 271.620 28.1659   6
   4   1  -8 284.717 12.2780   9
  -4  -1   8 278.365 19.4557   2
   3   1  -8 52.5287 3.60942   7
   3   1  -8 61.8629 4.99851   9
   3   1  -8 60.3342 4.25841   6
  -3  -1   8 48.9864 5.98365   2
   2   1  -8 179.217 11.0756   6
   2   1  -8 194.986 13.1134   7
   2   1  -8 174.315 6.68432   9
  -2  -1   8 179.672 12.3201   4
  -2  -1   8 189.137 11.1353   2
   1   1  -8 521.753 20.7160   6
   1   1  -8 541.007 27.0346   7
   1   1  -8 506.180 28.5518   9
  -1  -1   8 522.968 35.4977   2
  -1  -1   8 517.746 35.9386   4
   0   1  -8 129.048 5.73886   6
   0   1  -8 143.396 6.37654   9
   0  -1   8 131.297 10.1497   2
   0  -1   8 135.086 8.34889   4
  -1   1  -8 183.477 7.19985   9
  -1   1  -8 173.934 8.58260   6
   1  -1   8 187.837 11.4980   2
   1  -1   8 176.250 7.72628   4
  -2   1  -8 194.417 12.0224   6
  -2   1  -8 205.707 7.39428   9
   2  -1   8 210.817 10.4784   2
   2  -1   8 191.168 12.3539   4
  -3   1  -8 219.737 8.39910   6
   3  -1   8 192.984 10.5253   4
   3  -1   8 219.217 16.1209   2
  -4   1  -8 155.540 9.09556   6
   4  -1   8 154.253 10.6350   2
   4  -1   8 152.447 10.4204   4
   4  -1   8 142.712 9.34461  10
   4  -1   8 146.811 11.1943   8
  -5   1  -8 267.685 12.3815   6
   5  -1   8 243.674 14.3832   8
   5  -1   8 275.508 13.9582   2
   5  -1   8 275.721 15.8758  10
   5  -1   8 232.327 14.5195   4
  -6   1  -8 72.6112 7.45553   6
   6  -1   8 59.7889 7.14116   8
   6  -1   8 45.6687 6.77715  10
   6  -1   8 62.6859 6.95834   2
   6  -1   8 54.3780 5.60306   4
  -7   1  -8 57.5338 6.55947   6
   7  -1   8 38.6690 5.54900   8
   7  -1   8 54.3068 7.52287   2
   7  -1   8 38.8509 7.31579   4
   7  -1   8 42.7011 6.08106  10
   9   0  -8 36.5559 5.04220   9
  -9   0   8 33.7792 7.16393   2
   8   0  -8 58.4748 5.06282   9
  -8   0   8 40.2555 20.8183   2
   7   0  -8 82.4894 6.21501   9
   7   0  -8 106.549 7.12975   5
  -7   0   8 80.2490 5.81828   1
  -7   0   8 82.4702 8.60917   2
   6   0  -8 107.618 5.83651   9
   6   0  -8 95.7276 8.13474   5
  -6   0   8 79.6702 7.91935   2
  -6   0   8 89.2837 6.74642   1
   5   0  -8 323.359 15.5981   5
   5   0  -8 301.161 14.0285   9
  -5   0   8 309.150 21.7873   2
  -5   0   8 312.597 28.4279   1
   4   0  -8 148.620 7.10489   9
   4   0  -8 169.682 13.0613   7
   4   0  -8 149.802 8.65981   5
  -4   0   8 181.393 11.5586   2
  -4   0   8 174.958 11.1172   1
   3   0  -8 209.846 8.03011   5
   3   0  -8 201.931 12.0621   7
   3   0  -8 218.465 7.72478   9
   3   0  -8 203.343 10.9275   6
  -3   0   8 231.292 16.8546   2
  -3   0   8 190.896 11.5545   1
   2   0  -8 374.400 19.1713   6
   2   0  -8 282.095 13.0810   5
   2   0  -8 381.070 26.7042   7
   2   0  -8 358.755 16.1215   9
  -2   0   8 365.265 28.2684   2
   1   0  -8 147.755 7.59092   9
   1   0  -8 169.908 7.44521   6
   1   0  -8 163.716 8.05948   7
  -1   0   8 156.499 8.49226   2
  -1   0   8 166.009 8.33497   4
   0   0  -8 609.705 31.6219   6
   0   0  -8 624.432 19.8252   9
   0   0   8 627.644 33.2585   2
   0   0   8 617.829 28.1540   4
  -1   0  -8 468.813 19.6808   9
  -1   0  -8 473.875 13.0564   6
   1   0   8 465.575 21.9023   2
   1   0   8 478.209 21.6374   4
  -2   0  -8 230.008 8.03980   6
  -2   0  -8 233.037 14.3020   1
  -2   0  -8 209.768 10.9261   9
  -2   0  -8 223.419 13.0813   1
   2   0   8 224.870 10.6536   4
   2   0   8 245.462 12.6417   2
  -3   0  -8 359.175 17.5904   9
  -3   0  -8 360.854 21.2814   1
  -3   0  -8 361.894 16.0467   6
   3   0   8 338.040 16.9140   4
   3   0   8 377.207 18.6503   2
  -4   0  -8 334.562 11.3861   6
  -4   0  -8 347.230 17.3484   1
   4   0   8 358.623 22.6698   2
   4   0   8 339.142 20.2646   4
  -5   0  -8 63.8386 5.74872   6
  -5   0  -8 72.3825 4.01935   1
   5   0   8 67.4720 6.22538   4
   5   0   8 58.5104 6.31274  10
   5   0   8 63.0416 5.32199   2
   5   0   8 58.4419 6.03979   8
  -6   0  -8 355.665 23.2581   1
  -6   0  -8 359.220 15.7895   6
   6   0   8 308.015 26.3337  10
   6   0   8 307.650 16.8080   4
   6   0   8 371.545 19.2587   2
   6   0   8 311.584 23.4796   8
  -7   0  -8 133.004 8.91751   6
   7   0   8 109.230 8.38791   8
   7   0   8 128.419 9.41054   2
   7   0   8 105.496 9.94761  10
   7   0   8 110.994 8.52436   4
  -8   0  -8 56.9500 8.01169   6
   8   0   8 54.0671 6.81061   8
   8   0   8 63.3942 7.37731   2
   8   0   8 57.4551 6.96505   4
   8   0   8 58.1696 8.20268  10
   9  -1  -8 45.1670 6.41731   9
   9  -1  -8 47.2121 5.76539   5
  -9   1   8 40.8237 7.01814   1
  -9   1   8 44.6915 9.72232   2
   8  -1  -8 6.64793 3.62778   9
   8  -1  -8 -0.2319 3.93070   5
  -8   1   8 3.68427 5.56512   2
  -8   1   8 3.67122 5.41673   1
   7  -1  -8 388.447 20.8832   5
   7  -1  -8 385.234 16.9807   9
  -7   1   8 426.384 41.2177   2
  -7   1   8 386.749 26.1999   1
   6  -1  -8 265.258 16.8871   5
   6  -1  -8 283.177 12.1537   9
  -6   1   8 259.995 20.8363   2
  -6   1   8 272.904 19.6287   1
   5  -1  -8 48.9250 4.78479   9
   5  -1  -8 44.1055 4.44837   5
  -5   1   8 55.8274 6.49649   2
  -5   1   8 47.4894 4.63170   1
   4  -1  -8 399.756 27.0603   1
   4  -1  -8 459.467 19.5432   5
   4  -1  -8 446.258 10.3876   9
  -4   1   8 455.591 24.2729   2
  -4   1   8 436.590 28.8758   1
   3  -1  -8 181.825 13.0678   1
   3  -1  -8 204.229 9.24165   5
   3  -1  -8 189.403 14.7728   7
   3  -1  -8 204.885 7.73192   9
  -3   1   8 192.274 9.09735   1
  -3   1   8 194.404 10.6933   2
   2  -1  -8 213.091 13.2482   7
   2  -1  -8 216.073 9.73557   5
   2  -1  -8 215.479 15.3184   1
   2  -1  -8 221.285 7.60237   9
   2  -1  -8 216.488 13.1916   6
  -2   1   8 246.659 13.2470   2
  -2   1   8 220.021 16.5700   1
   1  -1  -8 749.766 26.3938   7
   1  -1  -8 765.382 29.6351   6
   1  -1  -8 730.379 56.0235   1
   1  -1  -8 788.125 24.6480   9
   1  -1  -8 780.184 17.4065   5
  -1   1   8 775.156 29.7972   4
  -1   1   8 797.447 44.1771   2
   0  -1  -8 786.608 13.8660   9
   0  -1  -8 740.060 37.7656   5
   0  -1  -8 720.620 50.8908   1
   0  -1  -8 732.753 25.9476   6
   0   1   8 775.277 41.6313   4
   0   1   8 753.017 41.3714   2
  -1  -1  -8 135.182 6.53198   3
  -1  -1  -8 135.960 4.43141   6
  -1  -1  -8 141.839 5.40230   5
  -1  -1  -8 137.516 8.56596   1
  -1  -1  -8 125.809 5.45272   9
   1   1   8 134.968 7.69728   2
   1   1   8 143.021 8.32275   4
  -2  -1  -8 776.577 30.9623   9
  -2  -1  -8 767.224 49.9572   1
  -2  -1  -8 791.254 32.9335   1
  -2  -1  -8 764.517 20.1840   3
  -2  -1  -8 790.186 24.4892   6
   2   1   8 821.734 40.7504   2
   2   1   8 795.014 37.9632   4
  -3  -1  -8 497.784 21.7208   6
  -3  -1  -8 499.518 27.5573   1
  -3  -1  -8 484.121 14.3282   3
  -3  -1  -8 485.567 22.7741   9
  -3  -1  -8 475.972 44.0080   1
   3   1   8 511.934 24.7194   2
   3   1   8 470.597 23.3177   4
  -4  -1  -8 353.881 11.8732   6
  -4  -1  -8 321.454 13.5959   9
  -4  -1  -8 330.418 10.4595   3
  -4  -1  -8 319.013 18.9174   1
   4   1   8 330.923 14.7331   4
   4   1   8 315.534 17.9187   2
  -5  -1  -8 390.167 25.5976   1
  -5  -1  -8 400.864 17.4459   6
  -5  -1  -8 396.036 15.0903   3
   5   1   8 406.694 18.6103   2
   5   1   8 389.544 13.8981   4
   5   1   8 383.140 18.0430   8
   5   1   8 394.113 19.3485  10
  -6  -1  -8 212.739 9.20735   6
  -6  -1  -8 210.400 12.0531   3
  -6  -1  -8 199.116 12.2434   1
   6   1   8 212.411 10.5238  10
   6   1   8 191.319 10.6832   4
   6   1   8 201.291 11.2566   8
   6   1   8 202.379 10.7107   2
  -7  -1  -8 99.2344 6.25178   3
  -7  -1  -8 106.281 6.45047   1
  -7  -1  -8 110.421 7.85053   6
   7   1   8 98.8173 7.83537  10
   7   1   8 93.4322 7.55153   4
   7   1   8 105.495 7.49241   8
   7   1   8 103.812 7.10225   2
  -8  -1  -8 176.633 11.6432   3
  -8  -1  -8 170.109 12.9019   1
  -8  -1  -8 152.448 9.56103   6
   8   1   8 153.953 10.3920   4
   8   1   8 180.698 12.5456   2
   8   1   8 174.550 10.3526   8
   8   1   8 159.806 11.1913  10
   9  -2  -8 28.0657 7.09536   5
   9  -2  -8 28.3766 6.10696   9
  -9   2   8 23.1683 5.76522   1
  -9   2   8 30.1644 7.03803   2
   8  -2  -8 85.1325 8.24972   5
   8  -2  -8 90.7320 6.66798   9
  -8   2   8 61.5304 7.46786   1
  -8   2   8 56.8519 7.23654   2
   7  -2  -8 517.948 26.5115   5
   7  -2  -8 546.918 25.2413   9
  -7   2   8 521.138 30.4103   2
  -7   2   8 468.142 49.4965   1
   6  -2  -8 -0.7325 4.31315   5
   6  -2  -8 7.72787 4.05107   9
  -6   2   8 1.52329 2.76678   1
  -6   2   8 1.93707 7.10293   2
   5  -2  -8 269.297 8.09937   9
   5  -2  -8 293.690 11.0278   5
  -5   2   8 289.571 16.9933   1
  -5   2   8 265.221 20.0317   2
   4  -2  -8 252.696 13.5926   5
   4  -2  -8 263.035 15.1336   9
  -4   2   8 257.277 20.2511   1
  -4   2   8 264.357 16.7458   2
   3  -2  -8 111.309 8.50608   1
   3  -2  -8 121.534 5.72330   9
   3  -2  -8 110.525 6.30701   5
  -3   2   8 112.338 6.67342   1
  -3   2   8 109.368 7.03076   2
   2  -2  -8 1213.78 46.4799   9
   2  -2  -8 1210.53 42.8338   5
   2  -2  -8 1249.48 52.6391   1
  -2   2   8 1247.80 95.1522   1
  -2   2   8 1234.75 59.0753   2
   1  -2  -8 536.236 37.7215   1
   1  -2  -8 573.313 12.2063   9
   1  -2  -8 575.098 15.9800   5
   1  -2  -8 571.352 19.3290   7
   1  -2  -8 585.898 17.3607   6
  -1   2   8 562.299 29.6593   2
  -1   2   8 550.058 29.5266   1
   0  -2  -8 436.293 10.1349   6
   0  -2  -8 413.420 25.8299   1
   0  -2  -8 434.709 14.0623   9
   0  -2  -8 438.534 13.4298   5
   0  -2  -8 411.330 20.4442   3
   0   2   8 436.474 20.3112   4
   0   2   8 435.023 18.6487   2
  -1  -2  -8 1246.37 28.6783   3
  -1  -2  -8 1240.00 32.8460   5
  -1  -2  -8 1233.32 57.1049   1
  -1  -2  -8 1217.12 35.8681   9
  -1  -2  -8 1241.50 37.6019   6
   1   2   8 1303.70 60.3953   2
   1   2   8 1262.39 53.0714   4
  -2  -2  -8 505.628 22.4337   5
  -2  -2  -8 522.184 14.1077   9
  -2  -2  -8 543.085 20.0928   3
  -2  -2  -8 508.311 31.3048   1
  -2  -2  -8 525.703 18.4506   6
   2   2   8 497.393 26.7416   4
   2   2   8 514.571 26.3328   2
  -3  -2  -8 392.411 13.5438   6
  -3  -2  -8 429.609 13.2919   3
  -3  -2  -8 384.878 24.1574   1
  -3  -2  -8 380.425 18.5217   9
   3   2   8 380.225 28.7955   5
   3   2   8 398.078 20.5777   4
   3   2   8 387.820 20.2753   2
  -4  -2  -8 863.715 56.7120   9
  -4  -2  -8 875.335 27.3846   6
  -4  -2  -8 896.847 24.2151   3
  -4  -2  -8 891.459 33.0797   1
  -4  -2  -8 879.691 72.9281   1
   4   2   8 897.870 37.3497   4
   4   2   8 918.875 52.7488   5
   4   2   8 906.184 52.0474   2
  -5  -2  -8 233.648 8.50764   3
  -5  -2  -8 227.465 11.0159   1
   5   2   8 219.510 10.8846  10
   5   2   8 216.671 10.1013   2
   5   2   8 207.779 10.1308   4
   5   2   8 226.507 9.05148   8
  -6  -2  -8 264.330 10.9029   3
  -6  -2  -8 254.089 14.1538   1
   6   2   8 261.257 13.6394   2
   6   2   8 256.626 11.2519   8
   6   2   8 246.014 10.9608  10
   6   2   8 235.820 12.2343   4
  -7  -2  -8 388.490 20.1636   3
  -7  -2  -8 402.976 24.3450   1
   7   2   8 421.867 20.2562   8
   7   2   8 382.816 18.4043   4
   7   2   8 401.434 20.8723  10
   7   2   8 397.793 22.4024   2
  -8  -2  -8 138.729 8.05590   3
  -8  -2  -8 124.722 10.0366   1
   8   2   8 123.915 7.97043  10
   8   2   8 124.094 9.43679   2
   8   2   8 138.891 8.41654   8
   8   2   8 112.575 9.57276   4
  -9  -2  -8 59.8703 8.64722   6
  -9  -2  -8 61.8508 6.46025   1
  -9  -2  -8 55.8685 5.86946   3
   9   2   8 46.3363 7.89556   8
   9   2   8 56.0738 6.70296   4
   9   2   8 42.9295 8.17026  10
   9   2   8 64.1096 5.45131   2
   9  -3  -8 44.7506 5.12981   9
   9  -3  -8 51.7764 5.76708   5
  -9   3   8 43.5671 10.0838   2
  -9   3   8 34.8922 8.14591   1
   8  -3  -8 155.036 8.54968   9
   8  -3  -8 138.734 10.0510   5
  -8   3   8 142.337 12.2104   2
  -8   3   8 163.847 13.6074   1
   7  -3  -8 88.3198 7.95489   5
   7  -3  -8 96.9837 6.19242   9
  -7   3   8 81.0646 8.34609   1
  -7   3   8 81.4876 7.30225   2
   6  -3  -8 71.7675 6.54952   5
   6  -3  -8 81.0723 5.56945   9
  -6   3   8 80.1827 5.42096   1
  -6   3   8 81.1101 6.45214   2
   5  -3  -8 358.959 14.3419   9
   5  -3  -8 379.472 13.1818   5
  -5   3   8 382.659 19.2725   1
  -5   3   8 384.481 19.5007   2
   4  -3  -8 223.041 11.3964   9
   4  -3  -8 223.657 14.9953   5
  -4   3   8 234.102 11.3774   2
  -4   3   8 225.414 11.7319   1
   3  -3  -8 789.174 28.5179   9
   3  -3  -8 744.948 38.9029   5
  -3   3   8 816.134 39.4923   1
  -3   3   8 809.064 41.8093   2
   2  -3  -8 509.881 13.6817   3
   2  -3  -8 492.004 15.8950   5
   2  -3  -8 490.650 18.5840   9
   2  -3  -8 485.608 34.4544   1
  -2   3   8 508.387 24.5992   2
  -2   3   8 489.160 19.5963   1
   1  -3  -8 258.765 18.3639   1
   1  -3  -8 299.433 8.30926   9
   1  -3  -8 294.604 13.9337   6
   1  -3  -8 286.324 12.9690   7
   1  -3  -8 277.508 7.35058   3
   1  -3  -8 287.263 11.2539   5
   1  -3  -8 286.793 13.2860   6
   1  -3  -8 291.852 13.6921   7
  -1   3   8 271.971 14.3687   1
  -1   3   8 282.585 13.7468   2
   0  -3  -8 1376.81 25.1799   5
   0  -3  -8 1314.02 36.1810   3
   0  -3  -8 1339.27 43.7214   9
   0  -3  -8 1454.67 37.4946   7
   0  -3  -8 1270.91 65.0089   1
   0  -3  -8 1269.16 45.2235   6
   0   3   8 1337.79 55.6145   2
   0   3   8 1340.63 50.9688   4
  -1  -3  -8 915.707 18.8592   5
  -1  -3  -8 887.812 24.4820   9
  -1  -3  -8 861.375 60.9643   1
  -1  -3  -8 871.210 16.5322   3
  -1  -3  -8 877.348 24.6901   6
   1   3   8 907.040 37.4398   4
   1   3   8 874.255 52.8163   2
  -2  -3  -8 577.814 34.8458   1
  -2  -3  -8 556.939 12.1289   9
  -2  -3  -8 580.765 17.5387   3
  -2  -3  -8 556.008 19.6189   5
   2   3   8 591.199 27.6093   2
   2   3   8 573.245 32.7857   4
  -3  -3  -8 1031.37 36.1463   9
  -3  -3  -8 1074.99 78.5181   1
  -3  -3  -8 1058.29 25.9637   3
  -3  -3  -8 1037.11 37.1212   5
   3   3   8 1071.14 74.9218   5
   3   3   8 1025.75 60.2340   2
   3   3   8 1075.70 47.2810   4
  -4  -3  -8 251.020 10.6916   9
  -4  -3  -8 265.317 8.48047   5
  -4  -3  -8 263.218 8.38029   3
   4   3   8 264.794 14.3623   2
   4   3   8 274.870 16.4746   5
   4   3   8 267.346 11.5281   4
  -5  -3  -8 225.601 14.4911   9
  -5  -3  -8 244.175 9.42771   3
   5   3   8 245.776 11.4801   4
   5   3   8 232.489 12.2773   2
  -6  -3  -8 676.768 27.1051   3
   6   3   8 631.499 31.6977   2
   6   3   8 667.554 24.7274  10
   6   3   8 661.867 22.3636   8
   6   3   8 682.813 24.2004   4
  -7  -3  -8 234.260 11.8454   3
  -7  -3  -8 241.896 14.6571   1
   7   3   8 246.292 10.0579  10
   7   3   8 235.370 14.5975   2
   7   3   8 251.721 11.9295   8
   7   3   8 243.035 12.4326   4
  -8  -3  -8 123.780 7.24316   3
  -8  -3  -8 121.731 8.77641   1
   8   3   8 126.855 7.70651   8
   8   3   8 139.940 8.99577   2
   8   3   8 126.055 8.78490  10
   8   3   8 125.682 7.52418   4
  -9  -3  -8 114.805 10.6802   3
  -9  -3  -8 119.528 8.98067   1
   9   3   8 107.653 10.5986   8
   9   3   8 107.274 10.8096  10
   9   3   8 112.698 9.17298   4
   9  -4  -8 37.3221 6.28925   9
   9  -4  -8 33.1813 6.97157   5
  -9   4   8 24.5900 8.41862   1
   8  -4  -8 33.3326 4.36979   9
   8  -4  -8 32.7897 4.98401   5
  -8   4   8 33.5995 6.69205   2
  -8   4   8 37.3185 6.75998   1
   7  -4  -8 240.546 15.6543   5
   7  -4  -8 258.079 9.86057   9
  -7   4   8 250.329 18.1096   1
  -7   4   8 250.391 14.1013   2
   6  -4  -8 127.682 7.41831   5
   6  -4  -8 116.429 7.03170   9
  -6   4   8 105.695 8.47936   1
  -6   4   8 143.240 8.09796   2
   5  -4  -8 41.7539 5.30614   5
   5  -4  -8 48.3685 4.70155   9
  -5   4   8 53.0086 5.43885   2
  -5   4   8 35.8815 5.10485   1
   4  -4  -8 437.990 14.3690   9
   4  -4  -8 451.537 24.3897   5
  -4   4   8 444.171 21.6421   2
  -4   4   8 449.546 21.1078   1
   3  -4  -8 443.460 15.5399   3
   3  -4  -8 445.916 13.3937   5
   3  -4  -8 438.492 13.3158   9
  -3   4   8 438.007 20.9524   1
  -3   4   8 449.110 21.8804   2
   2  -4  -8 269.303 7.65938   9
   2  -4  -8 262.978 12.1830   3
   2  -4  -8 259.473 10.4302   5
  -2   4   8 258.159 11.5691   1
  -2   4   8 258.707 11.9659   2
   1  -4  -8 1690.05 29.9109   9
   1  -4  -8 1648.71 83.1515   5
   1  -4  -8 1631.96 87.6886   1
   1  -4  -8 1587.10 47.0409   3
  -1   4   8 1656.96 84.3722   1
  -1   4   8 1656.20 103.288   2
   0  -4  -8 822.997 33.1697   6
   0  -4  -8 798.008 16.1182   9
   0  -4  -8 811.693 23.4449   7
   0  -4  -8 771.471 21.4769   3
   0  -4  -8 767.998 18.0929   5
   0  -4  -8 768.399 46.6242   1
   0   4   8 762.787 33.1893   1
   0   4   8 782.289 38.3386   2
   0   4   8 783.667 36.2442   4
  -1  -4  -8 617.171 51.3481   5
  -1  -4  -8 625.964 35.4949   9
  -1  -4  -8 646.669 39.1882   7
  -1  -4  -8 593.690 14.8181   3
  -1  -4  -8 578.580 35.2964   1
   1   4   8 602.534 44.1810   4
   1   4   8 601.199 28.0048   2
  -2  -4  -8 554.727 27.0224   2
  -2  -4  -8 553.368 16.8586   3
  -2  -4  -8 576.057 24.6215   5
  -2  -4  -8 579.693 21.2978   9
  -2  -4  -8 557.430 28.8252   1
  -2  -4  -8 628.478 27.8459   7
   2   4   8 593.762 26.1779   4
   2   4   8 558.594 29.4233   2
  -3  -4  -8 312.714 11.8202   9
  -3  -4  -8 317.415 16.8873   3
  -3  -4  -8 311.683 16.2000   5
  -3  -4  -8 326.106 19.0108   2
   3   4   8 335.039 13.9076   4
   3   4   8 316.829 21.0823   5
   3   4   8 314.479 18.9768   2
  -4  -4  -8 602.119 44.2485   2
  -4  -4  -8 610.514 26.6074   9
  -4  -4  -8 598.299 19.7198   3
  -4  -4  -8 591.859 41.2370   5
   4   4   8 578.696 41.8036   4
   4   4   8 604.118 35.2191   5
   4   4   8 594.721 40.8055   2
  -5  -4  -8 731.411 32.0630   9
  -5  -4  -8 738.889 23.7733   3
  -5  -4  -8 753.691 35.2774   5
   5   4   8 745.082 37.4852   2
   5   4   8 738.954 29.2694   4
  -6  -4  -8 332.524 13.1618   3
   6   4   8 348.218 18.8086   2
   6   4   8 351.273 13.4669   4
   6   4   8 314.464 20.5931   8
   6   4   8 349.799 22.6430  10
  -7  -4  -8 289.424 13.5592   3
  -7  -4  -8 326.217 17.7185   1
   7   4   8 321.083 20.9963   4
   7   4   8 330.558 22.0940   8
   7   4   8 307.813 23.0568  10
   7   4   8 296.851 15.0197   2
  -8  -4  -8 246.206 13.7446   3
  -8  -4  -8 273.812 20.7714   1
   8   4   8 235.265 11.9066   8
   8   4   8 251.461 13.1463   4
   8   4   8 250.883 13.9361  10
  -9  -4  -8 42.2004 6.70309   3
  -9  -4  -8 43.1946 5.83404   1
   9   4   8 47.0558 5.94303   8
   9   4   8 46.4103 6.11277   4
   9   4   8 49.2164 6.38544  10
   9  -5  -8 3.18607 5.93899   9
   9  -5  -8 9.17189 4.77137   5
  -9   5   8 19.1926 6.33208   1
   8  -5  -8 124.165 7.83139   9
   8  -5  -8 141.258 9.40296   5
  -8   5   8 103.384 11.2686   1
   7  -5  -8 36.5429 4.32398   9
   7  -5  -8 38.8126 4.94702   5
  -7   5   8 35.4396 6.97234   1
   6  -5  -8 62.5625 4.63113   9
   6  -5  -8 57.3368 6.75865   5
  -6   5   8 51.1606 6.56091   1
   5  -5  -8 349.391 16.0385   5
   5  -5  -8 361.115 13.0089   9
  -5   5   8 369.438 21.6221   1
   4  -5  -8 232.946 8.57339   9
   4  -5  -8 222.537 9.90987   5
  -4   5   8 233.035 9.49694   2
  -4   5   8 224.597 11.8101   1
   3  -5  -8 348.738 10.7512   9
   3  -5  -8 325.701 10.4088   3
   3  -5  -8 338.122 11.6080   5
  -3   5   8 325.858 18.9140   1
  -3   5   8 344.773 12.9083   2
   2  -5  -8 928.206 21.6665   9
   2  -5  -8 919.113 22.3819   5
   2  -5  -8 910.362 19.4637   3
  -2   5   8 968.610 44.1046   1
  -2   5   8 948.992 45.0841   2
   1  -5  -8 447.932 11.4873   5
   1  -5  -8 451.402 15.6304   3
   1  -5  -8 434.334 9.95785   9
   1  -5  -8 438.309 29.0537   6
  -1   5   8 469.785 28.3056   2
  -1   5   8 445.556 35.6843   1
   0  -5  -8 352.817 13.5519   6
   0  -5  -8 338.940 8.49137   9
   0  -5  -8 352.194 16.1357   7
   0  -5  -8 356.241 9.72425   5
   0  -5  -8 325.945 9.41860   3
   0   5   8 324.953 16.5220   2
   0   5   8 355.320 14.8828   1
   0   5   8 341.847 13.2353   4
  -1  -5  -8 2025.54 69.4570   7
  -1  -5  -8 1957.78 79.0055   5
  -1  -5  -8 2013.57 102.020   6
  -1  -5  -8 1950.66 51.6242   3
  -1  -5  -8 1951.21 58.6947   9
   1   5   8 1988.83 65.2238   4
   1   5   8 1900.53 96.5907   2
  -2  -5  -8 105.789 5.15790   7
  -2  -5  -8 87.4137 3.69622   9
  -2  -5  -8 87.1541 4.27842   5
  -2  -5  -8 82.1229 9.98064   3
   2   5   8 89.7919 9.38200   4
   2   5   8 88.9861 5.67926   2
  -3  -5  -8 647.831 35.9412   2
  -3  -5  -8 633.383 23.7189   5
  -3  -5  -8 650.760 19.8653   3
  -3  -5  -8 650.393 18.9810   9
   3   5   8 652.960 21.6514   4
   3   5   8 636.342 54.1818   2
  -4  -5  -8 942.280 32.3206   3
  -4  -5  -8 934.738 58.1631   9
  -4  -5  -8 943.785 40.7257   5
   4   5   8 911.690 68.5580   2
   4   5   8 894.744 75.9714   5
   4   5   8 969.047 41.2155   4
  -5  -5  -8 270.920 11.8393   3
  -5  -5  -8 255.911 14.3999   9
  -5  -5  -8 256.133 18.8421   5
   5   5   8 269.133 10.2362   2
   5   5   8 253.694 11.3704   4
  -6  -5  -8 400.146 17.0897   3
   6   5   8 439.211 17.6600   8
   6   5   8 399.911 21.1525   2
   6   5   8 419.277 17.2367   4
   6   5   8 420.171 19.5743  10
  -7  -5  -8 400.945 17.5074   3
   7   5   8 382.627 17.1534   4
   7   5   8 380.517 15.2976  10
   7   5   8 381.581 15.1087   8
   7   5   8 375.801 41.4863   2
  -8  -5  -8 114.219 8.82201   1
  -8  -5  -8 117.509 8.09175   3
   8   5   8 113.601 7.58523  10
   8   5   8 106.249 7.53117   4
   8   5   8 104.902 8.04993   8
  -9  -5  -8 148.190 10.6166   3
  -9  -5  -8 161.972 13.6791   1
   9   5   8 160.251 11.0884   4
   9   5   8 151.707 11.6984  10
   9   5   8 139.460 11.2970   8
   8  -6  -8 10.1118 5.46795   9
   8  -6  -8 4.29590 6.05452   5
  -8   6   8 7.20814 5.59319   1
   7  -6  -8 59.1035 6.78404   5
   7  -6  -8 62.9387 5.14362   9
  -7   6   8 56.7813 6.70851   1
   6  -6  -8 175.353 8.31463   9
   6  -6  -8 183.738 10.2214   5
  -6   6   8 197.491 11.6768   1
   5  -6  -8 79.9698 4.91127   9
   5  -6  -8 60.4258 5.05155   5
  -5   6   8 51.9756 7.85683   1
   4  -6  -8 289.026 10.6894   5
   4  -6  -8 283.164 18.2796   3
   4  -6  -8 279.093 10.7661   9
  -4   6   8 323.589 35.9568   1
   3  -6  -8 473.729 15.0846   5
   3  -6  -8 496.247 18.0515   3
   3  -6  -8 505.027 19.4208   9
  -3   6   8 495.455 25.8656   1
  -3   6   8 522.621 20.4306   2
   2  -6  -8 267.488 8.29340   9
   2  -6  -8 274.524 8.55085   5
   2  -6  -8 267.064 8.54222   3
  -2   6   8 287.912 20.2839   2
  -2   6   8 246.155 25.8842   1
   1  -6  -8 531.312 48.1668   6
   1  -6  -8 549.980 11.5936   5
   1  -6  -8 551.022 12.5916   3
   1  -6  -8 516.989 19.6234   9
  -1   6   8 569.599 26.5917   2
  -1   6   8 582.431 25.4453   1
   0  -6  -8 755.927 41.5068   7
   0  -6  -8 728.112 17.3037   3
   0  -6  -8 775.992 35.9425   6
   0  -6  -8 767.161 21.2633   5
   0  -6  -8 737.423 16.3799   9
   0   6   8 723.271 38.1506   1
   0   6   8 756.165 47.7404   2
   0   6   8 753.910 37.2443   4
  -1  -6  -8 369.774 18.5366   6
  -1  -6  -8 361.379 19.7569   7
  -1  -6  -8 361.979 8.35068   5
  -1  -6  -8 340.161 14.3750   3
  -1  -6  -8 356.418 9.84044   9
   1   6   8 345.409 26.9101   2
   1   6   8 368.330 15.9262   4
  -2  -6  -8 96.2569 6.25736   7
  -2  -6  -8 97.5936 4.38448   9
  -2  -6  -8 87.5373 4.94688   5
  -2  -6  -8 93.0394 6.47506   6
  -2  -6  -8 84.2714 5.38493   3
   2   6   8 89.5909 7.29067   2
   2   6   8 101.183 5.67036   4
  -3  -6  -8 1064.17 50.9761   9
  -3  -6  -8 1101.38 30.3660   5
  -3  -6  -8 1084.10 32.4500   3
   3   6   8 1034.26 91.1808   2
   3   6   8 1026.17 47.3297   4
  -4  -6  -8 226.970 8.43854   3
  -4  -6  -8 223.913 11.9808   9
  -4  -6  -8 219.379 12.2498   5
   4   6   8 216.023 17.1590   2
   4   6   8 230.138 10.5600   4
  -5  -6  -8 339.293 17.1956   9
  -5  -6  -8 354.164 13.3531   5
  -5  -6  -8 356.302 12.8992   3
   5   6   8 364.492 26.8511   4
   5   6   8 346.259 24.2061   2
  -6  -6  -8 819.621 31.0496   3
   6   6   8 814.974 29.9740   4
   6   6   8 763.103 31.8229   8
   6   6   8 795.902 37.5784  10
  -7  -6  -8 55.6957 6.51291   3
   7   6   8 59.8085 5.26691   8
   7   6   8 61.9434 5.35601   4
   7   6   8 58.6761 5.54821  10
  -8  -6  -8 223.506 11.1180   3
   8   6   8 234.036 15.4675   4
   8   6   8 219.783 12.0546   8
   8   6   8 245.242 16.5271  10
  -9  -6  -8 101.074 9.31322   1
  -9  -6  -8 85.8548 7.37429   3
   9   6   8 87.0946 8.03897   8
   9   6   8 86.7863 8.38597  10
   9   6   8 79.9634 8.11465   4
   8  -7  -8 3.28859 6.48549   5
   8  -7  -8 4.28438 5.69930   9
  -8   7   8 14.7626 9.10574   1
   7  -7  -8 121.406 8.45749   5
   7  -7  -8 133.612 8.86409   9
  -7   7   8 132.177 44.0581   1
   6  -7  -8 49.7370 5.38290   5
   6  -7  -8 57.5646 5.96980   9
  -6   7   8 57.3081 8.22896   1
   5  -7  -8 93.5628 5.40589   9
   5  -7  -8 106.365 7.35682   5
  -5   7   8 92.1177 7.40130   1
   4  -7  -8 247.387 12.6771   3
   4  -7  -8 249.134 9.55644   5
   4  -7  -8 248.855 10.7406   9
  -4   7   8 257.756 15.8493   1
   3  -7  -8 34.9632 3.19445   3
   3  -7  -8 39.4034 5.21985   5
   3  -7  -8 35.3127 4.49628   9
  -3   7   8 29.4925 4.59052   1
   2  -7  -8 513.983 18.6528   5
   2  -7  -8 528.477 27.9178   9
   2  -7  -8 529.630 18.1588   3
  -2   7   8 557.049 23.0161   2
  -2   7   8 533.348 23.4485   1
   1  -7  -8 334.390 169.886   3
   1  -7  -8 277.889 8.05188   9
   1  -7  -8 276.265 12.1499   5
   1  -7  -8 277.497 20.2920   6
  -1   7   8 260.257 27.8358   7
  -1   7   8 296.060 12.1734   2
  -1   7   8 276.683 12.3448   1
   0  -7  -8 336.034 30.5853   6
   0  -7  -8 337.345 9.86437   9
   0  -7  -8 345.828 9.02403   3
   0  -7  -8 345.617 11.0289   5
   0  -7  -8 344.703 23.2876   7
   0   7   8 351.358 15.2446   1
   0   7   8 332.175 24.0458   2
   0   7   8 349.567 17.5749   4
  -1  -7  -8 295.050 19.1453   7
  -1  -7  -8 299.543 8.27381   9
  -1  -7  -8 283.630 9.73837   3
  -1  -7  -8 289.897 18.1361   6
  -1  -7  -8 292.301 10.1039   5
   1   7   8 306.504 14.4118   1
   1   7   8 290.195 24.5595   2
   1   7   8 282.994 12.2091   4
  -2  -7  -8 233.420 8.86519   3
  -2  -7  -8 244.761 7.46509   9
  -2  -7  -8 230.210 22.7007   6
  -2  -7  -8 235.649 11.0701   5
  -2  -7  -8 229.459 24.3622   7
   2   7   8 231.990 13.1940   4
   2   7   8 229.472 20.2242   2
  -3  -7  -8 253.066 13.3843   9
  -3  -7  -8 284.132 8.90879   5
  -3  -7  -8 296.080 11.0943   3
   3   7   8 271.379 26.3322   2
   3   7   8 301.088 14.7105   4
  -4  -7  -8 644.473 19.7037   5
  -4  -7  -8 608.847 26.0921   9
  -4  -7  -8 614.316 17.4341   3
   4   7   8 603.208 47.7839   2
   4   7   8 624.309 30.3076   4
  -5  -7  -8 542.430 27.7969   9
  -5  -7  -8 563.853 39.2750   5
  -5  -7  -8 535.236 19.1048   3
   5   7   8 535.332 25.5226   4
  -6  -7  -8 77.8841 6.67316   3
   6   7   8 79.5558 5.44463   8
   6   7   8 79.3345 5.66611  10
   6   7   8 75.6209 5.34872   4
  -7  -7  -8 230.737 12.7142   3
   7   7   8 219.832 10.7774  10
   7   7   8 215.215 11.1544   4
   7   7   8 233.956 10.1254   8
  -8  -7  -8 134.816 10.4345   3
   8   7   8 167.694 8.47056  10
   8   7   8 148.936 9.89964   8
   8   7   8 150.129 9.88846   4
  -9  -7  -8 21.6380 6.94850   3
   9   7   8 29.0161 6.62957   8
   9   7   8 32.5200 6.96954   4
   9   7   8 23.8083 6.93387  10
   7  -8  -8 2.73344 4.57060   5
   7  -8  -8 4.84454 4.11398   9
  -7   8   8 5.14137 6.39223   1
   6  -8  -8 89.3284 6.98224   9
   6  -8  -8 91.1226 8.64509   5
  -6   8   8 92.6288 8.04806   1
   5  -8  -8 66.0363 5.91678   5
   5  -8  -8 65.5652 5.15986   9
  -5   8   8 63.4626 6.66038   1
   4  -8  -8 10.1481 4.47886   9
   4  -8  -8 6.44665 4.78212   5
  -4   8   8 5.27710 4.50814   1
   3  -8  -8 301.375 19.9156   3
   3  -8  -8 310.358 10.5522   9
   3  -8  -8 304.263 15.8402   5
  -3   8   8 320.252 17.3017   1
   2  -8  -8 371.603 12.2276   3
   2  -8  -8 388.878 15.5500   5
  -2   8   8 368.915 22.8869   1
   1  -8  -8 10.9735 3.22712   3
   1  -8  -8 13.0033 4.41999   5
  -1   8   8 9.80311 5.18189   1
  -1   8   8 9.25879 3.72338   2
   0  -8  -8 349.074 27.1315   7
   0  -8  -8 370.861 14.8453   5
   0  -8  -8 389.568 15.5431   3
   0  -8  -8 342.227 32.0710   6
   0   8   8 367.066 28.9459   7
   0   8   8 391.814 24.1494   2
   0   8   8 388.667 23.4382   4
   0   8   8 374.089 18.0179   1
  -1  -8  -8 221.867 35.9536   7
  -1  -8  -8 256.822 9.74491   5
  -1  -8  -8 246.380 12.0080   3
   1   8   8 247.629 12.1684   4
   1   8   8 248.716 20.0250   2
   1   8   8 242.608 20.3049   1
   1   8   8 218.056 13.1841   7
  -2  -8  -8 62.9347 5.19409   3
  -2  -8  -8 62.6480 4.41563   5
   2   8   8 71.3061 8.24233   2
   2   8   8 72.6729 5.68379   4
  -3  -8  -8 700.049 36.7135   5
  -3  -8  -8 687.983 23.1756   3
   3   8   8 703.797 31.8682   4
   3   8   8 654.031 53.5870   2
  -4  -8  -8 277.361 8.81327   5
  -4  -8  -8 267.193 9.53238   3
   4   8   8 263.849 20.3050   4
  -5  -8  -8 151.694 7.20010   3
  -5  -8  -8 150.282 8.87342   5
   5   8   8 159.759 9.34078   4
  -6  -8  -8 201.364 10.4470   3
   6   8   8 201.044 15.8802  10
   6   8   8 196.485 9.34825   4
   6   8   8 191.540 14.9804   8
  -7  -8  -8 151.631 9.42644   3
   7   8   8 141.394 8.61852   4
   7   8   8 138.898 9.25912   8
   7   8   8 138.374 10.3485  10
  -8  -8  -8 33.2177 6.80495   3
   8   8   8 33.6588 6.32707   4
   8   8   8 27.7929 6.12516  10
   8   8   8 31.4828 6.06662   8
  -9  -8  -8 81.9656 9.35954   3
   9   8   8 90.9399 8.11196   4
   9   8   8 91.9470 8.61053  10
   9   8   8 88.2144 6.96472   8
   6  -9  -8 63.8523 5.67332   9
   6  -9  -8 75.9218 6.96704   5
  -6   9   8 70.8913 10.8063   1
   5  -9  -8 1.57776 5.60146   5
   5  -9  -8 2.75981 5.10516   9
  -5   9   8 -0.9472 7.70987   1
   4  -9  -8 94.8951 5.83981   9
   4  -9  -8 89.7662 6.51525   5
  -4   9   8 105.466 8.59322   1
   3  -9  -8 104.920 6.87504   3
   3  -9  -8 119.912 10.0808   5
  -3   9   8 114.349 9.47249   1
   2  -9  -8 41.0814 4.00441   3
  -2   9   8 30.1048 6.52715   1
   1  -9  -8 150.362 7.86485   5
   1  -9  -8 177.322 9.33450   3
  -1   9   8 119.128 12.2008   7
  -1   9   8 147.478 11.3348   1
   0  -9  -8 93.3928 6.56713   5
   0  -9  -8 99.5021 8.37496   3
   0   9   8 76.0577 6.16104   7
   0   9   8 100.343 8.07878   1
   0   9   8 109.289 8.91341   4
   0   9   8 110.777 7.43456   2
  -1  -9  -8 40.3054 4.75646   3
  -1  -9  -8 32.3438 4.04255   5
   1   9   8 42.0304 4.27572   2
   1   9   8 28.7174 3.44157   7
   1   9   8 40.4639 4.89003   4
   1   9   8 28.6216 6.15215   1
  -2  -9  -8 292.157 12.8776   5
  -2  -9  -8 296.649 12.9360   3
   2   9   8 262.528 16.7606   7
   2   9   8 288.902 22.4531   4
  -3  -9  -8 174.592 9.17985   5
  -3  -9  -8 198.056 10.3576   3
   3   9   8 191.268 16.6949   4
  -4  -9  -8 98.5690 6.09449   3
  -4  -9  -8 97.6137 6.46869   5
   4   9   8 85.3341 6.80750   4
  -5  -9  -8 159.784 10.1405   3
  -5  -9  -8 136.331 7.93819   5
   5   9   8 158.361 9.88386   4
  -6  -9  -8 55.2976 6.76401   3
   6   9   8 69.3809 5.26370   8
   6   9   8 62.5878 4.99404   4
   6   9   8 71.0788 5.48694  10
  -7  -9  -8 34.2968 5.43926   3
   7   9   8 43.8164 4.84228   4
   7   9   8 40.9353 5.87053   8
   7   9   8 48.1698 6.21543  10
  -8  -9  -8 51.5591 6.44986   3
   8   9   8 63.2650 6.88649   4
   8   9   8 73.2347 5.90084   8
   8   9   8 64.3349 6.91293  10
  -9  -9  -8 25.4825 8.02016   3
   9   9   8 33.4467 7.23056  10
   9   9   8 40.0260 7.38363   4
   9   9   8 38.0638 6.96472   8
   5 -10  -8 8.61343 5.41839   5
   5 -10  -8 11.2031 6.60043   9
  -5  10   8 6.77871 6.49194   1
   4 -10  -8 48.7072 7.25722   5
  -4  10   8 39.7593 8.79740   1
   3 -10  -8 -0.9087 5.52931   5
  -3  10   8 -4.1133 7.22586   1
   2 -10  -8 92.2484 6.63845   5
   2 -10  -8 93.8173 6.38571   3
  -2  10   8 89.8115 9.74486   1
   1 -10  -8 22.2470 3.26409   3
   1 -10  -8 17.1169 4.17458   5
  -1  10   8 18.7492 5.08360   1
  -1  10   8 20.9329 5.16828   4
   0 -10  -8 20.5307 4.89990   3
   0 -10  -8 19.4065 4.12135   5
   0  10   8 16.8922 6.55144   1
   0  10   8 26.2052 3.08151   2
   0  10   8 11.1087 3.23289   7
   0  10   8 18.9842 3.70007   4
  -1 -10  -8 210.995 13.2920   5
  -1 -10  -8 204.786 12.6278   3
   1  10   8 187.963 19.3971   7
   1  10   8 221.297 21.2490   4
   1  10   8 215.172 23.0754   1
  -2 -10  -8 32.4233 4.34446   5
  -2 -10  -8 51.4652 5.62386   3
   2  10   8 42.1876 4.94013   4
   2  10   8 40.9312 5.03225   7
  -3 -10  -8 37.8148 4.51812   3
  -3 -10  -8 34.8145 4.43447   5
   3  10   8 33.9529 5.03546   4
   3  10   8 21.0403 5.64533   7
  -4 -10  -8 171.113 11.0708   3
  -4 -10  -8 151.849 8.86560   5
   4  10   8 152.761 13.3569   4
  -5 -10  -8 36.2852 5.04474   3
  -5 -10  -8 31.6356 4.99593   5
   5  10   8 37.9420 4.39492  10
   5  10   8 35.5774 5.06464   4
   5  10   8 37.5473 4.17266   8
  -6 -10  -8 37.2170 5.44765   3
   6  10   8 44.7357 5.49927   8
   6  10   8 41.4452 4.57538   4
   6  10   8 50.3861 5.89870  10
  -7 -10  -8 54.9516 24.8589   3
   7  10   8 51.0712 6.18258   8
   7  10   8 51.6147 5.64613   4
   7  10   8 46.5324 6.57639  10
  -8 -10  -8 1.89349 7.43068   3
   8  10   8 13.4223 6.00117   4
   8  10   8 14.2696 4.39263  10
   8  10   8 17.3495 4.49584   8
   4 -11  -8 -1.4261 6.66469   5
  -4  11   8 5.87070 6.79807   1
   3 -11  -8 69.7336 8.22579   5
  -3  11   8 61.7884 9.78005   1
   2 -11  -8 24.8305 5.43079   5
  -2  11   8 19.3459 8.16927   1
   1 -11  -8 -0.8598 3.93013   5
   1 -11  -8 10.5964 4.38169   3
  -1  11   8 -5.2886 4.72271   1
  -1  11   8 5.87344 5.35293   4
   0 -11  -8 108.162 8.65822   5
   0 -11  -8 101.856 8.17392   3
   0  11   8 99.2024 10.2686   4
   0  11   8 89.7810 7.20288   7
   0  11   8 92.0807 7.63885   1
  -1 -11  -8 24.0996 5.93191   5
  -1 -11  -8 23.4905 4.04285   3
   1  11   8 16.8152 16.6389   7
   1  11   8 29.8193 4.96064   4
   1  11   8 18.8348 5.53450   1
  -2 -11  -8 10.9950 3.84168   3
  -2 -11  -8 11.0457 4.02834   5
   2  11   8 6.16176 5.71821   7
   2  11   8 7.02928 4.23495   4
  -3 -11  -8 86.4949 8.41777   5
  -3 -11  -8 118.488 7.94065   3
   3  11   8 103.834 9.76439   4
   3  11   8 78.9184 8.27023   7
  -4 -11  -8 3.44936 5.69370   3
  -4 -11  -8 2.04849 4.95758   5
   4  11   8 4.63836 4.07133   4
   4  11   8 2.30666 6.56025   7
  -5 -11  -8 14.3734 5.18685   5
  -5 -11  -8 11.5685 6.35072   3
   5  11   8 16.6204 4.86807  10
   5  11   8 -0.8292 5.00009   7
   5  11   8 11.0527 4.51135   4
   5  11   8 15.2274 4.71839   8
  -6 -11  -8 36.5903 5.86747   3
   6  11   8 41.8196 8.38445  10
   6  11   8 50.3163 8.42284   8
   6  11   8 46.5375 7.56096   4
  -7 -11  -8 -3.0820 6.81106   3
   7  11   8 -2.3009 4.88272   8
   7  11   8 -0.8567 5.15541   4
   7  11   8 3.86640 5.10259  10
   2 -12  -8 -0.9885 6.81024   5
  -2  12   8 -1.8919 8.99685   1
   1 -12  -8 42.6505 7.66197   5
   1 -12  -8 47.7240 5.89905   3
  -1  12   8 43.9862 7.30182   1
   0 -12  -8 0.31522 4.93118   3
   0 -12  -8 3.18937 6.30483   5
   0  12   8 -1.6422 5.69836   1
  -1 -12  -8 15.3922 6.37771   5
  -1 -12  -8 15.4420 4.19722   3
   1  12   8 2.34573 4.66355   7
   1  12   8 10.9980 6.68701   1
  -2 -12  -8 29.9639 5.19898   5
  -2 -12  -8 31.1134 6.37749   3
   2  12   8 18.3435 5.21563   7
  -3 -12  -8 -1.3449 5.84500   5
  -3 -12  -8 6.98383 4.53450   3
   3  12   8 -0.3512 4.95758   7
  -4 -12  -8 6.76382 5.88065   5
  -4 -12  -8 4.20209 6.38843   3
   4  12   8 14.6244 8.03264   7
  -5 -12  -8 24.6391 5.69740   3
  -5 -12  -8 28.6409 6.38806   5
   5  12   8 24.9976 8.58885   7
  -6 -12  -8 -2.7604 5.14014   3
   0 -13  -8 8.84453 5.39654   5
   0 -13  -8 9.93595 5.82207   3
   0  13   8 2.30252 6.75143   1
  -1 -13  -8 2.24280 4.78965   5
  -1 -13  -8 3.15139 6.11297   3
  -2 -13  -8 -0.6549 6.79577   5
  -2 -13  -8 2.64469 4.75882   3
   2  13   8 0.54454 7.99004   7
  -3 -13  -8 0.30349 4.89246   5
  -3 -13  -8 -7.6082 6.72611   3
   3  13   8 11.3976 15.5445   7
  -4 -13  -8 27.7714 5.85739   5
  -4 -13  -8 30.7508 6.05853   3
   4  13   8 26.8342 9.43602   7
  -3  -5   9 0.14540 6.11610   2
   2   5  -9 22.3685 7.29630   6
   2   5  -9 34.9285 5.76553   7
  -2  -5   9 18.6949 6.52020   2
   1   5  -9 17.7571 6.90313   7
   1   5  -9 22.3517 7.21155   6
  -1  -5   9 11.8166 6.45391   2
   0   5  -9 9.54457 7.05647   6
   0  -5   9 65.0164 46.3569   2
   5   4  -9 0.73900 4.49023   9
  -5  -4   9 3.07981 5.97286   2
  -4  -4   9 0.17620 7.57815   2
  -3  -4   9 14.7016 7.93504   2
   2   4  -9 7.57936 4.97830   6
   2   4  -9 7.12875 4.97386   7
  -2  -4   9 2.02035 5.05175   2
   1   4  -9 67.0318 7.03483   7
   1   4  -9 60.5298 7.82915   6
  -1  -4   9 80.4948 29.3269   2
   0   4  -9 15.3310 6.05258   7
   0   4  -9 19.5123 4.50529   6
   0  -4   9 4.93945 7.52844   2
  -1   4  -9 26.0101 14.6720   7
  -1   4  -9 33.5241 15.0433   6
  -2   4  -9 12.4899 4.97948   6
  -2   4  -9 14.5941 6.95608   7
   2  -4   9 5.28606 7.65906   2
  -3   4  -9 13.8394 7.41465   6
   3  -4   9 7.97385 6.06019   2
   7   3  -9 15.7363 6.63143   9
  -7  -3   9 5.52473 8.99457   2
   6   3  -9 -0.5071 5.70573   9
  -6  -3   9 -2.1759 7.95843   2
   5   3  -9 13.5286 4.25955   9
  -5  -3   9 5.91869 7.43505   2
   4   3  -9 16.2309 4.14899   9
  -4  -3   9 5.30805 5.65285   4
  -4  -3   9 15.1707 5.46819   2
   3   3  -9 16.4056 3.96313   9
   3   3  -9 22.8605 12.2348   6
  -3  -3   9 11.8609 5.45507   4
  -3  -3   9 15.5614 5.14214   2
   2   3  -9 62.6424 6.18752   6
   2   3  -9 45.6648 5.18988   7
   2   3  -9 43.2836 4.62588   9
  -2  -3   9 42.5979 5.65584   4
  -2  -3   9 50.1663 7.75247   2
   1   3  -9 49.3893 5.61954   6
   1   3  -9 43.0665 5.49636   7
  -1  -3   9 36.6217 5.70865   2
  -1  -3   9 30.5875 4.27224   4
   0   3  -9 1.33708 3.35059   7
   0   3  -9 3.61544 4.74858   6
   0  -3   9 6.64283 6.52955   2
   0  -3   9 0.71592 4.73736   4
  -1   3  -9 60.4479 5.18366   7
  -1   3  -9 52.0090 6.19960   6
   1  -3   9 45.2953 6.27867   2
   1  -3   9 32.6099 5.44690   4
  -2   3  -9 73.4553 5.89979   6
   2  -3   9 68.2259 6.88305   2
   2  -3   9 63.2962 7.30119   4
  -3   3  -9 29.6386 5.20875   6
   3  -3   9 23.3651 7.67180   2
   3  -3   9 15.4618 8.39155   4
   3  -3   9 10.8297 6.22362   8
   3  -3   9 13.6713 10.9803  10
  -4   3  -9 74.4549 8.39890   6
   4  -3   9 73.9987 9.47925   2
   7   2  -9 -1.6483 4.24072   9
  -7  -2   9 6.75821 8.07449   2
   6   2  -9 7.66483 4.12023   9
  -6  -2   9 19.1314 5.99801   2
   5   2  -9 69.4122 5.51920   9
  -5  -2   9 61.9788 6.92260   2
   4   2  -9 0.66961 3.33507   9
  -4  -2   9 -4.0824 6.27508   2
   3   2  -9 12.3810 3.64759   9
   3   2  -9 11.8532 2.52289   7
   3   2  -9 12.4348 3.43226   6
  -3  -2   9 7.67567 3.93299   4
  -3  -2   9 11.8067 4.69871   2
   2   2  -9 96.4137 6.93530   6
   2   2  -9 92.5775 6.73036   7
   2   2  -9 96.3014 6.32659   9
  -2  -2   9 75.2296 6.54982   4
  -2  -2   9 112.548 14.6552   2
   1   2  -9 53.3554 3.98437   6
   1   2  -9 41.7285 4.34312   7
   1   2  -9 41.7573 4.17460   9
  -1  -2   9 33.8292 5.37579   2
   0   2  -9 54.4397 4.19027   7
   0   2  -9 42.2043 4.92882   9
   0   2  -9 50.6142 4.20856   6
   0  -2   9 48.3412 4.58172   4
   0  -2   9 46.7364 6.87707   2
  -1   2  -9 88.3969 6.09986   6
   1  -2   9 75.8647 7.78341   4
   1  -2   9 85.0580 8.75437   2
  -2   2  -9 15.2630 3.71151   6
   2  -2   9 17.1330 6.42544   2
   2  -2   9 6.07562 4.85607   4
  -3   2  -9 70.8017 13.4566   6
   3  -2   9 63.5872 6.83157  10
   3  -2   9 52.7247 6.15453   4
   3  -2   9 73.4887 6.04762   8
   3  -2   9 83.9317 8.16503   2
  -4   2  -9 52.3563 6.18574   6
   4  -2   9 46.2062 5.16054   8
   4  -2   9 46.4466 5.52432  10
   4  -2   9 58.4308 6.64568   2
   4  -2   9 44.2108 5.28005   4
   5  -2   9 52.9221 6.22610  10
   5  -2   9 55.7702 5.94019   4
   5  -2   9 43.0649 5.64221   8
   8   1  -9 10.5637 6.25786   9
  -8  -1   9 10.1800 6.73580   2
   7   1  -9 4.28411 5.64709   9
  -7  -1   9 16.4536 6.03091   2
   6   1  -9 8.92613 3.91209   9
  -6  -1   9 0.09198 7.15925   2
   5   1  -9 4.96060 3.42749   9
  -5  -1   9 2.93446 4.44354   2
   4   1  -9 1.60642 3.10293   9
  -4  -1   9 2.17412 4.15233   2
   3   1  -9 137.153 8.33061   7
   3   1  -9 123.770 7.29154   9
   3   1  -9 116.401 9.86628   6
  -3  -1   9 126.924 10.1049   2
   2   1  -9 11.0544 2.81954   7
   2   1  -9 7.83648 4.00303   9
   2   1  -9 10.5544 2.91457   6
  -2  -1   9 18.6478 4.57247   2
  -2  -1   9 7.88431 4.92344   4
   1   1  -9 142.766 7.74989   9
   1   1  -9 165.312 10.8786   7
   1   1  -9 176.396 8.84168   6
  -1  -1   9 190.794 10.7067   2
  -1  -1   9 151.744 10.7335   4
   0   1  -9 21.7900 3.72292   6
   0   1  -9 11.4616 3.04127   9
   0   1  -9 12.4734 3.40212   7
   0  -1   9 7.80376 4.59666   4
   0  -1   9 12.5079 5.57745   2
  -1   1  -9 47.1928 3.80804   9
  -1   1  -9 52.6757 4.69395   6
   1  -1   9 48.9417 6.43269   2
   1  -1   9 53.1958 5.52554   4
  -2   1  -9 151.343 11.5496   6
  -2   1  -9 140.716 7.35025   9
   2  -1   9 144.654 10.9562   4
   2  -1   9 168.310 10.9150   2
  -3   1  -9 112.385 17.9866   6
   3  -1   9 250.480 53.4384   4
   3  -1   9 103.446 8.13622   2
  -4   1  -9 40.4802 6.12033   6
   4  -1   9 26.6584 5.92163   4
   4  -1   9 20.4423 4.41082   8
   4  -1   9 38.8114 5.59137   2
   4  -1   9 22.4017 4.62292  10
  -5   1  -9 101.152 7.92053   6
   5  -1   9 108.126 7.56126   2
   5  -1   9 85.2073 7.62991   8
   5  -1   9 76.3683 6.14944   4
   5  -1   9 81.0037 6.98042  10
  -6   1  -9 30.2331 7.30244   6
   6  -1   9 21.5500 5.24945  10
   6  -1   9 24.7811 5.27772   8
   6  -1   9 31.9381 5.80888   2
   6  -1   9 30.2508 7.00054   4
   8   0  -9 61.4953 5.74192   9
  -8   0   9 45.3459 7.75090   2
   7   0  -9 1.68862 5.21137   9
  -7   0   9 -1.3558 5.53757   2
   6   0  -9 9.96297 3.64696   9
  -6   0   9 7.08207 5.19343   2
   5   0  -9 62.0434 4.80617   9
  -5   0   9 65.6729 9.15397   2
   4   0  -9 17.4214 3.35050   9
  -4   0   9 14.1075 5.95251   2
   3   0  -9 45.2961 4.82162   9
  -3   0   9 40.1265 5.10137   2
   2   0  -9 101.790 5.05293   9
   2   0  -9 94.3530 7.21798   6
   2   0  -9 105.910 6.56778   7
  -2   0   9 93.4356 6.62818   4
  -2   0   9 99.2583 7.43922   2
   1   0  -9 66.8568 5.11462   7
   1   0  -9 66.1805 4.04818   6
   1   0  -9 55.8146 3.93294   9
  -1   0   9 58.8651 4.86231   4
  -1   0   9 80.2228 5.83580   2
   0   0  -9 23.6508 3.95751   9
   0   0  -9 30.8041 3.21669   6
   0   0   9 28.2608 5.00766   4
   0   0   9 21.1163 5.44060   2
  -1   0  -9 165.775 7.08862   9
  -1   0  -9 171.093 7.19502   6
   1   0   9 158.789 9.72518   4
   1   0   9 173.887 14.6584   2
  -2   0  -9 99.3786 5.01866   9
  -2   0  -9 117.083 7.07559   6
   2   0   9 105.961 6.01195   4
   2   0   9 110.818 7.68153   2
  -3   0  -9 67.7363 11.3448   6
  -3   0  -9 51.6816 3.98183   9
   3   0   9 40.8795 5.72480   4
   3   0   9 62.4691 6.36622   2
   4   0   9 82.5842 5.81604   4
   4   0   9 83.2569 6.63213   2
  -5   0  -9 39.9318 5.94318   6
   5   0   9 45.0410 6.29534   4
   5   0   9 62.5418 7.21785   2
   5   0   9 45.5644 6.88992  10
   5   0   9 46.1235 6.55504   8
  -6   0  -9 65.6867 7.33491   6
   6   0   9 49.6990 7.44176  10
   6   0   9 48.8045 5.73680   4
   6   0   9 54.6350 7.25733   8
   6   0   9 54.7925 6.98187   2
  -7   0  -9 83.0877 9.05915   6
   7   0   9 67.3198 6.78618   8
   7   0   9 82.2978 6.85213   2
   7   0   9 68.7670 7.11111  10
   7   0   9 73.9154 6.98905   4
   8  -1  -9 27.4169 6.19944   9
   8  -1  -9 24.0783 5.32107   5
  -8   1   9 36.1095 9.24583   2
   7  -1  -9 51.8835 6.25135   9
   7  -1  -9 46.1113 6.92053   5
  -7   1   9 27.5923 8.67926   2
   6  -1  -9 47.4005 5.33149   5
   6  -1  -9 47.0252 4.61960   9
  -6   1   9 48.2046 7.99284   2
   5  -1  -9 25.4587 3.81419   9
   5  -1  -9 22.2149 5.51896   5
  -5   1   9 15.0109 4.87374   2
   4  -1  -9 -0.8445 4.51005   5
   4  -1  -9 0.55321 3.89871   9
  -4   1   9 -0.5512 3.72781   2
   3  -1  -9 108.280 5.38350   9
   3  -1  -9 102.776 6.77465   5
  -3   1   9 112.007 6.58271   2
   2  -1  -9 36.9406 2.19357   6
   2  -1  -9 38.1100 2.31979   7
   2  -1  -9 28.3363 3.90947   5
   2  -1  -9 23.6647 4.10788   9
  -2   1   9 36.3030 4.60044   2
   1  -1  -9 25.0382 3.17092   9
   1  -1  -9 38.1895 2.70015   7
   1  -1  -9 33.4891 3.86086   5
   1  -1  -9 37.4438 2.97681   6
  -1   1   9 31.8890 4.32754   2
  -1   1   9 29.3881 5.18544   4
   0  -1  -9 293.080 9.90355   9
   0  -1  -9 291.174 12.5740   6
   0  -1  -9 311.906 11.2007   5
   0   1   9 289.368 14.2765   4
   0   1   9 299.145 15.9111   2
  -1  -1  -9 31.1008 3.08738   9
  -1  -1  -9 39.0705 3.37444   6
  -1  -1  -9 31.8444 2.52185   1
   1   1   9 38.0892 4.32854   2
   1   1   9 28.9984 4.96011   4
  -2  -1  -9 34.8626 2.86914   1
  -2  -1  -9 25.5563 3.45768   9
  -2  -1  -9 35.3239 3.69421   6
   2   1   9 26.2112 5.01443   2
   2   1   9 30.0768 5.01237   4
  -3  -1  -9 84.3829 5.63273   3
  -3  -1  -9 82.0683 4.81458   6
  -3  -1  -9 66.1309 4.01680   9
  -3  -1  -9 79.1855 5.11379   1
   3   1   9 91.9717 6.48518   2
   3   1   9 69.5515 6.16095   4
  -4  -1  -9 26.7720 2.51832   9
  -4  -1  -9 45.3866 4.83021   6
  -4  -1  -9 34.9294 5.41919   3
  -4  -1  -9 41.4928 4.37142   1
   4   1   9 32.1767 5.63573   4
  -5  -1  -9 90.1441 6.36581   6
  -5  -1  -9 84.6916 6.87632   3
   5   1   9 91.9927 7.01849   2
   5   1   9 72.0708 7.40569  10
   5   1   9 79.3621 7.83062   4
   5   1   9 85.1209 6.88181   8
  -6  -1  -9 166.629 8.71015   3
  -6  -1  -9 174.356 10.9028   6
   6   1   9 163.070 10.8582  10
   6   1   9 155.836 10.2041   4
   6   1   9 157.680 7.94794   8
   6   1   9 184.863 16.7625   2
  -7  -1  -9 7.11765 4.20334   3
  -7  -1  -9 12.5984 6.12528   6
   7   1   9 6.81244 6.52705   4
   7   1   9 7.89488 5.69367   2
   7   1   9 9.29732 6.74375   8
   7   1   9 8.63630 6.94093  10
  -8  -1  -9 25.1323 7.37328   6
  -8  -1  -9 4.09642 4.75340   3
   8   1   9 17.9420 4.88844   2
   8   1   9 9.45891 5.52008   4
   8  -2  -9 -1.6241 6.30217   5
   8  -2  -9 -4.4077 5.41454   9
  -8   2   9 0.06262 8.50854   2
  -8   2   9 0.16995 4.28602   1
   7  -2  -9 -4.3592 5.54849   5
   7  -2  -9 1.48325 3.50807   9
  -7   2   9 -0.2298 5.19007   1
  -7   2   9 -0.8812 4.97409   2
   6  -2  -9 3.34743 3.21868   9
   6  -2  -9 1.52241 3.61398   5
  -6   2   9 3.16929 4.42184   1
  -6   2   9 6.43072 6.36505   2
   5  -2  -9 2.75626 4.57779   5
   5  -2  -9 1.67724 4.04379   9
  -5   2   9 8.74048 3.92481   1
  -5   2   9 -0.8775 5.72173   2
   4  -2  -9 109.575 6.06173   5
   4  -2  -9 114.052 6.04462   9
  -4   2   9 117.107 8.39429   2
  -4   2   9 113.357 9.72715   1
   3  -2  -9 7.51250 3.73626   9
   3  -2  -9 5.57233 3.02106   5
   3  -2  -9 7.77520 2.64253   1
  -3   2   9 0.54730 2.61152   1
  -3   2   9 5.74164 5.06026   2
   2  -2  -9 30.4624 3.02881   1
   2  -2  -9 39.5305 4.19333   9
   2  -2  -9 24.4171 4.42649   5
  -2   2   9 46.7241 6.11252   1
  -2   2   9 30.9705 5.37958   2
   1  -2  -9 195.114 9.00727   5
   1  -2  -9 178.577 10.6061   7
   1  -2  -9 184.581 12.8387   6
   1  -2  -9 174.021 15.9280   1
   1  -2  -9 186.252 6.62490   9
  -1   2   9 181.248 12.8916   2
  -1   2   9 179.568 10.9104   4
   0  -2  -9 6.40587 3.11960   9
   0  -2  -9 3.69281 1.64776   6
   0  -2  -9 5.25626 1.77567   1
   0  -2  -9 4.75154 2.77585   3
   0  -2  -9 3.42026 2.50945   5
   0   2   9 0.09326 4.26511   4
   0   2   9 7.10545 2.96610   2
  -1  -2  -9 6.74528 3.42227   5
  -1  -2  -9 1.13283 2.05838   1
  -1  -2  -9 6.61131 2.74476   3
  -1  -2  -9 0.75013 1.96850   6
  -1  -2  -9 6.24475 2.97388   9
   1   2   9 3.79288 3.38687   2
   1   2   9 -1.3023 4.10745   4
  -2  -2  -9 243.343 9.22430   5
  -2  -2  -9 229.297 9.51739   6
  -2  -2  -9 227.858 21.1816   1
  -2  -2  -9 245.013 9.00732   3
  -2  -2  -9 230.012 9.00378   9
   2   2   9 241.822 14.3546   2
   2   2   9 225.312 11.0610   4
  -3  -2  -9 37.9620 3.32390   9
  -3  -2  -9 36.9614 3.79473   6
  -3  -2  -9 37.5990 4.28718   3
   3   2   9 28.1167 5.40682   4
   3   2   9 42.7221 4.24416   2
  -4  -2  -9 36.0218 4.28276   1
  -4  -2  -9 43.0186 3.80992   6
  -4  -2  -9 41.6054 5.52958   3
  -4  -2  -9 32.4394 2.97603   9
   4   2   9 33.8727 4.50903   4
   4   2   9 36.7034 5.05056   2
  -5  -2  -9 205.426 9.25951   3
  -5  -2  -9 216.527 10.0630   1
  -5  -2  -9 226.532 9.85999   6
   5   2   9 230.603 12.5047   2
   5   2   9 216.581 11.4553   4
  -6  -2  -9 12.8434 5.41076   3
  -6  -2  -9 11.6131 3.92429   1
  -6  -2  -9 12.6349 5.06809   6
   6   2   9 3.26717 5.83301  10
   6   2   9 3.56961 5.52764   4
   6   2   9 2.52508 5.56906   8
   6   2   9 11.1991 4.53909   2
  -7  -2  -9 37.2841 6.47690   6
  -7  -2  -9 48.5314 28.6597   3
  -7  -2  -9 46.6608 9.62673   1
   7   2   9 39.2423 5.59698   2
   7   2   9 33.3843 6.97617   8
   7   2   9 28.4568 6.74412   4
   7   2   9 34.9834 7.32625  10
  -8  -2  -9 41.8384 7.52397   6
  -8  -2  -9 30.4718 6.94457   3
   8   2   9 52.3840 8.32070   2
   8   2   9 42.1711 8.28938  10
   8   2   9 29.5551 5.93544   4
   8   2   9 33.8279 7.82896   8
   8  -3  -9 -1.0339 4.13212   5
   8  -3  -9 -1.3918 3.78049   9
  -8   3   9 -0.6743 4.67269   1
  -8   3   9 8.13797 6.31911   2
   7  -3  -9 15.9942 4.51543   5
   7  -3  -9 11.1275 3.87003   9
  -7   3   9 16.4399 6.02483   1
  -7   3   9 19.8074 6.07771   2
   6  -3  -9 -6.0051 4.42148   9
   6  -3  -9 -2.2373 3.45792   5
  -6   3   9 1.40968 3.59917   1
  -6   3   9 1.93900 4.79175   2
   5  -3  -9 21.0303 4.55697   9
   5  -3  -9 25.7644 5.35511   5
  -5   3   9 26.6971 4.87746   1
  -5   3   9 18.2272 4.70357   2
   4  -3  -9 7.16194 2.88238   9
   4  -3  -9 10.2598 3.47044   5
  -4   3   9 8.64546 4.03423   2
  -4   3   9 7.48859 3.67476   1
   3  -3  -9 16.5746 2.99879   9
   3  -3  -9 19.0677 3.59189   5
  -3   3   9 15.2487 4.00351   2
  -3   3   9 9.37987 3.30227   1
   2  -3  -9 77.4129 6.26934   1
   2  -3  -9 83.7850 5.11772   5
   2  -3  -9 86.8592 4.49378   9
  -2   3   9 75.8816 5.92249   1
  -2   3   9 82.1230 6.23685   2
   1  -3  -9 -1.1039 2.42864   5
   1  -3  -9 2.23368 0.81811   6
   1  -3  -9 3.77306 1.95723   1
   1  -3  -9 2.51506 2.30163   3
   1  -3  -9 1.03021 0.51401   6
   1  -3  -9 -5.6093 3.04824   9
   1  -3  -9 1.06512 0.64219   7
   1  -3  -9 1.65443 0.70955   7
  -1   3   9 1.03842 3.12881   4
  -1   3   9 0.73030 2.35135   1
  -1   3   9 0.57566 2.81562   2
   0  -3  -9 80.0756 4.25291   7
   0  -3  -9 61.4160 4.47547   1
   0  -3  -9 68.1602 3.60509   6
   0  -3  -9 61.1935 4.25932   5
   0  -3  -9 66.3942 5.04962   3
   0  -3  -9 65.9391 3.84817   9
   0   3   9 83.2446 5.74006   2
   0   3   9 59.9685 5.83514   4
  -1  -3  -9 11.8944 2.45928   1
  -1  -3  -9 10.1798 2.99957   9
  -1  -3  -9 14.1605 2.05502   6
  -1  -3  -9 11.5710 2.92120   3
  -1  -3  -9 12.9621 2.69970   5
   1   3   9 9.99381 3.33728   4
   1   3   9 9.20145 2.90498   2
  -2  -3  -9 -0.4482 3.55546   3
  -2  -3  -9 -1.7659 2.30726   1
  -2  -3  -9 -0.8215 2.07068   5
  -2  -3  -9 -0.6039 1.77675   9
  -2  -3  -9 0.93057 2.19060   6
   2   3   9 1.05109 3.56196   2
   2   3   9 1.17930 2.90256   4
  -3  -3  -9 117.899 5.70341   9
  -3  -3  -9 122.897 5.22418   6
  -3  -3  -9 119.859 6.04349   3
  -3  -3  -9 116.085 5.16712   5
   3   3   9 120.232 7.13834   2
   3   3   9 111.111 7.32036   4
  -4  -3  -9 71.7907 4.08335   9
  -4  -3  -9 79.0395 6.13469   3
   4   3   9 60.7813 5.11033   4
   4   3   9 73.4073 5.54313   2
  -5  -3  -9 37.4521 4.12491   1
  -5  -3  -9 35.6124 4.41588   3
   5   3   9 30.1392 5.64604   4
   5   3   9 48.2718 4.97169   2
  -6  -3  -9 50.7285 6.14749   3
  -6  -3  -9 53.8593 7.21165   1
   6   3   9 58.3589 5.44989   2
   6   3   9 56.8436 7.68446  10
   6   3   9 43.8620 6.79791   4
   6   3   9 52.2157 6.78840   8
  -7  -3  -9 62.6400 7.08644   1
  -7  -3  -9 42.8851 6.48594   3
   7   3   9 57.6724 7.18658   8
   7   3   9 54.5338 7.42194  10
   7   3   9 56.0460 7.21462   4
   7   3   9 64.7214 5.75526   2
  -8  -3  -9 0.31530 3.71228   1
  -8  -3  -9 -0.4385 4.23017   3
   8   3   9 -4.6520 6.75655  10
   8   3   9 -3.6535 4.84325   2
   8   3   9 -2.9790 4.61606   4
   8   3   9 5.01190 6.86399   8
   8  -4  -9 5.84329 6.34569   5
   8  -4  -9 3.12203 5.47297   9
  -8   4   9 -4.3269 8.54965   2
  -8   4   9 6.47311 5.24046   1
   7  -4  -9 4.03725 4.87707   9
   7  -4  -9 7.06118 5.71390   5
  -7   4   9 -0.0628 5.20804   2
  -7   4   9 -2.5598 4.16102   1
   6  -4  -9 17.0724 5.51026   5
   6  -4  -9 11.8451 4.75900   9
  -6   4   9 6.45627 5.55471   1
  -6   4   9 10.4150 5.18440   2
   5  -4  -9 0.37561 4.65219   5
   5  -4  -9 0.05359 4.07552   9
  -5   4   9 10.4256 24.0495   1
  -5   4   9 4.03606 4.29802   2
   4  -4  -9 -0.6455 3.06828   5
   4  -4  -9 2.97254 2.76898   9
  -4   4   9 1.65004 5.33267   2
  -4   4   9 -2.8244 3.93116   1
   3  -4  -9 2.08897 4.09051   5
   3  -4  -9 7.86365 3.63684   9
  -3   4   9 8.92960 4.84688   2
  -3   4   9 3.03586 2.61928   1
   2  -4  -9 -1.9445 3.69567   5
   2  -4  -9 3.67913 3.01718   3
   2  -4  -9 0.05478 3.28628   9
  -2   4   9 -3.0786 3.78982   2
  -2   4   9 3.07125 3.22232   1
   1  -4  -9 0.23116 3.12056   3
   1  -4  -9 1.16178 3.53868   5
   1  -4  -9 0.83249 3.06775   9
  -1   4   9 4.90608 4.05269   2
  -1   4   9 2.63784 3.03252   1
   0  -4  -9 74.8102 4.94862   1
   0  -4  -9 90.6722 5.30146   3
   0  -4  -9 92.0766 4.23389   7
   0  -4  -9 92.3305 4.36127   9
   0  -4  -9 88.1457 3.35196   6
   0  -4  -9 88.8982 6.00320   6
   0  -4  -9 87.8408 4.88553   5
   0   4   9 85.7640 6.26499   4
   0   4   9 88.9207 7.06117   2
  -1  -4  -9 58.7701 6.16769   1
  -1  -4  -9 69.1084 3.80349   9
  -1  -4  -9 75.2825 4.94717   7
  -1  -4  -9 84.8531 3.21844   6
  -1  -4  -9 76.7016 5.17846   3
  -1  -4  -9 73.8019 4.95006   5
   1   4   9 79.8756 6.33067   4
   1   4   9 208.340 43.0249   2
  -2  -4  -9 83.9043 6.89489   7
  -2  -4  -9 87.2953 15.1781   3
  -2  -4  -9 86.5663 4.43586   5
  -2  -4  -9 91.2511 4.32829   9
   2   4   9 72.1086 5.51938   4
   2   4   9 92.8437 5.66160   2
  -3  -4  -9 66.6397 4.28836   5
  -3  -4  -9 58.5369 3.67016   9
  -3  -4  -9 62.3929 4.72040   3
   3   4   9 66.5728 4.77538   2
   3   4   9 51.0325 5.53404   4
  -4  -4  -9 -0.2952 3.87897   3
  -4  -4  -9 1.21949 2.50182   5
  -4  -4  -9 2.95361 2.16732   9
   4   4   9 -1.6400 4.36404   4
   4   4   9 0.35413 3.10114   2
  -5  -4  -9 139.678 7.07483   3
   5   4   9 147.254 8.92716   4
   5   4   9 155.782 10.6822   2
  -6  -4  -9 14.3373 5.19997   3
   6   4   9 9.96923 4.24330  10
   6   4   9 13.5779 3.55790   2
   6   4   9 9.79880 4.11284   8
   6   4   9 10.0570 5.52874   4
  -7  -4  -9 1.45496 3.14252   1
  -7  -4  -9 -2.1439 5.03722   3
   7   4   9 -2.0794 3.85720   8
   7   4   9 -5.5256 5.63125   4
   7   4   9 0.73094 4.14775  10
   7   4   9 0.02835 3.53944   2
  -8  -4  -9 23.1610 4.94097   3
  -8  -4  -9 29.7742 5.96730   1
   8   4   9 20.9943 7.22243   8
   8   4   9 27.5730 7.63124  10
   8   4   9 21.5429 7.07121   4
  -9  -4  -9 20.2930 5.37904   1
  -9  -4  -9 14.3027 6.67189   3
   9   4   9 5.31383 5.41844   4
   9   4   9 7.98815 7.35646   8
   9   4   9 11.4299 7.70331  10
   8  -5  -9 1.08743 6.39834   5
   8  -5  -9 1.18482 5.65972   9
  -8   5   9 2.94721 6.39231   2
  -8   5   9 2.77810 7.78966   1
   7  -5  -9 6.07973 4.34696   5
   7  -5  -9 7.64462 3.82757   9
  -7   5   9 1.44693 5.57678   2
  -7   5   9 5.50615 6.85089   1
   6  -5  -9 46.3679 5.33565   5
   6  -5  -9 51.9872 4.67590   9
  -6   5   9 48.3555 7.36222   2
  -6   5   9 46.4972 6.91992   1
   5  -5  -9 5.39964 3.12543   9
   5  -5  -9 0.68605 3.43509   5
  -5   5   9 5.10128 5.16192   1
  -5   5   9 4.90981 4.21505   2
   4  -5  -9 4.75224 4.40240   9
   4  -5  -9 4.44845 5.58080   5
  -4   5   9 5.75833 4.04510   2
  -4   5   9 3.21647 3.24720   1
   3  -5  -9 -1.0392 1.83069   3
   3  -5  -9 -0.3544 3.96743   5
   3  -5  -9 -1.0024 3.53313   9
  -3   5   9 1.01570 3.52073   2
  -3   5   9 1.24053 2.91257   1
   2  -5  -9 0.95798 2.71290   5
   2  -5  -9 1.52419 2.05656   3
   2  -5  -9 3.02932 2.47223   9
  -2   5   9 0.73120 4.12077   2
  -2   5   9 4.20202 3.82158   1
   1  -5  -9 45.8629 3.62459   9
   1  -5  -9 50.2487 4.27919   3
   1  -5  -9 44.7428 4.11777   5
  -1   5   9 45.7758 4.13974   2
  -1   5   9 35.2320 3.51198   1
   0  -5  -9 78.4168 4.66579   9
   0  -5  -9 82.0752 4.69443   7
   0  -5  -9 89.7689 5.26819   3
   0  -5  -9 82.1126 4.85054   5
   0  -5  -9 85.0209 5.19541   6
   0   5   9 75.9250 12.8866   4
   0   5   9 81.1790 4.91158   2
   0   5   9 76.2807 5.43797   1
  -1  -5  -9 51.4918 3.85025   6
  -1  -5  -9 51.9039 4.62256   5
  -1  -5  -9 56.8266 3.30407   7
  -1  -5  -9 57.0320 4.73390   3
  -1  -5  -9 58.2165 4.12069   9
   1   5   9 65.2593 11.4304   4
   1   5   9 56.0239 4.68539   2
  -2  -5  -9 150.607 5.27418   9
  -2  -5  -9 173.267 11.5783   7
  -2  -5  -9 154.640 6.95057   3
  -2  -5  -9 155.975 6.65704   5
   2   5   9 152.937 10.1571   2
   2   5   9 152.306 15.2429   4
  -3  -5  -9 1.64132 2.67076   3
  -3  -5  -9 1.37119 2.85389   5
  -3  -5  -9 4.09154 2.55359   9
   3   5   9 5.55283 2.89924   2
   3   5   9 0.78407 2.96509   4
  -4  -5  -9 33.8031 3.49477   5
  -4  -5  -9 41.4296 3.20821   9
  -4  -5  -9 44.6568 5.30289   3
   4   5   9 44.6561 5.62694   4
   4   5   9 51.4345 3.87505   2
  -5  -5  -9 32.5344 5.32500   3
   5   5   9 30.2466 4.41142   4
   5   5   9 36.6299 7.76941   2
  -6  -5  -9 7.53559 4.89432   3
   6   5   9 8.42637 5.41247   4
   6   5   9 5.74094 5.56054  10
   6   5   9 5.30166 5.33660   8
   6   5   9 8.75850 2.85005   2
  -7  -5  -9 23.4737 5.78428   3
   7   5   9 26.6697 6.35050   4
   7   5   9 17.2691 5.89857   8
   7   5   9 16.3485 6.26427  10
  -8  -5  -9 2.11384 5.67874   1
  -8  -5  -9 6.60834 5.75093   3
   8   5   9 3.37520 4.50410   4
   8   5   9 3.40482 6.28309   8
   8   5   9 5.48131 6.72234  10
  -9  -5  -9 -1.3232 4.34783   3
  -9  -5  -9 6.83819 4.73111   1
   9   5   9 0.88304 4.86821   8
   9   5   9 -1.5795 4.84334  10
   9   5   9 -1.2232 7.14319   4
   8  -6  -9 -6.0249 5.68762   9
   8  -6  -9 -1.6317 4.86654   5
  -8   6   9 6.89712 7.10383   2
  -8   6   9 0.39342 8.50784   1
   7  -6  -9 22.8202 6.58229   5
   7  -6  -9 22.7077 4.51090   9
  -7   6   9 21.5963 7.67948   1
   6  -6  -9 -4.0703 5.17845   5
   6  -6  -9 -2.7372 4.77290   9
  -6   6   9 2.72018 5.05342   2
  -6   6   9 7.39911 6.75188   1
   5  -6  -9 -1.3731 4.24863   9
   5  -6  -9 -1.6226 4.87210   5
  -5   6   9 0.56987 4.46460   2
  -5   6   9 2.11072 5.78268   1
   4  -6  -9 90.7023 6.83183   5
   4  -6  -9 96.4895 6.24813   9
  -4   6   9 79.0030 7.11007   1
  -4   6   9 86.9410 7.93602   2
   3  -6  -9 25.9922 5.04487   5
   3  -6  -9 25.6379 4.35881   9
   3  -6  -9 21.8536 3.27518   3
  -3   6   9 22.8681 4.32908   2
  -3   6   9 14.6815 5.01375   1
   2  -6  -9 65.1185 3.86069   3
   2  -6  -9 60.8292 4.79804   5
   2  -6  -9 59.4687 4.22256   9
  -2   6   9 58.7433 5.68798   2
  -2   6   9 60.1222 7.66904   1
   1  -6  -9 61.0685 4.51835   3
   1  -6  -9 51.7272 3.85056   9
   1  -6  -9 57.7839 5.25571   5
   1  -6  -9 54.2846 3.47144   6
  -1   6   9 54.2986 4.52388   1
  -1   6   9 63.3911 5.42665   2
   0  -6  -9 5.10782 1.60507   6
   0  -6  -9 5.63648 3.69646   5
   0  -6  -9 5.77221 3.31750   9
   0  -6  -9 5.43408 4.15177   3
   0  -6  -9 4.84145 1.32769   7
   0   6   9 10.3626 3.50357   2
   0   6   9 11.7072 4.52086   1
   0   6   9 4.67648 3.26660   4
  -1  -6  -9 8.06705 1.63773   6
  -1  -6  -9 8.55765 1.50853   7
  -1  -6  -9 11.1010 2.83802   3
  -1  -6  -9 9.20088 2.71999   5
  -1  -6  -9 7.92352 2.42883   9
   1   6   9 11.4494 3.29958   2
   1   6   9 8.75860 4.52451   4
  -2  -6  -9 5.44676 2.79926   3
  -2  -6  -9 5.78532 3.38785   5
  -2  -6  -9 8.05164 2.69790   7
  -2  -6  -9 6.23181 3.19382   6
  -2  -6  -9 3.05235 2.87511   9
   2   6   9 6.15197 4.32700   4
   2   6   9 7.07411 2.70385   2
  -3  -6  -9 3.25924 3.13748   5
  -3  -6  -9 4.12331 2.75396   9
  -3  -6  -9 6.42773 3.08184   3
   3   6   9 7.30728 3.26919   4
   3   6   9 7.25792 2.61379   2
  -4  -6  -9 -0.5809 2.77699   5
  -4  -6  -9 -1.5198 4.18217   3
  -4  -6  -9 -0.2595 2.42322   9
   4   6   9 1.45835 4.57935   4
   4   6   9 4.97326 2.36014   2
  -5  -6  -9 52.2771 3.36498   9
  -5  -6  -9 49.7086 6.02168   3
  -5  -6  -9 52.8334 3.76130   5
   5   6   9 52.6447 5.09208   2
   5   6   9 55.9945 5.08398   4
  -6  -6  -9 17.7686 5.62504   3
   6   6   9 30.1796 11.9848  10
   6   6   9 27.5172 11.3606   4
   6   6   9 32.7596 12.9715   8
  -7  -6  -9 -2.6695 3.84404   3
   7   6   9 -3.4831 4.08469  10
   7   6   9 -1.1465 3.82764   8
   7   6   9 -3.3241 4.01141   4
  -8  -6  -9 -0.4733 6.08570   3
   8   6   9 11.8290 4.72546   4
   8   6   9 6.13520 4.93476  10
   8   6   9 5.48908 4.58704   8
  -9  -6  -9 12.0824 7.11272   3
  -9  -6  -9 11.7420 6.92367   1
   9   6   9 5.85573 7.28789   4
   9   6   9 4.27104 7.15899  10
   9   6   9 -3.0368 6.88232   8
   7  -7  -9 2.49504 6.49257   5
   7  -7  -9 2.50279 4.07756   9
  -7   7   9 2.92948 8.38587   1
   6  -7  -9 25.7107 6.50866   5
   6  -7  -9 15.1094 5.57376   9
  -6   7   9 23.2641 6.09525   1
   5  -7  -9 104.862 6.86926   9
   5  -7  -9 97.7461 6.57472   5
  -5   7   9 91.6644 9.87490   1
   4  -7  -9 7.33621 3.28068   9
   4  -7  -9 3.94902 3.57133   5
   4  -7  -9 7.39405 2.60333   3
  -4   7   9 9.11284 4.37421   2
  -4   7   9 6.84256 5.94440   1
   3  -7  -9 13.2106 3.76518   5
   3  -7  -9 20.4843 4.44321   9
   3  -7  -9 14.9264 3.32173   3
  -3   7   9 12.8165 4.10900   1
  -3   7   9 16.7581 4.15777   2
   2  -7  -9 133.572 5.55903   3
   2  -7  -9 123.074 6.92366   9
   2  -7  -9 118.092 6.96042   5
  -2   7   9 123.497 9.31727   1
  -2   7   9 121.639 7.80389   2
   1  -7  -9 -0.2746 2.42432   9
   1  -7  -9 0.79902 2.76482   5
   1  -7  -9 -2.9116 2.92124   3
  -1   7   9 -2.4142 2.56259   2
  -1   7   9 0.62684 3.24467   1
   0  -7  -9 65.2399 5.53615   5
   0  -7  -9 80.7296 5.30580   3
   0  -7  -9 75.8780 4.96957   9
   0   7   9 69.2097 7.08601   1
   0   7   9 76.9176 5.86043   4
   0   7   9 83.6436 7.08789   2
  -1  -7  -9 72.1028 6.16813   7
  -1  -7  -9 72.0440 5.59706   3
  -1  -7  -9 75.3102 4.79000   9
  -1  -7  -9 69.2704 6.12863   6
  -1  -7  -9 65.3971 5.41250   5
   1   7   9 64.5706 5.85693   4
   1   7   9 73.6456 5.48444   2
  -2  -7  -9 82.5028 4.23030   9
  -2  -7  -9 71.5611 5.67395   3
  -2  -7  -9 74.4111 4.66888   5
   2   7   9 78.1118 13.0857   4
   2   7   9 66.5385 9.13869   2
  -3  -7  -9 37.8816 3.79811   9
  -3  -7  -9 29.2715 4.96290   3
  -3  -7  -9 25.2895 4.01754   5
   3   7   9 49.0668 18.4296   4
   3   7   9 38.2916 3.52894   2
  -4  -7  -9 12.5714 7.25986   3
  -4  -7  -9 13.6138 3.50433   5
  -4  -7  -9 9.01342 2.21292   9
   4   7   9 12.1195 4.97462   4
   4   7   9 10.1822 3.02393   2
  -5  -7  -9 3.42786 2.57161   9
  -5  -7  -9 -3.5316 4.68362   3
  -5  -7  -9 2.32688 2.91774   5
   5   7   9 7.12381 4.95992   4
  -6  -7  -9 1.43306 5.17186   3
   6   7   9 6.11036 4.00886  10
   6   7   9 0.23460 3.58216   8
   6   7   9 2.94319 3.76688   4
  -7  -7  -9 14.7191 4.79926   3
   7   7   9 11.8697 4.42084   4
   7   7   9 11.7326 4.53879  10
   7   7   9 13.6214 4.32227   8
  -8  -7  -9 3.81627 6.52929   3
   8   7   9 3.11307 4.36398   8
   8   7   9 2.01188 4.66009  10
   8   7   9 7.55418 6.24801   4
  -9  -7  -9 0.25259 7.48397   3
   9   7   9 4.88274 7.22904   8
   9   7   9 7.09227 7.90675  10
   9   7   9 7.79132 7.26897   4
   6  -8  -9 139.500 9.93285   9
   6  -8  -9 134.630 9.62840   5
  -6   8   9 135.034 10.6272   1
   5  -8  -9 -4.9029 4.90613   9
   5  -8  -9 -1.1864 3.92183   5
  -5   8   9 -4.6984 7.10358   1
   4  -8  -9 11.5972 3.65607   9
   4  -8  -9 15.5239 4.23508   5
  -4   8   9 11.4280 6.83964   1
   3  -8  -9 145.351 6.88397   3
   3  -8  -9 146.940 11.3163   5
   3  -8  -9 154.995 9.32110   9
  -3   8   9 134.556 11.5958   1
  -3   8   9 151.334 8.60104   2
   2  -8  -9 5.02342 4.19189   9
   2  -8  -9 11.7575 3.65958   5
   2  -8  -9 11.1782 2.44964   3
  -2   8   9 10.7518 4.23294   1
  -2   8   9 18.9383 3.97365   2
   1  -8  -9 35.7211 5.22118   5
   1  -8  -9 40.2507 4.81707   9
   1  -8  -9 47.6888 4.51475   3
  -1   8   9 38.3853 4.94462   1
  -1   8   9 53.5904 4.39436   2
   0  -8  -9 37.5168 4.20489   5
   0  -8  -9 42.7033 4.67716   3
   0  -8  -9 48.8861 4.04244   9
   0   8   9 36.2168 5.65840   4
   0   8   9 49.5042 5.07351   2
   0   8   9 42.4222 5.00741   1
  -1  -8  -9 1.10093 10.8714   9
  -1  -8  -9 1.69674 12.0650   5
  -1  -8  -9 -0.1053 2.46439   3
   1   8   9 2.49438 2.70568   2
   1   8   9 6.39418 3.39913   4
   1   8   9 0.75613 4.49040   1
  -2  -8  -9 34.9063 3.85734   5
  -2  -8  -9 41.3477 3.62199   9
  -2  -8  -9 46.9999 4.43152   3
   2   8   9 41.6113 5.42179   4
   2   8   9 39.7834 4.62963   2
  -3  -8  -9 23.0169 4.15331   5
  -3  -8  -9 33.9581 5.17597   3
  -3  -8  -9 17.0787 3.69246   9
   3   8   9 23.9449 4.94558   4
  -4  -8  -9 0.51919 3.46092   5
  -4  -8  -9 0.66187 3.09565   9
  -4  -8  -9 -1.9533 3.10890   3
   4   8   9 8.93267 4.90413   4
  -5  -8  -9 62.6149 7.96272   3
  -5  -8  -9 40.1370 3.77238   9
  -5  -8  -9 31.0742 4.20330   5
   5   8   9 49.2315 4.96249   4
  -6  -8  -9 5.69764 5.62941   3
   6   8   9 16.9595 5.84534  10
   6   8   9 22.0404 5.64387   4
   6   8   9 13.8741 5.48517   8
  -7  -8  -9 -0.6110 18.2194   3
   7   8   9 -3.7047 5.54645   4
   7   8   9 3.76529 5.48461   8
   7   8   9 -3.5340 5.67145  10
  -8  -8  -9 3.69089 6.57913   3
   8   8   9 7.20642 4.56070   4
   8   8   9 3.57610 4.40127   8
   8   8   9 10.2589 4.94789  10
   6  -9  -9 32.2236 5.16245   9
   6  -9  -9 33.8569 6.05405   5
  -6   9   9 34.7313 9.94365   1
   5  -9  -9 1.70532 6.16165   5
   5  -9  -9 4.19869 3.93834   9
  -5   9   9 8.07717 6.12399   1
   4  -9  -9 51.7500 7.83110   5
   4  -9  -9 51.3487 6.80696   9
  -4   9   9 45.4935 8.46027   1
   3  -9  -9 -3.6744 4.71973   9
   3  -9  -9 0.18700 3.54740   5
   3  -9  -9 4.38438 2.93483   3
  -3   9   9 5.93885 7.08400   1
   2  -9  -9 138.403 7.19739   9
   2  -9  -9 137.885 7.62655   3
   2  -9  -9 135.396 8.03049   5
  -2   9   9 124.781 11.0828   1
  -2   9   9 142.800 9.28891   2
   1  -9  -9 65.5107 5.18946   3
  -1   9   9 59.4478 5.11464   2
  -1   9   9 58.2423 7.18110   1
  -1   9   9 58.9707 5.52022   4
   0  -9  -9 -0.8752 3.15263   5
   0  -9  -9 2.03562 3.70102   3
   0   9   9 -0.7870 4.11556   1
   0   9   9 3.39901 5.02978   4
   0   9   9 -0.6725 3.44272   2
  -1  -9  -9 112.493 6.93186   3
  -1  -9  -9 91.5172 7.09459   5
   1   9   9 100.829 8.48797   1
   1   9   9 117.097 8.30081   4
   1   9   9 111.556 8.95964   2
  -2  -9  -9 52.5403 5.61351   5
  -2  -9  -9 54.3271 4.80559   3
   2   9   9 49.7579 5.75331   4
  -3  -9  -9 -4.3618 4.35392   3
  -3  -9  -9 -4.5302 4.06795   5
   3   9   9 2.75687 3.18825   4
  -4  -9  -9 158.799 9.14360   3
  -4  -9  -9 133.052 8.76778   5
   4   9   9 136.241 10.6668   4
  -5  -9  -9 2.49043 3.47380   9
  -5  -9  -9 2.25200 3.92649   5
  -5  -9  -9 4.18531 5.22236   3
   5   9   9 6.23664 4.88877   4
  -6  -9  -9 8.27785 5.86850   3
   6   9   9 7.79787 4.17095  10
   6   9   9 16.1541 5.68435   4
   6   9   9 13.9573 4.30273   8
  -7  -9  -9 3.68216 4.51881   3
   7   9   9 12.6789 4.35919   8
   7   9   9 6.95864 5.74211   4
   7   9   9 6.00053 4.40838  10
  -8  -9  -9 2.58695 6.93318   3
   8   9   9 5.23494 6.23974   8
   8   9   9 2.25377 6.47461  10
   8   9   9 7.23270 6.37587   4
   5 -10  -9 19.3906 7.52608   5
   5 -10  -9 23.1812 6.64076   9
  -5  10   9 17.0865 7.08437   1
   4 -10  -9 6.93809 4.17455   9
   4 -10  -9 8.86842 4.66389   5
  -4  10   9 19.5571 9.18760   1
   3 -10  -9 65.3806 6.39526   5
   3 -10  -9 65.7919 5.64622   9
  -3  10   9 65.1823 9.19930   1
   2 -10  -9 83.2942 6.64516   5
   2 -10  -9 82.0155 6.50425   3
  -2  10   9 64.9815 8.85258   1
   1 -10  -9 10.6419 4.27268   5
   1 -10  -9 11.2948 4.12414   3
  -1  10   9 11.2374 4.64755   2
  -1  10   9 8.29460 4.20804   4
  -1  10   9 5.88059 4.70567   1
   0 -10  -9 120.749 13.5270   3
   0 -10  -9 116.513 8.14585   5
   0  10   9 93.1946 10.8972   1
   0  10   9 109.383 8.53275   4
  -1 -10  -9 73.0788 6.77951   5
  -1 -10  -9 88.0299 7.61376   3
   1  10   9 74.5846 10.2113   4
   1  10   9 66.3233 6.76770   1
  -2 -10  -9 15.1456 5.32890   5
  -2 -10  -9 22.3861 5.21965   3
   2  10   9 6.58058 3.64944   7
   2  10   9 9.74117 4.84450   4
  -3 -10  -9 93.6483 74.0120   5
  -3 -10  -9 108.532 7.06445   3
   3  10   9 105.482 8.66881   4
  -4 -10  -9 18.0687 3.84211   5
  -4 -10  -9 25.7458 4.74871   3
   4  10   9 24.9593 5.39127   4
  -5 -10  -9 9.77357 4.56698   5
  -5 -10  -9 11.9590 4.57328   3
   5  10   9 13.2454 5.14140   4
  -6 -10  -9 73.4227 7.28975   3
   6  10   9 83.1710 9.73388  10
   6  10   9 83.3643 8.10643   4
   6  10   9 74.7834 8.97652   8
  -7 -10  -9 2.17385 6.80564   3
   7  10   9 -0.4420 6.10351  10
   7  10   9 -1.1302 5.96224   8
   7  10   9 1.41163 5.77222   4
   3 -11  -9 57.1779 8.35654   5
  -3  11   9 48.9246 9.95743   1
   2 -11  -9 13.6095 6.69387   5
  -2  11   9 13.7455 8.61118   1
   1 -11  -9 79.6658 8.08288   5
   1 -11  -9 70.2242 6.44837   3
  -1  11   9 70.2238 8.12774   4
  -1  11   9 62.0656 8.96018   1
   0 -11  -9 46.9986 5.87493   5
   0 -11  -9 58.2239 6.38112   3
   0  11   9 37.8305 6.34206   1
   0  11   9 51.9674 8.74296   4
  -1 -11  -9 12.2254 3.90457   3
  -1 -11  -9 10.6567 5.87336   5
   1  11   9 2.67583 5.65214   1
   1  11   9 22.4184 4.22855   4
  -2 -11  -9 158.356 10.2282   3
  -2 -11  -9 150.124 9.96910   5
   2  11   9 148.986 13.2305   4
  -3 -11  -9 4.02463 3.78354   5
  -3 -11  -9 9.87777 4.33417   3
   3  11   9 13.7023 4.13850   4
   3  11   9 7.87701 4.39045   7
  -4 -11  -9 11.6333 4.04466   5
  -4 -11  -9 2.34170 6.16698   3
   4  11   9 11.0758 5.18581   4
  -5 -11  -9 62.4878 8.09905   3
   5  11   9 59.3807 6.55822   4
   5  11   9 45.7425 6.22520   8
   5  11   9 59.6518 7.38394  10
  -6 -11  -9 4.45905 6.97150   3
   6  11   9 7.64873 5.78532   8
   6  11   9 8.56218 5.67013   4
   6  11   9 13.6803 6.20657  10
  -7 -11  -9 -0.8734 5.33769   3
   7  11   9 3.41422 6.23662   8
   7  11   9 -1.5027 6.31562  10
   7  11   9 0.74628 5.99044   4
   2 -12  -9 88.2684 7.86359   5
  -2  12   9 180.347 54.9923   1
   1 -12  -9 34.4850 6.14826   5
  -1  12   9 31.1766 9.78221   1
   0 -12  -9 24.0448 5.46746   5
   0 -12  -9 40.1831 6.17472   3
   0  12   9 31.0428 9.55386   1
  -1 -12  -9 103.260 9.27773   5
  -1 -12  -9 110.884 8.66887   3
  -2 -12  -9 19.7967 6.31072   3
  -2 -12  -9 20.7551 5.10416   5
  -3 -12  -9 -0.4269 4.18509   3
  -3 -12  -9 -0.0813 5.95920   5
   3  12   9 -2.8980 7.15513   7
  -4 -12  -9 72.0017 9.20068   3
  -4 -12  -9 80.2902 6.66495   5
   4  12   9 71.6102 7.87868   7
  -5 -12  -9 14.9292 4.70192   5
  -5 -12  -9 19.7412 7.39095   3
   5   3 -10 18.5005 6.97942   9
  -5  -3  10 25.1836 7.38582   2
   4   3 -10 4.94312 4.35987   9
  -4  -3  10 3.28177 8.34717   2
   3   3 -10 -3.9423 5.53598   9
  -3  -3  10 -7.7433 8.35830   2
   2   3 -10 10.0257 4.47097   9
  -2  -3  10 -2.7485 7.89128   2
  -1  -3  10 3.39485 5.53285   2
   0   3 -10 -1.0852 5.42263   7
   0   3 -10 -2.3425 3.56656   6
   0  -3  10 2.47400 7.91464   2
  -1   3 -10 0.62733 3.98965   6
  -1   3 -10 5.44574 7.59026   7
   1  -3  10 -0.3234 5.39781   2
  -2   3 -10 2.07700 4.66136   6
  -2   3 -10 0.81554 4.76016   7
   2  -3  10 -5.2226 7.84215   2
   6   2 -10 9.59765 4.94165   9
  -6  -2  10 3.90778 6.67147   2
   5   2 -10 3.26986 4.33192   9
  -5  -2  10 2.73163 8.32243   2
   4   2 -10 5.45812 4.15780   9
  -4  -2  10 -2.8027 6.41863   4
  -4  -2  10 15.6722 24.1434   2
   3   2 -10 14.6991 4.04825   9
  -3  -2  10 18.3712 6.53891   4
  -3  -2  10 22.9720 8.01132   2
   2   2 -10 0.05191 4.89945   9
  -2  -2  10 -9.1106 5.71044   4
  -2  -2  10 -1.4330 7.13188   2
   1   2 -10 14.1424 3.82793   9
  -1  -2  10 10.2598 5.32933   2
  -1  -2  10 3.39671 5.63274   4
   0   2 -10 4.99863 3.25698   7
   0   2 -10 4.16701 4.49308   6
   0   2 -10 40.6720 26.0271   9
   0  -2  10 -4.3031 6.67892   2
   0  -2  10 -0.9818 5.23045   4
  -1   2 -10 11.0730 5.23188   6
  -1   2 -10 6.98391 5.04869   7
   1  -2  10 3.37521 5.03559   2
   1  -2  10 2.77655 5.65336   4
  -2   2 -10 8.72371 5.45410   6
   2  -2  10 -4.1903 6.94883   2
   2  -2  10 12.3098 5.98186   4
  -3   2 -10 9.54011 6.08611   6
   3  -2  10 2.28607 5.98792   8
   3  -2  10 10.2535 8.21777   2
   3  -2  10 3.21365 4.45305   4
   3  -2  10 3.64179 6.26648  10
  -4   2 -10 -1.5835 4.73946   6
   4  -2  10 0.43862 6.75324  10
   4  -2  10 2.38438 6.42837   8
   4  -2  10 0.79190 4.61258   4
   4  -2  10 8.56516 8.33270   2
   7   1 -10 9.38936 6.60445   9
  -7  -1  10 12.3301 9.39356   2
   6   1 -10 -1.5708 4.23635   9
  -6  -1  10 -4.1453 8.33922   2
   5   1 -10 28.9686 5.33157   9
  -5  -1  10 22.2390 6.16049   2
   4   1 -10 16.1428 5.36632   9
  -4  -1  10 15.4174 5.73916   2
   3   1 -10 2.20152 3.40870   9
  -3  -1  10 -2.9775 4.66946   2
  -3  -1  10 -5.6886 5.98867   4
   2   1 -10 8.80286 4.88210   9
  -2  -1  10 8.46897 5.74951   4
  -2  -1  10 6.47121 6.56426   2
   1   1 -10 11.0683 2.75735   7
   1   1 -10 5.17771 4.67600   9
   1   1 -10 18.8560 3.82008   6
  -1  -1  10 7.70790 5.51286   4
  -1  -1  10 12.6346 4.95868   2
   0   1 -10 5.39395 2.61621   6
   0   1 -10 2.93153 3.07688   9
   0   1 -10 3.47419 3.61449   7
   0  -1  10 7.67992 6.40377   2
   0  -1  10 1.97274 3.66435   4
  -1   1 -10 31.4467 4.71680   6
  -1   1 -10 29.3556 3.80346   9
   1  -1  10 34.5001 6.28482   4
   1  -1  10 27.1823 7.04904   2
  -2   1 -10 26.8470 5.13701   6
   2  -1  10 25.4792 7.13235   2
   2  -1  10 28.3612 6.02667   4
  -3   1 -10 -1.4386 3.51290   6
   3  -1  10 4.82817 4.81153   2
   3  -1  10 4.40401 7.41863   4
  -4   1 -10 4.29923 5.88171   6
   4  -1  10 3.69954 5.03883   2
   4  -1  10 1.13435 4.39397   8
   4  -1  10 3.36413 4.64472  10
   4  -1  10 2.96496 4.43763   4
  -5   1 -10 5.91155 5.20610   6
   5  -1  10 -1.0169 5.36334   2
   5  -1  10 -4.5940 4.91601  10
   5  -1  10 0.02901 4.80408   8
   5  -1  10 3.98793 4.74634   4
   7   0 -10 2.53831 5.96696   9
  -7   0  10 1.15183 6.28750   2
   6   0 -10 29.3736 6.16607   9
  -6   0  10 34.2939 8.66844   2
   5   0 -10 32.0624 4.67325   9
  -5   0  10 28.9561 6.02733   2
   4   0 -10 0.72831 4.76554   9
  -4   0  10 2.31891 6.63838   2
   3   0 -10 17.6006 4.85580   9
  -3   0  10 21.9652 6.86280   2
   2   0 -10 73.9026 5.79475   9
  -2   0  10 72.3592 8.52253   2
  -2   0  10 64.3768 6.95347   4
   1   0 -10 13.8218 4.19603   7
   1   0 -10 4.89707 4.28921   9
   1   0 -10 14.9052 2.36736   6
  -1   0  10 7.78623 5.39087   4
  -1   0  10 15.1500 6.17445   2
   0   0 -10 73.8161 7.19429   6
   0   0 -10 75.2739 5.49657   9
   0   0 -10 77.6049 5.99601   7
   0   0  10 75.6832 6.80877   4
   0   0  10 76.7777 7.55407   2
  -1   0 -10 13.2575 4.17666   9
  -1   0 -10 17.0828 3.74793   6
   1   0  10 12.7212 5.43873   4
   1   0  10 14.5413 5.89776   2
   2   0  10 2.64144 5.66993   4
   2   0  10 50.9837 17.0544   2
  -3   0 -10 50.0697 5.76160   6
  -3   0 -10 34.8523 3.59770   9
   3   0  10 58.4352 8.04297   2
   3   0  10 43.1028 5.34430   4
  -4   0 -10 3.60596 3.62992   6
   4   0  10 6.68421 31.0893   4
   4   0  10 5.01113 4.80777   2
  -5   0 -10 4.18255 5.84980   6
   5   0  10 -0.1477 6.56346   8
   5   0  10 3.79548 4.55822   4
   5   0  10 11.6054 7.17873   2
   5   0  10 -4.3006 6.85272  10
  -6   0 -10 15.8676 7.06178   6
   6   0  10 22.0018 7.19609   2
   6   0  10 14.8433 5.45761   4
   6   0  10 13.4453 5.62695  10
   6   0  10 12.4563 5.59463   8
   7  -1 -10 8.04554 4.38078   9
   7  -1 -10 6.03779 5.12946   5
  -7   1  10 14.3473 6.67631   2
   6  -1 -10 40.0628 7.16153   5
   6  -1 -10 39.2117 6.37312   9
  -6   1  10 52.9252 7.25707   2
   5  -1 -10 -3.3670 4.93418   9
   5  -1 -10 -1.6823 3.77950   5
  -5   1  10 -0.7707 6.83274   2
   4  -1 -10 62.5198 6.01665   9
   4  -1 -10 70.0029 5.87143   5
  -4   1  10 76.4872 6.73285   2
   3  -1 -10 114.205 7.40256   9
   3  -1 -10 144.885 9.01677   5
  -3   1  10 128.870 16.3265   2
   2  -1 -10 -0.0265 2.77860   9
   2  -1 -10 0.02695 3.24961   5
  -2   1  10 1.61124 4.07025   2
  -2   1  10 -0.4753 3.91982   4
   1  -1 -10 155.310 7.47610   9
  -1   1  10 145.803 11.0382   2
  -1   1  10 149.811 9.30764   4
   0  -1 -10 139.435 6.04781   9
   0  -1 -10 138.723 7.81851   6
   0   1  10 110.671 10.8624   4
   0   1  10 147.534 9.70165   2
  -1  -1 -10 8.83352 3.91740   9
  -1  -1 -10 15.7172 3.18693   6
   1   1  10 12.7821 4.15257   2
   1   1  10 12.4493 5.21020   4
  -2  -1 -10 61.4646 4.62415   9
  -2  -1 -10 68.0468 4.90675   6
   2   1  10 69.3855 6.95096   2
   2   1  10 59.5438 6.06376   4
  -3  -1 -10 84.2673 5.65076   6
  -3  -1 -10 55.9536 4.36593   9
   3   1  10 75.8410 7.99861   2
   3   1  10 70.7552 7.49288   4
  -4  -1 -10 0.54696 2.92811   6
   4   1  10 5.28837 4.00142   2
   4   1  10 3.57609 5.55877   4
  -5  -1 -10 96.0694 6.90171   6
   5   1  10 79.3770 8.99877   4
   5   1  10 83.0829 8.43616  10
   5   1  10 83.7633 7.85350   8
   5   1  10 97.7039 8.27802   2
  -6  -1 -10 2.34191 4.28295   6
   6   1  10 6.38377 4.32123   2
   6   1  10 -2.0869 7.11432  10
   6   1  10 5.00843 6.83173   8
   6   1  10 2.54290 6.74121   4
   8  -2 -10 49.0487 5.99876   9
   8  -2 -10 53.9029 6.97679   5
  -8   2  10 39.8874 8.03784   2
   7  -2 -10 17.4479 5.34971   5
   7  -2 -10 13.5218 6.06351   9
  -7   2  10 16.5556 9.00510   2
   6  -2 -10 5.01822 6.02382   5
   6  -2 -10 4.78067 3.81114   9
  -6   2  10 5.62684 5.62481   2
   5  -2 -10 141.297 7.56465   9
   5  -2 -10 115.387 9.40248   5
  -5   2  10 146.296 13.0417   2
   4  -2 -10 93.4246 6.44860   5
   4  -2 -10 92.8829 5.56609   9
  -4   2  10 122.774 12.0263   2
   3  -2 -10 10.6837 4.37737   9
   3  -2 -10 16.0174 4.02988   5
  -3   2  10 16.4720 4.59699   2
   2  -2 -10 266.477 16.3499   5
   2  -2 -10 267.428 10.1679   9
  -2   2  10 255.335 17.1000   2
   1  -2 -10 85.8520 5.56671   5
   1  -2 -10 91.9572 5.60758   9
  -1   2  10 99.5789 7.74295   2
  -1   2  10 91.8025 7.58805   4
   0  -2 -10 118.435 6.58699   5
   0  -2 -10 123.070 8.35779   6
   0  -2 -10 125.635 6.25435   9
   0   2  10 121.979 7.77548   4
   0   2  10 144.742 11.9029   2
  -1  -2 -10 196.907 9.48681   9
  -1  -2 -10 199.404 10.6732   6
  -1  -2 -10 208.561 10.2100   5
   1   2  10 207.929 14.4159   4
   1   2  10 203.616 12.1647   2
  -2  -2 -10 46.1807 4.21642   9
  -2  -2 -10 56.3072 5.86198   3
  -2  -2 -10 54.6821 4.03207   6
   2   2  10 39.9453 5.96572   4
   2   2  10 42.6046 5.72979   2
  -3  -2 -10 30.3251 3.69383   9
  -3  -2 -10 38.4324 4.29341   6
  -3  -2 -10 32.3223 4.49486   3
   3   2  10 28.5284 5.48552   2
   3   2  10 30.0673 4.83799   4
  -4  -2 -10 83.2646 5.81504   6
  -4  -2 -10 63.8861 6.65282   3
   4   2  10 80.6715 8.21213   2
   4   2  10 75.1059 7.92233   4
  -5  -2 -10 44.4662 4.57218   6
  -5  -2 -10 39.9724 6.43198   3
   5   2  10 32.6327 4.82812   2
   5   2  10 30.9200 6.70956   4
  -6  -2 -10 51.1358 7.38243   3
  -6  -2 -10 51.2121 6.79454   6
   6   2  10 43.0455 7.52754   8
   6   2  10 45.2154 6.92537   2
   6   2  10 32.5254 7.65708  10
   6   2  10 48.9794 7.63833   4
  -7  -2 -10 39.7795 5.79297   6
  -7  -2 -10 35.1026 7.23798   3
   7   2  10 40.6889 6.80108   2
   7   2  10 46.3196 8.27138   8
   7   2  10 39.4253 6.27275   4
   7   2  10 42.5044 8.45896  10
   8  -3 -10 22.1238 7.73817   5
   8  -3 -10 20.7240 6.91495   9
  -8   3  10 19.2988 7.25430   2
   7  -3 -10 24.3631 4.74052   9
   7  -3 -10 10.8573 6.52293   5
  -7   3  10 11.7584 8.53647   2
   6  -3 -10 91.2945 5.99745   9
   6  -3 -10 82.6622 6.59767   5
  -6   3  10 67.4573 9.46582   2
   5  -3 -10 46.9741 5.77538   9
   5  -3 -10 67.7861 6.97577   5
  -5   3  10 61.8628 6.78390   2
  -5   3  10 49.3043 5.86882   1
   4  -3 -10 66.5315 5.61962   5
   4  -3 -10 60.3722 4.80825   9
  -4   3  10 53.4088 7.51129   2
  -4   3  10 57.4857 4.45877   1
   3  -3 -10 197.913 10.8153   5
   3  -3 -10 209.742 9.20729   9
  -3   3  10 214.213 18.6746   2
  -3   3  10 173.214 11.9144   1
   2  -3 -10 172.187 9.60702   5
   2  -3 -10 173.342 6.94332   9
  -2   3  10 192.797 13.1268   2
  -2   3  10 153.334 14.1348   1
   1  -3 -10 131.796 8.36757   5
   1  -3 -10 151.027 6.70762   9
  -1   3  10 143.272 9.58509   2
  -1   3  10 139.184 11.2305   4
   0  -3 -10 622.768 26.2881   3
   0  -3 -10 595.139 22.8503   6
   0  -3 -10 617.243 31.6579   9
   0  -3 -10 606.873 19.5933   5
   0   3  10 645.750 37.9717   2
   0   3  10 599.144 36.1964   4
  -1  -3 -10 1.21756 3.20943   9
  -1  -3 -10 -1.4016 2.79325   3
  -1  -3 -10 4.60684 3.79727   5
  -1  -3 -10 -0.4347 1.90097   6
   1   3  10 4.30611 4.37180   2
   1   3  10 2.21046 3.49218   4
  -2  -3 -10 52.8983 4.25704   9
  -2  -3 -10 75.6616 4.12449   6
  -2  -3 -10 61.3161 5.05768   5
  -2  -3 -10 80.6941 5.55458   3
   2   3  10 75.0059 6.45400   2
   2   3  10 60.4684 6.36526   4
  -3  -3 -10 265.199 12.4505   3
  -3  -3 -10 241.016 12.3113   9
  -3  -3 -10 252.220 14.5997   5
  -3  -3 -10 274.512 14.6987   6
   3   3  10 269.526 14.7102   2
   3   3  10 254.119 15.1769   4
  -4  -3 -10 48.3125 3.76439   9
  -4  -3 -10 53.4390 6.26110   3
  -4  -3 -10 56.2822 4.93790   6
   4   3  10 55.7259 6.13816   2
   4   3  10 42.7628 5.17821   4
  -5  -3 -10 135.866 8.49033   6
  -5  -3 -10 131.576 6.90930   1
  -5  -3 -10 119.386 8.12297   3
   5   3  10 127.855 10.3225   2
   5   3  10 115.440 9.54640   4
  -6  -3 -10 137.309 9.47423   6
  -6  -3 -10 122.225 8.55936   3
   6   3  10 134.348 11.2704   4
   6   3  10 132.525 10.3109   2
   6   3  10 119.790 23.1448   8
   6   3  10 118.891 23.8991  10
  -7  -3 -10 10.1344 4.47742   6
  -7  -3 -10 7.56863 6.34154   3
   7   3  10 15.9315 7.39416   8
   7   3  10 15.2496 5.40819   2
   7   3  10 11.2644 5.12339   4
   7   3  10 7.36642 7.36745  10
   7  -4 -10 132.071 8.46831   9
   7  -4 -10 143.943 9.74846   5
  -7   4  10 135.308 14.2041   2
  -7   4  10 115.084 11.1585   1
   6  -4 -10 15.2825 6.34919   5
   6  -4 -10 24.9764 5.64799   9
  -6   4  10 26.0615 8.38398   2
  -6   4  10 20.2978 6.27680   1
   5  -4 -10 88.9803 7.63271   5
   5  -4 -10 86.6784 5.54996   9
  -5   4  10 108.338 28.0016   1
  -5   4  10 86.0522 8.71031   2
   4  -4 -10 133.330 8.14427   5
   4  -4 -10 142.512 8.74219   9
  -4   4  10 111.270 11.9844   1
  -4   4  10 135.685 10.1052   2
   3  -4 -10 263.769 11.3643   9
   3  -4 -10 254.358 13.5410   5
  -3   4  10 247.327 19.3129   2
  -3   4  10 247.041 17.6702   1
   2  -4 -10 148.714 6.86636   9
   2  -4 -10 144.207 6.82451   5
  -2   4  10 147.302 12.2099   2
  -2   4  10 125.636 10.6207   1
   1  -4 -10 293.364 9.61168   3
   1  -4 -10 322.673 11.3941   5
   1  -4 -10 303.959 11.4937   9
  -1   4  10 303.128 21.2203   4
  -1   4  10 278.122 20.8651   2
  -1   4  10 274.140 20.2256   1
   0  -4 -10 383.232 30.1100   3
   0  -4 -10 389.510 24.7322   5
   0  -4 -10 370.346 22.4740   6
   0  -4 -10 383.582 12.0166   9
   0   4  10 401.892 26.1257   4
   0   4  10 367.240 20.9315   2
  -1  -4 -10 19.5842 2.96628   9
  -1  -4 -10 17.9084 4.11682   5
  -1  -4 -10 15.0289 3.36803   3
  -1  -4 -10 25.9810 2.55364   6
   1   4  10 25.7526 5.41923   4
   1   4  10 28.2076 4.77024   2
  -2  -4 -10 449.056 13.8509   6
  -2  -4 -10 442.389 23.5804   5
  -2  -4 -10 430.061 16.7820   3
  -2  -4 -10 454.447 17.5890   9
   2   4  10 458.011 32.3459   2
   2   4  10 427.625 25.3236   4
  -3  -4 -10 93.7051 5.53469   5
  -3  -4 -10 89.2771 5.20085   9
  -3  -4 -10 96.9314 6.70346   3
  -3  -4 -10 112.427 5.30248   6
   3   4  10 95.0682 6.31386   2
   3   4  10 107.692 8.26123   4
  -4  -4 -10 191.135 12.4636   5
  -4  -4 -10 196.077 10.7590   3
  -4  -4 -10 196.506 10.8646   9
   4   4  10 182.114 14.9793   4
   4   4  10 213.237 14.1941   2
  -5  -4 -10 230.733 10.8380   3
   5   4  10 218.146 15.6293   4
   5   4  10 241.233 18.4065   2
  -6  -4 -10 38.0691 4.28149   1
  -6  -4 -10 47.7225 6.74664   3
   6   4  10 36.2372 7.35878  10
   6   4  10 45.3182 7.21558   4
   6   4  10 47.1119 5.29165   2
   6   4  10 36.9933 7.01377   8
  -7  -4 -10 114.691 9.82799   3
  -7  -4 -10 127.501 9.09004   1
   7   4  10 127.509 31.4577  10
   7   4  10 142.151 29.2928   8
   7   4  10 118.053 31.6960   4
  -8  -4 -10 60.2259 6.67467   1
  -8  -4 -10 77.7320 8.70994   3
   8   4  10 106.729 40.5021  10
   8   4  10 99.6738 36.3337   8
   8   4  10 101.526 36.6031   4
   7  -5 -10 31.7928 5.76084   5
   7  -5 -10 28.8338 4.94850   9
  -7   5  10 30.1464 7.26505   2
  -7   5  10 19.6054 7.69245   1
   6  -5 -10 68.3564 6.45832   5
   6  -5 -10 56.2188 5.41973   9
  -6   5  10 63.0944 8.09314   2
  -6   5  10 52.8624 6.09998   1
   5  -5 -10 226.563 11.3308   9
   5  -5 -10 239.478 13.0922   5
  -5   5  10 232.283 16.9635   2
  -5   5  10 240.458 16.2267   1
   4  -5 -10 70.3432 11.6491   5
   4  -5 -10 76.2520 11.5232   9
  -4   5  10 81.9668 7.97109   2
  -4   5  10 49.7229 6.33233   1
   3  -5 -10 351.259 16.5457   5
   3  -5 -10 366.992 13.1912   9
  -3   5  10 380.793 24.0173   2
  -3   5  10 361.371 31.1231   1
   2  -5 -10 374.064 15.8693   3
   2  -5 -10 397.298 14.6989   9
   2  -5 -10 435.958 16.8500   5
  -2   5  10 405.653 31.0554   2
  -2   5  10 393.171 25.8656   1
   1  -5 -10 188.875 8.44676   3
   1  -5 -10 180.887 8.02630   5
   1  -5 -10 199.834 6.55217   9
  -1   5  10 169.886 14.8468   1
  -1   5  10 190.716 15.7072   2
  -1   5  10 193.927 12.9315   4
   0  -5 -10 278.334 10.0636   3
   0  -5 -10 291.948 26.9935   9
   0  -5 -10 297.264 29.1448   5
   0   5  10 284.756 17.5704   2
   0   5  10 248.438 16.0307   4
  -1  -5 -10 91.8064 5.26894   5
  -1  -5 -10 90.8710 6.06449   3
  -1  -5 -10 100.007 4.56846   6
  -1  -5 -10 90.2102 4.57439   9
   1   5  10 82.0673 7.08639   4
   1   5  10 95.9651 8.26086   2
  -2  -5 -10 301.757 12.2950   9
  -2  -5 -10 297.743 11.3647   3
  -2  -5 -10 297.840 14.9557   5
   2   5  10 281.480 21.0087   2
   2   5  10 292.573 18.2882   4
  -3  -5 -10 293.600 16.3488   9
  -3  -5 -10 307.983 19.4128   5
  -3  -5 -10 285.419 16.7001   3
   3   5  10 284.136 23.7679   4
   3   5  10 306.191 20.2355   2
  -4  -5 -10 352.812 17.5242   3
  -4  -5 -10 360.869 24.2962   5
  -4  -5 -10 356.176 17.6726   9
   4   5  10 363.450 29.7556   4
   4   5  10 336.711 25.4504   2
  -5  -5 -10 124.210 6.99479   3
   5   5  10 137.753 11.4261   4
   5   5  10 139.114 10.5690   2
  -6  -5 -10 142.141 7.75466   3
   6   5  10 135.958 9.27790   8
   6   5  10 137.526 8.99027   4
   6   5  10 126.968 10.8275  10
  -7  -5 -10 119.525 9.13044   3
  -7  -5 -10 121.128 11.6885   1
   7   5  10 111.800 10.4587   4
   7   5  10 120.103 7.93897   8
   7   5  10 108.323 8.17922  10
  -8  -5 -10 26.9697 5.40457   1
  -8  -5 -10 19.2553 5.53239   3
   8   5  10 15.2444 8.12103  10
   8   5  10 13.6867 7.96405   8
   8   5  10 19.8943 7.72604   4
   7  -6 -10 95.4452 7.76913   9
   7  -6 -10 111.497 10.0022   5
  -7   6  10 113.852 11.4767   2
  -7   6  10 121.192 10.5107   1
   6  -6 -10 141.865 10.8997   9
   6  -6 -10 132.273 10.3489   5
  -6   6  10 167.867 12.4262   2
  -6   6  10 149.313 13.8073   1
   5  -6 -10 11.0639 5.84310   5
   5  -6 -10 5.26259 5.05750   9
  -5   6  10 18.6718 5.71648   2
  -5   6  10 6.49842 6.34678   1
   4  -6 -10 268.423 12.4015   5
   4  -6 -10 253.837 11.7369   9
  -4   6  10 272.801 14.8102   2
  -4   6  10 260.234 15.9270   1
   3  -6 -10 325.875 18.6720   5
   3  -6 -10 380.378 22.2248   3
   3  -6 -10 365.118 14.4059   9
  -3   6  10 356.968 35.5713   1
  -3   6  10 392.089 29.5319   2
   2  -6 -10 32.0777 4.21481   3
   2  -6 -10 41.1205 4.65399   5
   2  -6 -10 41.8992 4.08195   9
  -2   6  10 29.1141 5.41585   1
  -2   6  10 40.9434 6.03413   2
   1  -6 -10 438.228 18.3670   9
   1  -6 -10 436.513 21.3797   3
   1  -6 -10 440.255 19.5095   5
  -1   6  10 442.779 31.8175   4
  -1   6  10 496.464 35.9341   2
  -1   6  10 463.232 28.4911   1
   0  -6 -10 346.509 16.0345   5
   0  -6 -10 352.502 15.4266   3
   0  -6 -10 375.783 15.2275   9
   0   6  10 349.972 22.7846   4
   0   6  10 330.700 24.4839   1
   0   6  10 346.457 24.4380   2
  -1  -6 -10 86.7908 6.52221   5
  -1  -6 -10 100.935 5.67111   3
  -1  -6 -10 89.0278 5.70712   9
   1   6  10 103.655 9.81934   2
   1   6  10 94.5739 7.57445   4
  -2  -6 -10 480.513 25.5733   5
  -2  -6 -10 453.243 20.1419   3
  -2  -6 -10 482.327 22.5156   9
   2   6  10 449.495 45.3890   2
   2   6  10 432.949 28.6807   4
  -3  -6 -10 330.405 14.5653   5
  -3  -6 -10 333.199 17.4017   3
  -3  -6 -10 291.494 20.7626   9
   3   6  10 332.675 39.2290   2
   3   6  10 314.978 21.2650   4
  -4  -6 -10 241.085 14.9647   3
  -4  -6 -10 192.975 9.17587   9
  -4  -6 -10 203.958 10.6595   5
   4   6  10 204.593 12.1533   4
   4   6  10 209.239 16.1982   2
  -5  -6 -10 214.715 9.56523   3
   5   6  10 192.162 16.4565   4
  -6  -6 -10 200.666 12.6221   3
   6   6  10 219.462 16.8800   4
  -7  -6 -10 50.5366 6.05781   3
   7   6  10 49.4166 8.23695  10
   7   6  10 58.1832 7.80941   4
   7   6  10 60.7493 8.08972   8
  -8  -6 -10 74.9046 8.52922   1
  -8  -6 -10 85.0639 8.75576   3
   8   6  10 81.5961 9.01810   8
   8   6  10 77.4720 7.35718   4
   8   6  10 79.6860 9.30160  10
   6  -7 -10 6.56496 6.41772   5
   6  -7 -10 0.33636 5.63920   9
  -6   7  10 8.03301 8.27673   2
  -6   7  10 -1.4547 7.56537   1
   5  -7 -10 123.067 8.77191   5
   5  -7 -10 122.374 8.90909   9
  -5   7  10 165.452 14.0468   2
  -5   7  10 132.742 11.0522   1
   4  -7 -10 265.578 17.6212   5
   4  -7 -10 297.664 16.1296   3
   4  -7 -10 297.566 14.9231   9
  -4   7  10 306.410 23.9550   2
  -4   7  10 303.515 20.0806   1
   3  -7 -10 128.886 7.83559   9
   3  -7 -10 136.708 6.94320   3
   3  -7 -10 142.412 8.15355   5
  -3   7  10 128.607 9.73970   1
  -3   7  10 151.824 11.9101   2
   2  -7 -10 280.628 13.6014   5
   2  -7 -10 287.932 14.4832   3
   2  -7 -10 277.318 10.3190   9
  -2   7  10 274.849 25.0896   1
  -2   7  10 343.962 26.8657   2
   1  -7 -10 268.926 15.2527   5
   1  -7 -10 292.161 12.9099   3
   1  -7 -10 267.198 11.1743   9
  -1   7  10 270.410 20.8531   4
  -1   7  10 271.808 19.3731   1
  -1   7  10 286.068 19.7007   2
   0  -7 -10 90.3868 5.02885   9
   0  -7 -10 95.6334 5.77563   5
   0  -7 -10 115.299 5.92646   3
   0   7  10 92.1122 8.14615   1
   0   7  10 112.917 7.69966   2
   0   7  10 100.752 6.43305   4
  -1  -7 -10 511.884 23.8601   5
  -1  -7 -10 520.157 19.7157   3
  -1  -7 -10 523.080 18.1834   9
   1   7  10 490.685 47.7767   2
   1   7  10 529.688 31.7711   4
  -2  -7 -10 325.886 18.2056   9
  -2  -7 -10 350.827 10.5077   3
  -2  -7 -10 298.064 20.0640   5
   2   7  10 336.408 24.6570   4
   2   7  10 312.308 37.1443   2
  -3  -7 -10 367.883 52.2767   9
  -3  -7 -10 313.752 45.6708   5
  -3  -7 -10 334.434 12.2132   3
   3   7  10 342.722 27.8621   2
   3   7  10 338.926 24.5082   4
  -4  -7 -10 339.927 18.7485   9
  -4  -7 -10 341.342 16.8361   3
  -4  -7 -10 335.170 20.2748   5
   4   7  10 304.656 20.3238   4
  -5  -7 -10 233.156 12.2359   3
   5   7  10 245.272 16.8281   4
  -6  -7 -10 61.6121 6.24509   3
   6   7  10 69.3725 7.53816   4
  -7  -7 -10 170.551 11.8199   3
   7   7  10 159.549 10.6987   4
   7   7  10 160.502 14.0498   8
   7   7  10 152.087 14.7753  10
  -8  -7 -10 57.8120 6.98497   3
   8   7  10 49.0209 8.67992  10
   8   7  10 68.7375 7.18924   8
   8   7  10 57.6092 6.81149   4
   6  -8 -10 40.2052 7.98865   5
   6  -8 -10 49.2594 5.74313   9
  -6   8  10 42.7568 7.45513   2
  -6   8  10 42.7164 9.74873   1
   5  -8 -10 171.206 10.3331   9
   5  -8 -10 176.845 13.2053   5
  -5   8  10 152.568 13.8275   1
  -5   8  10 171.813 14.0749   2
   4  -8 -10 16.2687 5.47106   9
   4  -8 -10 13.6223 6.11969   5
  -4   8  10 17.8849 5.63681   1
  -4   8  10 22.0677 5.47613   2
   3  -8 -10 374.210 18.0145   9
   3  -8 -10 359.879 22.2380   3
   3  -8 -10 347.595 18.6698   5
  -3   8  10 384.608 25.1440   1
  -3   8  10 388.917 27.8572   2
   2  -8 -10 197.579 12.0191   9
   2  -8 -10 175.343 10.7631   5
   2  -8 -10 190.138 9.16188   3
  -2   8  10 201.311 12.2791   2
  -2   8  10 174.880 16.8934   1
   1  -8 -10 104.746 7.03677   3
   1  -8 -10 102.163 7.34439   5
   1  -8 -10 100.804 6.36079   9
  -1   8  10 124.138 11.3288   4
  -1   8  10 119.609 10.8532   2
  -1   8  10 101.895 8.14126   1
   0  -8 -10 547.251 14.2080   9
   0  -8 -10 576.667 25.4057   5
   0  -8 -10 538.548 24.4691   3
   0   8  10 591.230 33.3360   2
   0   8  10 531.396 43.6828   1
   0   8  10 546.444 50.6254   4
  -1  -8 -10 285.860 13.5946   5
  -1  -8 -10 268.951 14.0588   3
  -1  -8 -10 291.789 8.47501   9
   1   8  10 271.158 18.8435   4
   1   8  10 270.683 20.2988   2
  -2  -8 -10 140.843 8.82151   3
  -2  -8 -10 103.503 7.85159   5
  -2  -8 -10 111.182 6.16002   9
   2   8  10 105.181 14.8926   2
   2   8  10 127.309 10.1009   4
  -3  -8 -10 523.879 26.9168   3
  -3  -8 -10 499.341 18.3743   9
  -3  -8 -10 536.784 30.4118   5
   3   8  10 519.357 34.2308   4
  -4  -8 -10 117.851 5.65489   9
  -4  -8 -10 133.145 8.02954   5
  -4  -8 -10 129.142 8.75208   3
   4   8  10 150.829 26.7357   4
  -5  -8 -10 154.823 8.72153   3
   5   8  10 137.710 14.2952   4
  -6  -8 -10 198.564 10.3674   3
   6   8  10 197.029 15.5927   4
  -7  -8 -10 35.5086 7.69422   3
   7   8  10 55.1975 7.77411   4
   7   8  10 37.5779 7.97070  10
   7   8  10 49.2953 7.84973   8
  -8  -8 -10 66.7682 7.54825   3
   8   8  10 76.7725 7.31008   4
   8   8  10 79.5546 8.93263   8
   8   8  10 96.4481 9.71793  10
   5  -9 -10 39.9608 6.22650   5
   5  -9 -10 37.2817 5.40485   9
  -5   9  10 28.7193 7.10089   1
   4  -9 -10 264.049 16.3662   5
   4  -9 -10 256.075 14.5151   9
  -4   9  10 274.791 20.2049   2
  -4   9  10 248.009 20.6668   1
   3  -9 -10 120.390 9.98482   9
   3  -9 -10 116.602 12.7562   5
  -3   9  10 118.061 8.88881   1
  -3   9  10 132.154 10.4524   2
   2  -9 -10 45.4323 3.96637   3
   2  -9 -10 35.9727 5.21881   5
   2  -9 -10 40.8616 4.68670   9
  -2   9  10 50.9049 5.39044   2
  -2   9  10 35.8344 6.14223   1
   1  -9 -10 319.410 14.1413   5
   1  -9 -10 321.819 18.5474   3
   1  -9 -10 299.707 16.6338   9
  -1   9  10 332.328 27.8154   2
  -1   9  10 319.615 25.3343   1
  -1   9  10 315.127 26.6579   4
   0  -9 -10 220.026 10.9357   3
   0  -9 -10 195.483 10.3192   9
   0  -9 -10 206.975 9.92625   5
   0   9  10 206.699 21.3268   1
   0   9  10 210.742 18.4033   2
   0   9  10 192.039 14.3247   4
  -1  -9 -10 155.429 8.73890   3
  -1  -9 -10 161.539 9.06248   5
  -1  -9 -10 135.593 6.18413   9
   1   9  10 145.775 11.5537   4
  -2  -9 -10 496.250 22.5256   3
  -2  -9 -10 477.654 23.3675   9
  -2  -9 -10 473.431 24.8583   5
   2   9  10 458.073 28.9889   4
  -3  -9 -10 70.5309 6.22475   9
  -3  -9 -10 78.3726 6.36779   5
  -3  -9 -10 91.4544 7.19999   3
   3   9  10 93.5171 8.68365   4
  -4  -9 -10 169.972 8.78780   9
  -4  -9 -10 183.656 11.7902   3
  -4  -9 -10 179.980 11.7156   5
   4   9  10 165.064 15.3712   4
  -5  -9 -10 270.555 18.1836   3
   5   9  10 262.849 22.1071   4
  -6  -9 -10 28.8273 7.31261   3
   6   9  10 36.0503 5.69955  10
   6   9  10 33.8879 5.31495   8
   6   9  10 41.9898 5.73245   4
  -7  -9 -10 109.304 9.40242   3
   7   9  10 85.7116 6.92563   8
   7   9  10 114.455 8.06439  10
   7   9  10 93.6148 9.79339   4
   4 -10 -10 55.9957 8.38319   5
   4 -10 -10 37.7285 6.98419   9
  -4  10  10 36.1141 10.1210   1
   3 -10 -10 46.9173 6.87205   9
   3 -10 -10 64.5311 8.09224   5
  -3  10  10 87.1755 11.7117   1
  -3  10  10 64.4184 6.44409   2
   2 -10 -10 183.144 10.7105   5
   2 -10 -10 212.986 18.6153   3
   2 -10 -10 180.721 12.6920   9
  -2  10  10 216.937 17.7670   2
  -2  10  10 194.797 17.3797   1
   1 -10 -10 175.801 12.3948   5
   1 -10 -10 154.397 8.19123   9
   1 -10 -10 167.955 10.4039   3
  -1  10  10 158.843 13.9169   4
  -1  10  10 151.038 14.1316   1
   0 -10 -10 132.090 7.47047   9
   0 -10 -10 141.343 9.45853   5
   0 -10 -10 134.158 7.11872   3
   0  10  10 175.370 16.4605   4
   0  10  10 110.878 10.1836   1
  -1 -10 -10 270.280 14.1067   9
  -1 -10 -10 273.295 14.7408   5
  -1 -10 -10 274.692 17.9051   3
   1  10  10 272.273 28.1152   4
  -2 -10 -10 38.9335 6.06015   3
  -2 -10 -10 30.5662 4.77329   5
  -2 -10 -10 32.8703 4.21283   9
   2  10  10 48.2171 8.74514   4
  -3 -10 -10 162.814 10.3101   3
  -3 -10 -10 171.255 10.5011   9
  -3 -10 -10 156.744 11.3336   5
   3  10  10 179.781 18.5304   4
  -4 -10 -10 289.870 15.9471   3
  -4 -10 -10 253.361 16.6946   9
  -4 -10 -10 221.832 18.5109   5
   4  10  10 236.717 24.5156   4
  -5 -10 -10 53.1054 7.41901   3
   5  10  10 52.3515 6.98405   4
  -6 -10 -10 56.7928 9.21412   3
   6  10  10 58.6587 8.03339  10
   6  10  10 61.2234 8.19302   4
   6  10  10 59.0669 10.1948   8
  -7 -10 -10 177.682 17.5401   3
   7  10  10 133.464 13.5355  10
   7  10  10 129.239 11.4592   4
   7  10  10 139.105 13.7548   8
   3 -11 -10 131.783 10.3200   9
   3 -11 -10 140.961 10.6546   5
  -3  11  10 130.253 14.0794   1
   2 -11 -10 114.557 8.48465   9
   2 -11 -10 117.483 10.3625   5
  -2  11  10 118.550 12.4027   4
  -2  11  10 116.712 12.5324   1
   1 -11 -10 31.0378 5.65626   3
   1 -11 -10 22.2336 7.07327   5
  -1  11  10 20.7040 8.99917   1
  -1  11  10 29.2201 7.73819   4
   0 -11 -10 137.861 10.6637   5
   0 -11 -10 151.717 11.2253   3
   0  11  10 130.440 12.1867   1
   0  11  10 143.295 14.2660   4
  -1 -11 -10 56.4632 7.36215   5
  -1 -11 -10 68.1554 6.90442   3
   1  11  10 53.4357 6.59512   4
  -2 -11 -10 34.1690 5.22553   5
  -2 -11 -10 45.6443 6.73362   3
   2  11  10 41.1615 5.29278   4
  -3 -11 -10 225.203 15.9636   3
  -3 -11 -10 209.214 16.0210   5
   3  11  10 221.400 18.9281   4
  -4 -11 -10 59.7975 7.73873   3
   4  11  10 67.4842 7.57037   4
  -5 -11 -10 77.0370 10.9992   3
   5  11  10 83.9061 8.70227   4
  -6 -11 -10 42.3657 8.27271   3
   6  11  10 52.6445 8.11170   8
   6  11  10 46.7532 8.03043  10
   6  11  10 48.3366 7.78089   4
   1 -12 -10 45.8421 8.43951   5
  -1  12  10 51.6397 8.66346   1
   0 -12 -10 18.1475 5.96369   3
   0 -12 -10 23.2095 7.52655   5
   0  12  10 16.9353 7.38812   4
   0  12  10 3.33411 9.71346   1
  -1 -12 -10 58.7302 7.25808   3
  -1 -12 -10 66.2180 6.91188   5
   1  12  10 76.3225 8.83079   4
  -2 -12 -10 99.6230 8.72306   3
  -2 -12 -10 79.9907 7.14561   5
   2  12  10 87.6360 9.34973   4
  -3 -12 -10 37.7192 5.92806   5
  -3 -12 -10 58.6219 7.92831   3
   3  12  10 48.5640 8.74993   4
  -4 -12 -10 31.6358 5.58183   5
  -4 -12 -10 58.9719 8.46174   3
   4  12  10 40.1280 7.41548   4
   3   2 -11 31.0474 5.39085   9
  -3  -2  11 24.4821 7.31241   2
  -3  -2  11 39.5146 8.52804   4
   2   2 -11 27.6467 6.58409   9
  -2  -2  11 20.6468 7.01846   2
  -2  -2  11 9.05101 7.77753   4
   1   2 -11 4.31299 5.88919   9
  -1  -2  11 1.33327 7.08153   4
  -1  -2  11 2.88824 6.04416   2
   0  -2  11 29.6797 9.29264   2
   5   1 -11 -1.4895 4.59884   9
  -5  -1  11 4.09819 6.65280   2
   4   1 -11 74.1140 7.92668   9
  -4  -1  11 72.6816 9.08476   2
  -4  -1  11 52.9278 8.81912   4
   3   1 -11 19.3189 4.83053   9
  -3  -1  11 11.3328 7.40632   4
  -3  -1  11 17.1936 8.53324   2
   2   1 -11 17.5927 4.57329   9
  -2  -1  11 10.6346 5.94863   2
  -2  -1  11 15.3418 7.08198   4
   1   1 -11 96.7023 6.22926   9
  -1  -1  11 110.065 9.73132   2
  -1  -1  11 89.1178 8.93616   4
   0   1 -11 17.6174 4.20760   9
   0  -1  11 21.3887 7.03005   4
   0  -1  11 16.3485 7.88873   2
  -1   1 -11 13.4940 4.03327   9
   1  -1  11 16.5005 5.89611   2
   1  -1  11 6.55636 7.34767   4
  -2   1 -11 104.587 8.02229   6
   2  -1  11 74.2217 9.17414   4
   2  -1  11 99.7890 9.61636   2
  -3   1 -11 11.9473 6.14521   6
   3  -1  11 7.33607 8.07120   2
   3  -1  11 2.20730 7.10607   4
   5   0 -11 51.5662 7.39976   9
  -5   0  11 63.2364 8.11235   2
   4   0 -11 43.4592 6.70567   9
  -4   0  11 41.9698 9.18476   2
   3   0 -11 15.3851 4.39716   9
  -3   0  11 13.7162 7.74037   2
  -3   0  11 15.8244 10.3365   4
   2   0 -11 125.757 7.96630   9
  -2   0  11 131.937 13.0632   4
  -2   0  11 129.300 11.4751   2
   1   0 -11 55.0076 6.14973   9
  -1   0  11 55.7085 7.47620   4
  -1   0  11 59.7561 6.87431   2
   0   0 -11 39.4500 5.63530   9
   0   0  11 28.3671 6.97654   4
   0   0  11 46.4584 6.48729   2
  -1   0 -11 94.3410 7.44975   9
   1   0  11 125.959 11.3370   2
   1   0  11 112.988 11.6790   4
  -2   0 -11 28.9167 5.15996   6
  -2   0 -11 23.6386 5.04475   9
   2   0  11 25.5242 7.88718   2
   2   0  11 16.5042 9.90500   4
  -3   0 -11 29.8006 4.91254   6
   3   0  11 25.6815 7.31703   4
   3   0  11 16.6148 7.81868   2
  -4   0 -11 104.395 8.01980   6
   4   0  11 86.8651 9.07967   4
   4   0  11 99.0947 10.5928   2
   6  -1 -11 35.5259 5.59257   9
  -6   1  11 32.8472 7.55095   2
   5  -1 -11 33.7719 6.61435   9
  -5   1  11 30.7232 8.82095   2
   4  -1 -11 3.96404 3.88182   9
   4  -1 -11 3.64225 4.94312   5
  -4   1  11 14.0855 7.87058   2
   3  -1 -11 207.830 13.4275   9
  -3   1  11 225.684 15.8265   2
  -3   1  11 201.140 20.5386   4
   2  -1 -11 55.2618 6.14460   9
  -2   1  11 40.7655 7.72282   2
  -2   1  11 60.9913 8.81519   4
   1  -1 -11 74.0063 6.47368   9
  -1   1  11 78.1873 8.45597   4
  -1   1  11 93.0445 7.32689   2
   0  -1 -11 27.0437 5.07121   9
   0   1  11 23.4566 6.67218   4
   0   1  11 42.6876 5.97200   2
  -1  -1 -11 46.8807 5.33183   9
   1   1  11 42.8355 6.81362   2
   1   1  11 33.3704 6.81166   4
  -2  -1 -11 68.8098 5.59014   9
  -2  -1 -11 98.3964 5.61254   6
   2   1  11 88.7535 7.46775   2
   2   1  11 80.9078 9.09125   4
  -3  -1 -11 166.472 8.66487   6
   3   1  11 172.562 14.5401   2
   3   1  11 152.952 16.7327   4
  -4  -1 -11 76.9910 6.78041   6
   4   1  11 58.1784 6.51545   4
   4   1  11 76.4466 9.98019   2
  -5  -1 -11 82.4235 7.82374   6
   5   1  11 59.6083 7.00101   8
   5   1  11 45.2535 6.93026  10
   5   1  11 69.4946 8.87071   4
   5   1  11 82.2334 10.0025   2
   6  -2 -11 13.0662 5.59185   5
   6  -2 -11 11.6921 6.52814   9
  -6   2  11 17.5302 6.94776   2
   5  -2 -11 20.5443 4.73883   9
   5  -2 -11 23.6949 5.54112   5
  -5   2  11 28.4387 8.66492   2
   4  -2 -11 152.411 7.80397   9
   4  -2 -11 148.828 9.39859   5
  -4   2  11 164.946 12.7917   2
   3  -2 -11 38.9891 5.43547   5
   3  -2 -11 34.7801 4.59188   9
  -3   2  11 50.3525 8.83204   2
   2  -2 -11 22.6008 6.00231   5
   2  -2 -11 29.7313 5.45291   9
  -2   2  11 28.5404 7.23298   4
  -2   2  11 28.9169 7.32719   2
   1  -2 -11 438.194 22.5348   5
   1  -2 -11 419.441 22.6905   9
  -1   2  11 428.702 44.1813   2
  -1   2  11 434.792 31.6234   4
   0  -2 -11 -3.9224 4.79117   5
   0  -2 -11 -0.5681 4.73081   9
   0   2  11 4.65913 4.18727   2
   0   2  11 3.63308 5.89258   4
  -1  -2 -11 136.962 8.05977   9
   1   2  11 169.699 13.9895   2
   1   2  11 144.003 11.2498   4
  -2  -2 -11 282.955 15.7191   6
  -2  -2 -11 275.512 16.8903   9
   2   2  11 292.659 26.8479   2
   2   2  11 265.370 16.5880   4
  -3  -2 -11 62.3582 5.41661   6
  -3  -2 -11 42.0869 3.82020   9
   3   2  11 59.3292 6.07589   2
   3   2  11 40.6401 7.55681   4
  -4  -2 -11 167.287 9.10284   6
  -4  -2 -11 115.595 7.82210   3
   4   2  11 122.746 12.4352   4
   4   2  11 150.103 13.4812   2
  -5  -2 -11 150.777 12.0168   3
  -5  -2 -11 152.276 11.3655   6
   5   2  11 135.715 10.2208   4
   5   2  11 153.553 18.3964   2
  -6  -2 -11 40.6909 6.51437   3
  -6  -2 -11 52.6461 7.30102   6
   6   2  11 37.9997 7.39042   2
   6   2  11 42.5251 9.24780  10
   6   2  11 53.9908 9.04819   8
   6  -3 -11 49.4671 5.66230   9
   6  -3 -11 31.0247 7.80544   5
  -6   3  11 59.4816 13.9002   2
   5  -3 -11 53.8285 8.29197   9
   5  -3 -11 56.2491 7.55911   5
  -5   3  11 72.0108 9.69535   2
   4  -3 -11 47.0709 5.69377   5
   4  -3 -11 50.7839 5.11656   9
  -4   3  11 47.3536 6.56715   2
   3  -3 -11 107.206 6.88630   9
   3  -3 -11 82.3074 7.61688   5
  -3   3  11 98.6900 8.81424   2
   2  -3 -11 163.693 9.93610   5
   2  -3 -11 165.736 7.55287   9
  -2   3  11 163.752 10.5483   4
  -2   3  11 165.241 11.4668   2
   1  -3 -11 41.5147 6.11164   5
   1  -3 -11 55.2696 4.66758   9
  -1   3  11 57.4301 7.11278   2
  -1   3  11 43.8587 5.79017   4
   0  -3 -11 16.8829 5.19317   5
   0  -3 -11 14.5368 3.36011   9
   0   3  11 33.3607 6.33259   2
   0   3  11 12.4425 4.58322   4
  -1  -3 -11 404.543 21.1375   9
  -1  -3 -11 426.036 24.0392   5
  -1  -3 -11 427.073 22.4299   3
   1   3  11 444.856 30.1908   2
   1   3  11 416.640 34.3936   4
  -2  -3 -11 57.3604 6.31542   5
  -2  -3 -11 79.5842 5.39617   9
  -2  -3 -11 101.518 8.08613   3
  -2  -3 -11 78.0848 5.69796   6
   2   3  11 84.7120 7.94346   4
   2   3  11 67.4557 7.16063   2
  -3  -3 -11 154.522 8.86995   6
  -3  -3 -11 154.958 8.01804   9
  -3  -3 -11 154.979 8.27983   3
   3   3  11 160.845 11.4793   2
   3   3  11 154.060 10.6312   4
  -4  -3 -11 308.170 16.6259   3
  -4  -3 -11 300.299 15.9472   6
   4   3  11 298.906 30.5557   2
   4   3  11 292.188 18.8286   4
  -5  -3 -11 9.24448 6.49550   3
  -5  -3 -11 16.2736 5.17720   6
   5   3  11 11.6147 6.02195   2
   5   3  11 14.7533 7.04343   4
  -6  -3 -11 136.925 12.2592   3
  -6  -3 -11 152.297 10.3573   6
   6   3  11 157.031 13.8494  10
   6   3  11 156.732 13.2456   8
   6   3  11 152.340 10.5029   2
   6   3  11 144.040 10.9480   4
   6  -4 -11 36.1394 6.70782   9
   6  -4 -11 38.5749 6.10842   5
  -6   4  11 28.5367 6.94603   2
   5  -4 -11 12.9712 6.50230   5
   5  -4 -11 10.8617 5.76377   9
  -5   4  11 14.3828 8.30800   2
   4  -4 -11 160.280 8.14611   9
   4  -4 -11 149.651 9.29467   5
  -4   4  11 175.171 14.6800   2
   3  -4 -11 21.2566 4.61901   5
   3  -4 -11 30.8076 4.44623   9
  -3   4  11 20.3625 5.20509   2
   2  -4 -11 70.7572 6.08928   9
   2  -4 -11 109.844 6.68694   5
  -2   4  11 92.7821 7.90910   2
   1  -4 -11 128.370 6.61249   3
   1  -4 -11 128.041 6.76446   9
   1  -4 -11 104.642 7.39776   5
  -1   4  11 128.356 8.84346   4
  -1   4  11 130.535 10.6457   2
   0  -4 -11 57.4697 5.66547   5
   0  -4 -11 48.6561 5.10819   9
   0  -4 -11 58.3610 5.96968   3
   0   4  11 64.3845 6.59876   2
   0   4  11 65.2527 7.42043   4
  -1  -4 -11 165.460 8.79906   9
  -1  -4 -11 178.716 23.7289   3
  -1  -4 -11 167.000 8.86533   5
   1   4  11 168.083 16.5492   4
   1   4  11 184.237 14.2285   2
  -2  -4 -11 213.265 12.2551   5
  -2  -4 -11 221.400 14.1137   6
  -2  -4 -11 242.286 9.59380   3
  -2  -4 -11 230.723 12.1626   9
   2   4  11 247.446 15.8685   4
   2   4  11 257.156 17.2722   2
  -3  -4 -11 266.938 22.4448   9
  -3  -4 -11 253.417 15.9493   6
  -3  -4 -11 258.923 30.8012   5
  -3  -4 -11 239.003 12.3596   3
   3   4  11 229.502 18.3132   4
   3   4  11 249.027 21.5344   2
  -4  -4 -11 53.8713 5.71288   3
  -4  -4 -11 70.9932 5.61505   6
   4   4  11 65.0096 7.22951   2
   4   4  11 47.4518 7.41526   4
  -5  -4 -11 187.198 11.1926   3
  -5  -4 -11 171.922 8.67360   6
   5   4  11 126.213 13.1234   4
   5   4  11 174.443 12.8188   2
  -6  -4 -11 83.6157 7.71954   3
  -6  -4 -11 94.0489 6.60344   6
   6   4  11 69.8013 9.23048   8
   6   4  11 83.4027 9.13800   4
   6   4  11 63.8012 9.10379  10
   6  -5 -11 -1.5896 4.77944   5
   6  -5 -11 -1.5843 4.00621   9
  -6   5  11 0.28504 8.55660   2
   5  -5 -11 66.2268 6.65171   5
   5  -5 -11 76.5144 5.97788   9
  -5   5  11 80.0538 11.6214   2
  -5   5  11 50.4746 7.92615   1
   4  -5 -11 75.8539 6.68003   9
   4  -5 -11 75.1543 8.59952   5
  -4   5  11 99.3912 12.5208   2
  -4   5  11 82.2973 7.99885   1
   3  -5 -11 -4.0510 4.81979   9
   3  -5 -11 -4.2866 5.37322   5
  -3   5  11 -1.0882 4.78584   1
  -3   5  11 0.91848 4.62249   2
   2  -5 -11 138.038 8.47880   5
   2  -5 -11 174.906 8.23859   3
   2  -5 -11 162.559 7.61804   9
  -2   5  11 149.092 13.0872   1
  -2   5  11 158.882 12.1827   2
   1  -5 -11 116.405 6.09914   3
   1  -5 -11 110.355 7.76018   9
   1  -5 -11 109.578 7.43939   5
  -1   5  11 112.213 9.08311   2
  -1   5  11 132.657 16.4174   4
   0  -5 -11 60.1278 4.54375   9
   0  -5 -11 55.5439 4.91706   3
   0  -5 -11 66.7961 5.36132   5
   0   5  11 55.9213 8.08293   4
   0   5  11 73.1581 9.05033   2
  -1  -5 -11 345.419 15.2676   3
  -1  -5 -11 338.353 17.7117   5
  -1  -5 -11 362.717 18.2931   9
   1   5  11 334.583 27.2951   4
   1   5  11 326.607 21.7001   2
  -2  -5 -11 181.178 9.15268   9
  -2  -5 -11 177.154 9.69518   3
  -2  -5 -11 175.577 11.0854   5
   2   5  11 165.659 13.3070   2
   2   5  11 170.412 13.4680   4
  -3  -5 -11 101.009 6.55762   3
  -3  -5 -11 92.8084 6.52652   9
  -3  -5 -11 113.835 6.02176   6
  -3  -5 -11 92.9434 6.30726   5
   3   5  11 123.825 14.8567   2
   3   5  11 103.389 7.91996   4
  -4  -5 -11 127.529 8.36652   3
   4   5  11 112.467 11.7045   4
   4   5  11 130.374 11.0043   2
  -5  -5 -11 142.465 9.14468   3
   5   5  11 120.999 12.1120   4
  -6  -5 -11 57.9870 7.96798   3
   6   5  11 42.2951 6.64673  10
   6   5  11 38.9052 6.24297   8
   6   5  11 48.9737 8.24859   4
  -7  -5 -11 76.1527 9.13370   3
   7   5  11 99.5351 41.0947   8
   7   5  11 96.5437 54.1680   4
   7   5  11 107.321 43.5931  10
   6  -6 -11 53.6806 8.46039   5
   6  -6 -11 52.9572 7.36878   9
  -6   6  11 43.1131 6.75647   1
   5  -6 -11 56.5359 5.65215   9
   5  -6 -11 49.1883 6.30750   5
  -5   6  11 48.0169 8.01110   1
  -5   6  11 45.4092 7.05980   2
   4  -6 -11 7.37774 4.81794   5
   4  -6 -11 3.22982 6.00186   9
  -4   6  11 6.87114 4.78917   1
  -4   6  11 9.97135 7.23819   2
   3  -6 -11 86.4844 6.21904   9
   3  -6 -11 92.0886 7.88382   5
  -3   6  11 76.1478 6.50143   1
  -3   6  11 97.3606 9.46810   2
   2  -6 -11 60.3067 5.90742   9
   2  -6 -11 46.7894 6.48127   5
   2  -6 -11 94.8394 17.7599   3
  -2   6  11 65.6199 7.42036   2
  -2   6  11 43.5222 4.72456   1
   1  -6 -11 3.43580 4.32688   9
   1  -6 -11 6.54842 4.26472   3
   1  -6 -11 4.92302 5.10068   5
  -1   6  11 15.2435 6.77850   4
  -1   6  11 4.02748 3.55402   1
  -1   6  11 36.9679 9.88396   2
   0  -6 -11 230.047 11.7143   5
   0  -6 -11 245.450 11.3866   3
   0  -6 -11 235.103 11.0065   9
   0   6  11 246.275 15.0934   4
   0   6  11 214.262 18.9172   2
  -1  -6 -11 101.729 6.96924   3
  -1  -6 -11 95.2362 6.81646   5
  -1  -6 -11 81.5246 6.57964   9
   1   6  11 93.7245 9.31498   2
   1   6  11 104.419 8.73311   4
  -2  -6 -11 119.574 7.40420   5
  -2  -6 -11 136.347 7.87149   3
  -2  -6 -11 120.926 6.15487   9
   2   6  11 130.605 10.0941   2
   2   6  11 137.010 10.3488   4
  -3  -6 -11 133.284 7.95429   5
  -3  -6 -11 145.704 8.37830   3
  -3  -6 -11 151.243 8.98674   9
   3   6  11 147.612 11.7595   4
   3   6  11 170.685 13.2106   2
  -4  -6 -11 72.3319 7.17591   3
   4   6  11 70.4157 8.08476   4
  -5  -6 -11 40.3376 5.50159   3
   5   6  11 51.2407 8.05713   4
  -6  -6 -11 71.3736 7.31933   3
   6   6  11 78.2582 8.74637   4
  -7  -6 -11 63.2092 8.50905   3
   7   6  11 66.9376 9.30061   8
   7   6  11 65.8584 9.71158  10
   7   6  11 72.3941 8.32548   4
  -6   7  11 14.4917 6.59482   1
   5  -7 -11 3.33672 6.60590   5
   5  -7 -11 -1.7368 4.05602   9
  -5   7  11 5.61017 8.32875   2
  -5   7  11 5.70728 5.52931   1
   4  -7 -11 75.4621 5.86953   9
   4  -7 -11 76.5383 6.73263   5
  -4   7  11 83.5988 8.81670   1
  -4   7  11 82.9708 11.0981   2
   3  -7 -11 -1.4709 5.46123   5
   3  -7 -11 1.64820 4.90850   9
   3  -7 -11 10.6567 4.04685   3
  -3   7  11 7.14694 9.86477   2
  -3   7  11 2.87433 6.12898   1
   2  -7 -11 8.74130 4.19014   3
   2  -7 -11 9.07782 3.63985   9
   2  -7 -11 7.85507 4.06769   5
  -2   7  11 3.93792 5.63447   1
  -2   7  11 14.2209 4.67146   2
   1  -7 -11 328.128 12.1554   3
   1  -7 -11 334.253 15.1556   9
   1  -7 -11 326.323 18.3782   5
  -1   7  11 305.638 29.0888   4
  -1   7  11 322.326 26.7845   2
  -1   7  11 310.239 25.0021   1
   0  -7 -11 27.4651 3.89137   9
   0  -7 -11 16.9167 4.09100   5
   0  -7 -11 30.4344 5.19585   3
   0   7  11 32.5340 5.25710   2
   0   7  11 21.9307 6.88687   4
  -1  -7 -11 40.6232 5.07605   9
  -1  -7 -11 40.3923 5.66503   5
  -1  -7 -11 59.7793 6.68981   3
   1   7  11 48.0813 5.70506   4
   1   7  11 48.9839 6.13775   2
  -2  -7 -11 125.435 6.56293   9
  -2  -7 -11 127.492 7.49997   5
  -2  -7 -11 146.252 8.96432   3
   2   7  11 132.557 11.0918   4
   2   7  11 133.286 13.5162   2
  -3  -7 -11 28.0025 4.07628   5
  -3  -7 -11 19.8767 4.16652   9
  -3  -7 -11 27.4312 5.73177   3
   3   7  11 31.7808 6.84844   4
  -4  -7 -11 76.2705 6.24019   3
  -4  -7 -11 58.4780 6.85980   5
  -4  -7 -11 62.7252 5.00915   9
   4   7  11 62.2979 8.78386   4
  -5  -7 -11 105.200 8.52934   3
   5   7  11 113.407 10.6846   4
  -6  -7 -11 32.8349 5.63859   3
   6   7  11 28.5443 9.99102   4
  -7  -7 -11 33.2798 6.10322   3
   7   7  11 42.1784 6.55294   4
   7   7  11 42.7214 7.15168  10
   7   7  11 45.2550 6.97910   8
   5  -8 -11 63.1216 8.47735   5
   5  -8 -11 62.6657 6.08663   9
  -5   8  11 65.7934 8.13863   2
  -5   8  11 38.0083 7.37073   1
   4  -8 -11 10.0808 4.89913   5
   4  -8 -11 5.21633 4.23476   9
  -4   8  11 6.08328 5.53204   2
  -4   8  11 4.43938 8.11448   1
   3  -8 -11 6.75775 8.09539   3
   3  -8 -11 8.39538 5.43671   9
   3  -8 -11 4.22116 4.43199   5
  -3   8  11 8.44576 4.90004   2
  -3   8  11 -1.0547 4.82253   1
   2  -8 -11 105.038 21.2068   5
   2  -8 -11 141.102 8.26886   3
   2  -8 -11 131.527 20.3426   9
  -2   8  11 100.954 10.1963   1
  -2   8  11 143.812 13.0146   2
   1  -8 -11 6.75666 5.46999   5
   1  -8 -11 12.3267 4.49846   3
   1  -8 -11 1.62809 4.74159   9
  -1   8  11 5.64861 3.90502   2
  -1   8  11 3.74383 6.97468   4
  -1   8  11 9.68853 6.51130   1
   0  -8 -11 4.22572 4.50020   9
   0  -8 -11 5.30648 5.15453   5
   0  -8 -11 12.1977 4.62747   3
   0   8  11 4.95222 4.75106   1
   0   8  11 4.65458 6.52547   4
   0   8  11 11.8146 4.72053   2
  -1  -8 -11 112.828 7.58937   5
  -1  -8 -11 112.291 8.72576   9
  -1  -8 -11 131.842 7.67748   3
   1   8  11 107.447 14.7690   2
   1   8  11 135.808 11.6892   4
  -2  -8 -11 18.3799 4.09352   5
  -2  -8 -11 14.5252 3.35553   9
  -2  -8 -11 18.2566 4.56114   3
   2   8  11 16.4915 6.79684   4
  -3  -8 -11 74.3722 5.76976   9
  -3  -8 -11 66.7459 7.07471   3
  -3  -8 -11 65.6539 6.18962   5
   3   8  11 60.6861 7.68991   4
  -4  -8 -11 96.9015 7.20992   3
  -4  -8 -11 79.7539 6.70497   9
  -4  -8 -11 93.1085 6.76499   5
   4   8  11 101.781 8.71582   4
  -5  -8 -11 -2.8419 5.98871   3
   5   8  11 3.84499 6.65443   4
  -6  -8 -11 72.0148 7.13089   3
   6   8  11 73.8952 7.19397   4
  -7  -8 -11 29.5231 6.27437   3
   7   8  11 31.9278 6.91296  10
   4  -9 -11 8.00245 5.00711   5
   4  -9 -11 -3.8604 6.10961   9
  -4   9  11 -2.2680 8.93393   1
  -4   9  11 15.3125 6.20893   2
   3  -9 -11 48.4992 8.10027   9
   3  -9 -11 59.2064 10.1551   5
  -3   9  11 46.4924 9.20815   1
  -3   9  11 67.1611 8.56647   2
   2  -9 -11 -2.1407 5.88565   5
   2  -9 -11 5.81438 4.28574   3
   2  -9 -11 -1.0144 3.62855   9
  -2   9  11 -4.4706 6.98889   1
  -2   9  11 4.16800 6.04549   2
   1  -9 -11 4.03302 5.74145   5
   1  -9 -11 10.8195 4.50195   3
   1  -9 -11 6.00793 5.01639   9
  -1   9  11 18.1815 5.88286   2
  -1   9  11 69.7809 33.3316   1
  -1   9  11 17.1349 5.52211   4
   0  -9 -11 62.3400 5.13408   9
   0  -9 -11 75.0202 6.23429   5
   0  -9 -11 72.9103 6.44716   3
   0   9  11 72.2961 9.65337   4
   0   9  11 68.2926 6.84931   1
  -1  -9 -11 7.55932 3.48187   9
  -1  -9 -11 4.88088 3.86216   5
  -1  -9 -11 5.45968 4.92713   3
   1   9  11 16.5308 6.83768   4
  -2  -9 -11 53.0558 6.38855   5
  -2  -9 -11 49.2773 6.49587   3
  -2  -9 -11 48.5967 5.50655   9
   2   9  11 70.1042 8.09727   4
  -3  -9 -11 48.5297 4.42547   9
  -3  -9 -11 53.8645 5.33769   5
  -3  -9 -11 58.0396 7.14146   3
   3   9  11 63.6243 8.24409   4
  -4  -9 -11 -1.8683 4.13019   3
  -4  -9 -11 -0.5342 3.17077   5
  -4  -9 -11 -2.1072 2.91793   9
   4   9  11 -0.2373 6.59912   4
  -5  -9 -11 11.7048 4.98041   3
   5   9  11 4.81214 6.76103   4
  -6  -9 -11 66.2434 49.0425   3
   6   9  11 69.3139 8.68703   4
   3 -10 -11 3.23416 4.37557   9
   3 -10 -11 6.97646 7.13294   5
  -3  10  11 0.70404 6.60288   1
  -3  10  11 7.61139 5.57048   2
   2 -10 -11 -0.9286 4.50316   5
   2 -10 -11 -1.9885 4.06043   9
  -2  10  11 -1.2666 7.85877   4
  -2  10  11 -3.5244 5.62891   1
   1 -10 -11 3.74610 6.16509   5
   1 -10 -11 9.13523 5.62397   9
   1 -10 -11 20.0515 4.96668   3
  -1  10  11 10.4039 8.27551   1
  -1  10  11 21.0668 7.82641   4
   0 -10 -11 3.03762 5.29558   9
   0 -10 -11 5.04038 3.70397   3
   0 -10 -11 3.33073 4.33103   5
   0  10  11 2.97695 5.56517   1
   0  10  11 -1.9828 7.01156   4
  -1 -10 -11 6.04823 3.68986   9
  -1 -10 -11 6.66813 4.16618   5
  -1 -10 -11 7.54706 5.54323   3
   1  10  11 8.16787 6.85583   4
  -2 -10 -11 74.0192 7.56653   3
  -2 -10 -11 59.5175 9.17349   5
  -2 -10 -11 86.5503 10.4753   9
   2  10  11 73.9927 8.16755   4
  -3 -10 -11 0.13061 4.20236   3
  -3 -10 -11 7.00349 5.45596   5
  -3 -10 -11 2.15493 4.84725   9
   3  10  11 4.83757 4.66210   4
  -4 -10 -11 14.9378 6.65873   3
  -4 -10 -11 20.9678 5.03763   9
  -4 -10 -11 15.0104 5.41562   5
   4  10  11 14.9773 5.23029   4
  -5 -10 -11 14.7774 7.09285   3
   5  10  11 11.6034 5.08763   4
   1 -11 -11 -0.5758 4.96146   3
   1 -11 -11 -0.8867 4.34632   9
   1 -11 -11 -2.3396 4.69969   5
  -1  11  11 0.73295 8.04258   4
  -1  11  11 -3.5075 9.30165   1
   0 -11 -11 -1.3763 6.36279   5
   0 -11 -11 1.11108 5.87362   9
   0 -11 -11 0.86171 5.60287   3
   0  11  11 5.29616 7.76738   4
   0  11  11 1.76038 6.45679   1
  -1 -11 -11 5.65774 6.17899   3
  -1 -11 -11 1.40977 6.24719   5
  -1 -11 -11 5.74051 5.75399   9
   1  11  11 3.54804 5.61168   4
  -2 -11 -11 6.16371 14.8761   9
  -2 -11 -11 0.93516 6.33837   3
  -2 -11 -11 15.2159 18.0134   5
   2  11  11 17.5219 5.38972   4
  -3 -11 -11 3.74050 5.97914   5
  -3 -11 -11 7.74197 5.87718   9
  -3 -11 -11 10.3951 6.77644   3
   3  11  11 7.15193 5.41070   4
  -4 -11 -11 -0.4175 4.07102   5
  -4 -11 -11 2.24867 5.00892   3
  -4 -11 -11 0.83453 5.23817   9
   4  11  11 -3.7674 4.79896   4
   3   0 -12 -5.8405 6.24393   9
  -3   0  12 -1.4094 8.32277   4
  -3   0  12 -5.6608 9.02824   2
   2   0 -12 8.22468 4.69238   9
  -2   0  12 10.5690 5.89947   4
  -2   0  12 14.8551 8.93743   2
   1   0 -12 -2.5803 4.27579   9
  -1   0  12 -1.8782 5.55484   4
  -1   0  12 3.05337 9.70747   2
   0   0 -12 -3.0081 5.53219   9
   0   0  12 -1.0095 5.94718   2
   0   0  12 -1.0462 7.50390   4
  -1   0 -12 13.3084 4.23449   9
   1   0  12 8.05173 8.50063   2
   1   0  12 28.5166 8.94898   4
   4  -1 -12 -5.1541 12.2649   9
  -4   1  12 -9.2518 9.29856   2
  -4   1  12 2.78509 6.03953   4
   3  -1 -12 -8.4541 6.14904   9
  -3   1  12 -9.9820 8.25511   2
  -3   1  12 3.61434 5.90345   4
   2  -1 -12 5.62821 5.91791   9
  -2   1  12 8.12237 7.74252   4
  -2   1  12 9.92344 8.28136   2
   1  -1 -12 21.2578 4.68989   9
  -1   1  12 12.2375 7.64406   4
  -1   1  12 19.0664 6.25619   2
   0  -1 -12 25.5482 5.77905   9
   0   1  12 33.1919 8.44602   2
   0   1  12 22.3408 5.90748   4
  -1  -1 -12 13.6500 4.08165   9
   1   1  12 19.1972 5.89914   2
   1   1  12 15.6839 5.60490   4
  -2  -1 -12 1.79363 4.93497   9
   2   1  12 3.75425 5.46270   2
   2   1  12 6.88140 8.06188   4
   3   1  12 15.0447 8.10483   4
   5  -2 -12 -10.003 6.74574   9
   5  -2 -12 -6.8053 7.64180   5
  -5   2  12 0.78923 6.44831   2
   4  -2 -12 4.74557 7.21513   5
   4  -2 -12 1.08881 6.28115   9
  -4   2  12 7.41525 8.72646   2
   3  -2 -12 11.9898 4.56958   9
   3  -2 -12 3.42532 6.82160   5
  -3   2  12 4.73565 5.81023   4
  -3   2  12 4.11196 8.14157   2
   2  -2 -12 17.8336 5.88778   9
   2  -2 -12 15.5926 5.31730   5
  -2   2  12 12.6168 7.94054   4
  -2   2  12 21.6978 7.91981   2
   1  -2 -12 7.39453 3.93047   9
  -1   2  12 8.82827 5.47484   2
  -1   2  12 8.92298 5.39144   4
   0  -2 -12 42.9365 8.07610   9
   0   2  12 40.8479 8.26468   4
   0   2  12 44.1238 8.09981   2
  -1  -2 -12 -2.1138 4.71368   9
   1   2  12 -5.9500 6.83627   2
   1   2  12 -7.5905 7.11912   4
  -2  -2 -12 9.90302 4.70171   9
   2   2  12 13.4143 7.31955   2
   2   2  12 10.3788 7.74569   4
   3   2  12 11.4186 7.27943   2
   3   2  12 7.36160 7.73227   4
   4   2  12 0.95837 5.33352   4
   4   2  12 4.41728 5.18295   2
   5  -3 -12 27.6669 36.6294   9
   5  -3 -12 26.6609 43.0914   5
  -5   3  12 26.9844 7.86344   2
   4  -3 -12 17.1348 5.58876   5
   4  -3 -12 19.3831 4.94298   9
  -4   3  12 23.1895 8.66030   2
   3  -3 -12 9.46696 4.27453   9
   3  -3 -12 6.34181 4.77540   5
  -3   3  12 8.60124 7.78816   2
  -3   3  12 7.12985 5.55835   4
   2  -3 -12 2.64529 4.34979   5
   2  -3 -12 3.92826 5.41734   9
  -2   3  12 1.63058 7.21503   2
  -2   3  12 -1.2110 7.63803   4
   1  -3 -12 5.23584 4.35962   5
   1  -3 -12 8.45022 3.85211   9
  -1   3  12 4.74680 4.84588   2
  -1   3  12 4.48892 5.08225   4
   0  -3 -12 25.3983 28.3303   9
   0  -3 -12 28.4079 44.0267   5
   0   3  12 12.5501 4.99682   2
   0   3  12 -0.9581 6.92670   4
  -1  -3 -12 -0.9329 3.22561   9
  -1  -3 -12 1.64222 3.82612   5
   1   3  12 -3.6867 4.37406   2
   1   3  12 1.50576 6.98625   4
  -2  -3 -12 -0.8863 3.13517   9
   2   3  12 -0.3939 5.04399   4
   2   3  12 5.38235 6.55185   2
  -3  -3 -12 19.9627 5.25567   3
   3   3  12 25.4471 6.26868   4
   3   3  12 25.8401 14.0276   2
  -4  -3 -12 16.0847 7.03061   3
   4   3  12 5.47707 5.71421   4
   4   3  12 14.9461 6.92123   2
   5  -4 -12 19.7928 37.2253   9
   5  -4 -12 26.0998 58.3810   5
  -5   4  12 7.00173 6.84119   2
   4  -4 -12 29.9071 6.73678   9
   4  -4 -12 33.0270 5.75816   5
  -4   4  12 16.0586 8.47512   2
   3  -4 -12 0.10693 5.43516   9
   3  -4 -12 2.92689 4.25962   5
  -3   4  12 3.48047 7.06895   2
   2  -4 -12 19.6172 5.60997   9
   2  -4 -12 27.4395 6.55085   5
  -2   4  12 29.2559 8.22291   4
  -2   4  12 25.7430 5.64946   2
   1  -4 -12 1.48954 3.99389   5
   1  -4 -12 5.03331 3.58970   9
  -1   4  12 9.27752 5.41924   4
  -1   4  12 12.0755 6.78007   2
   0  -4 -12 12.9388 5.04170   9
   0  -4 -12 6.48532 4.15776   3
   0  -4 -12 11.8991 5.78161   5
   0   4  12 13.9920 6.60657   2
   0   4  12 6.43550 6.96723   4
  -1  -4 -12 15.4723 5.73020   3
  -1  -4 -12 5.17061 4.57638   9
  -1  -4 -12 9.59788 5.46926   5
   1   4  12 21.7001 7.61904   4
   1   4  12 9.29838 6.21546   2
  -2  -4 -12 7.80762 4.47974   9
  -2  -4 -12 6.15273 3.77843   5
  -2  -4 -12 22.4720 6.72387   3
   2   4  12 13.0749 4.69217   2
   2   4  12 9.84506 7.21360   4
  -3  -4 -12 0.35999 6.79180   3
   3   4  12 0.06000 5.98657   2
   3   4  12 2.67717 5.59407   4
  -4  -4 -12 -0.8646 6.57768   3
   4   4  12 7.78160 6.02830   2
   4   4  12 11.3038 5.54267   4
  -5  -4 -12 1.50596 8.47256   6
  -5  -4 -12 4.88583 5.09386   3
   5   4  12 -0.0296 7.60212   4
   5  -5 -12 30.8886 6.12487   5
   5  -5 -12 26.0636 7.00154   9
  -5   5  12 44.9972 10.7509   2
   4  -5 -12 6.92638 4.43134   9
   4  -5 -12 2.82212 6.69647   5
  -4   5  12 4.59030 5.88369   2
   3  -5 -12 6.90473 5.58439   9
   3  -5 -12 3.36580 6.18268   5
  -3   5  12 8.39668 5.40687   2
   2  -5 -12 4.68862 5.21116   9
   2  -5 -12 -0.1090 5.77200   5
  -2   5  12 5.57698 6.93173   4
  -2   5  12 7.85888 4.85170   2
   1  -5 -12 0.24945 3.48390   3
   1  -5 -12 -0.7335 3.43016   9
   1  -5 -12 0.49517 3.81555   5
  -1   5  12 -1.9203 9.59266   2
  -1   5  12 -5.4613 7.19181   4
   0  -5 -12 43.4771 6.14379   3
   0  -5 -12 19.6231 5.21456   9
   0  -5 -12 30.6775 6.12256   5
   0   5  12 35.6462 5.25083   2
   0   5  12 24.8697 5.75929   4
  -1  -5 -12 12.0922 4.30821   3
  -1  -5 -12 4.33706 5.05064   5
  -1  -5 -12 11.7588 4.68756   9
   1   5  12 17.1034 5.96919   2
   1   5  12 2.68012 7.06234   4
  -2  -5 -12 -1.2819 4.16713   9
  -2  -5 -12 2.52300 3.91276   3
  -2  -5 -12 0.13925 4.75122   5
   2   5  12 7.30582 3.98990   2
   2   5  12 0.48362 6.90057   4
  -3  -5 -12 2.03223 5.80654   3
  -3  -5 -12 7.21110 4.36155   9
  -3  -5 -12 12.2594 5.16437   5
   3   5  12 12.4413 4.24735   2
   3   5  12 9.70017 7.63419   4
  -4  -5 -12 5.90118 4.56131   3
   4   5  12 3.65275 8.94158   4
  -5  -5 -12 -2.3110 6.69288   3
   5   5  12 3.96301 5.27765   4
   5  -6 -12 0.49253 5.07612   5
   5  -6 -12 -0.3111 4.38512   9
  -5   6  12 -4.2462 10.8725   2
   4  -6 -12 45.2812 8.03057   5
   4  -6 -12 36.9112 6.84215   9
  -4   6  12 40.1458 7.39168   2
   3  -6 -12 14.9244 4.53300   9
   3  -6 -12 17.1818 5.13837   5
  -3   6  12 16.8203 5.75826   2
   2  -6 -12 1.47915 4.17435   5
   2  -6 -12 2.67223 3.35945   3
   2  -6 -12 0.90126 3.77003   9
  -2   6  12 1.74090 6.61820   2
  -2   6  12 -6.6631 7.64028   4
   1  -6 -12 110.378 7.22013   3
   1  -6 -12 96.9693 7.06963   5
   1  -6 -12 84.7608 5.81993   9
  -1   6  12 94.8644 11.2088   2
  -1   6  12 112.602 11.1681   4
   0  -6 -12 19.0887 5.85694   5
   0  -6 -12 17.7762 4.24017   3
   0  -6 -12 9.63343 4.97280   9
   0   6  12 15.9199 5.88826   2
   0   6  12 27.5541 7.68464   4
  -1  -6 -12 3.12326 3.63034   5
  -1  -6 -12 2.70969 3.75714   3
  -1  -6 -12 6.34701 4.56646   9
   1   6  12 2.49144 3.86970   2
   1   6  12 14.0359 7.33824   4
  -2  -6 -12 86.9266 6.10433   9
  -2  -6 -12 81.3275 6.47170   3
  -2  -6 -12 71.4436 6.72387   5
   2   6  12 82.7573 8.44849   4
   2   6  12 83.0527 8.60378   2
  -3  -6 -12 2.98312 4.03570   3
  -3  -6 -12 1.30040 4.73218   5
  -3  -6 -12 7.22495 3.17814   9
   3   6  12 9.86060 5.22806   4
  -4  -6 -12 9.76181 6.30281   3
   4   6  12 11.8189 5.46715   4
  -5  -6 -12 1.74736 6.52953   3
   5   6  12 14.8528 7.91283   4
   4  -7 -12 32.5949 6.20276   5
   4  -7 -12 43.3976 7.02326   9
  -4   7  12 26.8095 8.60559   1
  -4   7  12 30.8980 9.19639   2
   3  -7 -12 8.51014 3.68424   3
   3  -7 -12 4.54751 4.07773   9
   3  -7 -12 6.36548 6.78528   5
  -3   7  12 15.4533 8.39101   2
  -3   7  12 5.66995 5.35406   1
   2  -7 -12 119.403 8.46829   3
   2  -7 -12 80.2867 7.00129   9
   2  -7 -12 73.1265 8.01257   5
  -2   7  12 101.476 8.99300   1
  -2   7  12 105.014 10.9838   2
  -2   7  12 105.615 10.3178   4
   1  -7 -12 35.6310 6.80557   5
   1  -7 -12 30.6671 5.72664   9
   1  -7 -12 37.0598 4.71527   3
  -1   7  12 33.9151 6.42652   4
  -1   7  12 35.3722 6.93368   2
  -1   7  12 28.2063 5.39605   1
   0  -7 -12 12.9545 5.86361   5
   0  -7 -12 19.3260 4.33094   3
   0  -7 -12 17.9414 3.91785   9
   0   7  12 10.5527 6.12416   2
   0   7  12 28.9038 7.81209   4
  -1  -7 -12 63.4198 6.65665   3
  -1  -7 -12 53.8766 5.58970   5
  -1  -7 -12 40.1829 5.51847   9
   1   7  12 60.6881 7.86760   2
   1   7  12 46.9078 6.47367   4
  -2  -7 -12 14.1184 3.59393   9
  -2  -7 -12 16.0509 4.21495   5
  -2  -7 -12 13.9458 5.82073   3
   2   7  12 13.9180 5.34187   4
  -3  -7 -12 7.62179 4.27689   3
  -3  -7 -12 16.8438 4.71500   9
  -3  -7 -12 8.17519 5.11581   5
   3   7  12 20.2434 7.60978   4
  -4  -7 -12 79.4450 8.10702   3
   4   7  12 81.5278 9.44818   4
  -5  -7 -12 -0.2110 6.36324   3
   5   7  12 -2.6819 7.55627   4
   4  -8 -12 12.8442 5.50304   5
   4  -8 -12 6.64831 6.58399   9
  -4   8  12 9.83702 6.18334   2
  -4   8  12 5.23416 9.04162   1
   3  -8 -12 64.6865 8.33046   5
   3  -8 -12 78.3600 6.34909   9
  -3   8  12 81.5003 7.93548   2
  -3   8  12 72.0165 7.84343   1
   2  -8 -12 23.0172 4.13969   3
   2  -8 -12 18.0146 5.86105   9
   2  -8 -12 17.2567 6.57861   5
  -2   8  12 21.5253 5.77008   2
  -2   8  12 17.9433 7.99377   1
  -2   8  12 21.9118 8.70084   4
   1  -8 -12 7.82642 4.46593   5
   1  -8 -12 6.00262 5.27500   9
   1  -8 -12 13.5850 4.23777   3
  -1   8  12 10.6520 5.71451   2
  -1   8  12 0.85372 5.63112   4
  -1   8  12 7.05268 7.20881   1
   0  -8 -12 166.725 10.6868   5
   0  -8 -12 168.790 9.21438   9
   0  -8 -12 183.792 12.5327   3
   0   8  12 189.707 14.3428   4
   0   8  12 187.463 19.0097   2
  -1  -8 -12 11.6766 7.88133   5
  -1  -8 -12 12.6319 7.34062   9
  -1  -8 -12 6.65723 3.86138   3
   1   8  12 6.45381 5.37252   4
  -2  -8 -12 21.4228 4.51225   5
  -2  -8 -12 22.5696 4.65875   3
  -2  -8 -12 28.2209 5.34478   9
   2   8  12 23.7185 5.78800   4
  -3  -8 -12 75.6808 5.93590   5
  -3  -8 -12 84.2758 6.37318   9
  -3  -8 -12 79.5102 6.91861   3
   3   8  12 97.6471 10.4827   4
  -4  -8 -12 1.43579 6.02664   3
   4   8  12 6.49313 7.82245   4
  -5  -8 -12 -4.8175 6.54962   3
   5   8  12 7.92916 9.35131   4
   3  -9 -12 33.7321 5.62824   9
   3  -9 -12 36.2987 8.19977   5
  -3   9  12 42.1462 8.57956   2
  -3   9  12 37.3064 7.43161   1
   2  -9 -12 31.7387 6.73032   9
   2  -9 -12 44.8794 7.97004   5
   2  -9 -12 49.5142 6.11697   3
  -2   9  12 34.7934 7.38536   4
  -2   9  12 45.9425 8.09281   2
  -2   9  12 41.1983 9.49689   1
   1  -9 -12 166.791 13.0025   9
   1  -9 -12 165.747 13.7528   5
   1  -9 -12 174.148 12.1336   3
  -1   9  12 159.926 16.1956   1
  -1   9  12 179.792 16.6834   4
   0  -9 -12 9.70874 4.29370   9
   0  -9 -12 20.3677 5.57807   3
   0  -9 -12 11.9483 4.87927   5
   0   9  12 9.21593 7.90125   4
  -1  -9 -12 -1.9846 5.16280   9
  -1  -9 -12 2.45058 3.78327   3
  -1  -9 -12 -1.6864 4.07668   5
   1   9  12 2.75820 7.62758   4
  -2  -9 -12 93.7615 8.66891   5
  -2  -9 -12 111.955 7.43506   9
  -2  -9 -12 109.561 7.74596   3
   2   9  12 113.262 10.1293   4
  -3  -9 -12 31.4539 5.74264   9
  -3  -9 -12 28.8812 6.32247   5
  -3  -9 -12 42.7045 7.79956   3
   3   9  12 35.9101 6.34110   4
  -4  -9 -12 42.0564 6.91673   3
   4   9  12 33.1962 8.74053   4
  -5  -9 -12 51.6027 8.53597   3
   1 -10 -12 7.98917 5.27283   3
   1 -10 -12 12.9952 6.43956   9
   1 -10 -12 15.6606 5.57815   5
  -1  10  12 5.78021 8.67046   4
  -1  10  12 2.97706 6.44976   1
   0 -10 -12 64.9151 6.88868   3
   0 -10 -12 57.5991 5.88051   9
   0 -10 -12 63.3155 7.13011   5
   0  10  12 77.5143 8.24191   4
  -1 -10 -12 69.6833 6.85275   5
  -1 -10 -12 76.5950 6.10402   9
  -1 -10 -12 82.3051 7.77419   3
   1  10  12 63.2789 10.3032   4
  -2 -10 -12 27.1289 6.12165   9
  -2 -10 -12 19.4852 6.94196   5
  -2 -10 -12 21.5071 6.85368   3
   2  10  12 34.9705 8.51966   4
  -3 -10 -12 81.3625 11.1934   5
  -3 -10 -12 90.8850 8.90388   3
  -3 -10 -12 72.3971 8.06419   9
   3  10  12 67.8493 9.40252   4
  -4 -10 -12 63.9420 8.77550   3
   2  -3 -13 31.9916 7.25328   9
   2  -3 -13 25.8992 6.08357   5
  -2   3  13 35.8187 9.42585   2
  -2   3  13 25.5995 7.32849   4
   1  -3 -13 11.4422 4.73759   9
   1  -3 -13 12.9847 5.72061   5
  -1   3  13 13.5543 6.44187   2
  -1   3  13 19.7580 9.25257   4
   0  -3 -13 65.7666 5.91364   9
   0   3  13 100.555 11.4986   2
   0   3  13 75.1978 8.28577   4
  -1  -3 -13 43.4035 10.6652   9
   1   3  13 24.6880 9.25830   4
   1   3  13 51.9516 9.05237   2
   3  -4 -13 46.2284 7.92294   9
   3  -4 -13 31.2296 6.52839   5
  -3   4  13 31.3323 7.19171   2
  -3   4  13 33.8553 7.97179   4
   2  -4 -13 22.0034 7.86416   5
   2  -4 -13 11.3757 6.69647   9
  -2   4  13 8.92312 6.87957   4
  -2   4  13 26.1131 7.74448   2
   1  -4 -13 101.442 7.28130   9
   1  -4 -13 107.244 8.00680   5
  -1   4  13 103.013 12.6701   4
  -1   4  13 117.746 11.3462   2
   0  -4 -13 47.2118 8.04771   5
   0  -4 -13 43.7566 5.37601   9
   0   4  13 36.3708 6.48508   2
   0   4  13 47.4733 7.34903   4
  -1  -4 -13 61.2508 5.73227   9
  -1  -4 -13 73.6803 6.67989   5
   1   4  13 56.1120 9.62145   4
   1   4  13 85.7512 8.74224   2
  -2  -4 -13 86.9578 7.84181   3
  -2  -4 -13 59.7438 7.14564   9
  -2  -4 -13 68.4061 7.86837   5
   2   4  13 104.012 11.4654   4
   3  -5 -13 19.4992 6.29804   9
   3  -5 -13 18.7554 8.75237   5
  -3   5  13 76.3993 41.4312   4
  -3   5  13 36.3342 7.10710   2
   2  -5 -13 134.968 10.6909   5
   2  -5 -13 137.404 11.6016   9
  -2   5  13 154.003 15.5959   2
  -2   5  13 133.344 16.3062   4
   1  -5 -13 58.3247 6.49742   5
   1  -5 -13 48.2771 7.04934   9
  -1   5  13 50.6849 7.73251   4
  -1   5  13 63.5560 8.45253   2
   0  -5 -13 43.4862 11.8813   9
   0  -5 -13 40.1956 5.98569   3
   0  -5 -13 47.6144 15.7920   5
   0   5  13 45.8020 13.5875   2
   0   5  13 51.5473 9.63475   4
  -1  -5 -13 181.413 12.9142   5
  -1  -5 -13 175.417 14.6525   3
  -1  -5 -13 172.408 10.2151   9
   1   5  13 172.434 16.3436   2
   1   5  13 182.750 16.8111   4
  -2  -5 -13 40.9902 6.19653   9
  -2  -5 -13 52.8670 6.56647   3
  -2  -5 -13 36.3716 5.65595   5
   2   5  13 46.8293 9.45512   4
   2   5  13 57.8240 13.9848   2
  -3  -5 -13 73.1273 9.01232   3
   3   5  13 74.6690 8.67374   4
   3  -6 -13 67.0637 7.88717   9
   3  -6 -13 77.9569 9.29978   5
  -3   6  13 88.6840 12.8684   2
   2  -6 -13 49.6284 7.30550   9
   2  -6 -13 56.0435 8.54592   5
  -2   6  13 43.4638 8.12498   4
  -2   6  13 58.7523 7.79024   2
   1  -6 -13 57.4451 9.01589   5
   1  -6 -13 69.3175 6.28362   3
   1  -6 -13 54.3648 7.71723   9
  -1   6  13 46.4962 10.1334   4
  -1   6  13 68.3609 9.27579   2
   0  -6 -13 161.959 10.2805   3
   0  -6 -13 161.230 20.4018   9
   0  -6 -13 139.055 23.2999   5
   0   6  13 174.181 14.9829   2
   0   6  13 147.940 12.3041   4
  -1  -6 -13 47.1964 6.16341   3
  -1  -6 -13 32.4992 4.88335   9
  -1  -6 -13 22.6182 6.72592   5
   1   6  13 40.2467 7.84088   2
   1   6  13 14.4829 8.81980   4
  -2  -6 -13 60.6839 5.36871   9
  -2  -6 -13 65.5811 6.38381   5
  -2  -6 -13 84.3572 7.46923   3
   2   6  13 62.2792 8.15059   4
  -3  -6 -13 128.146 9.89372   3
   3   6  13 162.996 81.1242   4
   2  -7 -13 58.0088 6.64612   3
   2  -7 -13 58.9677 6.24105   9
   2  -7 -13 52.1268 6.85713   5
  -2   7  13 61.0513 10.1083   2
  -2   7  13 50.7229 8.42702   4
   1  -7 -13 144.569 11.2355   3
   1  -7 -13 130.650 9.33201   9
   1  -7 -13 123.033 10.9204   5
  -1   7  13 137.710 11.1913   4
  -1   7  13 133.372 14.6982   2
   0  -7 -13 12.4530 6.34534   3
   0  -7 -13 7.15597 6.78006   5
   0  -7 -13 6.44022 5.87380   9
   0   7  13 16.1261 9.15170   4
   0   7  13 17.9263 5.07909   2
  -1  -7 -13 127.487 9.10771   3
  -1  -7 -13 107.993 8.62346   5
  -1  -7 -13 106.465 7.81832   9
   1   7  13 113.625 12.2371   4
  -2  -7 -13 244.718 14.6228   3
  -2  -7 -13 212.710 13.6480   9
  -2  -7 -13 180.262 12.5621   5
   2   7  13 189.613 18.5189   4
  -3  -7 -13 39.7606 7.83704   3
   3   7  13 44.1569 9.98619   4
   1  -8 -13 22.5734 7.75488   5
   1  -8 -13 33.9771 5.33087   9
   1  -8 -13 41.7721 6.88324   3
  -1   8  13 22.8423 7.38237   4
   0  -8 -13 35.1410 7.04067   3
   0  -8 -13 31.5428 5.92422   5
   0  -8 -13 30.5624 5.27541   9
   0   8  13 47.9523 10.0307   4
  -1  -8 -13 156.986 10.5277   9
  -1  -8 -13 156.227 12.2019   5
   1   8  13 186.218 20.8673   4
  -2  -8 -13 40.2494 9.96493   9
  -2  -8 -13 58.7452 15.9411   5
  -2  -8 -13 54.6624 7.90072   3
   2   8  13 54.9853 9.94306   4
  -3  -8 -13 65.3661 8.54160   3
   3   8  13 70.0621 8.56201   4
   0  -9 -13 80.2430 6.89193   3
  -1  -9 -13 63.4404 6.77161   5
  -1  -9 -13 56.9010 7.76537   3
   1   9  13 77.6558 8.51241   4
   0   0   0    0.00    0.00   0

 _exptl_absorpt_process_details 'SADABS 2014/5'
 _exptl_absorpt_correction_type   multi-scan
 _exptl_absorpt_correction_T_max  0.7898
 _exptl_absorpt_correction_T_min  0.6693
 _exptl_special_details
)
 The following wavelength and cell were deduced by SADABS from the
 direction cosines etc. They are given here for emergency use only:
 CELL 0.71063    9.360   10.392   10.439   64.455   89.115   79.163
)

;
_shelx_hkl_checksum   22393

