 
data_x14457 
 
_audit_creation_method            'SHELXL-2014/7' 
# CIF edited on-the-fly by script CIFFIX (S. Parkin, 2000-2014). 
# CIFFIX: http://xray.uky.edu/people/parkin/programs/ciffix 
_shelx_SHELXL_version_number      '2014/7' 
 
_publ_section_exptl_refinement 
; 
H atoms were found in difference Fourier maps, but subsequently included 
in the refinement using riding models, with constrained distances set to 
0.95 %A (C~sp2~H) and 0.98 %A (RCH~3~). 
U~iso~(H) parameters were set to values of either 1.2U~eq~ or 1.5U~eq~ 
(RCH~3~ only) of the attached atom. 
 
To ensure satisfactory refinement of disordered groups in the structure, 
a combination of constraints and restraints were employed. The constraints 
(SHELXL commands EXYZ and EADP) were used to fix overlapping fragments. 
Restraints were used to maintain the integrity of ill-defined or disordered 
groups (SHELXL commands SAME and SIMU). 
; 
 
_publ_section_references 
; 
Bruker-AXS (2006). 
  <i>APEX2</i> Bruker-AXS Inc., Madison, Wisconsin, USA. 
 
Hope, H. (1994). 
  <i>Prog. Inorg. Chem.</i> <b>41</b>, 1--19. 
 
Parkin, S. & Hope, H. (1998). 
  <i>J. Appl. Cryst.</i> <b>31</b>, 945--953. 
 
Parkin, S. (2000). 
  <i>Acta Cryst.</i> A<b>56</b>, 157--162. 
 
Parkin, S. (2013). 
  <i>CIFFIX</i>, http://xray.uky.edu/people/parkin/programs/ciffix 
 
Sheldrick, G.M. (2008a). 
  <i>Acta Cryst.</i> A<b>64</b>, 112--122. 
 
Sheldrick, G.M. (2008b). 
  <i>SADABS</i> University of G\"ottingen, Germany. 
 
Spek, A.L. (2009). 
  <i>Acta Cryst.</i> D<b>65</b>, 148--155. 
; 
 
_chemical_name_systematic         ? 
_chemical_name_common             ? 
_chemical_melting_point           ? 
_chemical_formula_moiety          'C54 H44 F2 S2 Si2' 
_chemical_formula_sum             'C54 H44 F2 S2 Si2' 
_chemical_formula_weight          851.19 
 
loop_ 
 _atom_type_symbol 
 _atom_type_description 
 _atom_type_scat_dispersion_real 
 _atom_type_scat_dispersion_imag 
 _atom_type_scat_source 
 'C'  'C'   0.0181   0.0091 
 'International Tables Vol C Tables 4.2.6.8 and 6.1.1.4' 
 'H'  'H'   0.0000   0.0000 
 'International Tables Vol C Tables 4.2.6.8 and 6.1.1.4' 
 'F'  'F'   0.0727   0.0534 
 'International Tables Vol C Tables 4.2.6.8 and 6.1.1.4' 
 'Si'  'Si'   0.2541   0.3302 
 'International Tables Vol C Tables 4.2.6.8 and 6.1.1.4' 
 'S'  'S'   0.3331   0.5567 
 'International Tables Vol C Tables 4.2.6.8 and 6.1.1.4' 
 
_space_group_crystal_system       triclinic 
_space_group_IT_number            2 
_space_group_name_H-M_alt         'P -1' 
_space_group_name_Hall            '-P 1' 
 
_shelx_space_group_comment 
; 
The symmetry employed for this shelxl refinement is uniquely defined 
by the following loop, which should always be used as a source of 
symmetry information in preference to the above space-group names. 
They are only intended as comments. 
; 
 
loop_ 
 _space_group_symop_operation_xyz 
 'x, y, z' 
 '-x, -y, -z' 
 
_cell_length_a                    8.3967(4) 
_cell_length_b                    8.7441(4) 
_cell_length_c                    16.6826(8) 
_cell_angle_alpha                 91.936(2) 
_cell_angle_beta                  103.447(3) 
_cell_angle_gamma                 109.807(2) 
_cell_volume                      1112.29(9) 
_cell_formula_units_Z             1 
_cell_measurement_temperature     90.0(2) 
_cell_measurement_reflns_used     7608 
_cell_measurement_theta_min       2.74 
_cell_measurement_theta_max       68.20 
 
_exptl_crystal_description        tablet 
_exptl_crystal_colour             red 
_exptl_crystal_density_meas       ? 
_exptl_crystal_density_method     ? 
_exptl_crystal_density_diffrn     1.271 
_exptl_crystal_F_000              446 
_exptl_transmission_factor_min    ? 
_exptl_transmission_factor_max    ? 
_exptl_crystal_size_max           0.160 
_exptl_crystal_size_mid           0.080 
_exptl_crystal_size_min           0.020 
_exptl_absorpt_coefficient_mu     1.956 
_shelx_estimated_absorpt_T_min    0.745 
_shelx_estimated_absorpt_T_max    0.962 
_exptl_absorpt_correction_type    multi-scan 
_exptl_absorpt_correction_T_min   0.759 
_exptl_absorpt_correction_T_max   0.929 
_exptl_absorpt_process_details    '<i>SADABS</i> (Sheldrick, 2008b)' 
_exptl_absorpt_special_details    ? 
_exptl_special_details 
; 
The crystal was mounted with polyisobutene oil on the tip of a fine glass 
fibre, which was fastened in a copper mounting pin with electrical solder. 
It was placed directly into the cold gas stream of a liquid-nitrogen based 
cryostat, according to published methods (Hope, 1994; Parkin & Hope, 1998). 
 
Diffraction data were collected with the crystal at 90K, which is standard 
practice in this laboratory for the majority of flash-cooled crystals. 
; 
 
_diffrn_ambient_temperature       90.0(2) 
_diffrn_radiation_wavelength      1.54178 
_diffrn_radiation_type            CuK\a 
_diffrn_source                    'fine-focus rotating anode' 
_diffrn_measurement_device_type   'Bruker X8 Proteum diffractometer' 
_diffrn_measurement_method        '\f and \w scans' 
_diffrn_detector_area_resol_mean  5.6 
_diffrn_reflns_number             14857 
_diffrn_reflns_av_unetI/netI      0.0445 
_diffrn_reflns_av_R_equivalents   0.0551 
_diffrn_reflns_limit_h_min        -3 
_diffrn_reflns_limit_h_max        9 
_diffrn_reflns_limit_k_min        -10 
_diffrn_reflns_limit_k_max        10 
_diffrn_reflns_limit_l_min        -20 
_diffrn_reflns_limit_l_max        19 
_diffrn_reflns_theta_min          2.744 
_diffrn_reflns_theta_max          68.250 
_diffrn_reflns_theta_full         67.679 
_diffrn_measured_fraction_theta_max                0.976 
_diffrn_measured_fraction_theta_full               0.980 
_diffrn_reflns_Laue_measured_fraction_max          0.976 
_diffrn_reflns_Laue_measured_fraction_full         0.980 
_diffrn_reflns_point_group_measured_fraction_max   0.976 
_diffrn_reflns_point_group_measured_fraction_full  0.980 
 
_reflns_number_total              3965 
_reflns_number_gt                 3328 
_reflns_threshold_expression      'I > 2\s(I)' 
_reflns_Friedel_coverage          0.000 
_reflns_Friedel_fraction_max      . 
_reflns_Friedel_fraction_full     . 
 
_reflns_special_details 
; 
Reflections were merged by SHELXL according to the crystal 
class for the calculation of statistics and refinement. 
 
_reflns_Friedel_fraction is defined as the number of unique 
Friedel pairs measured divided by the number that would be 
possible theoretically, ignoring centric projections and 
systematic absences. 
; 
 
_computing_data_collection        '<i>APEX2</i> (Bruker-AXS, 2006)' 
_computing_cell_refinement        '<i>APEX2</i> (Bruker-AXS, 2006)' 
_computing_data_reduction         '<i>APEX2</i> (Bruker-AXS, 2006)' 
_computing_structure_solution     '<i>SHELXT</i> (Sheldrick, 2008a)' 
_computing_structure_refinement   '<i>SHELXL-2014/7</i> (Sheldrick, 2008a)' 
_computing_molecular_graphics     '<i>XP in SHELXTL</i> (Sheldrick, 2008a)' 
_computing_publication_material 
'<i>SHELX</i> (Sheldrick, 2008a) and <i>CIFFIX</i> (Parkin, 2013)' 
_refine_special_details 
; 
Refinement progress was checked using <i>Platon</i> (Spek, 2009) and by 
an <i>R</i>-tensor (Parkin, 2000). The final model was further checked 
with the IUCr utility <i>checkCIF</i>. 
; 
_refine_ls_structure_factor_coef  Fsqd 
_refine_ls_matrix_type            full 
_refine_ls_weighting_scheme       calc 
_refine_ls_weighting_details 
'w=1/[\s^2^(Fo^2^)+(0.0567P)^2^+0.6831P] where P=(Fo^2^+2Fc^2^)/3' 
_atom_sites_solution_primary      direct 
_atom_sites_solution_secondary    difmap 
_atom_sites_solution_hydrogens    difmap 
_refine_ls_hydrogen_treatment     constr 
_refine_ls_extinction_method      none 
_refine_ls_extinction_coef        . 
_refine_ls_number_reflns          3965 
_refine_ls_number_parameters      287 
_refine_ls_number_restraints      193 
_refine_ls_R_factor_all           0.0559 
_refine_ls_R_factor_gt            0.0468 
_refine_ls_wR_factor_ref          0.1270 
_refine_ls_wR_factor_gt           0.1215 
_refine_ls_goodness_of_fit_ref    1.083 
_refine_ls_restrained_S_all       1.070 
_refine_ls_shift/su_max           0.001 
_refine_ls_shift/su_mean          0.000 
 
loop_ 
 _atom_site_label 
 _atom_site_type_symbol 
 _atom_site_fract_x 
 _atom_site_fract_y 
 _atom_site_fract_z 
 _atom_site_U_iso_or_equiv 
 _atom_site_adp_type 
 _atom_site_occupancy 
 _atom_site_site_symmetry_order 
 _atom_site_calc_flag 
 _atom_site_refinement_flags_posn 
 _atom_site_refinement_flags_adp 
 _atom_site_refinement_flags_occupancy 
 _atom_site_disorder_assembly 
 _atom_site_disorder_group 
Si1 Si 0.48530(7) 0.85255(7) 0.80242(3) 0.01871(16) Uani 1 1 d . . . . . 
C1 C 0.4963(3) 0.5941(3) 0.56943(13) 0.0245(5) Uani 1 1 d . . . . . 
C2 C 0.3430(3) 0.4624(3) 0.52706(14) 0.0248(5) Uani 1 1 d . . . . . 
C3 C 0.1866(3) 0.4204(3) 0.55395(14) 0.0280(5) Uani 1 1 d . . . . . 
H3 H 0.1824 0.4831 0.6005 0.034 Uiso 1 1 calc R U . A 1 
C4 C 0.0428(3) 0.2902(3) 0.51302(15) 0.0280(5) Uani 0.653(3) 1 d D U P B 1 
S5 S -0.16146(14) 0.21268(13) 0.54223(7) 0.0299(3) Uani 0.653(3) 1 d D U P B 1 
C6 C -0.2370(9) 0.0581(9) 0.4580(7) 0.0275(13) Uani 0.653(3) 1 d D U P B 1 
F1 F -0.4001(5) -0.0521(4) 0.4489(2) 0.0360(7) Uani 0.653(3) 1 d D U P B 1 
C7 C -0.1215(13) 0.0624(12) 0.4135(6) 0.0262(7) Uani 0.653(3) 1 d D U P B 1 
H7 H -0.1479 -0.0152 0.3666 0.031 Uiso 0.653(3) 1 calc R U P B 1 
C8 C 0.0456(3) 0.1940(3) 0.44237(14) 0.0281(5) Uani 0.653(3) 1 d D U P B 1 
C4' C 0.0428(3) 0.2902(3) 0.51302(15) 0.0280(5) Uani 0.347(3) 1 d D U P B 2 
C5' C -0.1196(13) 0.2292(13) 0.5251(6) 0.0299(3) Uani 0.347(3) 1 d D U P B 2 
H5' H -0.1550 0.2757 0.5671 0.036 Uiso 0.347(3) 1 calc R U P B 2 
F1' F -0.3880(10) 0.0047(8) 0.4672(5) 0.0360(7) Uani 0.347(3) 1 d D U P B 2 
C6' C -0.2249(17) 0.097(2) 0.4719(14) 0.0275(13) Uani 0.347(3) 1 d D U P B 2 
S7' S -0.1354(5) 0.0352(5) 0.3962(2) 0.0262(7) Uani 0.347(3) 1 d D U P B 2 
C8' C 0.0456(3) 0.1940(3) 0.44237(14) 0.0281(5) Uani 0.347(3) 1 d D U P B 2 
C9 C 0.1941(3) 0.2329(3) 0.41459(14) 0.0278(5) Uani 1 1 d . . . . . 
H9 H 0.1946 0.1702 0.3671 0.033 Uiso 1 1 calc R U . B 1 
C10 C 0.3471(3) 0.3664(3) 0.45635(13) 0.0241(5) Uani 1 1 d . . . . . 
C11 C 0.4946(3) 0.6873(3) 0.64103(14) 0.0249(5) Uani 1 1 d . . . . . 
C12 C 0.4931(3) 0.7607(3) 0.70355(14) 0.0238(5) Uani 1 1 d . . . . . 
C13 C 0.4461(3) 1.0487(3) 0.78569(13) 0.0210(4) Uani 1 1 d . . . . . 
C14 C 0.5276(3) 1.1573(3) 0.73575(15) 0.0266(5) Uani 1 1 d . . . . . 
H14 H 0.6071 1.1327 0.7099 0.032 Uiso 1 1 calc R U . . . 
C15 C 0.4944(3) 1.3006(3) 0.72341(17) 0.0336(6) Uani 1 1 d . . . . . 
H15 H 0.5500 1.3726 0.6886 0.040 Uiso 1 1 calc R U . . . 
C16 C 0.3813(3) 1.3394(3) 0.76127(17) 0.0357(6) Uani 1 1 d . . . . . 
H16 H 0.3599 1.4384 0.7531 0.043 Uiso 1 1 calc R U . . . 
C17 C 0.2991(3) 1.2341(3) 0.81111(17) 0.0359(6) Uani 1 1 d . . . . . 
H17 H 0.2214 1.2607 0.8374 0.043 Uiso 1 1 calc R U . . . 
C18 C 0.3300(3) 1.0888(3) 0.82287(15) 0.0286(5) Uani 1 1 d . . . . . 
H18 H 0.2715 1.0160 0.8566 0.034 Uiso 1 1 calc R U . . . 
C19 C 0.2882(3) 0.7044(3) 0.82892(14) 0.0234(5) Uani 1 1 d . . . . . 
C20 C 0.2841(3) 0.6469(3) 0.90572(15) 0.0286(5) Uani 1 1 d . . . . . 
H20 H 0.3876 0.6845 0.9501 0.034 Uiso 1 1 calc R U . . . 
C21 C 0.1314(3) 0.5356(3) 0.91838(17) 0.0355(6) Uani 1 1 d . . . . . 
H21 H 0.1319 0.4972 0.9710 0.043 Uiso 1 1 calc R U . . . 
C22 C -0.0207(3) 0.4807(3) 0.85513(19) 0.0381(6) Uani 1 1 d . . . . . 
H22 H -0.1251 0.4050 0.8640 0.046 Uiso 1 1 calc R U . . . 
C23 C -0.0202(3) 0.5367(3) 0.77848(18) 0.0378(6) Uani 1 1 d . . . . . 
H23 H -0.1246 0.4992 0.7346 0.045 Uiso 1 1 calc R U . . . 
C24 C 0.1321(3) 0.6475(3) 0.76557(16) 0.0298(5) Uani 1 1 d . . . . . 
H24 H 0.1305 0.6854 0.7128 0.036 Uiso 1 1 calc R U . . . 
C25 C 0.7042(3) 0.8925(3) 0.87987(13) 0.0237(5) Uani 1 1 d . . . . . 
C26 C 0.8506(3) 0.9900(3) 0.84112(16) 0.0320(5) Uani 1 1 d . . . . . 
H26A H 0.9639 1.0210 0.8824 0.048 Uiso 1 1 calc R U . . . 
H26B H 0.8305 1.0889 0.8231 0.048 Uiso 1 1 calc R U . . . 
H26C H 0.8509 0.9223 0.7932 0.048 Uiso 1 1 calc R U . . . 
C27 C 0.7156(3) 0.9961(3) 0.95856(15) 0.0345(6) Uani 1 1 d . . . . . 
H27A H 0.6208 0.9369 0.9833 0.052 Uiso 1 1 calc R U . . . 
H27B H 0.7045 1.1004 0.9441 0.052 Uiso 1 1 calc R U . . . 
H27C H 0.8289 1.0173 0.9985 0.052 Uiso 1 1 calc R U . . . 
C28 C 0.7301(3) 0.7325(3) 0.90124(17) 0.0336(6) Uani 1 1 d . . . . . 
H28A H 0.7161 0.6653 0.8501 0.050 Uiso 1 1 calc R U . . . 
H28B H 0.6429 0.6727 0.9300 0.050 Uiso 1 1 calc R U . . . 
H28C H 0.8481 0.7569 0.9374 0.050 Uiso 1 1 calc R U . . . 
 
loop_ 
 _atom_site_aniso_label 
 _atom_site_aniso_U_11 
 _atom_site_aniso_U_22 
 _atom_site_aniso_U_33 
 _atom_site_aniso_U_23 
 _atom_site_aniso_U_13 
 _atom_site_aniso_U_12 
Si1 0.0206(3) 0.0167(3) 0.0195(3) 0.0021(2) 0.0058(2) 0.0071(2) 
C1 0.0367(12) 0.0207(11) 0.0194(10) 0.0046(8) 0.0067(9) 0.0145(9) 
C2 0.0346(12) 0.0222(11) 0.0211(11) 0.0046(9) 0.0068(9) 0.0146(9) 
C3 0.0379(13) 0.0253(11) 0.0255(12) 0.0039(9) 0.0094(10) 0.0164(10) 
C4 0.0315(12) 0.0278(12) 0.0296(12) 0.0061(10) 0.0075(10) 0.0165(10) 
S5 0.0307(6) 0.0308(5) 0.0318(6) 0.0049(4) 0.0126(4) 0.0125(4) 
C6 0.0249(15) 0.029(4) 0.028(4) 0.004(3) 0.0056(19) 0.0099(18) 
F1 0.0265(9) 0.037(2) 0.039(2) 0.0036(15) 0.0105(12) 0.0040(15) 
C7 0.0231(9) 0.0255(15) 0.0236(17) 0.0008(11) 0.0003(10) 0.0047(9) 
C8 0.0365(13) 0.0251(11) 0.0233(11) 0.0047(9) 0.0022(10) 0.0152(10) 
C4' 0.0315(12) 0.0278(12) 0.0296(12) 0.0061(10) 0.0075(10) 0.0165(10) 
C5' 0.0307(6) 0.0308(5) 0.0318(6) 0.0049(4) 0.0126(4) 0.0125(4) 
F1' 0.0265(9) 0.037(2) 0.039(2) 0.0036(15) 0.0105(12) 0.0040(15) 
C6' 0.0249(15) 0.029(4) 0.028(4) 0.004(3) 0.0056(19) 0.0099(18) 
S7' 0.0231(9) 0.0255(15) 0.0236(17) 0.0008(11) 0.0003(10) 0.0047(9) 
C8' 0.0365(13) 0.0251(11) 0.0233(11) 0.0047(9) 0.0022(10) 0.0152(10) 
C9 0.0405(13) 0.0231(11) 0.0207(11) 0.0022(9) 0.0056(9) 0.0140(10) 
C10 0.0358(12) 0.0228(11) 0.0189(10) 0.0066(8) 0.0073(9) 0.0164(9) 
C11 0.0303(12) 0.0201(11) 0.0257(12) 0.0049(9) 0.0078(9) 0.0100(9) 
C12 0.0270(11) 0.0182(10) 0.0260(12) 0.0025(9) 0.0071(9) 0.0077(9) 
C13 0.0198(10) 0.0182(10) 0.0210(10) -0.0006(8) 0.0011(8) 0.0047(8) 
C14 0.0194(10) 0.0258(11) 0.0317(12) 0.0065(9) 0.0027(9) 0.0068(9) 
C15 0.0237(12) 0.0237(12) 0.0451(15) 0.0145(10) 0.0010(10) 0.0023(9) 
C16 0.0335(13) 0.0190(11) 0.0502(16) 0.0039(10) 0.0015(11) 0.0103(10) 
C17 0.0429(14) 0.0293(13) 0.0428(15) 0.0010(11) 0.0118(12) 0.0219(11) 
C18 0.0372(13) 0.0252(12) 0.0277(12) 0.0044(9) 0.0119(10) 0.0139(10) 
C19 0.0259(11) 0.0180(10) 0.0298(12) 0.0029(8) 0.0101(9) 0.0104(8) 
C20 0.0314(12) 0.0280(12) 0.0318(13) 0.0071(10) 0.0116(10) 0.0145(10) 
C21 0.0424(14) 0.0326(13) 0.0472(16) 0.0172(11) 0.0287(12) 0.0204(11) 
C22 0.0325(13) 0.0234(12) 0.0641(19) 0.0056(12) 0.0279(13) 0.0069(10) 
C23 0.0264(12) 0.0324(13) 0.0506(16) 0.0006(12) 0.0108(11) 0.0055(10) 
C24 0.0268(12) 0.0276(12) 0.0348(13) 0.0044(10) 0.0097(10) 0.0081(10) 
C25 0.0223(10) 0.0264(11) 0.0218(11) 0.0002(9) 0.0023(8) 0.0106(9) 
C26 0.0230(11) 0.0359(13) 0.0339(13) 0.0064(10) 0.0035(10) 0.0089(10) 
C27 0.0292(12) 0.0462(15) 0.0247(12) -0.0017(11) -0.0006(10) 0.0148(11) 
C28 0.0276(12) 0.0317(13) 0.0448(15) 0.0116(11) 0.0074(11) 0.0156(10) 
 
_geom_special_details 
; 
 All esds (except the esd in the dihedral angle between two l.s. planes) 
 are estimated using the full covariance matrix.  The cell esds are taken 
 into account individually in the estimation of esds in distances, angles 
 and torsion angles; correlations between esds in cell parameters are only 
 used when they are defined by crystal symmetry.  An approximate (isotropic) 
 treatment of cell esds is used for estimating esds involving l.s. planes. 
; 
 
loop_ 
 _geom_bond_atom_site_label_1 
 _geom_bond_atom_site_label_2 
 _geom_bond_distance 
 _geom_bond_site_symmetry_2 
 _geom_bond_publ_flag 
Si1 C12 1.835(2) . ? 
Si1 C13 1.871(2) . ? 
Si1 C19 1.881(2) . ? 
Si1 C25 1.897(2) . ? 
C1 C10 1.414(3) 2_666 ? 
C1 C2 1.414(3) . ? 
C1 C11 1.429(3) . ? 
C2 C3 1.421(3) . ? 
C2 C10 1.438(3) . ? 
C3 C4' 1.361(3) . ? 
C3 C4 1.361(3) . ? 
C3 H3 0.9500 . ? 
C4 C8 1.434(3) . ? 
C4 S5 1.806(3) . ? 
S5 C6 1.755(6) . ? 
C6 C7 1.344(11) . ? 
C6 F1 1.351(6) . ? 
C7 C8 1.442(9) . ? 
C7 H7 0.9500 . ? 
C8 C9 1.370(3) . ? 
C4' C5' 1.352(10) . ? 
C4' C8' 1.434(3) . ? 
C5' C6' 1.333(15) . ? 
C5' H5' 0.9500 . ? 
F1' C6' 1.315(11) . ? 
C6' S7' 1.768(15) . ? 
S7' C8' 1.668(4) . ? 
C8' C9 1.370(3) . ? 
C9 C10 1.418(3) . ? 
C9 H9 0.9500 . ? 
C10 C1 1.414(3) 2_666 ? 
C11 C12 1.211(3) . ? 
C13 C14 1.394(3) . ? 
C13 C18 1.399(3) . ? 
C14 C15 1.385(3) . ? 
C14 H14 0.9500 . ? 
C15 C16 1.379(4) . ? 
C15 H15 0.9500 . ? 
C16 C17 1.380(4) . ? 
C16 H16 0.9500 . ? 
C17 C18 1.391(3) . ? 
C17 H17 0.9500 . ? 
C18 H18 0.9500 . ? 
C19 C20 1.396(3) . ? 
C19 C24 1.400(3) . ? 
C20 C21 1.389(3) . ? 
C20 H20 0.9500 . ? 
C21 C22 1.378(4) . ? 
C21 H21 0.9500 . ? 
C22 C23 1.385(4) . ? 
C22 H22 0.9500 . ? 
C23 C24 1.387(3) . ? 
C23 H23 0.9500 . ? 
C24 H24 0.9500 . ? 
C25 C28 1.529(3) . ? 
C25 C26 1.534(3) . ? 
C25 C27 1.535(3) . ? 
C26 H26A 0.9800 . ? 
C26 H26B 0.9800 . ? 
C26 H26C 0.9800 . ? 
C27 H27A 0.9800 . ? 
C27 H27B 0.9800 . ? 
C27 H27C 0.9800 . ? 
C28 H28A 0.9800 . ? 
C28 H28B 0.9800 . ? 
C28 H28C 0.9800 . ? 
 
loop_ 
 _geom_angle_atom_site_label_1 
 _geom_angle_atom_site_label_2 
 _geom_angle_atom_site_label_3 
 _geom_angle 
 _geom_angle_site_symmetry_1 
 _geom_angle_site_symmetry_3 
 _geom_angle_publ_flag 
C12 Si1 C13 108.71(10) . . ? 
C12 Si1 C19 105.45(10) . . ? 
C13 Si1 C19 108.12(9) . . ? 
C12 Si1 C25 107.72(10) . . ? 
C13 Si1 C25 110.62(10) . . ? 
C19 Si1 C25 115.93(10) . . ? 
C10 C1 C2 121.4(2) 2_666 . ? 
C10 C1 C11 119.0(2) 2_666 . ? 
C2 C1 C11 119.5(2) . . ? 
C1 C2 C3 121.5(2) . . ? 
C1 C2 C10 119.1(2) . . ? 
C3 C2 C10 119.3(2) . . ? 
C4' C3 C2 120.0(2) . . ? 
C4 C3 C2 120.0(2) . . ? 
C4 C3 H3 120.0 . . ? 
C2 C3 H3 120.0 . . ? 
C3 C4 C8 121.1(2) . . ? 
C3 C4 S5 125.80(18) . . ? 
C8 C4 S5 113.04(17) . . ? 
C6 S5 C4 88.0(2) . . ? 
C7 C6 F1 129.1(6) . . ? 
C7 C6 S5 115.2(5) . . ? 
F1 C6 S5 115.7(5) . . ? 
C6 C7 C8 114.8(6) . . ? 
C6 C7 H7 122.6 . . ? 
C8 C7 H7 122.6 . . ? 
C9 C8 C4 120.1(2) . . ? 
C9 C8 C7 130.9(4) . . ? 
C4 C8 C7 108.9(4) . . ? 
C5' C4' C3 131.0(5) . . ? 
C5' C4' C8' 107.9(5) . . ? 
C3 C4' C8' 121.1(2) . . ? 
C6' C5' C4' 112.9(9) . . ? 
C6' C5' H5' 123.6 . . ? 
C4' C5' H5' 123.6 . . ? 
F1' C6' C5' 129.3(12) . . ? 
F1' C6' S7' 114.4(9) . . ? 
C5' C6' S7' 116.3(8) . . ? 
C8' S7' C6' 84.7(4) . . ? 
C9 C8' C4' 120.1(2) . . ? 
C9 C8' S7' 121.7(2) . . ? 
C4' C8' S7' 118.2(2) . . ? 
C8' C9 C10 120.4(2) . . ? 
C8 C9 C10 120.4(2) . . ? 
C8 C9 H9 119.8 . . ? 
C10 C9 H9 119.8 . . ? 
C1 C10 C9 121.5(2) 2_666 . ? 
C1 C10 C2 119.4(2) 2_666 . ? 
C9 C10 C2 119.1(2) . . ? 
C12 C11 C1 177.2(2) . . ? 
C11 C12 Si1 174.4(2) . . ? 
C14 C13 C18 118.0(2) . . ? 
C14 C13 Si1 121.98(16) . . ? 
C18 C13 Si1 119.97(17) . . ? 
C15 C14 C13 120.9(2) . . ? 
C15 C14 H14 119.6 . . ? 
C13 C14 H14 119.6 . . ? 
C16 C15 C14 120.4(2) . . ? 
C16 C15 H15 119.8 . . ? 
C14 C15 H15 119.8 . . ? 
C15 C16 C17 119.8(2) . . ? 
C15 C16 H16 120.1 . . ? 
C17 C16 H16 120.1 . . ? 
C16 C17 C18 120.1(2) . . ? 
C16 C17 H17 120.0 . . ? 
C18 C17 H17 120.0 . . ? 
C17 C18 C13 120.8(2) . . ? 
C17 C18 H18 119.6 . . ? 
C13 C18 H18 119.6 . . ? 
C20 C19 C24 117.5(2) . . ? 
C20 C19 Si1 125.84(18) . . ? 
C24 C19 Si1 116.64(17) . . ? 
C21 C20 C19 121.2(2) . . ? 
C21 C20 H20 119.4 . . ? 
C19 C20 H20 119.4 . . ? 
C22 C21 C20 120.4(2) . . ? 
C22 C21 H21 119.8 . . ? 
C20 C21 H21 119.8 . . ? 
C21 C22 C23 119.5(2) . . ? 
C21 C22 H22 120.3 . . ? 
C23 C22 H22 120.3 . . ? 
C22 C23 C24 120.2(3) . . ? 
C22 C23 H23 119.9 . . ? 
C24 C23 H23 119.9 . . ? 
C23 C24 C19 121.2(2) . . ? 
C23 C24 H24 119.4 . . ? 
C19 C24 H24 119.4 . . ? 
C28 C25 C26 108.53(19) . . ? 
C28 C25 C27 110.6(2) . . ? 
C26 C25 C27 108.37(19) . . ? 
C28 C25 Si1 111.39(16) . . ? 
C26 C25 Si1 108.50(15) . . ? 
C27 C25 Si1 109.42(15) . . ? 
C25 C26 H26A 109.5 . . ? 
C25 C26 H26B 109.5 . . ? 
H26A C26 H26B 109.5 . . ? 
C25 C26 H26C 109.5 . . ? 
H26A C26 H26C 109.5 . . ? 
H26B C26 H26C 109.5 . . ? 
C25 C27 H27A 109.5 . . ? 
C25 C27 H27B 109.5 . . ? 
H27A C27 H27B 109.5 . . ? 
C25 C27 H27C 109.5 . . ? 
H27A C27 H27C 109.5 . . ? 
H27B C27 H27C 109.5 . . ? 
C25 C28 H28A 109.5 . . ? 
C25 C28 H28B 109.5 . . ? 
H28A C28 H28B 109.5 . . ? 
C25 C28 H28C 109.5 . . ? 
H28A C28 H28C 109.5 . . ? 
H28B C28 H28C 109.5 . . ? 
 
loop_ 
 _geom_torsion_atom_site_label_1 
 _geom_torsion_atom_site_label_2 
 _geom_torsion_atom_site_label_3 
 _geom_torsion_atom_site_label_4 
 _geom_torsion 
 _geom_torsion_site_symmetry_1 
 _geom_torsion_site_symmetry_2 
 _geom_torsion_site_symmetry_3 
 _geom_torsion_site_symmetry_4 
 _geom_torsion_publ_flag 
C10 C1 C2 C3 178.6(2) 2_666 . . . ? 
C11 C1 C2 C3 0.1(3) . . . . ? 
C10 C1 C2 C10 0.1(3) 2_666 . . . ? 
C11 C1 C2 C10 -178.37(19) . . . . ? 
C1 C2 C3 C4' -178.3(2) . . . . ? 
C10 C2 C3 C4' 0.2(3) . . . . ? 
C1 C2 C3 C4 -178.3(2) . . . . ? 
C10 C2 C3 C4 0.2(3) . . . . ? 
C2 C3 C4 C8 -0.3(3) . . . . ? 
C2 C3 C4 S5 176.16(17) . . . . ? 
C3 C4 S5 C6 -178.0(5) . . . . ? 
C8 C4 S5 C6 -1.3(4) . . . . ? 
C4 S5 C6 C7 0.8(9) . . . . ? 
C4 S5 C6 F1 178.2(8) . . . . ? 
F1 C6 C7 C8 -177.2(10) . . . . ? 
S5 C6 C7 C8 -0.1(14) . . . . ? 
C3 C4 C8 C9 -0.4(3) . . . . ? 
S5 C4 C8 C9 -177.30(18) . . . . ? 
C3 C4 C8 C7 178.3(5) . . . . ? 
S5 C4 C8 C7 1.4(5) . . . . ? 
C6 C7 C8 C9 177.7(7) . . . . ? 
C6 C7 C8 C4 -0.8(11) . . . . ? 
C2 C3 C4' C5' -178.2(6) . . . . ? 
C2 C3 C4' C8' -0.3(3) . . . . ? 
C3 C4' C5' C6' -179.2(13) . . . . ? 
C8' C4' C5' C6' 2.7(15) . . . . ? 
C4' C5' C6' F1' 178(2) . . . . ? 
C4' C5' C6' S7' -2(2) . . . . ? 
F1' C6' S7' C8' -179.4(18) . . . . ? 
C5' C6' S7' C8' 0.8(17) . . . . ? 
C5' C4' C8' C9 177.9(5) . . . . ? 
C3 C4' C8' C9 -0.4(3) . . . . ? 
C5' C4' C8' S7' -2.3(6) . . . . ? 
C3 C4' C8' S7' 179.4(3) . . . . ? 
C6' S7' C8' C9 -179.3(9) . . . . ? 
C6' S7' C8' C4' 0.9(9) . . . . ? 
C4' C8' C9 C10 1.3(3) . . . . ? 
S7' C8' C9 C10 -178.5(3) . . . . ? 
C4 C8 C9 C10 1.3(3) . . . . ? 
C7 C8 C9 C10 -177.1(6) . . . . ? 
C8' C9 C10 C1 177.9(2) . . . 2_666 ? 
C8 C9 C10 C1 177.9(2) . . . 2_666 ? 
C8' C9 C10 C2 -1.3(3) . . . . ? 
C8 C9 C10 C2 -1.3(3) . . . . ? 
C1 C2 C10 C1 -0.1(3) . . . 2_666 ? 
C3 C2 C10 C1 -178.7(2) . . . 2_666 ? 
C1 C2 C10 C9 179.15(19) . . . . ? 
C3 C2 C10 C9 0.6(3) . . . . ? 
C12 Si1 C13 C14 -40.5(2) . . . . ? 
C19 Si1 C13 C14 -154.55(18) . . . . ? 
C25 Si1 C13 C14 77.5(2) . . . . ? 
C12 Si1 C13 C18 138.52(18) . . . . ? 
C19 Si1 C13 C18 24.5(2) . . . . ? 
C25 Si1 C13 C18 -103.41(19) . . . . ? 
C18 C13 C14 C15 0.0(3) . . . . ? 
Si1 C13 C14 C15 179.06(18) . . . . ? 
C13 C14 C15 C16 0.8(4) . . . . ? 
C14 C15 C16 C17 -0.7(4) . . . . ? 
C15 C16 C17 C18 -0.2(4) . . . . ? 
C16 C17 C18 C13 1.0(4) . . . . ? 
C14 C13 C18 C17 -0.9(3) . . . . ? 
Si1 C13 C18 C17 -179.97(19) . . . . ? 
C12 Si1 C19 C20 131.89(19) . . . . ? 
C13 Si1 C19 C20 -112.0(2) . . . . ? 
C25 Si1 C19 C20 12.9(2) . . . . ? 
C12 Si1 C19 C24 -48.19(19) . . . . ? 
C13 Si1 C19 C24 67.95(19) . . . . ? 
C25 Si1 C19 C24 -167.23(16) . . . . ? 
C24 C19 C20 C21 0.9(3) . . . . ? 
Si1 C19 C20 C21 -179.23(18) . . . . ? 
C19 C20 C21 C22 -0.7(4) . . . . ? 
C20 C21 C22 C23 0.3(4) . . . . ? 
C21 C22 C23 C24 -0.1(4) . . . . ? 
C22 C23 C24 C19 0.3(4) . . . . ? 
C20 C19 C24 C23 -0.7(3) . . . . ? 
Si1 C19 C24 C23 179.38(19) . . . . ? 
C12 Si1 C25 C28 -67.26(18) . . . . ? 
C13 Si1 C25 C28 174.07(16) . . . . ? 
C19 Si1 C25 C28 50.53(19) . . . . ? 
C12 Si1 C25 C26 52.14(18) . . . . ? 
C13 Si1 C25 C26 -66.54(17) . . . . ? 
C19 Si1 C25 C26 169.93(15) . . . . ? 
C12 Si1 C25 C27 170.20(16) . . . . ? 
C13 Si1 C25 C27 51.52(19) . . . . ? 
C19 Si1 C25 C27 -72.01(19) . . . . ? 
 
_refine_diff_density_max    0.445 
_refine_diff_density_min   -0.406 
_refine_diff_density_rms    0.055 
 
_iucr_refine_instructions_details 
; 
 
    x14457.res created by SHELXL-2014/7 
 
 
TITL x14457 -  P-1 
CELL  1.54178   8.3967   8.7441  16.6826   91.936  103.447  109.807 
ZERR    1.000   0.0004   0.0004   0.0008    0.002    0.003    0.002 
LATT  1 
SFAC C H F SI S 
UNIT 54 44 2 2 2 
TEMP -183.000 
SIZE 0.16 0.08 0.02 
REM COLR red 
REM FORM tablet 
L.S. 8 
BOND $H 
CONF 
ACTA 
LIST 4 
FMAP 2 
PLAN 5 
WGHT    0.056700    0.683100 
FVAR       0.17579   0.65343 
SI1   4    0.485296    0.852551    0.802423    11.00000    0.02064    0.01671 = 
         0.01947    0.00211    0.00584    0.00711 
C1    1    0.496266    0.594121    0.569429    11.00000    0.03667    0.02072 = 
         0.01940    0.00463    0.00668    0.01454 
C2    1    0.343042    0.462368    0.527064    11.00000    0.03463    0.02218 = 
         0.02109    0.00457    0.00682    0.01464 
C3    1    0.186588    0.420357    0.553953    11.00000    0.03791    0.02526 = 
         0.02548    0.00392    0.00942    0.01639 
AFIX  43 
H3    2    0.182372    0.483142    0.600488    11.00000   -1.20000 
AFIX   0 
EXYZ C4 C4' 
EXYZ C8 C8' 
EADP C4 C4' 
EADP S5 C5' 
EADP C6 C6' 
EADP F1 F1' 
EADP C7 S7' 
EADP C8 C8' 
SAME 0.02 C8' < C4' 
SIMU C4 > C8' 
PART 1 
C4    1    0.042809    0.290161    0.513020    21.00000    0.03151    0.02776 = 
         0.02955    0.00613    0.00752    0.01654 
S5    5   -0.161459    0.212677    0.542231    21.00000    0.03070    0.03078 = 
         0.03181    0.00490    0.01260    0.01254 
C6    1   -0.237046    0.058136    0.457985    21.00000    0.02495    0.02905 = 
         0.02796    0.00371    0.00562    0.00987 
F1    3   -0.400081   -0.052072    0.448949    21.00000    0.02647    0.03722 = 
         0.03929    0.00361    0.01047    0.00404 
C7    1   -0.121531    0.062391    0.413459    21.00000    0.02309    0.02547 = 
         0.02362    0.00079    0.00029    0.00466 
AFIX  43 
H7    2   -0.147932   -0.015228    0.366599    21.00000   -1.20000 
AFIX   0 
C8    1    0.045581    0.193954    0.442367    21.00000    0.03646    0.02512 = 
         0.02334    0.00470    0.00216    0.01523 
PART 2 
C4'   1    0.042809    0.290161    0.513020   -21.00000    0.03151    0.02776 = 
         0.02955    0.00613    0.00752    0.01654 
C5'   1   -0.119583    0.229248    0.525115   -21.00000    0.03070    0.03078 = 
         0.03181    0.00490    0.01260    0.01254 
AFIX  43 
H5'   2   -0.154967    0.275714    0.567068   -21.00000   -1.20000 
AFIX   0 
F1'   3   -0.387986    0.004662    0.467174   -21.00000    0.02647    0.03722 = 
         0.03929    0.00361    0.01047    0.00404 
C6'   1   -0.224888    0.097052    0.471949   -21.00000    0.02495    0.02905 = 
         0.02796    0.00371    0.00562    0.00987 
S7'   5   -0.135352    0.035151    0.396182   -21.00000    0.02309    0.02547 = 
         0.02362    0.00079    0.00029    0.00466 
C8'   1    0.045581    0.193954    0.442367   -21.00000    0.03646    0.02512 = 
         0.02334    0.00470    0.00216    0.01523 
PART 0 
C9    1    0.194124    0.232926    0.414588    11.00000    0.04053    0.02312 = 
         0.02069    0.00224    0.00561    0.01397 
AFIX  43 
H9    2    0.194590    0.170167    0.367093    11.00000   -1.20000 
AFIX   0 
C10   1    0.347148    0.366420    0.456346    11.00000    0.03579    0.02283 = 
         0.01894    0.00657    0.00730    0.01636 
C11   1    0.494639    0.687346    0.641032    11.00000    0.03027    0.02008 = 
         0.02569    0.00486    0.00780    0.00999 
C12   1    0.493059    0.760654    0.703548    11.00000    0.02702    0.01816 = 
         0.02600    0.00251    0.00706    0.00773 
C13   1    0.446067    1.048663    0.785695    11.00000    0.01979    0.01822 = 
         0.02099   -0.00059    0.00106    0.00471 
C14   1    0.527650    1.157271    0.735753    11.00000    0.01936    0.02579 = 
         0.03174    0.00648    0.00273    0.00685 
AFIX  43 
H14   2    0.607056    1.132664    0.709852    11.00000   -1.20000 
AFIX   0 
C15   1    0.494433    1.300591    0.723408    11.00000    0.02369    0.02373 = 
         0.04515    0.01454    0.00101    0.00231 
AFIX  43 
H15   2    0.550003    1.372608    0.688624    11.00000   -1.20000 
AFIX   0 
C16   1    0.381254    1.339422    0.761268    11.00000    0.03351    0.01899 = 
         0.05025    0.00391    0.00153    0.01033 
AFIX  43 
H16   2    0.359878    1.438440    0.753062    11.00000   -1.20000 
AFIX   0 
C17   1    0.299117    1.234053    0.811112    11.00000    0.04292    0.02933 = 
         0.04281    0.00101    0.01183    0.02192 
AFIX  43 
H17   2    0.221396    1.260728    0.837427    11.00000   -1.20000 
AFIX   0 
C18   1    0.329993    1.088809    0.822873    11.00000    0.03724    0.02515 = 
         0.02768    0.00443    0.01194    0.01390 
AFIX  43 
H18   2    0.271542    1.016020    0.856557    11.00000   -1.20000 
AFIX   0 
C19   1    0.288187    0.704357    0.828921    11.00000    0.02593    0.01797 = 
         0.02980    0.00287    0.01006    0.01040 
C20   1    0.284146    0.646865    0.905720    11.00000    0.03138    0.02798 = 
         0.03178    0.00710    0.01160    0.01453 
AFIX  43 
H20   2    0.387646    0.684460    0.950119    11.00000   -1.20000 
AFIX   0 
C21   1    0.131449    0.535644    0.918377    11.00000    0.04237    0.03261 = 
         0.04722    0.01718    0.02875    0.02045 
AFIX  43 
H21   2    0.131884    0.497184    0.970980    11.00000   -1.20000 
AFIX   0 
C22   1   -0.020665    0.480728    0.855131    11.00000    0.03253    0.02342 = 
         0.06406    0.00561    0.02785    0.00692 
AFIX  43 
H22   2   -0.125053    0.405023    0.864034    11.00000   -1.20000 
AFIX   0 
C23   1   -0.020230    0.536730    0.778483    11.00000    0.02637    0.03245 = 
         0.05058    0.00058    0.01084    0.00548 
AFIX  43 
H23   2   -0.124644    0.499153    0.734604    11.00000   -1.20000 
AFIX   0 
C24   1    0.132101    0.647467    0.765570    11.00000    0.02679    0.02760 = 
         0.03482    0.00435    0.00968    0.00811 
AFIX  43 
H24   2    0.130531    0.685407    0.712801    11.00000   -1.20000 
AFIX   0 
C25   1    0.704160    0.892466    0.879866    11.00000    0.02230    0.02638 = 
         0.02179    0.00019    0.00232    0.01060 
C26   1    0.850595    0.989952    0.841125    11.00000    0.02297    0.03594 = 
         0.03388    0.00636    0.00347    0.00888 
AFIX 137 
H26A  2    0.963921    1.020957    0.882365    11.00000   -1.50000 
H26B  2    0.830514    1.088902    0.823094    11.00000   -1.50000 
H26C  2    0.850909    0.922281    0.793162    11.00000   -1.50000 
AFIX   0 
C27   1    0.715615    0.996130    0.958560    11.00000    0.02922    0.04625 = 
         0.02469   -0.00166   -0.00059    0.01480 
AFIX 137 
H27A  2    0.620791    0.936897    0.983302    11.00000   -1.50000 
H27B  2    0.704481    1.100419    0.944131    11.00000   -1.50000 
H27C  2    0.828887    1.017258    0.998489    11.00000   -1.50000 
AFIX   0 
C28   1    0.730141    0.732471    0.901243    11.00000    0.02763    0.03172 = 
         0.04483    0.01156    0.00737    0.01558 
AFIX 137 
H28A  2    0.716103    0.665267    0.850069    11.00000   -1.50000 
H28B  2    0.642888    0.672673    0.929968    11.00000   -1.50000 
H28C  2    0.848090    0.756893    0.937398    11.00000   -1.50000 
 
AFIX   0 
HKLF 4 
 
REM  x14457 -  P-1 
REM R1 =  0.0468 for    3328 Fo > 4sig(Fo)  and  0.0559 for all    3965 data 
REM    287 parameters refined using    193 restraints 
 
END 
 
WGHT      0.0567      0.6841 
 
REM Highest difference peak  0.445,  deepest hole -0.406,  1-sigma level  0.055 
Q1    1   0.6003  0.8678  0.8451  11.00000  0.05    0.45 
Q2    1   0.4269  0.9351  0.7808  11.00000  0.05    0.30 
Q3    1  -0.1505  0.1201  0.5096  11.00000  0.05    0.28 
Q4    1  -0.0324  0.6432  0.7346  11.00000  0.05    0.26 
Q5    1   0.0588  0.2562  0.4819  11.00000  0.05    0.25 
; 
_shelx_res_checksum   17540 
 
_shelx_hkl_file
;
  -1   0   0   59.86    3.23
  -1   0   0   60.91    3.23
   1   0   0   52.04    3.37
   1   0   0   57.17    3.37
   1   0   0   59.71    3.23
   1   0   0   53.68    3.87
   1   0   0   53.46    3.98
   1   0   0   53.03    3.98
   1   0   0   53.46    3.51
   1   0   0   51.60    4.01
   1   0   0   59.46    3.23
  -2   0   0    3.02    0.25
  -2   0   0    3.52    0.28
   2   0   0    3.20    0.36
   2   0   0    2.87    0.23
   2   0   0    3.12    0.26
   2   0   0    3.16    0.31
   2   0   0    3.32    0.25
   2   0   0    3.06    0.25
   2   0   0    3.31    0.24
   2   0   0    2.80    0.40
   2   0   0    2.93    0.28
   2   0   0    3.00    0.40
  -3   0   0   48.67    2.77
  -3   0   0   47.25    2.76
   3   0   0   48.56    2.87
   3   0   0   48.57    3.46
   3   0   0   47.53    2.87
   3   0   0   44.81    2.99
   3   0   0   52.08    2.99
   3   0   0   43.10    3.43
   3   0   0   48.47    2.77
   3   0   0   43.96    2.76
   3   0   0   46.19    3.45
   4   0   0    7.30    0.46
   4   0   0    7.39    0.73
   4   0   0    6.72    0.46
   4   0   0    7.08    0.71
   5   0   0   28.54    1.97
   5   0   0   23.90    1.62
   5   0   0   23.57    1.52
   5   0   0   22.35    1.45
   5   0   0   22.87    1.75
   5   0   0   25.12    1.78
   5   0   0   26.32    1.93
   5   0   0   24.47    1.63
   6   0   0   51.33    3.00
   6   0   0   48.31    2.81
   6   0   0   44.10    3.00
   6   0   0   40.73    2.68
   6   0   0   43.80    3.43
   6   0   0   38.37    3.43
   6   0   0   49.47    3.27
   7   0   0    1.33    0.22
   7   0   0    1.01    0.21
   7   0   0    0.87    0.28
   7   0   0    0.85    0.21
   8   0   0    8.36    0.63
   8   0   0    8.44    0.58
   8   0   0    7.47    0.59
   9  -1   0    4.05    0.34
   8  -1   0    0.60    0.19
   8  -1   0    0.51    0.25
   8  -1   0    0.53    0.18
   7  -1   0    0.61    0.20
   7  -1   0    0.25    0.26
   7  -1   0    0.63    0.20
   7  -1   0    0.76    0.19
   7  -1   0    0.48    0.16
   6  -1   0   10.56    0.80
   6  -1   0   10.50    0.85
   6  -1   0   11.29    0.78
   6  -1   0   12.13    1.07
   6  -1   0   12.33    0.82
   6  -1   0   11.94    0.82
   6  -1   0    9.91    1.04
   6  -1   0   11.07    0.87
   5  -1   0   -0.07    0.33
   5  -1   0    0.49    0.18
   5  -1   0    0.37    0.19
   5  -1   0    0.13    0.39
   4  -1   0   16.89    1.32
   4  -1   0   15.48    1.29
   4  -1   0   17.06    1.32
   3  -1   0   31.43    2.36
   3  -1   0   34.94    2.48
   3  -1   0   33.83    2.48
   3  -1   0   33.75    2.47
   2  -1   0   82.06    5.75
   2  -1   0   79.70    4.64
   2  -1   0   78.31    5.57
   2  -1   0   74.94    5.81
   2  -1   0   81.61    4.64
   2  -1   0   81.04    5.06
   2  -1   0   78.80    4.85
   2  -1   0   75.95    5.05
   2  -1   0   85.08    5.75
   2  -1   0   76.78    4.85
  -2   1   0   87.61    4.64
  -2   1   0   83.46    4.64
   1  -1   0    7.71    0.51
   1  -1   0    8.06    0.49
   1  -1   0    7.75    0.52
   1  -1   0    7.36    0.61
   1  -1   0    8.11    0.50
   1  -1   0    7.90    0.49
   1  -1   0    7.08    0.49
   1  -1   0    7.90    0.61
   1  -1   0    6.48    0.57
  -1   1   0    8.90    0.50
  -1   1   0    8.64    0.49
   0  -1   0   18.47    1.38
   0  -1   0   19.84    1.14
   0  -1   0   20.22    1.15
   0  -1   0   18.80    1.22
   0  -1   0   19.50    1.17
   0   1   0   18.78    1.15
   0   1   0   18.25    1.37
   0   1   0   19.61    1.14
   0   1   0   18.35    1.17
   0   1   0   18.74    1.22
  -1  -1   0   55.77    3.93
  -1  -1   0   66.53    3.64
  -1  -1   0   59.85    3.63
   1   1   0   64.35    3.64
   1   1   0   60.96    4.45
   1   1   0   64.32    3.78
   1   1   0   63.86    3.93
  -2  -1   0    9.35    0.62
  -2  -1   0    8.74    0.60
   2   1   0    8.30    0.57
   2   1   0    7.95    0.59
   2   1   0    8.72    0.58
   2   1   0    9.14    0.62
   2   1   0    9.13    0.76
   2   1   0    7.25    0.79
   2   1   0    7.98    0.61
   2   1   0    8.47    0.61
  -3  -1   0    7.87    0.60
   3   1   0    7.72    0.55
   3   1   0    8.39    0.60
   3   1   0    8.71    0.77
   3   1   0    8.89    0.60
   3   1   0    8.45    0.57
   3   1   0    7.72    0.59
   3   1   0    9.19    0.83
   3   1   0    7.43    0.61
   4   1   0   24.42    1.55
   4   1   0   23.69    1.49
   4   1   0   23.17    1.89
   4   1   0   23.62    1.86
   5   1   0    3.21    0.36
   5   1   0    3.54    0.37
   5   1   0    3.21    0.31
   5   1   0    3.33    0.57
   5   1   0    4.41    0.63
   5   1   0    3.73    0.32
   5   1   0    3.42    0.27
   6   1   0   20.71    1.41
   6   1   0   23.52    1.34
   6   1   0   22.94    1.50
   6   1   0   22.49    1.52
   6   1   0   19.10    1.85
   6   1   0   22.93    1.65
   7   1   0    2.38    0.30
   7   1   0    1.79    0.30
   7   1   0    1.90    0.32
   8   1   0    0.10    0.16
   8   1   0    0.36    0.15
   8   1   0    0.18    0.13
   9  -2   0   -0.03    0.20
   9  -2   0   -0.02    0.14
   8  -2   0    8.16    0.60
   8  -2   0    7.55    0.63
   8  -2   0    8.37    0.57
   8  -2   0    7.57    0.60
   7  -2   0    0.95    0.27
   7  -2   0    0.87    0.19
   7  -2   0    1.19    0.27
   7  -2   0    1.18    0.24
   7  -2   0    0.45    0.43
   7  -2   0    0.87    0.20
   6  -2   0    7.88    0.64
   6  -2   0    7.95    0.64
   6  -2   0    8.62    0.88
   6  -2   0    8.89    0.70
   6  -2   0    9.31    0.59
   6  -2   0    7.81    0.67
   6  -2   0    7.98    0.65
   5  -2   0   14.34    1.25
   5  -2   0   15.78    1.27
   4  -2   0    5.25    0.59
   4  -2   0    4.52    0.44
   4  -2   0    5.50    0.55
   3  -2   0    4.21    0.54
   3  -2   0    5.36    0.58
   3  -2   0    4.80    0.31
   3  -2   0    4.60    0.33
   3  -2   0    4.35    0.31
   3  -2   0    5.08    0.34
   3  -2   0    4.51    0.34
   3  -2   0    4.25    0.33
   3  -2   0    4.46    0.40
  -3   2   0    4.96    0.35
  -3   2   0    4.26    0.33
   2  -2   0    2.36    0.23
   2  -2   0    2.56    0.31
   2  -2   0    2.54    0.30
   2  -2   0    3.35    0.40
   2  -2   0    2.57    0.24
   2  -2   0    2.37    0.23
   2  -2   0    2.59    0.37
   2  -2   0    2.50    0.29
   2  -2   0    3.22    0.26
  -2   2   0    2.44    0.28
  -2   2   0    2.96    0.29
   1  -2   0   20.43    1.33
   1  -2   0   20.80    1.53
   1  -2   0   22.08    1.27
   1  -2   0   19.78    1.26
   1  -2   0   20.87    1.25
   1  -2   0   20.60    1.33
  -1   2   0   18.57    1.33
  -1   2   0   21.61    1.26
  -1   2   0   20.08    1.26
  -1   2   0   18.18    1.27
   0  -2   0    0.05    0.18
   0  -2   0    0.21    0.20
   0  -2   0   -0.03    0.18
   0  -2   0    0.03    0.19
   0  -2   0    0.17    0.22
   0   2   0    0.16    0.20
   0   2   0    0.19    0.17
   0   2   0    0.24    0.22
   0   2   0    0.11    0.17
   0   2   0    0.25    0.21
  -1  -2   0   16.36    1.15
  -1  -2   0   15.27    1.24
  -1  -2   0   15.64    1.09
  -1  -2   0   17.22    1.11
  -1  -2   0   18.21    1.14
   1   2   0   18.02    1.09
   1   2   0   18.04    1.31
   1   2   0   17.55    1.12
   1   2   0   17.81    1.15
   1   2   0   15.81    1.10
  -2  -2   0    0.38    0.22
  -2  -2   0    0.09    0.19
   2   2   0    0.15    0.20
   2   2   0    0.09    0.17
   2   2   0    0.07    0.17
   2   2   0   -0.06    0.16
   2   2   0    0.29    0.28
   3   2   0   20.50    1.67
   3   2   0   21.30    1.71
   3   2   0   21.26    1.36
   3   2   0   21.85    1.44
   4   2   0   49.31    2.83
   4   2   0   42.12    3.00
   4   2   0   51.58    2.97
   4   2   0   41.37    2.99
   4   2   0   42.80    2.86
   4   2   0   43.50    3.27
   4   2   0   46.44    3.44
   4   2   0   43.19    2.80
   4   2   0   51.50    3.44
   4   2   0   46.48    2.72
   5   2   0    5.74    0.47
   5   2   0    5.36    0.75
   5   2   0    7.14    0.55
   5   2   0    6.35    0.45
   5   2   0    6.46    0.43
   5   2   0    6.18    0.47
   5   2   0    5.79    0.51
   5   2   0    5.97    0.41
   5   2   0    5.15    0.78
   5   2   0    6.34    0.51
   6   2   0    0.20    0.11
   6   2   0    0.23    0.23
   6   2   0    0.13    0.18
   6   2   0    0.10    0.16
   7   2   0    7.20    0.60
   7   2   0    8.76    0.64
   7   2   0    9.28    0.60
   8   2   0    1.77    0.20
   8   2   0    1.71    0.23
   9  -3   0    2.27    0.25
   9  -3   0    2.51    0.25
   8  -3   0    0.89    0.26
   8  -3   0    0.67    0.27
   7  -3   0   13.47    0.90
   7  -3   0   12.34    0.98
   7  -3   0   13.52    0.83
   7  -3   0   11.95    0.88
   7  -3   0   12.07    0.90
   7  -3   0    9.90    1.16
   6  -3   0    5.66    0.74
   6  -3   0    7.06    0.56
   6  -3   0    6.78    0.57
   6  -3   0    7.59    0.61
   6  -3   0    7.02    0.55
   6  -3   0    6.77    0.80
   6  -3   0    7.44    0.55
   5  -3   0   14.03    1.00
   5  -3   0   13.95    1.00
   5  -3   0   14.59    0.94
   5  -3   0   14.59    1.24
   5  -3   0   15.14    1.24
   4  -3   0   21.04    1.58
   4  -3   0   22.24    1.62
   4  -3   0   19.23    1.22
   4  -3   0   16.80    1.20
   4  -3   0   20.87    1.28
   3  -3   0   14.46    0.98
   3  -3   0   16.16    1.25
   3  -3   0   15.29    1.00
   3  -3   0   14.83    1.03
   3  -3   0   15.66    1.01
   3  -3   0   16.19    0.99
   3  -3   0   14.68    1.13
   3  -3   0   17.13    1.04
   3  -3   0   15.31    1.25
  -3   3   0   15.49    1.00
  -3   3   0   15.30    1.01
   2  -3   0  132.02    7.44
   2  -3   0  124.62    7.15
   2  -3   0  126.57    7.75
   2  -3   0  125.62    7.16
   2  -3   0  104.49    7.43
   2  -3   0  122.47    8.87
   2  -3   0  110.15    7.74
  -2   3   0  124.41    7.16
  -2   3   0  133.87    7.16
   1  -3   0    6.86    0.51
   1  -3   0    6.54    0.60
   1  -3   0    6.88    0.59
   1  -3   0    6.98    0.52
   1  -3   0    6.60    0.54
  -1   3   0    6.74    0.57
  -1   3   0    6.36    0.50
  -1   3   0    7.37    0.58
  -1   3   0    6.08    0.51
   0  -3   0    9.93    0.82
   0  -3   0   10.77    0.80
   0  -3   0   10.31    0.77
   0  -3   0   10.95    0.78
   0  -3   0   10.02    0.72
   0   3   0   10.97    0.72
   0   3   0   10.84    0.78
   0   3   0   10.36    0.78
   0   3   0    9.68    0.81
   0   3   0    9.28    0.76
  -1  -3   0   11.93    0.91
   1   3   0   12.86    0.91
   1   3   0   13.24    1.01
   1   3   0   12.55    0.85
   1   3   0   11.61    0.90
   1   3   0   10.99    0.89
   2   3   0    0.05    0.19
   2   3   0   -0.03    0.20
   2   3   0    0.16    0.30
   3   3   0    1.07    0.28
   3   3   0    0.70    0.19
   3   3   0    0.83    0.09
   3   3   0    1.29    0.27
   3   3   0    1.41    0.49
   3   3   0    0.93    0.43
   3   3   0    0.62    0.18
   4   3   0    7.29    0.48
   4   3   0    7.29    0.60
   4   3   0    6.45    0.49
   4   3   0    6.69    0.81
   4   3   0    6.84    0.80
   4   3   0    6.71    0.49
   4   3   0    6.17    0.54
   4   3   0    6.37    0.52
   4   3   0    6.81    0.57
   4   3   0    6.93    0.57
   5   3   0    4.07    0.30
   5   3   0    3.84    0.42
   5   3   0    3.81    0.40
   5   3   0    4.16    0.34
   5   3   0    2.99    0.38
   6   3   0    8.37    0.63
   6   3   0    7.77    0.52
   6   3   0    8.40    0.62
   6   3   0    7.41    0.61
   7   3   0    0.18    0.16
   7   3   0    0.06    0.21
   9  -4   0    0.21    0.11
   9  -4   0    0.18    0.14
   8  -4   0    0.44    0.18
   8  -4   0    0.38    0.18
   8  -4   0    0.11    0.21
   7  -4   0   22.75    1.57
   7  -4   0   23.29    1.59
   7  -4   0   23.98    1.49
   7  -4   0   23.13    1.75
   6  -4   0    2.24    0.17
   6  -4   0    2.54    0.32
   6  -4   0    2.37    0.28
   6  -4   0    2.55    0.27
   6  -4   0    2.70    0.30
   6  -4   0    1.49    0.50
   6  -4   0    2.32    0.56
   6  -4   0    2.04    0.25
   5  -4   0    9.32    0.86
   5  -4   0    6.87    0.58
   5  -4   0    8.77    0.61
   5  -4   0    8.07    0.55
   5  -4   0    8.09    0.67
   5  -4   0    9.86    0.88
   5  -4   0    8.12    0.61
   5  -4   0    7.29    0.51
   4  -4   0   17.69    1.18
   4  -4   0   17.19    1.45
   3  -4   0   19.70    1.25
   3  -4   0   17.68    1.43
   3  -4   0   21.60    1.32
   3  -4   0   18.66    1.55
   2  -4   0   31.32    2.07
   2  -4   0   33.57    2.06
   2  -4   0   32.95    2.48
   2  -4   0   34.07    2.16
  -2   4   0   31.10    2.06
   1  -4   0   46.56    2.78
   1  -4   0   42.73    2.73
   1  -4   0   44.48    3.29
   1  -4   0   44.53    2.90
   1  -4   0   46.85    2.77
  -1   4   0   44.55    2.76
  -1   4   0   40.05    3.20
  -1   4   0   46.05    2.75
   0  -4   0   15.84    1.04
   0  -4   0   15.24    1.12
   0  -4   0   14.06    1.08
   0  -4   0   15.12    1.08
   0  -4   0   13.87    1.17
   0   4   0   15.13    1.08
   0   4   0   14.94    1.17
   0   4   0   13.38    1.05
   0   4   0   15.69    1.11
   0   4   0   16.13    1.03
   1   4   0   39.59    2.78
   1   4   0   44.33    2.65
   1   4   0   41.78    3.10
   2   4   0    0.58    0.25
   2   4   0    0.42    0.26
   2   4   0    0.45    0.09
   2   4   0    0.39    0.33
   3   4   0    4.50    0.71
   3   4   0    4.18    0.51
   3   4   0    3.80    0.39
   3   4   0    4.02    0.70
   3   4   0    4.66    0.50
   3   4   0    4.20    0.28
   3   4   0    4.39    0.37
   4   4   0    0.38    0.20
   4   4   0    0.00    0.21
   4   4   0    0.32    0.22
   4   4   0    0.18    0.24
   4   4   0    0.45    0.15
   4   4   0    0.05    0.40
   5   4   0    2.31    0.31
   5   4   0    2.63    0.25
   5   4   0    2.43    0.33
   5   4   0    2.60    0.24
   6   4   0    0.21    0.22
   6   4   0    0.16    0.12
   7   4   0    1.06    0.15
   9  -5   0    0.68    0.15
   9  -5   0    0.78    0.16
   8  -5   0    2.59    0.37
   8  -5   0    2.69    0.36
   7  -5   0   12.53    0.92
   7  -5   0   13.15    0.92
   7  -5   0   11.92    0.87
   7  -5   0   13.26    1.02
   6  -5   0    0.46    0.23
   6  -5   0    0.39    0.18
   6  -5   0    0.52    0.17
   6  -5   0    0.25    0.24
   6  -5   0    0.53    0.11
   6  -5   0    0.13    0.44
   5  -5   0   26.55    1.92
   5  -5   0   24.73    1.62
   5  -5   0   26.36    1.67
   5  -5   0   25.90    1.56
   5  -5   0   26.71    1.70
   5  -5   0   29.27    2.17
   5  -5   0   25.63    1.75
   5  -5   0   23.87    1.63
   5  -5   0   26.63    1.75
   4  -5   0   15.75    0.95
   4  -5   0   17.06    1.38
   4  -5   0   15.23    1.09
   4  -5   0   15.99    1.02
   4  -5   0   15.11    1.16
   4  -5   0   13.93    1.06
   3  -5   0   26.85    1.73
   3  -5   0   27.57    1.82
   3  -5   0   26.13    2.12
   2  -5   0   22.86    1.82
   2  -5   0   23.64    1.60
   2  -5   0   22.17    1.51
   1  -5   0   14.31    1.17
   1  -5   0   14.45    1.02
   1  -5   0   13.98    1.08
   1   5   0    0.28    0.28
   1   5   0    0.12    0.10
   1   5   0    0.10    0.26
   2   5   0    2.02    0.18
   2   5   0    1.56    0.44
   2   5   0    2.09    0.26
   2   5   0    2.34    0.41
   2   5   0    2.27    0.41
   3   5   0    7.46    0.91
   3   5   0    8.41    0.62
   3   5   0    8.29    0.51
   3   5   0    8.14    0.61
   3   5   0    8.34    0.61
   3   5   0    7.56    0.71
   4   5   0    1.79    0.21
   4   5   0    2.21    0.26
   4   5   0    2.13    0.28
   4   5   0    1.31    0.24
   5   5   0    1.40    0.20
   5   5   0    1.14    0.18
   6   5   0    1.79    0.17
   9  -6   0    1.58    0.21
   8  -6   0    0.46    0.19
   7  -6   0    0.05    0.16
   7  -6   0    0.06    0.05
   7  -6   0    0.21    0.13
   7  -6   0    0.03    0.25
   7  -6   0    0.13    0.17
   6  -6   0    1.45    0.28
   6  -6   0    1.66    0.58
   6  -6   0    1.62    0.25
   6  -6   0    1.38    0.29
   6  -6   0    1.39    0.16
   6  -6   0    1.64    0.23
   5  -6   0    1.48    0.26
   5  -6   0    1.41    0.15
   5  -6   0    1.02    0.26
   5  -6   0    0.85    0.18
   5  -6   0    1.78    0.19
   5  -6   0    2.12    0.57
   5  -6   0    0.95    0.24
   5  -6   0    1.04    0.23
   4  -6   0    0.37    0.16
   4  -6   0    0.54    0.43
   4  -6   0    0.24    0.18
   4  -6   0    0.18    0.12
   4  -6   0    0.25    0.06
   4  -6   0    0.34    0.22
   4  -6   0    0.26    0.22
   4  -6   0    0.48    0.17
   4  -6   0    0.26    0.21
   3  -6   0    0.83    0.40
   3  -6   0    0.84    0.15
   3  -6   0    0.68    0.17
   3  -6   0    0.76    0.28
   3  -6   0    1.00    0.12
   2  -6   0    0.60    0.13
   2  -6   0    0.39    0.29
   2  -6   0    0.34    0.32
   1  -6   0    4.86    0.35
   1   6   0   -0.03    0.11
   2   6   0   30.91    1.85
   2   6   0   32.04    2.03
   3   6   0    1.71    0.15
   3   6   0    1.93    0.27
   3   6   0    1.62    0.27
   3   6   0    1.56    0.24
   4   6   0    0.92    0.16
   4   6   0    1.13    0.21
   4   6   0    0.89    0.22
   5   6   0    6.10    0.42
   5   6   0    5.94    0.42
   9  -7   0    3.12    0.29
   8  -7   0    0.39    0.23
   7  -7   0    5.26    0.34
   7  -7   0    5.42    0.51
   7  -7   0    4.47    0.48
   6  -7   0   12.77    1.01
   6  -7   0   13.24    0.80
   6  -7   0   11.62    0.90
   5  -7   0    3.39    0.71
   5  -7   0    3.75    0.37
   5  -7   0    3.33    0.33
   5  -7   0    3.55    0.34
   5  -7   0    3.67    0.33
   5  -7   0    4.22    0.43
   4  -7   0   20.54    1.25
   4  -7   0   17.88    1.43
   4  -7   0   16.41    1.29
   4  -7   0   19.08    1.67
   4  -7   0   20.32    1.25
   4  -7   0   19.39    1.19
   3  -7   0    0.07    0.21
   3  -7   0   -0.11    0.25
   3  -7   0    0.33    0.42
   3  -7   0    0.00    0.10
   3  -7   0    0.17    0.13
   3  -7   0    0.16    0.29
   2  -7   0    2.68    0.47
   2  -7   0    2.41    0.24
   2  -7   0    3.11    0.50
   2  -7   0    3.42    0.35
   1  -7   0   27.65    1.65
   0   7   0    0.19    0.13
   1   7   0    1.71    0.18
   2   7   0   12.39    0.84
   2   7   0   13.83    0.77
   2   7   0   11.86    0.86
   3   7   0    6.90    0.52
   3   7   0    7.68    0.53
   3   7   0    6.61    0.53
   4   7   0    9.83    0.62
   4   7   0    9.80    0.62
   4   7   0    9.35    0.63
   8  -8   0    7.59    0.62
   7  -8   0    0.58    0.17
   7  -8   0    0.21    0.23
   6  -8   0    1.46    0.29
   6  -8   0    1.44    0.26
   6  -8   0    1.50    0.18
   5  -8   0    3.14    0.32
   5  -8   0    2.54    0.35
   5  -8   0    2.74    0.35
   4  -8   0    0.39    0.26
   4  -8   0    0.61    0.20
   4  -8   0    0.62    0.20
   3  -8   0    0.03    0.21
   3  -8   0    0.01    0.09
   2  -8   0    5.99    0.41
   2  -8   0    5.51    0.53
   1  -8   0    0.78    0.17
   0  -8   0    0.03    0.14
   0   8   0    0.07    0.12
   1   8   0    0.19    0.07
   1   8   0    0.07    0.13
   2   8   0    7.68    0.52
   2   8   0    8.23    0.56
   2   8   0    7.14    0.45
   3   8   0    0.07    0.12
   3   8   0    0.21    0.07
   7  -9   0   -0.08    0.15
   7  -9   0    0.03    0.12
   6  -9   0    3.44    0.36
   6  -9   0    4.52    0.35
   5  -9   0    0.23    0.17
   4  -9   0    4.02    0.41
   4  -9   0    3.63    0.32
   3  -9   0    0.84    0.21
   3  -9   0    1.14    0.25
   2  -9   0   15.68    1.07
   1  -9   0    1.98    0.21
  -1   9   0    2.25    0.21
   0  -9   0    0.28    0.12
   0   9   0    0.15    0.07
   0   9   0    0.15    0.11
  -1  -9   0    0.42    0.10
   1   9   0    0.63    0.13
   1   9   0    0.58    0.10
   1   9   0    0.76    0.08
   6 -10   0    0.01    0.11
   5 -10   0    0.74    0.15
   4 -10   0    0.41    0.14
   3 -10   0    0.14    0.12
   2 -10   0    1.08    0.09
   1 -10   0    3.50    0.22
  -1  10   0    3.15    0.22
  -1  10  -1    0.45    0.09
   1 -10   1    0.50    0.11
   2 -10   1    0.34    0.13
   3 -10   1    0.35    0.13
   4 -10   1    0.50    0.14
   5 -10   1    1.79    0.21
   1   9  -1   -0.01    0.11
   1   9  -1    0.17    0.10
  -1  -9   1    0.12    0.11
   3  -9   1    1.45    0.21
   4  -9   1    2.10    0.27
   4  -9   1    2.02    0.25
   5  -9   1    2.05    0.27
   6  -9   1    3.68    0.34
   6  -9   1    4.28    0.34
   7  -9   1    1.44    0.19
   7  -9   1    2.00    0.19
   3   8  -1    0.21    0.11
   3   8  -1    0.24    0.11
   3   8  -1    0.14    0.10
   2   8  -1    0.04    0.17
   2   8  -1    0.10    0.17
   2   8  -1   -0.02    0.05
   1   8  -1    0.20    0.08
   0   8  -1   12.93    0.80
   0  -8   1   12.77    0.81
   1  -8   1    2.62    0.26
   2  -8   1    0.08    0.25
   2  -8   1    0.10    0.13
   3  -8   1    0.50    0.24
   3  -8   1    0.76    0.13
   4  -8   1    6.19    0.52
   4  -8   1    7.60    0.60
   4  -8   1    7.18    0.54
   5  -8   1    3.50    0.31
   5  -8   1    3.06    0.33
   5  -8   1    3.06    0.37
   5  -8   1    3.01    0.37
   6  -8   1    1.08    0.24
   6  -8   1    0.81    0.27
   7  -8   1    0.87    0.10
   7  -8   1    0.54    0.23
   7  -8   1    1.03    0.17
   8  -8   1   -0.06    0.07
   8  -8   1    0.36    0.19
   4   7  -1    0.13    0.08
   4   7  -1    0.13    0.10
   4   7  -1    0.14    0.16
   3   7  -1    0.93    0.17
   3   7  -1    0.80    0.22
   3   7  -1    0.75    0.18
   2   7  -1    8.57    0.53
   2   7  -1    8.74    0.65
   2   7  -1    8.54    0.64
   1   7  -1    9.12    0.57
   0   7  -1    5.02    0.35
   1  -7   1    0.08    0.15
   2  -7   1   -0.03    0.24
   2  -7   1    0.34    0.31
   2  -7   1    0.08    0.35
   2  -7   1    0.07    0.14
   3  -7   1    4.35    0.66
   3  -7   1    4.25    0.58
   3  -7   1    4.89    0.32
   3  -7   1    4.68    0.45
   3  -7   1    4.35    0.41
   3  -7   1    4.69    0.58
   4  -7   1   15.76    1.17
   4  -7   1   16.41    1.49
   4  -7   1   16.57    1.12
   4  -7   1   16.49    0.96
   4  -7   1   15.83    1.25
   4  -7   1   17.07    1.04
   4  -7   1   16.11    1.10
   5  -7   1    1.38    0.20
   5  -7   1    1.10    0.17
   5  -7   1    0.41    0.51
   5  -7   1    0.95    0.28
   5  -7   1    1.05    0.25
   6  -7   1    3.67    0.30
   6  -7   1    3.61    0.43
   6  -7   1    3.40    0.35
   6  -7   1    3.63    0.38
   7  -7   1    5.84    0.59
   7  -7   1    6.17    0.52
   7  -7   1    6.88    0.41
   8  -7   1    0.13    0.16
   9  -7   1   -0.05    0.16
   9  -7   1    0.04    0.07
   5   6  -1    1.94    0.24
   5   6  -1    2.21    0.20
   4   6  -1    0.42    0.19
   4   6  -1    0.34    0.16
   4   6  -1    0.41    0.14
   3   6  -1    7.89    0.59
   3   6  -1    7.60    0.47
   3   6  -1    7.56    0.59
   3   6  -1    8.05    0.57
   2   6  -1    7.71    0.62
   2   6  -1    6.87    0.73
   2   6  -1    8.73    0.51
   1   6  -1    0.05    0.08
   1  -6   1   16.99    1.03
   2  -6   1    7.90    0.69
   2  -6   1    6.24    0.55
   2  -6   1    6.87    0.46
   2  -6   1    7.63    0.64
   2  -6   1    7.23    0.76
   3  -6   1    4.10    0.63
   3  -6   1    2.25    0.22
   3  -6   1    2.80    0.31
   3  -6   1    2.38    0.30
   3  -6   1    3.18    0.41
   3  -6   1    2.74    0.29
   3  -6   1    3.45    0.44
   4  -6   1    7.45    0.64
   4  -6   1    7.62    0.86
   4  -6   1    7.95    0.53
   4  -6   1    7.02    0.67
   4  -6   1    7.74    0.45
   4  -6   1    7.34    0.55
   5  -6   1    0.39    0.19
   5  -6   1    0.58    0.47
   5  -6   1    0.58    0.15
   5  -6   1    0.42    0.16
   5  -6   1    0.67    0.19
   5  -6   1    0.87    0.23
   5  -6   1    0.23    0.19
   5  -6   1    0.48    0.15
   6  -6   1    1.53    0.28
   6  -6   1    0.50    0.50
   6  -6   1    1.02    0.27
   6  -6   1    1.62    0.18
   6  -6   1    1.09    0.28
   7  -6   1    0.67    0.25
   7  -6   1    0.60    0.08
   7  -6   1    0.53    0.27
   8  -6   1    2.07    0.28
   9  -6   1    2.87    0.32
   6   5  -1    0.35    0.14
   6   5  -1    0.46    0.09
   5   5  -1    0.29    0.12
   5   5  -1    0.18    0.16
   4   5  -1    1.34    0.21
   4   5  -1    1.40    0.24
   4   5  -1    1.04    0.18
   3   5  -1    5.97    0.46
   3   5  -1    5.68    0.43
   3   5  -1    5.11    0.74
   3   5  -1    5.08    0.55
   3   5  -1    5.40    0.35
   3   5  -1    5.32    0.61
   2   5  -1    1.46    0.36
   2   5  -1    1.28    0.14
   2   5  -1    1.47    0.35
   2   5  -1    1.15    0.40
   2   5  -1    1.23    0.22
   1   5  -1    3.17    0.49
   1   5  -1    2.69    0.39
   1   5  -1    1.76    0.20
   1   5  -1    2.37    0.36
   0   5  -1   38.22    2.84
   1  -5   1    4.10    0.50
   1  -5   1    4.73    0.47
   1  -5   1    4.14    0.50
   2  -5   1    0.47    0.33
   2  -5   1    0.31    0.24
   2  -5   1    0.57    0.26
   3  -5   1    0.26    0.26
   3  -5   1    0.14    0.33
   3  -5   1    0.10    0.21
   4  -5   1    0.66    0.23
   4  -5   1    0.96    0.17
   4  -5   1    1.00    0.21
   4  -5   1    1.11    0.16
   4  -5   1    1.12    0.18
   4  -5   1    1.07    0.15
   4  -5   1    0.88    0.20
   4  -5   1    0.63    0.41
   4  -5   1    0.96    0.20
   5  -5   1    8.60    0.62
   5  -5   1    6.51    0.58
   5  -5   1    7.71    0.54
   5  -5   1    9.01    0.90
   5  -5   1    7.53    0.59
   5  -5   1    7.64    0.52
   5  -5   1    8.51    0.61
   5  -5   1    7.73    0.53
   5  -5   1    8.59    0.67
   6  -5   1   26.24    1.80
   6  -5   1   29.01    1.92
   6  -5   1   32.17    2.04
   6  -5   1   32.04    2.23
   6  -5   1   31.52    2.02
   7  -5   1    0.86    0.26
   7  -5   1    0.77    0.20
   7  -5   1    0.58    0.27
   8  -5   1    1.78    0.22
   8  -5   1    1.42    0.29
   9  -5   1    2.40    0.32
   9  -5   1    3.34    0.29
   9  -5   1    3.88    0.29
   7   4  -1    4.12    0.32
   6   4  -1    0.17    0.11
   6   4  -1    0.14    0.16
   6   4  -1    0.19    0.17
   5   4  -1    0.45    0.25
   5   4  -1    0.25    0.13
   5   4  -1    0.44    0.17
   5   4  -1    0.21    0.11
   4   4  -1    0.77    0.30
   4   4  -1    1.45    0.24
   4   4  -1    0.96    0.17
   4   4  -1    0.90    0.23
   4   4  -1    0.59    0.26
   4   4  -1    0.20    0.45
   4   4  -1    0.86    0.20
   4   4  -1    1.30    0.20
   3   4  -1    4.69    0.42
   3   4  -1    5.24    0.41
   3   4  -1    5.91    0.79
   3   4  -1    6.27    0.58
   3   4  -1    5.35    0.34
   3   4  -1    5.64    0.41
   3   4  -1    5.22    0.54
   2   4  -1   15.56    1.01
   2   4  -1   15.19    1.08
   2   4  -1   15.09    1.21
   2   4  -1   12.31    0.84
   1   4  -1    4.88    0.58
   1   4  -1    4.21    0.50
   1   4  -1    5.18    0.46
   0   4  -1    4.27    0.50
   0   4  -1    4.64    0.44
   0   4  -1    4.56    0.54
   0   4  -1    4.93    0.49
   0   4  -1    4.65    0.48
   0  -4   1    4.61    0.56
   0  -4   1    4.69    0.46
   0  -4   1    4.81    0.47
   0  -4   1    4.76    0.56
   0  -4   1    4.52    0.50
  -1   4  -1   25.76    1.92
  -1   4  -1   25.02    1.68
  -1   4  -1   23.92    1.69
   1  -4   1   23.54    1.67
   1  -4   1   28.00    1.99
   1  -4   1   26.64    1.66
   1  -4   1   24.98    1.71
   1  -4   1   27.54    1.75
   2  -4   1   42.96    2.93
   2  -4   1   46.82    3.56
   2  -4   1   51.55    3.11
   2  -4   1   49.60    2.98
   3  -4   1    0.33    0.32
   3  -4   1    0.09    0.21
   3  -4   1    0.08    0.17
   4  -4   1    2.32    0.53
   4  -4   1    1.76    0.26
   4  -4   1    1.86    0.24
   4  -4   1    1.67    0.44
   5  -4   1    2.01    0.26
   5  -4   1    1.91    0.23
   5  -4   1    1.63    0.23
   5  -4   1    1.60    0.19
   5  -4   1    1.67    0.47
   5  -4   1    1.30    0.46
   5  -4   1    2.28    0.26
   5  -4   1    1.67    0.20
   6  -4   1    5.25    0.47
   6  -4   1    5.45    0.45
   6  -4   1    4.66    0.68
   6  -4   1    4.85    0.72
   6  -4   1    5.47    0.50
   6  -4   1    4.20    0.32
   6  -4   1    5.27    0.45
   7  -4   1    4.07    0.35
   7  -4   1    2.86    0.68
   7  -4   1    3.31    0.33
   7  -4   1    3.60    0.43
   7  -4   1    3.28    0.42
   8  -4   1    3.76    0.41
   8  -4   1    3.91    0.32
   8  -4   1    2.61    0.38
   9  -4   1   -0.16    0.19
   9  -4   1    0.04    0.11
   7   3  -1    2.10    0.23
   6   3  -1    0.29    0.25
   6   3  -1    0.09    0.11
   6   3  -1   -0.11    0.20
   5   3  -1    7.21    0.60
   5   3  -1    6.67    0.55
   5   3  -1    7.31    0.50
   5   3  -1    6.23    0.53
   5   3  -1    6.73    0.87
   5   3  -1    6.63    0.48
   5   3  -1    7.97    0.53
   5   3  -1    7.44    0.57
   4   3  -1    2.07    0.28
   4   3  -1    2.44    0.27
   4   3  -1    1.33    0.48
   4   3  -1    2.14    0.23
   4   3  -1    2.53    0.26
   4   3  -1    2.01    0.29
   4   3  -1    2.49    0.34
   4   3  -1    1.69    0.28
   3   3  -1    3.67    0.55
   3   3  -1    3.20    0.40
   3   3  -1    3.04    0.34
   3   3  -1    3.93    0.61
   3   3  -1    2.82    0.27
   2   3  -1   25.87    1.93
   2   3  -1   26.07    1.61
   2   3  -1   23.36    1.69
   1   3  -1    7.82    0.67
   1   3  -1    8.77    0.70
   1   3  -1    8.61    0.66
   1   3  -1    9.23    0.64
   1   3  -1    8.64    0.76
  -1  -3   1    8.73    0.71
  -1  -3   1    9.40    0.73
  -1  -3   1    8.45    0.70
   0   3  -1    0.15    0.25
   0   3  -1    0.56    0.21
   0   3  -1    0.02    0.15
   0   3  -1    0.23    0.22
   0   3  -1    0.07    0.25
   0  -3   1    0.22    0.26
   0  -3   1    0.23    0.23
   0  -3   1    0.42    0.26
   0  -3   1    0.24    0.16
   0  -3   1    0.28    0.25
  -1   3  -1   30.52    2.09
  -1   3  -1   34.89    2.08
  -1   3  -1   32.95    2.19
  -1   3  -1   34.14    2.08
   1  -3   1   32.95    2.07
   1  -3   1   32.55    2.09
   1  -3   1   34.88    2.50
   1  -3   1   33.19    2.19
   1  -3   1   36.43    2.10
  -2   3  -1   33.22    2.08
  -2   3  -1   34.28    2.08
   2  -3   1   34.16    2.53
   2  -3   1   30.89    2.19
   2  -3   1   31.58    2.06
   2  -3   1   36.42    2.20
   2  -3   1   32.79    2.08
   2  -3   1   36.67    2.10
   2  -3   1   38.50    2.51
   2  -3   1   29.97    2.09
  -3   3  -1    1.51    0.25
   3  -3   1    1.57    0.20
   3  -3   1    1.96    0.25
   3  -3   1    2.04    0.21
   3  -3   1    2.48    0.43
   3  -3   1    2.34    0.28
   3  -3   1    1.90    0.25
   3  -3   1    1.92    0.23
   3  -3   1    2.52    0.42
   4  -3   1    4.92    0.59
   4  -3   1    4.61    0.32
   4  -3   1    3.85    0.32
   4  -3   1    4.24    0.34
   4  -3   1    4.82    0.36
   4  -3   1    4.69    0.55
   5  -3   1    1.83    0.47
   5  -3   1    2.54    0.26
   5  -3   1    2.71    0.28
   5  -3   1    1.68    0.44
   5  -3   1    2.26    0.31
   5  -3   1    2.13    0.28
   5  -3   1    2.34    0.20
   6  -3   1    2.97    0.36
   6  -3   1    2.59    0.47
   6  -3   1    2.63    0.32
   6  -3   1    2.09    0.28
   6  -3   1    2.12    0.16
   6  -3   1    2.64    0.35
   6  -3   1    2.66    0.34
   7  -3   1    1.18    0.53
   7  -3   1    1.39    0.26
   7  -3   1    1.92    0.31
   7  -3   1    2.20    0.30
   7  -3   1    2.57    0.30
   8  -3   1    0.15    0.18
   8  -3   1    0.21    0.17
   8  -3   1    0.02    0.18
   9  -3   1    0.99    0.16
   9  -3   1    0.86    0.17
   9  -3   1    0.48    0.14
   8   2  -1    0.01    0.12
   8   2  -1    0.11    0.14
   7   2  -1    1.02    0.24
   7   2  -1    1.38    0.22
   7   2  -1    0.88    0.22
   6   2  -1    9.84    1.13
   6   2  -1   12.62    0.78
   6   2  -1   11.20    0.83
   6   2  -1   10.88    0.89
   6   2  -1   11.93    0.70
   6   2  -1   10.52    0.80
   5   2  -1    5.56    0.74
   5   2  -1    5.47    0.38
   5   2  -1    5.70    0.42
   5   2  -1    5.69    0.47
   5   2  -1    4.78    0.44
   5   2  -1    5.72    0.48
   5   2  -1    4.91    0.40
   5   2  -1    5.23    0.40
   5   2  -1    4.91    0.35
   4   2  -1   12.51    1.06
   4   2  -1   11.48    0.84
   4   2  -1   12.74    1.11
   4   2  -1   13.50    0.87
   4   2  -1   11.61    0.75
   4   2  -1   10.68    0.78
   4   2  -1   12.89    0.82
   4   2  -1   12.09    0.91
   4   2  -1   11.75    0.78
   3   2  -1   12.28    0.89
   3   2  -1   13.03    1.11
   3   2  -1   12.30    0.85
   3   2  -1   12.83    1.06
   2   2  -1   10.08    0.74
   2   2  -1   10.25    0.77
   2   2  -1    9.94    0.76
   2   2  -1   11.14    0.90
   2   2  -1   11.23    0.73
  -2  -2   1   10.32    0.79
  -2  -2   1   10.65    0.76
   1   2  -1    5.52    0.56
   1   2  -1    5.66    0.45
   1   2  -1    5.57    0.47
   1   2  -1    5.17    0.41
   1   2  -1    5.61    0.46
  -1  -2   1    5.93    0.50
  -1  -2   1    4.79    0.46
  -1  -2   1    5.01    0.45
  -1  -2   1    4.73    0.42
   0   2  -1    7.73    0.54
   0   2  -1    7.14    0.53
   0   2  -1    6.04    0.51
   0   2  -1    6.87    0.48
   0  -2   1    6.38    0.52
   0  -2   1    6.31    0.53
   0  -2   1    6.65    0.49
   0  -2   1    6.73    0.55
  -1   2  -1  266.14   14.44
  -1   2  -1  241.54   15.09
  -1   2  -1  270.94   14.44
  -1   2  -1  226.07   15.70
   1  -2   1  249.99   14.44
   1  -2   1  260.83   17.76
   1  -2   1  237.69   17.99
   1  -2   1  248.56   14.43
   1  -2   1  264.84   15.18
   1  -2   1  233.87   15.76
  -2   2  -1   72.26    3.83
  -2   2  -1   67.53    3.83
   2  -2   1   67.84    4.75
   2  -2   1   58.02    4.51
   2  -2   1   68.06    4.70
   2  -2   1   58.38    4.13
   2  -2   1   67.18    4.13
   2  -2   1   68.37    3.97
   2  -2   1   64.52    3.82
   2  -2   1   59.10    3.96
   2  -2   1   67.99    3.83
  -3   2  -1   34.58    1.95
  -3   2  -1   34.21    1.94
   3  -2   1   31.60    1.94
   3  -2   1   32.78    2.44
   3  -2   1   31.43    1.99
   3  -2   1   34.73    2.42
   3  -2   1   33.67    2.08
   3  -2   1   30.64    2.08
   3  -2   1   32.16    1.94
   3  -2   1   33.13    1.99
   3  -2   1   29.50    2.27
   4  -2   1    1.47    0.34
   4  -2   1    1.31    0.12
   4  -2   1    1.57    0.40
   5  -2   1    9.68    0.64
   5  -2   1   11.70    1.00
   5  -2   1   10.58    0.94
   5  -2   1   10.79    0.72
   5  -2   1   10.67    0.76
   5  -2   1   10.23    0.76
   5  -2   1   10.61    0.75
   6  -2   1    5.27    0.51
   6  -2   1    6.36    0.77
   6  -2   1    6.32    0.49
   6  -2   1    5.00    0.35
   6  -2   1    7.03    0.52
   6  -2   1    6.44    0.51
   6  -2   1    6.12    0.50
   6  -2   1    6.48    0.52
   7  -2   1    2.55    0.33
   7  -2   1    2.83    0.29
   7  -2   1    3.01    0.32
   7  -2   1    3.01    0.33
   7  -2   1    2.16    0.50
   8  -2   1    0.01    0.11
   8  -2   1    0.00    0.25
   8  -2   1    0.32    0.18
   9  -2   1    4.82    0.38
   9  -2   1    4.32    0.35
   8   1  -1    0.17    0.18
   8   1  -1    0.19    0.17
   8   1  -1   -0.16    0.15
   7   1  -1    4.61    0.44
   7   1  -1    4.80    0.42
   7   1  -1    5.04    0.48
   7   1  -1    4.55    0.46
   6   1  -1   20.80    1.26
   6   1  -1   22.72    1.57
   6   1  -1   21.57    1.44
   6   1  -1   20.93    1.43
   6   1  -1   16.76    1.75
   6   1  -1   21.66    1.34
   5   1  -1   28.87    1.97
   5   1  -1   30.59    1.96
   5   1  -1   27.67    1.81
   5   1  -1   23.22    1.80
   5   1  -1   27.96    2.16
   5   1  -1   26.47    2.10
   5   1  -1   26.34    1.62
   5   1  -1   25.51    1.69
   4   1  -1   50.41    3.60
   4   1  -1   55.53    4.15
   4   1  -1   54.18    3.45
   4   1  -1   60.49    3.61
   4   1  -1   60.66    3.46
   4   1  -1   59.36    4.20
   3   1  -1    5.36    0.38
   3   1  -1    5.41    0.40
   3   1  -1    5.41    0.59
   3   1  -1    4.69    0.39
   3   1  -1    4.94    0.57
   3   1  -1    4.79    0.39
   3   1  -1    5.00    0.36
   3   1  -1    5.16    0.42
  -3  -1   1    4.98    0.42
  -3  -1   1    4.95    0.42
   2   1  -1    0.12    0.16
   2   1  -1    0.28    0.14
   2   1  -1   -0.03    0.12
   2   1  -1    0.12    0.14
   2   1  -1    0.30    0.28
   2   1  -1    0.08    0.14
   2   1  -1    0.15    0.28
   2   1  -1   -0.10    0.16
  -2  -1   1    0.24    0.17
  -2  -1   1    0.05    0.18
   1   1  -1   22.39    1.37
   1   1  -1   20.55    1.37
   1   1  -1   22.53    1.60
   1   1  -1   20.25    1.63
   1   1  -1   21.63    1.43
   1   1  -1   23.24    1.35
   1   1  -1   22.05    1.34
  -1  -1   1   24.44    1.35
  -1  -1   1   23.08    1.35
  -1  -1   1   20.50    1.43
   0   1  -1   47.51    3.05
   0   1  -1   51.26    2.83
   0   1  -1   46.10    2.93
   0   1  -1   51.51    2.83
   0  -1   1   50.15    2.83
   0  -1   1   46.03    2.93
   0  -1   1   49.27    2.83
   0  -1   1   45.00    3.05
  -1   1  -1   66.79    3.90
  -1   1  -1   72.24    3.90
  -1   1  -1   61.45    4.23
   1  -1   1   65.89    4.22
   1  -1   1   71.38    3.90
   1  -1   1   69.43    4.06
   1  -1   1   69.85    3.90
   1  -1   1   65.78    4.22
   1  -1   1   68.47    4.78
   1  -1   1   59.40    4.05
  -2   1  -1    1.79    0.21
  -2   1  -1    1.77    0.21
   2  -1   1    1.42    0.18
   2  -1   1    1.38    0.19
   2  -1   1    1.74    0.18
   2  -1   1    1.48    0.20
   2  -1   1    1.97    0.32
   2  -1   1    1.45    0.20
   2  -1   1    1.86    0.29
   2  -1   1    1.76    0.20
   2  -1   1    1.87    0.33
   2  -1   1    1.84    0.21
  -3   1  -1    3.00    0.27
  -3   1  -1    2.89    0.26
   3  -1   1    3.08    0.25
   3  -1   1    3.10    0.25
   3  -1   1    2.78    0.26
   3  -1   1    3.20    0.24
   3  -1   1    3.30    0.43
   3  -1   1    3.09    0.39
   3  -1   1    3.69    0.47
   3  -1   1    2.93    0.23
   3  -1   1    3.31    0.25
   4  -1   1   20.72    1.59
   4  -1   1   21.00    1.58
   4  -1   1   18.70    1.53
   5  -1   1   28.03    2.20
   5  -1   1   32.11    2.03
   5  -1   1   29.95    2.36
   5  -1   1   30.55    1.90
   5  -1   1   29.54    1.82
   5  -1   1   34.68    2.38
   5  -1   1   30.12    2.03
   6  -1   1    2.42    0.18
   6  -1   1    2.64    0.31
   6  -1   1    2.31    0.29
   6  -1   1    2.75    0.36
   6  -1   1    2.76    0.31
   6  -1   1    1.82    0.51
   6  -1   1    2.65    0.32
   7  -1   1    3.76    0.37
   7  -1   1    4.24    0.38
   7  -1   1    4.11    0.45
   7  -1   1    3.54    0.44
   8  -1   1   -0.29    0.24
   8  -1   1    0.07    0.15
   8  -1   1   -0.12    0.25
   9  -1   1    0.02    0.17
   9  -1   1   -0.13    0.13
   9   0  -1    0.03    0.19
   8   0  -1    1.23    0.25
   8   0  -1    1.78    0.23
   8   0  -1    1.15    0.27
   7   0  -1    9.21    0.68
   7   0  -1    9.26    0.69
   7   0  -1    9.09    0.75
   7   0  -1    8.97    0.70
   6   0  -1    1.66    0.27
   6   0  -1    1.23    0.11
   6   0  -1    0.49    0.43
   6   0  -1    1.63    0.21
   6   0  -1    1.57    0.25
   6   0  -1    1.45    0.24
   6   0  -1    1.66    0.30
   5   0  -1   13.39    1.00
   5   0  -1   13.20    1.00
   5   0  -1   12.75    0.80
   5   0  -1   13.42    0.93
   5   0  -1   14.18    1.19
   5   0  -1   13.15    0.86
   5   0  -1   13.22    0.93
   5   0  -1   13.94    1.16
   4   0  -1   23.72    1.86
   4   0  -1   25.16    1.89
   3   0  -1   18.98    1.10
   3   0  -1   18.95    1.41
   3   0  -1   16.65    1.15
   3   0  -1   18.64    1.35
   3   0  -1   18.36    1.36
   3   0  -1   19.69    1.15
   3   0  -1   17.02    1.07
   3   0  -1   18.05    1.06
   3   0  -1   18.43    1.10
   3   0  -1   17.81    1.38
  -3   0   1   17.48    1.06
  -3   0   1   16.96    1.06
   2   0  -1   -0.02    0.07
   2   0  -1   -0.01    0.20
   2   0  -1    0.02    0.08
   2   0  -1   -0.07    0.22
   2   0  -1   -0.02    0.20
   2   0  -1    0.10    0.08
   2   0  -1    0.17    0.23
   2   0  -1    0.12    0.07
   2   0  -1   -0.02    0.07
   2   0  -1   -0.03    0.06
  -2   0   1   -0.05    0.09
  -2   0   1    0.12    0.09
   1   0  -1   46.04    3.41
   1   0  -1   45.44    2.86
   1   0  -1   50.65    2.73
   1   0  -1   45.09    2.97
   1   0  -1   47.57    2.86
   1   0  -1   45.91    3.29
   1   0  -1   49.62    2.73
   1   0  -1   47.56    2.97
   1   0  -1   42.99    3.37
   1   0  -1   42.00    3.38
  -1   0   1   50.24    2.74
  -1   0   1   53.30    2.74
   0   0  -1   71.99    4.95
   0   0  -1   82.82    4.55
   0   0  -1   82.01    4.55
   0   0  -1   78.54    4.77
   0   0   1   84.58    4.55
   0   0   1   74.31    4.95
   0   0   1   82.33    4.55
   0   0   1   74.55    4.76
  -1   0  -1   17.31    1.01
  -1   0  -1   16.86    1.01
   1   0   1   16.77    1.01
   1   0   1   16.55    1.08
   1   0   1   15.46    1.24
   1   0   1   16.42    1.24
   1   0   1   15.38    1.03
   1   0   1   17.64    1.01
   1   0   1   15.82    1.08
   1   0   1   16.69    1.03
  -2   0  -1   98.80    5.51
  -2   0  -1   97.41    5.51
   2   0   1   92.27    5.73
   2   0   1   84.86    6.82
   2   0   1   96.42    5.51
   2   0   1   89.02    5.97
   2   0   1   95.81    5.74
   2   0   1   93.70    6.78
   2   0   1   94.84    5.50
   2   0   1   93.63    6.78
   2   0   1  106.02    5.98
  -3   0  -1   65.72    3.72
  -3   0  -1   60.36    3.71
   3   0   1   66.84    4.01
   3   0   1   59.04    3.84
   3   0   1   68.34    4.59
   3   0   1   58.64    4.57
   3   0   1   62.23    3.71
   3   0   1   64.67    4.59
   3   0   1   60.46    3.71
   3   0   1   69.04    3.85
   3   0   1   60.61    4.01
   4   0   1    9.18    0.56
   4   0   1    8.10    0.55
   4   0   1    7.85    0.83
   4   0   1    8.64    0.59
   4   0   1    8.14    0.59
   4   0   1    9.42    0.83
   5   0   1   19.26    1.38
   5   0   1   17.52    1.28
   5   0   1   19.55    1.57
   5   0   1   20.18    1.57
   5   0   1   18.83    1.13
   5   0   1   17.46    1.20
   5   0   1   18.87    1.27
   6   0   1   16.82    1.08
   6   0   1   17.74    1.24
   6   0   1   18.92    1.18
   6   0   1   18.79    1.25
   6   0   1   16.64    1.55
   6   0   1   18.85    1.35
   7   0   1    3.38    0.43
   7   0   1    3.84    0.43
   7   0   1    4.08    0.44
   8   0   1    3.50    0.38
   8   0   1    3.53    0.32
   8   0   1    3.14    0.34
   9   0   1    0.32    0.11
   9  -1  -1    0.06    0.14
   9  -1  -1    0.07    0.13
   9  -1  -1    0.17    0.13
   8  -1  -1    1.80    0.24
   8  -1  -1    1.75    0.23
   8  -1  -1    1.56    0.28
   7  -1  -1    8.21    0.61
   7  -1  -1    8.72    0.67
   7  -1  -1    7.39    0.59
   7  -1  -1    8.93    0.58
   7  -1  -1    6.83    0.63
   7  -1  -1    8.25    0.64
   6  -1  -1    1.96    0.26
   6  -1  -1    1.47    0.42
   6  -1  -1    2.18    0.27
   6  -1  -1    2.07    0.23
   6  -1  -1    1.89    0.26
   6  -1  -1    1.76    0.46
   6  -1  -1    2.08    0.22
   6  -1  -1    1.82    0.27
   5  -1  -1   11.51    1.00
   5  -1  -1   11.36    1.02
   4  -1  -1    8.43    0.77
   4  -1  -1    7.94    0.73
   4  -1  -1    9.06    0.77
   4  -1  -1    8.25    0.76
   3  -1  -1    0.74    0.26
   3  -1  -1    0.42    0.23
   3  -1  -1    0.62    0.28
   3  -1  -1    0.07    0.31
   2  -1  -1    5.16    0.49
   2  -1  -1    4.52    0.44
   2  -1  -1    4.96    0.46
   2  -1  -1    4.65    0.45
   1  -1  -1   13.80    0.92
   1  -1  -1   13.84    0.96
   1  -1  -1   15.42    0.90
   1  -1  -1   14.44    1.12
  -1   1   1   16.18    0.90
  -1   1   1   15.88    0.91
   0  -1  -1   28.60    1.96
   0  -1  -1   32.84    1.83
   0  -1  -1   31.99    1.82
   0  -1  -1   29.43    2.22
   0  -1  -1   30.01    1.88
   0   1   1   29.19    2.20
   0   1   1   28.64    1.96
   0   1   1   32.19    1.83
   0   1   1   33.32    1.83
   0   1   1   31.60    1.88
  -1  -1  -1  101.61    5.48
  -1  -1  -1   85.20    5.69
  -1  -1  -1  102.32    5.47
  -1  -1  -1   86.61    5.93
   1   1   1   99.08    5.47
   1   1   1   91.94    6.70
   1   1   1   97.42    5.69
   1   1   1   88.14    5.93
  -2  -1  -1   24.79    1.54
  -2  -1  -1   27.34    1.54
   2   1   1   27.29    1.55
   2   1   1   22.56    1.54
   2   1   1   26.75    1.62
   2   1   1   22.25    1.61
   2   1   1   22.64    1.87
   2   1   1   26.12    1.54
   2   1   1   24.21    1.86
   2   1   1   24.25    1.53
   3   1   1   42.25    2.92
   3   1   1   45.79    2.99
   3   1   1   52.24    3.60
   3   1   1   53.60    3.14
   3   1   1   48.44    3.59
   3   1   1   50.55    3.00
   4   1   1    0.75    0.17
   4   1   1    0.83    0.38
   4   1   1    0.86    0.42
   4   1   1    0.93    0.20
   5   1   1   14.63    1.35
   5   1   1   14.60    1.05
   5   1   1   13.88    0.97
   5   1   1   15.43    0.99
   5   1   1   15.63    0.93
   5   1   1   14.60    1.06
   5   1   1   15.71    1.35
   5   1   1   16.58    1.14
   6   1   1    8.65    0.66
   6   1   1    8.41    0.54
   6   1   1    7.33    0.94
   6   1   1    9.56    0.69
   6   1   1    6.90    0.93
   6   1   1    8.15    0.64
   7   1   1    0.11    0.24
   7   1   1    0.05    0.18
   7   1   1    0.17    0.25
   8   1   1   13.32    0.81
   8   1   1   11.58    0.86
   9  -2  -1    0.42    0.15
   9  -2  -1    0.24    0.14
   8  -2  -1    0.63    0.25
   8  -2  -1    0.83    0.18
   8  -2  -1    1.03    0.26
   8  -2  -1    1.25    0.27
   7  -2  -1   17.90    1.34
   7  -2  -1   18.33    1.25
   7  -2  -1   18.74    1.25
   7  -2  -1   17.70    1.18
   7  -2  -1   17.37    1.24
   6  -2  -1   -0.26    0.33
   6  -2  -1    0.05    0.15
   6  -2  -1    0.10    0.21
   6  -2  -1    0.14    0.19
   6  -2  -1    0.29    0.18
   6  -2  -1    0.05    0.21
   6  -2  -1   -0.02    0.16
   6  -2  -1    0.11    0.20
   5  -2  -1    0.95    0.34
   5  -2  -1    1.15    0.32
   5  -2  -1    2.28    0.42
   4  -2  -1   17.31    1.30
   4  -2  -1   18.79    1.40
   4  -2  -1   16.47    1.35
   4  -2  -1   17.40    1.38
   3  -2  -1   10.31    0.86
   3  -2  -1   10.50    0.63
   3  -2  -1    9.50    0.80
   3  -2  -1    9.64    0.85
   3  -2  -1   10.52    0.63
   3  -2  -1   10.28    0.66
   3  -2  -1    9.14    0.81
   3  -2  -1    9.54    0.63
   3  -2  -1   10.77    0.66
   3  -2  -1   10.36    0.62
  -3   2   1   10.97    0.63
  -3   2   1    9.83    0.62
   2  -2  -1    3.74    0.43
   2  -2  -1    3.78    0.29
   2  -2  -1    3.26    0.27
   2  -2  -1    3.03    0.39
   2  -2  -1    3.29    0.45
   2  -2  -1    3.59    0.31
   2  -2  -1    3.09    0.29
   2  -2  -1    3.55    0.30
   2  -2  -1    3.04    0.25
  -2   2   1    3.64    0.31
  -2   2   1    3.52    0.29
   1  -2  -1  270.68   18.79
   1  -2  -1  316.17   17.26
   1  -2  -1  308.88   18.26
   1  -2  -1  298.71   18.99
   1  -2  -1  315.06   17.26
   1  -2  -1  274.42   21.60
  -1   2   1  291.63   18.05
  -1   2   1  325.29   17.27
  -1   2   1  279.46   18.79
  -1   2   1  312.66   17.27
   0  -2  -1   23.84    1.58
   0  -2  -1   23.58    1.49
   0  -2  -1   21.60    1.75
   0   2   1   25.23    1.49
   0   2   1   24.93    1.57
   0   2   1   23.76    1.74
   0   2   1   24.57    1.50
   0   2   1   24.18    1.50
  -1  -2  -1    0.74    0.21
  -1  -2  -1    0.74    0.26
  -1  -2  -1    0.84    0.30
  -1  -2  -1    0.52    0.22
   1   2   1    1.07    0.25
   1   2   1    0.99    0.22
   1   2   1    0.43    0.23
   1   2   1    1.10    0.26
   1   2   1    0.92    0.29
  -2  -2  -1    0.22    0.22
  -2  -2  -1    0.10    0.22
   2   2   1    0.32    0.19
   2   2   1    0.17    0.18
   2   2   1    0.60    0.24
   2   2   1    0.19    0.29
   2   2   1    0.21    0.19
   3   2   1    4.37    0.62
   3   2   1    3.96    0.56
   3   2   1    3.94    0.40
   3   2   1    3.79    0.36
   4   2   1   11.08    0.73
   4   2   1    9.49    0.66
   4   2   1   10.02    0.74
   4   2   1   10.72    0.78
   4   2   1   11.35    1.04
   4   2   1   10.71    1.00
   4   2   1    9.74    0.76
   4   2   1   10.26    0.68
   4   2   1   10.32    0.70
   4   2   1   10.81    0.81
   5   2   1    3.02    0.38
   5   2   1    2.87    0.24
   5   2   1    3.12    0.36
   5   2   1    2.52    0.65
   5   2   1    2.76    0.35
   5   2   1    2.64    0.30
   5   2   1    2.68    0.28
   5   2   1    2.86    0.59
   5   2   1    2.64    0.35
   5   2   1    2.95    0.29
   6   2   1    2.87    0.34
   6   2   1    2.61    0.36
   6   2   1    2.82    0.25
   6   2   1    3.02    0.39
   7   2   1    1.08    0.18
   7   2   1    1.08    0.25
   7   2   1    1.23    0.26
   9  -3  -1    0.21    0.14
   9  -3  -1    0.13    0.12
   9  -3  -1   -0.10    0.18
   8  -3  -1   27.77    1.61
   8  -3  -1   25.70    1.72
   8  -3  -1   23.16    1.89
   7  -3  -1    1.35    0.22
   7  -3  -1    0.44    0.41
   7  -3  -1    1.09    0.25
   7  -3  -1    1.46    0.27
   7  -3  -1    1.46    0.22
   7  -3  -1    1.65    0.27
   6  -3  -1    1.61    0.25
   6  -3  -1    1.13    0.44
   6  -3  -1    1.38    0.23
   6  -3  -1    1.17    0.50
   6  -3  -1    1.77    0.22
   6  -3  -1    1.42    0.25
   6  -3  -1    1.36    0.26
   6  -3  -1    1.29    0.23
   5  -3  -1   17.76    1.52
   5  -3  -1   19.79    1.57
   4  -3  -1    4.69    0.55
   4  -3  -1    4.59    0.54
   4  -3  -1    4.25    0.29
   4  -3  -1    4.30    0.28
   4  -3  -1    3.49    0.41
   4  -3  -1    4.24    0.30
   4  -3  -1    4.28    0.28
   4  -3  -1    3.67    0.30
   3  -3  -1    1.00    0.35
   3  -3  -1    0.74    0.25
   3  -3  -1    0.56    0.14
   3  -3  -1    0.68    0.18
   3  -3  -1    0.46    0.13
  -3   3   1    0.74    0.19
  -3   3   1    0.44    0.18
   2  -3  -1   28.24    2.00
   2  -3  -1   32.11    2.43
   2  -3  -1   33.25    1.97
   2  -3  -1   33.51    1.99
   2  -3  -1   34.26    2.10
   2  -3  -1   29.86    2.09
   2  -3  -1   33.66    2.01
  -2   3   1   31.11    1.97
  -2   3   1   35.45    1.99
   1  -3  -1   44.65    2.63
   1  -3  -1   48.04    2.81
   1  -3  -1   44.33    2.68
   1  -3  -1   45.80    2.64
   1  -3  -1   43.39    3.18
  -1   3   1   42.40    2.64
  -1   3   1   44.60    2.63
  -1   3   1   41.56    2.67
  -1   3   1   41.85    2.80
  -1   3   1   37.81    3.10
   0  -3  -1    0.21    0.20
   0  -3  -1    0.40    0.24
   0  -3  -1    0.30    0.24
   0   3   1    0.35    0.22
   0   3   1    0.28    0.21
   0   3   1    0.31    0.20
   0   3   1    0.10    0.24
   0   3   1    0.10    0.24
  -1  -3  -1   19.35    1.34
  -1  -3  -1   19.04    1.32
   1   3   1   18.41    1.33
   1   3   1   20.29    1.51
   1   3   1   20.63    1.36
   1   3   1   17.40    1.31
   1   3   1   21.21    1.30
   2   3   1   24.74    1.97
   2   3   1   25.00    1.66
   2   3   1   27.50    1.76
   3   3   1   10.81    0.97
   3   3   1   11.36    0.76
   3   3   1    9.26    0.69
   3   3   1   11.61    0.84
   3   3   1    9.60    0.68
   3   3   1    9.88    0.61
   3   3   1   10.06    0.69
   3   3   1   11.39    1.05
   4   3   1    0.87    0.16
   4   3   1    0.93    0.23
   4   3   1    0.99    0.22
   4   3   1    0.89    0.26
   4   3   1    0.85    0.19
   4   3   1    0.95    0.19
   4   3   1    0.69    0.27
   4   3   1    0.72    0.63
   4   3   1    1.26    0.52
   5   3   1    0.15    0.14
   5   3   1    0.14    0.45
   5   3   1   -0.01    0.22
   5   3   1   -0.20    0.16
   5   3   1    0.15    0.15
   5   3   1    0.27    0.20
   6   3   1    0.49    0.21
   6   3   1    1.05    0.20
   6   3   1    0.77    0.17
   6   3   1    1.27    0.26
   7   3   1   -0.06    0.10
   7   3   1    0.01    0.15
   7   3   1    0.05    0.11
   9  -4  -1    7.84    0.60
   9  -4  -1    7.87    0.59
   8  -4  -1    1.18    0.21
   8  -4  -1    0.82    0.25
   8  -4  -1    0.58    0.17
   8  -4  -1    1.23    0.21
   7  -4  -1    1.56    0.23
   7  -4  -1    1.79    0.23
   7  -4  -1    1.53    0.25
   7  -4  -1    1.90    0.31
   7  -4  -1    1.58    0.26
   6  -4  -1   -0.07    0.21
   6  -4  -1    0.21    0.22
   6  -4  -1    0.08    0.21
   6  -4  -1    0.01    0.39
   6  -4  -1   -0.01    0.19
   6  -4  -1    0.00    0.16
   6  -4  -1    0.10    0.05
   5  -4  -1    0.19    0.14
   5  -4  -1    0.33    0.15
   5  -4  -1    0.16    0.16
   5  -4  -1    0.28    0.14
   5  -4  -1    0.26    0.09
   5  -4  -1    0.34    0.17
   5  -4  -1    0.38    0.38
   4  -4  -1    6.16    0.68
   4  -4  -1    6.18    0.49
   4  -4  -1    6.61    0.45
   3  -4  -1    1.81    0.37
   3  -4  -1    1.83    0.28
   3  -4  -1    2.69    0.46
   2  -4  -1   66.45    4.32
   2  -4  -1   73.68    5.29
   2  -4  -1   73.85    4.43
   2  -4  -1   73.62    4.62
   1  -4  -1   -0.07    0.21
   1  -4  -1    0.12    0.16
   1  -4  -1    0.07    0.23
  -1   4   1    0.00    0.25
   0  -4  -1    1.54    0.26
   0  -4  -1    1.56    0.30
   0  -4  -1    0.73    0.30
   0  -4  -1    1.23    0.31
   0   4   1    1.33    0.24
   0   4   1    1.05    0.34
   0   4   1    0.42    0.28
   0   4   1    1.38    0.28
   0   4   1    1.18    0.30
   1   4   1   26.99    2.08
   1   4   1   28.00    1.78
   1   4   1   27.24    1.89
   2   4   1    1.01    0.13
   2   4   1    0.98    0.36
   2   4   1    0.81    0.30
   2   4   1    1.45    0.32
   3   4   1    0.77    0.18
   3   4   1    0.05    0.48
   3   4   1    0.64    0.11
   3   4   1    0.83    0.34
   3   4   1    0.71    0.30
   3   4   1    0.88    0.47
   3   4   1    0.71    0.16
   3   4   1    0.77    0.20
   4   4   1    6.44    0.50
   4   4   1    5.69    0.47
   4   4   1    5.67    0.77
   4   4   1    6.01    0.52
   4   4   1    5.33    0.46
   5   4   1    0.40    0.12
   5   4   1    0.28    0.21
   5   4   1    0.35    0.24
   5   4   1    0.04    0.16
   6   4   1    0.01    0.11
   6   4   1    0.23    0.15
   6   4   1   -0.06    0.18
   7   4   1    2.54    0.21
   9  -5  -1    4.11    0.37
   9  -5  -1    4.10    0.33
   9  -5  -1    3.56    0.33
   8  -5  -1    0.23    0.25
   8  -5  -1    0.15    0.22
   7  -5  -1    1.27    0.28
   7  -5  -1    0.93    0.25
   7  -5  -1    1.01    0.20
   7  -5  -1    0.55    0.20
   6  -5  -1   13.36    0.91
   6  -5  -1   13.35    0.94
   6  -5  -1   12.50    0.80
   6  -5  -1   14.03    1.04
   6  -5  -1   10.62    1.22
   6  -5  -1   13.75    0.94
   5  -5  -1   11.36    0.77
   5  -5  -1   11.48    0.79
   5  -5  -1   10.99    0.86
   5  -5  -1   11.29    0.80
   5  -5  -1   10.35    0.72
   5  -5  -1   11.30    0.80
   5  -5  -1   10.53    0.71
   5  -5  -1   11.22    0.70
   5  -5  -1   12.02    1.13
   4  -5  -1    9.57    0.80
   4  -5  -1    9.33    0.67
   4  -5  -1   10.69    0.72
   4  -5  -1    9.49    0.66
   4  -5  -1   11.24    0.78
   4  -5  -1   11.42    0.99
   4  -5  -1   10.24    0.73
   4  -5  -1   10.41    0.71
   3  -5  -1    0.52    0.22
   3  -5  -1    0.59    0.36
   3  -5  -1    0.34    0.34
   3  -5  -1    0.58    0.27
   2  -5  -1    6.26    0.64
   2  -5  -1    5.91    0.58
   1  -5  -1   -0.09    0.25
   1  -5  -1   -0.25    0.28
   1  -5  -1    0.06    0.26
   1   5   1   28.96    1.81
   1   5   1   27.68    1.92
   1   5   1   25.11    1.59
   2   5   1    0.56    0.11
   2   5   1    0.76    0.20
   2   5   1    0.36    0.31
   2   5   1    0.31    0.23
   3   5   1    0.12    0.08
   3   5   1    0.15    0.18
   3   5   1   -0.09    0.28
   3   5   1   -0.22    0.20
   3   5   1    0.01    0.21
   4   5   1    4.70    0.38
   4   5   1    4.42    0.36
   4   5   1    4.54    0.37
   4   5   1    4.14    0.39
   5   5   1    0.87    0.17
   5   5   1    0.95    0.16
   5   5   1    1.33    0.18
   6   5   1    1.90    0.16
   9  -6  -1    0.00    0.15
   9  -6  -1   -0.07    0.13
   8  -6  -1    0.40    0.21
   8  -6  -1    0.76    0.20
   7  -6  -1    6.43    0.56
   7  -6  -1    6.39    0.53
   7  -6  -1    6.74    0.57
   6  -6  -1   -0.08    0.12
   6  -6  -1    0.06    0.16
   6  -6  -1    0.35    0.24
   6  -6  -1    0.24    0.26
   6  -6  -1    0.05    0.46
   5  -6  -1    7.74    0.48
   5  -6  -1    7.07    0.58
   5  -6  -1    6.63    0.48
   5  -6  -1    6.78    0.57
   5  -6  -1    6.34    0.53
   5  -6  -1    7.22    0.62
   5  -6  -1    7.53    0.86
   5  -6  -1    6.45    0.51
   4  -6  -1    7.68    0.91
   4  -6  -1    6.93    0.43
   4  -6  -1    7.74    0.51
   4  -6  -1    6.94    0.63
   4  -6  -1    6.81    0.53
   4  -6  -1    7.26    0.52
   4  -6  -1    7.80    0.57
   4  -6  -1    6.94    0.61
   4  -6  -1    7.23    0.58
   3  -6  -1    3.53    0.46
   3  -6  -1    3.42    0.33
   3  -6  -1    3.52    0.41
   3  -6  -1    3.39    0.25
   3  -6  -1    5.65    0.74
   3  -6  -1    3.43    0.36
   2  -6  -1   13.02    1.06
   2  -6  -1   11.01    0.89
   2  -6  -1   14.42    1.18
   2  -6  -1   14.54    1.00
   2  -6  -1   14.37    0.81
   1  -6  -1    0.06    0.09
   1   6   1    6.96    0.45
   2   6   1    3.15    0.24
   2   6   1    2.80    0.31
   2   6   1    3.19    0.32
   3   6   1    4.78    0.45
   3   6   1    4.61    0.40
   3   6   1    6.01    0.44
   3   6   1    4.75    0.31
   3   6   1    5.24    0.45
   4   6   1    4.93    0.39
   4   6   1    4.89    0.38
   4   6   1    5.14    0.38
   5   6   1    0.20    0.11
   5   6   1    0.42    0.09
   9  -7  -1    0.60    0.14
   8  -7  -1    0.50    0.24
   8  -7  -1    0.35    0.15
   7  -7  -1    4.00    0.46
   7  -7  -1    4.03    0.41
   7  -7  -1    4.43    0.29
   6  -7  -1    0.27    0.13
   6  -7  -1    0.13    0.28
   6  -7  -1    0.11    0.23
   5  -7  -1    1.41    0.20
   5  -7  -1    1.63    0.27
   5  -7  -1    0.63    0.51
   5  -7  -1    1.34    0.29
   5  -7  -1    1.63    0.19
   5  -7  -1    1.99    0.22
   4  -7  -1    2.77    0.27
   4  -7  -1    2.49    0.24
   4  -7  -1    2.07    0.31
   4  -7  -1    0.89    0.51
   4  -7  -1    2.59    0.28
   4  -7  -1    2.38    0.37
   3  -7  -1    4.02    0.28
   3  -7  -1    3.00    0.62
   3  -7  -1    3.57    0.46
   3  -7  -1    3.67    0.38
   3  -7  -1    4.00    0.41
   3  -7  -1    4.42    0.54
   2  -7  -1    0.34    0.17
   2  -7  -1    0.24    0.13
   2  -7  -1   -0.15    0.31
   1  -7  -1    2.95    0.27
   0   7   1    3.81    0.30
   1   7   1    2.80    0.24
   2   7   1    0.81    0.11
   2   7   1    0.97    0.22
   2   7   1    0.89    0.21
   3   7   1    2.13    0.25
   3   7   1    2.28    0.23
   3   7   1    2.40    0.29
   4   7   1    0.65    0.14
   4   7   1    0.71    0.11
   8  -8  -1    0.91    0.15
   8  -8  -1    0.71    0.21
   7  -8  -1    0.06    0.15
   7  -8  -1    0.04    0.18
   6  -8  -1    2.80    0.31
   6  -8  -1    2.95    0.27
   6  -8  -1    2.67    0.32
   5  -8  -1    0.18    0.17
   5  -8  -1   -0.02    0.18
   5  -8  -1    0.06    0.19
   4  -8  -1    2.60    0.32
   4  -8  -1    2.78    0.30
   4  -8  -1    2.75    0.30
   3  -8  -1    0.15    0.10
   3  -8  -1   -0.01    0.21
   3  -8  -1    0.25    0.17
   2  -8  -1    0.82    0.16
   2  -8  -1    0.92    0.25
   1  -8  -1    9.71    0.61
   0  -8  -1    1.35    0.18
   0   8   1    0.83    0.15
   1   8   1    0.23    0.16
   1   8   1    0.48    0.13
   1   8   1    0.50    0.11
   2   8   1    0.03    0.16
   2   8   1    0.02    0.10
   2   8   1    0.07    0.05
   3   8   1    0.05    0.09
   7  -9  -1    2.28    0.29
   7  -9  -1    1.87    0.21
   6  -9  -1   11.86    0.80
   5  -9  -1    4.75    0.39
   5  -9  -1    4.52    0.38
   4  -9  -1    0.45    0.23
   4  -9  -1    1.08    0.17
   3  -9  -1   13.91    0.90
   3  -9  -1   14.32    0.93
   3  -9  -1   12.63    0.80
   2  -9  -1    0.83    0.17
   2  -9  -1    0.75    0.21
   2  -9  -1    0.58    0.11
   1  -9  -1    0.12    0.13
   1  -9  -1    0.11    0.11
  -1   9   1    0.10    0.11
   0  -9  -1    3.22    0.25
   0   9   1    3.34    0.22
   0   9   1    2.79    0.25
  -1  -9  -1    0.41    0.08
   1   9   1    0.62    0.07
   1   9   1    0.58    0.12
   6 -10  -1   10.86    0.71
   5 -10  -1    0.00    0.12
   4 -10  -1    3.73    0.30
   3 -10  -1   20.28    1.29
   2 -10  -1    4.04    0.29
   2 -10  -1    3.65    0.23
   2 -10  -1    3.83    0.30
  -2  10   1    3.79    0.25
   1 -10  -1    4.56    0.26
  -1  10   1    3.73    0.26
   1 -10   2    0.36    0.10
   2 -10   2   10.92    0.73
   3 -10   2    3.81    0.31
   4 -10   2    0.92    0.16
   5 -10   2    0.13    0.12
   1   9  -2    7.64    0.51
   1   9  -2    6.81    0.51
   3  -9   2    5.01    0.41
   4  -9   2    0.44    0.24
   4  -9   2    0.34    0.17
   4  -9   2    0.29    0.19
   5  -9   2   14.56    0.96
   5  -9   2   14.38    0.92
   6  -9   2    0.74    0.19
   6  -9   2    1.10    0.13
   6  -9   2    0.70    0.16
   7  -9   2    0.40    0.12
   3   8  -2    0.45    0.11
   3   8  -2    0.44    0.12
   2   8  -2    0.08    0.13
   0   8  -2    0.11    0.13
   0  -8   2    0.20    0.15
   1  -8   2    0.44    0.16
   2  -8   2   -0.10    0.13
   2  -8   2    0.23    0.26
   3  -8   2    4.70    0.47
   4  -8   2    0.16    0.19
   4  -8   2    0.69    0.22
   4  -8   2    0.34    0.25
   4  -8   2    0.53    0.20
   5  -8   2    0.11    0.13
   5  -8   2    0.08    0.15
   5  -8   2   -0.03    0.17
   5  -8   2    0.15    0.18
   6  -8   2    0.22    0.13
   6  -8   2    0.26    0.17
   6  -8   2    0.18    0.22
   7  -8   2   -0.15    0.20
   7  -8   2    0.12    0.07
   8  -8   2    1.05    0.17
   4   7  -2    2.96    0.26
   4   7  -2    2.61    0.24
   3   7  -2    3.14    0.34
   3   7  -2    3.49    0.32
   3   7  -2    3.38    0.37
   2   7  -2    0.10    0.20
   1   7  -2    4.88    0.35
   0   7  -2    3.29    0.29
   1  -7   2    4.10    0.33
   2  -7   2    7.03    0.72
   2  -7   2    8.36    0.90
   2  -7   2    7.86    0.51
   3  -7   2    8.46    0.62
   3  -7   2    9.43    0.96
   3  -7   2    9.41    0.56
   3  -7   2    8.39    0.71
   3  -7   2    8.38    0.82
   4  -7   2    0.03    0.06
   4  -7   2    0.09    0.19
   4  -7   2    0.14    0.19
   4  -7   2   -0.07    0.27
   4  -7   2    0.13    0.17
   4  -7   2    0.19    0.20
   4  -7   2    0.03    0.43
   5  -7   2    8.76    0.73
   5  -7   2    8.96    0.61
   5  -7   2    8.55    0.59
   5  -7   2    8.12    0.67
   6  -7   2    1.74    0.31
   6  -7   2    1.72    0.24
   6  -7   2    2.10    0.23
   7  -7   2    0.09    0.24
   7  -7   2    0.07    0.08
   7  -7   2    0.05    0.15
   8  -7   2    5.93    0.44
   5   6  -2    1.40    0.19
   5   6  -2    1.51    0.15
   4   6  -2    4.54    0.38
   4   6  -2    4.43    0.36
   4   6  -2    4.43    0.38
   3   6  -2   12.38    0.83
   3   6  -2   13.86    0.86
   3   6  -2   10.90    0.81
   2   6  -2    1.07    0.38
   2   6  -2    1.63    0.25
   2   6  -2    1.44    0.17
   1   6  -2    7.54    0.49
   1  -6   2   -0.09    0.14
   1  -6   2   -0.24    0.33
   2  -6   2    7.13    0.77
   2  -6   2    7.49    0.69
   2  -6   2    7.75    0.66
   2  -6   2    6.60    0.55
   2  -6   2    7.21    0.47
   3  -6   2   21.36    1.48
   3  -6   2   19.55    1.51
   3  -6   2   21.13    1.42
   3  -6   2   20.18    1.71
   3  -6   2   20.47    1.26
   3  -6   2   18.27    1.33
   3  -6   2   21.96    1.21
   4  -6   2    1.26    0.32
   4  -6   2    1.65    0.25
   4  -6   2    1.69    0.52
   4  -6   2    1.90    0.28
   4  -6   2    1.92    0.34
   4  -6   2    1.88    0.21
   4  -6   2    1.76    0.22
   4  -6   2    1.47    0.13
   5  -6   2   13.56    0.98
   5  -6   2   11.94    0.85
   5  -6   2   12.69    0.79
   5  -6   2   11.04    0.83
   5  -6   2   12.77    0.88
   5  -6   2   11.68    1.20
   5  -6   2   12.47    0.80
   5  -6   2   10.49    0.85
   5  -6   2   12.14    0.91
   6  -6   2    1.29    0.20
   6  -6   2    1.41    0.29
   6  -6   2    1.08    0.21
   6  -6   2    0.67    0.53
   6  -6   2    1.15    0.16
   7  -6   2    0.40    0.18
   7  -6   2    0.00    0.26
   7  -6   2    0.29    0.18
   7  -6   2    0.49    0.09
   8  -6   2    6.80    0.51
   8  -6   2    6.74    0.60
   9  -6   2    0.06    0.09
   9  -6   2    0.18    0.15
   6   5  -2    4.96    0.37
   6   5  -2    4.67    0.32
   5   5  -2    1.37    0.25
   5   5  -2    1.35    0.20
   4   5  -2    9.52    0.66
   4   5  -2    9.05    0.65
   4   5  -2    8.91    0.64
   3   5  -2    3.11    0.50
   3   5  -2    3.67    0.35
   3   5  -2    3.54    0.65
   3   5  -2    3.99    0.47
   3   5  -2    4.05    0.36
   3   5  -2    3.42    0.37
   3   5  -2    3.96    0.26
   2   5  -2    0.18    0.10
   2   5  -2   -0.02    0.33
   2   5  -2    0.09    0.18
   2   5  -2    0.03    0.26
   2   5  -2    0.02    0.25
   1   5  -2    2.79    0.39
   1   5  -2    2.12    0.42
   1   5  -2    1.96    0.20
   1   5  -2    2.44    0.40
   0   5  -2    3.16    0.48
   0  -5   2    2.70    0.41
  -1   5  -2    0.32    0.27
   1  -5   2   -0.10    0.24
   1  -5   2    0.22    0.35
   1  -5   2    0.14    0.26
   2  -5   2   11.61    0.87
   2  -5   2   12.35    0.92
   2  -5   2   11.79    1.06
   3  -5   2    2.98    0.36
   3  -5   2    2.24    0.20
   3  -5   2    2.46    0.36
   3  -5   2    2.92    0.52
   4  -5   2    0.48    0.20
   4  -5   2    0.74    0.23
   4  -5   2    0.84    0.15
   4  -5   2    0.53    0.23
   4  -5   2    0.61    0.42
   4  -5   2    0.72    0.17
   4  -5   2    0.72    0.20
   4  -5   2    0.72    0.19
   4  -5   2    0.63    0.16
   5  -5   2    9.44    0.59
   5  -5   2    9.08    0.96
   5  -5   2    8.93    0.67
   5  -5   2    9.15    0.74
   5  -5   2    8.33    0.61
   5  -5   2    8.13    0.66
   5  -5   2    8.98    0.66
   6  -5   2   30.39    2.15
   6  -5   2   29.37    1.94
   6  -5   2   26.22    1.93
   6  -5   2   28.59    1.73
   6  -5   2   29.64    2.38
   7  -5   2    0.11    0.19
   7  -5   2    0.26    0.18
   7  -5   2   -0.06    0.25
   8  -5   2    1.40    0.22
   8  -5   2    0.86    0.18
   8  -5   2    1.11    0.25
   9  -5   2    9.78    0.69
   9  -5   2   10.15    0.71
   7   4  -2    0.67    0.20
   6   4  -2    2.29    0.28
   6   4  -2    2.16    0.22
   6   4  -2    1.77    0.22
   5   4  -2    2.29    0.31
   5   4  -2    1.89    0.24
   5   4  -2    2.22    0.31
   4   4  -2    0.10    0.22
   4   4  -2    0.13    0.44
   4   4  -2    0.23    0.23
   4   4  -2    0.03    0.14
   4   4  -2    0.20    0.17
   4   4  -2   -0.05    0.21
   4   4  -2    0.20    0.18
   3   4  -2    7.80    0.62
   3   4  -2    5.72    0.51
   3   4  -2    6.12    0.49
   3   4  -2    7.14    0.51
   3   4  -2    7.81    0.65
   3   4  -2    7.71    0.80
   3   4  -2    7.01    0.42
   2   4  -2   12.71    1.11
   2   4  -2   12.61    0.90
   2   4  -2   11.40    0.94
   1   4  -2    0.74    0.27
   1   4  -2    1.05    0.27
   1   4  -2    0.75    0.37
   0   4  -2    6.91    0.65
   0   4  -2    7.98    0.62
   0   4  -2    7.46    0.71
   0   4  -2    7.43    0.71
   0   4  -2    8.18    0.66
   0  -4   2    6.86    0.71
   0  -4   2    6.35    0.68
   0  -4   2    7.83    0.62
   0  -4   2    8.11    0.71
   0  -4   2    8.03    0.66
  -1   4  -2    3.02    0.44
   1  -4   2    2.96    0.46
   1  -4   2    2.60    0.41
   1  -4   2    3.32    0.38
   1  -4   2    3.30    0.40
   1  -4   2    3.14    0.42
   2  -4   2   12.23    0.86
   2  -4   2   11.22    1.00
   2  -4   2   10.00    0.88
   2  -4   2   12.29    0.82
   3  -4   2   -0.09    0.30
   3  -4   2   -0.12    0.21
   3  -4   2    0.36    0.21
   4  -4   2    1.07    0.40
   4  -4   2    0.62    0.19
   4  -4   2    1.06    0.39
   4  -4   2    0.88    0.20
   5  -4   2    4.19    0.42
   5  -4   2    3.86    0.32
   5  -4   2    2.89    0.59
   5  -4   2    4.11    0.39
   5  -4   2    4.04    0.41
   5  -4   2    4.37    0.39
   5  -4   2    4.02    0.55
   5  -4   2    4.50    0.31
   6  -4   2    0.83    0.26
   6  -4   2    0.53    0.17
   6  -4   2    0.10    0.44
   6  -4   2    0.36    0.24
   6  -4   2    0.43    0.20
   6  -4   2    0.43    0.10
   6  -4   2    0.61    0.53
   7  -4   2    0.09    0.23
   7  -4   2    0.06    0.20
   7  -4   2    0.02    0.24
   7  -4   2    0.18    0.26
   8  -4   2    6.86    0.52
   8  -4   2    5.77    0.57
   8  -4   2    7.43    0.55
   9  -4   2   21.57    1.46
   8   3  -2   -0.11    0.11
   7   3  -2    3.39    0.36
   7   3  -2    4.14    0.35
   6   3  -2    0.02    0.21
   6   3  -2   -0.14    0.25
   6   3  -2    0.10    0.11
   5   3  -2    0.26    0.20
   5   3  -2    0.29    0.17
   5   3  -2   -0.02    0.20
   5   3  -2    0.22    0.10
   5   3  -2   -0.01    0.20
   5   3  -2    0.02    0.45
   5   3  -2    0.20    0.16
   4   3  -2   11.25    0.69
   4   3  -2   10.50    0.76
   4   3  -2   10.75    0.71
   4   3  -2   11.58    1.07
   4   3  -2   10.08    0.82
   4   3  -2   11.12    0.75
   4   3  -2   10.58    0.77
   4   3  -2   10.09    0.82
   3   3  -2    9.31    0.68
   3   3  -2    9.94    0.94
   3   3  -2    9.97    0.74
   3   3  -2    8.21    0.83
   2   3  -2   59.71    4.44
   2   3  -2   61.76    3.75
   2   3  -2   60.85    3.92
   1   3  -2    8.14    0.70
   1   3  -2    9.28    0.81
   1   3  -2    8.91    0.74
   1   3  -2    9.83    0.68
   1   3  -2    9.86    0.72
  -1  -3   2    9.64    0.76
  -1  -3   2    8.94    0.75
   0   3  -2    3.32    0.35
   0   3  -2    3.07    0.33
   0   3  -2    3.59    0.40
   0   3  -2    3.18    0.41
   0  -3   2    3.17    0.44
   0  -3   2    3.11    0.34
   0  -3   2    3.59    0.36
   0  -3   2    3.66    0.44
  -1   3  -2   51.31    2.97
  -1   3  -2   47.90    3.03
  -1   3  -2   46.21    3.16
  -1   3  -2   51.01    2.97
   1  -3   2   47.00    2.97
   1  -3   2   47.79    2.96
   1  -3   2   51.58    3.03
   1  -3   2   49.00    3.62
   1  -3   2   50.33    3.16
  -2   3  -2    3.63    0.41
  -2   3  -2    4.32    0.40
   2  -3   2    3.14    0.37
   2  -3   2    4.02    0.34
   2  -3   2    4.01    0.49
   2  -3   2    4.11    0.37
   2  -3   2    3.67    0.41
   2  -3   2    3.80    0.50
   2  -3   2    2.73    0.30
   3  -3   2    0.30    0.31
   3  -3   2    0.20    0.17
   3  -3   2    0.27    0.19
   3  -3   2    0.06    0.22
   3  -3   2    0.34    0.33
   3  -3   2    0.17    0.19
   4  -3   2   49.06    3.48
   4  -3   2   46.20    3.51
   4  -3   2   43.59    2.99
   4  -3   2   48.24    2.86
   5  -3   2    6.53    0.49
   5  -3   2    6.63    0.75
   5  -3   2    5.68    0.40
   5  -3   2    6.36    0.50
   5  -3   2    5.65    0.49
   5  -3   2    5.73    0.49
   5  -3   2    6.07    0.53
   5  -3   2    6.40    0.74
   6  -3   2    1.54    0.25
   6  -3   2    2.01    0.28
   6  -3   2    2.39    0.26
   6  -3   2    1.64    0.17
   6  -3   2    2.17    0.24
   6  -3   2    1.44    0.43
   6  -3   2    1.91    0.29
   7  -3   2    4.83    0.46
   7  -3   2    4.28    0.44
   7  -3   2    3.60    0.42
   7  -3   2    4.19    0.42
   8  -3   2    0.28    0.19
   8  -3   2    0.10    0.17
   8  -3   2    0.17    0.26
   9  -3   2    6.26    0.51
   9  -3   2    7.68    0.52
   8   2  -2   19.41    1.36
   8   2  -2   21.43    1.29
   7   2  -2    4.42    0.39
   7   2  -2    4.56    0.40
   6   2  -2    2.26    0.33
   6   2  -2    1.93    0.20
   6   2  -2    2.44    0.27
   6   2  -2    2.30    0.26
   6   2  -2    2.21    0.27
   6   2  -2    1.45    0.55
   5   2  -2   44.24    3.15
   5   2  -2   52.78    3.85
   5   2  -2   55.73    3.12
   5   2  -2   43.28    3.32
   5   2  -2   53.26    3.02
   5   2  -2   54.94    3.64
   5   2  -2   51.14    3.33
   4   2  -2    4.07    0.57
   4   2  -2    4.78    0.44
   4   2  -2    5.83    0.49
   4   2  -2    5.62    0.44
   4   2  -2    5.02    0.40
   4   2  -2    5.26    0.42
   4   2  -2    4.48    0.34
   4   2  -2    5.21    0.36
   4   2  -2    4.60    0.42
   4   2  -2    5.90    0.75
   3   2  -2   18.01    1.22
   3   2  -2   17.44    1.44
   3   2  -2   17.31    1.39
   3   2  -2   18.44    1.15
   2   2  -2   99.59    6.18
   2   2  -2  103.64    7.57
   2   2  -2  105.45    6.18
   2   2  -2  106.34    6.41
   2   2  -2  111.71    6.69
  -2  -2   2  105.61    6.20
  -2  -2   2  105.42    6.19
   1   2  -2    9.21    0.68
   1   2  -2    9.08    0.64
   1   2  -2    9.59    0.67
   1   2  -2    9.89    0.68
   1   2  -2    9.58    0.78
  -1  -2   2    8.83    0.68
  -1  -2   2    9.35    0.70
  -1  -2   2   10.23    0.70
  -1  -2   2    8.37    0.64
   0   2  -2   12.70    0.83
   0   2  -2   11.83    0.85
   0   2  -2   12.51    0.84
   0   2  -2   12.22    0.81
   0  -2   2   12.29    0.81
   0  -2   2   12.45    0.85
   0  -2   2   12.08    0.85
   0  -2   2   12.00    0.85
  -1   2  -2 1000.00   52.35
  -1   2  -2  816.78   56.88
  -1   2  -2  814.13   54.70
  -1   2  -2  977.56   52.31
   1  -2   2  897.39   56.96
   1  -2   2  865.07   64.31
   1  -2   2  944.82   52.21
   1  -2   2  959.11   52.23
   1  -2   2  871.35   54.71
  -2   2  -2    7.46    0.56
  -2   2  -2    7.97    0.57
   2  -2   2    7.75    0.55
   2  -2   2    6.60    0.53
   2  -2   2    7.77    0.66
   2  -2   2    7.92    0.52
   2  -2   2    6.18    0.50
   2  -2   2    7.17    0.55
   2  -2   2    8.02    0.69
   2  -2   2    7.94    0.56
  -3   2  -2    4.90    0.44
  -3   2  -2    4.84    0.45
   3  -2   2    6.68    0.61
   3  -2   2    5.26    0.57
   3  -2   2    5.40    0.44
   3  -2   2    4.62    0.39
   3  -2   2    5.25    0.41
   3  -2   2    5.86    0.40
   3  -2   2    5.05    0.44
   3  -2   2    5.76    0.43
   4  -2   2    4.83    0.35
   4  -2   2    5.77    0.64
   4  -2   2    5.47    0.36
   4  -2   2    4.54    0.58
   4  -2   2    4.77    0.38
   4  -2   2    5.58    0.39
   5  -2   2   -0.02    0.20
   5  -2   2    0.09    0.16
   5  -2   2    0.06    0.20
   5  -2   2    0.14    0.19
   5  -2   2    0.18    0.40
   5  -2   2    0.16    0.10
   6  -2   2    2.64    0.30
   6  -2   2    1.43    0.51
   6  -2   2    2.27    0.31
   6  -2   2    2.26    0.30
   6  -2   2    1.97    0.29
   6  -2   2    1.98    0.18
   7  -2   2   18.27    1.25
   7  -2   2   16.88    1.23
   7  -2   2   18.12    1.14
   7  -2   2   17.38    1.23
   8  -2   2    0.39    0.17
   8  -2   2    0.37    0.13
   8  -2   2    0.53    0.20
   9  -2   2    1.70    0.22
   9   1  -2    5.26    0.37
   9   1  -2    4.74    0.35
   8   1  -2   11.73    0.93
   8   1  -2   15.13    0.88
   7   1  -2    0.21    0.17
   7   1  -2    0.23    0.19
   7   1  -2    0.18    0.22
   7   1  -2   -0.08    0.14
   6   1  -2   15.39    1.12
   6   1  -2   15.79    0.99
   6   1  -2   15.10    1.04
   6   1  -2   12.96    1.02
   6   1  -2   11.98    1.32
   6   1  -2   15.60    0.89
   5   1  -2   10.76    0.63
   5   1  -2    9.80    0.73
   5   1  -2   10.44    0.79
   5   1  -2   10.67    1.06
   5   1  -2    9.98    0.78
   5   1  -2   10.10    0.68
   5   1  -2    9.25    0.72
   4   1  -2    1.34    0.16
   4   1  -2    1.28    0.16
   4   1  -2    0.96    0.40
   4   1  -2    1.21    0.16
   4   1  -2    1.14    0.16
   4   1  -2    1.10    0.35
   3   1  -2    2.53    0.28
   3   1  -2    2.55    0.24
   3   1  -2    2.97    0.35
   3   1  -2    2.86    0.24
   3   1  -2    2.63    0.24
   3   1  -2    2.84    0.27
   3   1  -2    3.14    0.45
   3   1  -2    2.88    0.29
  -3  -1   2    2.82    0.32
  -3  -1   2    2.47    0.29
   2   1  -2    6.23    0.45
   2   1  -2    6.90    0.48
   2   1  -2    7.15    0.47
   2   1  -2    6.25    0.61
   2   1  -2    6.22    0.48
   2   1  -2    7.08    0.61
   2   1  -2    5.99    0.54
   2   1  -2    5.99    0.44
   2   1  -2    5.68    0.46
  -2  -1   2    6.57    0.50
  -2  -1   2    6.51    0.50
   1   1  -2  135.12    8.15
   1   1  -2  139.33    8.49
   1   1  -2  126.44    9.60
   1   1  -2  137.59    7.81
   1   1  -2  133.07    9.33
  -1  -1   2  143.12    7.82
  -1  -1   2  129.24    8.49
  -1  -1   2  134.96    7.82
   0   1  -2    3.57    0.34
   0   1  -2    3.59    0.33
   0   1  -2    3.33    0.28
   0   1  -2    3.53    0.29
   0   1  -2    3.33    0.28
   0  -1   2    3.20    0.29
   0  -1   2    3.59    0.30
   0  -1   2    3.17    0.29
   0  -1   2    3.40    0.33
   0  -1   2    3.42    0.28
  -1   1  -2    0.27    0.14
  -1   1  -2    0.40    0.20
  -1   1  -2    0.18    0.20
   1  -1   2    0.19    0.22
   1  -1   2    0.17    0.15
   1  -1   2    0.42    0.18
   1  -1   2    0.20    0.14
   1  -1   2    0.01    0.09
  -2   1  -2   62.69    3.53
  -2   1  -2   67.82    3.53
   2  -1   2   60.43    3.65
   2  -1   2   59.24    3.53
   2  -1   2   62.98    3.81
   2  -1   2   60.60    3.53
   2  -1   2   51.90    3.65
   2  -1   2   55.01    3.80
   2  -1   2   58.67    4.33
   2  -1   2   61.29    4.36
  -3   1  -2   27.41    1.72
  -3   1  -2   28.27    1.72
   3  -1   2   27.94    2.12
   3  -1   2   27.45    1.71
   3  -1   2   30.39    2.14
   3  -1   2   30.14    1.75
   3  -1   2   30.40    1.83
   3  -1   2   27.39    1.72
   3  -1   2   26.11    1.83
   3  -1   2   28.34    2.14
   3  -1   2   27.63    1.75
   4  -1   2    0.04    0.21
   4  -1   2   -0.11    0.09
   4  -1   2   -0.06    0.09
   4  -1   2   -0.01    0.11
   4  -1   2   -0.03    0.12
   4  -1   2   -0.21    0.36
   4  -1   2   -0.06    0.28
   5  -1   2   35.79    2.30
   5  -1   2   37.09    2.21
   5  -1   2   35.48    2.46
   5  -1   2   37.87    2.47
   5  -1   2   41.62    2.87
   5  -1   2   36.92    2.48
   5  -1   2   36.94    2.68
   6  -1   2    0.12    0.10
   6  -1   2    0.27    0.18
   6  -1   2    0.38    0.25
   6  -1   2    0.24    0.24
   6  -1   2    0.25    0.20
   6  -1   2   -0.07    0.44
   7  -1   2   48.70    3.00
   7  -1   2   49.18    3.22
   7  -1   2   45.99    3.23
   7  -1   2   50.77    3.23
   8  -1   2    3.07    0.31
   8  -1   2    3.09    0.33
   9  -1   2    0.59    0.12
   9  -1   2    0.58    0.14
   9   0  -2   -0.15    0.18
   9   0  -2    0.16    0.13
   8   0  -2    0.02    0.19
   8   0  -2    0.16    0.24
   8   0  -2    0.06    0.17
   7   0  -2    0.51    0.17
   7   0  -2    0.89    0.25
   7   0  -2    0.55    0.21
   7   0  -2    0.71    0.20
   6   0  -2    2.34    0.27
   6   0  -2    1.99    0.24
   6   0  -2    0.90    0.44
   6   0  -2    2.61    0.33
   6   0  -2    2.06    0.25
   6   0  -2    2.11    0.31
   5   0  -2   17.56    1.28
   5   0  -2   18.11    1.38
   5   0  -2   17.55    1.44
   5   0  -2   16.60    1.26
   5   0  -2   17.89    1.11
   5   0  -2   16.38    1.18
   4   0  -2   32.29    2.39
   4   0  -2   32.31    2.44
   4   0  -2   32.30    2.36
   3   0  -2   21.82    1.31
   3   0  -2   19.09    1.55
   3   0  -2   21.23    1.25
   3   0  -2   21.57    1.55
   3   0  -2   21.01    1.25
   3   0  -2   20.80    1.31
   3   0  -2   21.12    1.58
   3   0  -2   20.90    1.20
   3   0  -2   19.21    1.20
   3   0  -2   20.52    1.56
  -3   0   2   20.95    1.20
  -3   0   2   20.21    1.20
   2   0  -2   86.13    5.00
   2   0  -2   80.15    6.15
   2   0  -2   82.77    6.18
   2   0  -2   84.44    5.22
   2   0  -2   90.39    6.02
   2   0  -2   91.61    5.47
   2   0  -2   85.67    5.44
   2   0  -2   89.74    6.25
   2   0  -2   80.10    4.99
   2   0  -2   88.63    5.22
  -2   0   2   85.52    5.00
  -2   0   2   93.44    5.00
   1   0  -2  113.99    7.95
   1   0  -2  119.32    7.68
   1   0  -2  136.73    8.02
   1   0  -2  132.00    7.31
   1   0  -2  121.37    7.64
   1   0  -2  136.75    7.31
   1   0  -2  116.08    8.75
  -1   0   2  127.19    7.31
  -1   0   2  136.71    7.31
   0   0  -2    2.98    0.26
   0   0  -2    3.12    0.28
   0   0  -2    3.17    0.29
   0   0  -2    3.09    0.24
   0   0   2    2.83    0.26
   0   0   2    3.70    0.30
   0   0   2    3.05    0.25
   0   0   2    3.42    0.30
  -1   0  -2   97.85    6.54
  -1   0  -2  107.74    6.03
  -1   0  -2  105.62    6.03
   1   0   2  104.70    6.03
   1   0   2  106.93    7.39
   1   0   2  112.13    6.54
   1   0   2   97.99    6.28
   1   0   2   94.65    7.39
  -2   0  -2  181.10    9.98
  -2   0  -2  175.66    9.97
   2   0   2  158.77   10.40
   2   0   2  178.96    9.97
   2   0   2  156.49   10.83
   2   0   2  190.64   12.27
   2   0   2  174.35   10.84
   2   0   2  173.16    9.97
   2   0   2  174.22   12.26
   2   0   2  161.02   12.36
   2   0   2  170.48   10.40
  -3   0  -2    9.87    0.70
   3   0   2    9.80    0.89
   3   0   2   10.68    0.68
   3   0   2    9.06    0.67
   3   0   2   10.42    0.66
   3   0   2    9.23    0.68
   3   0   2    8.94    0.74
   3   0   2   10.55    0.89
   3   0   2    9.52    0.69
   3   0   2    8.14    0.63
   4   0   2   26.12    2.12
   4   0   2   23.45    1.69
   4   0   2   29.07    1.70
   4   0   2   28.41    2.11
   4   0   2   29.36    1.78
   5   0   2   17.36    1.26
   5   0   2   19.28    1.27
   5   0   2   17.77    1.27
   5   0   2   18.34    1.55
   5   0   2   18.10    1.12
   5   0   2   19.63    1.59
   5   0   2   19.37    1.37
   5   0   2   18.53    1.19
   6   0   2    4.87    0.42
   6   0   2    4.84    0.35
   6   0   2    5.34    0.50
   6   0   2    4.14    0.65
   6   0   2    5.66    0.49
   7   0   2    7.87    0.63
   7   0   2    7.57    0.60
   7   0   2    7.81    0.61
   8   0   2    8.15    0.58
   8   0   2    7.07    0.53
   9  -1  -2    2.13    0.22
   8  -1  -2    1.44    0.26
   8  -1  -2    0.71    0.26
   8  -1  -2    0.83    0.18
   8  -1  -2    0.79    0.26
   7  -1  -2    2.08    0.30
   7  -1  -2    1.61    0.30
   7  -1  -2    2.12    0.26
   7  -1  -2    2.05    0.28
   7  -1  -2    2.17    0.31
   6  -1  -2   19.65    1.37
   6  -1  -2   21.76    1.50
   6  -1  -2   24.06    1.72
   6  -1  -2   18.68    1.37
   6  -1  -2   18.59    1.30
   6  -1  -2   19.88    1.29
   6  -1  -2   20.74    1.48
   6  -1  -2   20.51    1.38
   6  -1  -2   19.86    1.62
   5  -1  -2   20.97    1.73
   5  -1  -2   22.69    1.73
   5  -1  -2   23.42    1.76
   5  -1  -2   22.13    1.69
   4  -1  -2    0.26    0.28
   4  -1  -2    0.10    0.31
   4  -1  -2    0.09    0.25
   4  -1  -2    0.26    0.26
   3  -1  -2   34.31    2.44
   3  -1  -2   32.36    2.50
   3  -1  -2   34.89    2.49
   3  -1  -2   34.68    2.53
   2  -1  -2   16.33    1.00
   2  -1  -2   16.80    1.00
   2  -1  -2   15.73    1.26
   2  -1  -2   15.71    1.03
   2  -1  -2   17.41    1.07
   2  -1  -2   17.12    1.29
   2  -1  -2   15.94    1.07
   2  -1  -2   17.29    1.25
   2  -1  -2   17.70    1.03
   2  -1  -2   16.56    1.25
  -2   1   2   17.62    1.00
  -2   1   2   18.27    1.01
   1  -1  -2  159.67    8.60
   1  -1  -2  152.79    9.37
   1  -1  -2  154.57    8.60
   1  -1  -2  137.33    8.98
   1  -1  -2  142.10   10.69
   1  -1  -2  148.18    9.35
   1  -1  -2  150.40    9.05
  -1   1   2  138.83    9.35
  -1   1   2  151.52    8.60
  -1   1   2  153.72    8.59
   0  -1  -2    5.40    0.43
   0  -1  -2    4.94    0.38
   0  -1  -2    5.58    0.44
   0  -1  -2    5.63    0.44
   0  -1  -2    5.06    0.42
   0   1   2    5.60    0.45
   0   1   2    5.41    0.43
   0   1   2    5.19    0.43
   0   1   2    5.14    0.39
   0   1   2    5.02    0.42
  -1  -1  -2    1.27    0.25
  -1  -1  -2    1.40    0.26
  -1  -1  -2    1.37    0.21
  -1  -1  -2    1.44    0.23
   1   1   2    1.20    0.27
   1   1   2    1.66    0.33
   1   1   2    1.52    0.23
  -2  -1  -2    0.73    0.24
  -2  -1  -2    0.47    0.26
   2   1   2    0.36    0.18
   2   1   2    0.63    0.24
   2   1   2    0.87    0.21
   2   1   2    0.61    0.20
   2   1   2    0.67    0.31
   2   1   2    0.73    0.39
   2   1   2    0.75    0.18
   2   1   2    0.41    0.23
   3   1   2    0.95    0.42
   3   1   2    0.89    0.20
   3   1   2    0.89    0.35
   3   1   2    0.53    0.23
   4   1   2    8.49    0.61
   4   1   2    8.23    0.82
   4   1   2    6.99    0.50
   4   1   2    7.19    0.60
   4   1   2    8.21    0.63
   4   1   2    8.22    0.58
   4   1   2    7.81    0.53
   4   1   2    7.96    0.85
   5   1   2   10.61    0.74
   5   1   2   10.04    0.99
   5   1   2    9.08    0.62
   5   1   2    9.63    0.63
   5   1   2    9.42    0.62
   5   1   2    9.40    0.67
   5   1   2    9.84    0.69
   5   1   2    9.43    1.03
   5   1   2   10.22    0.72
   6   1   2   -0.04    0.53
   6   1   2    0.24    0.17
   6   1   2    0.09    0.19
   6   1   2    0.22    0.13
   6   1   2    0.19    0.18
   7   1   2    1.45    0.23
   7   1   2    0.94    0.19
   7   1   2    1.02    0.26
   8   1   2    0.06    0.13
   8   1   2   -0.02    0.15
   9  -2  -2    2.30    0.23
   9  -2  -2    1.19    0.24
   9  -2  -2    1.93    0.22
   8  -2  -2    4.65    0.41
   8  -2  -2    4.33    0.44
   8  -2  -2    5.19    0.42
   8  -2  -2    4.92    0.40
   8  -2  -2    5.20    0.45
   7  -2  -2    1.94    0.27
   7  -2  -2    2.14    0.29
   7  -2  -2    1.99    0.27
   7  -2  -2    2.14    0.29
   7  -2  -2    1.63    0.24
   7  -2  -2    1.87    0.28
   7  -2  -2    2.13    0.24
   6  -2  -2    3.61    0.37
   6  -2  -2    3.42    0.35
   6  -2  -2    3.35    0.37
   6  -2  -2    3.40    0.59
   6  -2  -2    3.26    0.32
   6  -2  -2    3.90    0.37
   6  -2  -2    3.30    0.37
   6  -2  -2    3.56    0.32
   6  -2  -2    3.71    0.33
   5  -2  -2    0.18    0.26
   5  -2  -2    0.32    0.25
   5  -2  -2    0.70    0.32
   5  -2  -2    0.88    0.41
   4  -2  -2    8.15    0.72
   4  -2  -2    7.95    0.69
   4  -2  -2    7.07    0.69
   4  -2  -2    7.68    0.73
   3  -2  -2   22.05    1.34
   3  -2  -2   19.47    1.55
   3  -2  -2   20.10    1.25
   3  -2  -2   22.00    1.28
   3  -2  -2   22.33    1.34
   3  -2  -2   22.03    1.62
   3  -2  -2   20.96    1.59
   3  -2  -2   20.38    1.25
   3  -2  -2   20.10    1.54
   3  -2  -2   21.13    1.28
  -3   2   2   19.32    1.25
  -3   2   2   21.80    1.24
   2  -2  -2   66.79    4.04
   2  -2  -2   57.18    4.66
   2  -2  -2   64.97    3.89
   2  -2  -2   73.60    4.22
   2  -2  -2   68.29    4.85
   2  -2  -2   62.36    4.21
   2  -2  -2   68.96    3.89
   2  -2  -2   62.10    4.04
  -2   2   2   67.91    3.90
  -2   2   2   74.50    3.91
   1  -2  -2    1.51    0.29
   1  -2  -2    1.97    0.34
   1  -2  -2    1.76    0.27
   1  -2  -2    2.06    0.24
   1  -2  -2    1.53    0.25
  -1   2   2    1.49    0.24
  -1   2   2    1.72    0.23
  -1   2   2    1.29    0.31
  -1   2   2    1.41    0.27
   0  -2  -2   31.01    1.83
   0  -2  -2   28.64    1.95
   0  -2  -2   28.96    2.17
   0  -2  -2   29.94    1.84
   0  -2  -2   29.26    1.85
   0   2   2   28.10    2.15
   0   2   2   30.45    1.85
   0   2   2   32.85    1.84
   0   2   2   29.15    1.94
   0   2   2   29.89    1.85
  -1  -2  -2   48.96    3.24
  -1  -2  -2   50.76    3.18
  -1  -2  -2   56.46    3.17
  -1  -2  -2   48.06    3.39
   1   2   2   56.25    3.40
   1   2   2   52.02    3.81
   1   2   2   55.73    3.18
   1   2   2   55.57    3.25
   1   2   2   50.92    3.18
   2   2   2   22.84    1.61
   2   2   2   24.05    1.89
   2   2   2   25.73    1.67
   2   2   2   26.38    1.59
   3   2   2    1.28    0.26
   3   2   2    1.55    0.40
   3   2   2    1.62    0.26
   3   2   2    1.78    0.58
   4   2   2    0.31    0.14
   4   2   2    0.38    0.22
   4   2   2    0.36    0.12
   4   2   2    0.66    0.40
   4   2   2    0.33    0.17
   4   2   2    0.34    0.22
   4   2   2    0.30    0.47
   4   2   2    0.27    0.18
   4   2   2    0.41    0.20
   5   2   2    5.49    0.46
   5   2   2    6.68    0.42
   5   2   2    5.90    0.54
   5   2   2    3.51    0.79
   5   2   2    6.17    0.42
   5   2   2    6.19    0.45
   5   2   2    5.48    0.50
   5   2   2    5.30    0.48
   6   2   2    1.09    0.19
   6   2   2    1.05    0.21
   6   2   2    1.19    0.29
   6   2   2    1.15    0.18
   7   2   2    1.04    0.21
   7   2   2    1.27    0.19
   7   2   2    0.99    0.20
   8   2   2    0.06    0.09
   9  -3  -2    1.25    0.22
   9  -3  -2    1.28    0.17
   9  -3  -2    1.81    0.21
   8  -3  -2    2.68    0.29
   8  -3  -2    2.99    0.32
   8  -3  -2    2.39    0.29
   8  -3  -2    3.11    0.37
   7  -3  -2    0.29    0.20
   7  -3  -2   -0.11    0.22
   7  -3  -2    0.04    0.14
   7  -3  -2    0.03    0.21
   7  -3  -2   -0.39    0.22
   7  -3  -2    0.04    0.16
   7  -3  -2    0.11    0.22
   6  -3  -2    2.52    0.32
   6  -3  -2    2.91    0.52
   6  -3  -2    3.06    0.29
   6  -3  -2    1.86    0.50
   6  -3  -2    3.06    0.34
   6  -3  -2    3.18    0.32
   6  -3  -2    3.63    0.37
   6  -3  -2    3.27    0.35
   6  -3  -2    2.73    0.32
   5  -3  -2   45.13    3.51
   5  -3  -2   47.81    3.45
   4  -3  -2    1.37    0.12
   4  -3  -2    1.22    0.37
   4  -3  -2    1.20    0.13
   4  -3  -2    1.11    0.13
   4  -3  -2    1.36    0.13
   4  -3  -2    1.76    0.41
   4  -3  -2    1.33    0.12
   3  -3  -2   43.30    3.02
   3  -3  -2   46.03    3.15
   3  -3  -2   44.88    2.59
   3  -3  -2   40.84    2.52
   3  -3  -2   42.52    2.70
   3  -3  -2   41.64    2.52
   3  -3  -2   38.05    2.58
   3  -3  -2   39.17    2.70
  -3   3   2   43.21    2.53
  -3   3   2   42.57    2.53
   2  -3  -2   38.53    2.63
   2  -3  -2   45.89    3.17
   2  -3  -2   45.69    2.76
   2  -3  -2   44.17    2.58
   2  -3  -2   41.06    2.75
   2  -3  -2   40.97    2.57
   2  -3  -2   44.05    2.64
  -2   3   2   42.78    2.60
  -2   3   2   41.75    2.58
   1  -3  -2    0.07    0.21
   1  -3  -2    0.64    0.29
   1  -3  -2    0.70    0.22
   1  -3  -2    0.42    0.22
   1  -3  -2    0.30    0.25
  -1   3   2    0.37    0.20
  -1   3   2    0.22    0.20
  -1   3   2    0.14    0.25
  -1   3   2    0.22    0.12
  -1   3   2    0.43    0.25
   0  -3  -2    2.41    0.32
   0  -3  -2    2.53    0.39
   0  -3  -2    2.14    0.29
   0  -3  -2    2.29    0.33
   0  -3  -2    2.97    0.34
   0   3   2    2.97    0.35
   0   3   2    2.42    0.30
   0   3   2    2.23    0.33
   0   3   2    2.24    0.37
   0   3   2    2.58    0.32
  -1  -3  -2   18.83    1.43
   1   3   2   23.45    1.48
   1   3   2   20.83    1.39
   1   3   2   21.74    1.44
   1   3   2   19.59    1.43
   1   3   2   22.40    1.63
   2   3   2    0.14    0.23
   2   3   2    0.23    0.29
   2   3   2    0.05    0.22
   3   3   2    1.33    0.41
   3   3   2    1.32    0.21
   3   3   2    1.22    0.54
   3   3   2    1.37    0.30
   3   3   2    1.26    0.30
   3   3   2    1.55    0.19
   3   3   2    1.70    0.21
   3   3   2    1.31    0.15
   4   3   2   28.34    1.80
   4   3   2   25.36    1.83
   4   3   2   31.08    2.35
   4   3   2   28.14    1.89
   4   3   2   28.78    1.77
   4   3   2   26.85    1.88
   4   3   2   28.35    2.25
   4   3   2   30.33    1.72
   4   3   2   27.22    1.93
   5   3   2    2.26    0.26
   5   3   2    1.91    0.30
   5   3   2    1.95    0.26
   5   3   2    2.13    0.29
   5   3   2    2.01    0.23
   6   3   2    1.76    0.29
   6   3   2    2.27    0.26
   6   3   2    1.99    0.22
   6   3   2    1.41    0.22
   7   3   2    0.32    0.17
   7   3   2    0.27    0.13
   9  -4  -2    1.85    0.23
   8  -4  -2   24.39    1.65
   8  -4  -2   24.04    1.53
   8  -4  -2   21.28    1.55
   8  -4  -2   26.26    1.65
   8  -4  -2   25.40    1.81
   7  -4  -2    2.23    0.33
   7  -4  -2    2.21    0.25
   7  -4  -2    2.33    0.30
   7  -4  -2    1.79    0.62
   7  -4  -2    2.69    0.28
   7  -4  -2    2.14    0.27
   6  -4  -2    4.77    0.30
   6  -4  -2    5.22    0.50
   6  -4  -2    5.20    0.42
   6  -4  -2    5.01    0.70
   6  -4  -2    4.69    0.45
   6  -4  -2    4.75    0.45
   6  -4  -2    5.15    0.44
   5  -4  -2    2.88    0.35
   5  -4  -2    3.40    0.36
   5  -4  -2    3.07    0.30
   5  -4  -2    3.05    0.31
   5  -4  -2    2.86    0.54
   5  -4  -2    2.98    0.23
   5  -4  -2    3.29    0.34
   4  -4  -2    5.83    0.40
   4  -4  -2    4.92    0.54
   4  -4  -2    4.91    0.62
   4  -4  -2    5.31    0.43
   3  -4  -2   32.36    2.11
   3  -4  -2   34.13    2.46
   3  -4  -2   29.38    2.35
   3  -4  -2   32.56    2.01
   2  -4  -2    6.92    0.56
   2  -4  -2    6.89    0.64
   2  -4  -2    7.88    0.71
   2  -4  -2    7.88    0.62
   1  -4  -2    0.13    0.23
   1  -4  -2    0.46    0.29
   1  -4  -2    0.01    0.20
   1  -4  -2   -0.34    0.27
   1  -4  -2    0.30    0.24
  -1   4   2   -0.12    0.26
   0  -4  -2   35.77    2.23
   0  -4  -2   29.50    2.12
   0  -4  -2   33.18    2.10
   0   4   2   29.00    2.18
   0   4   2   34.54    2.22
   0   4   2   33.92    2.11
   1   4   2    0.95    0.29
   1   4   2    0.57    0.28
   1   4   2    0.83    0.32
   2   4   2    0.24    0.17
   2   4   2    0.33    0.11
   2   4   2    0.55    0.28
   2   4   2    0.29    0.27
   2   4   2    0.22    0.30
   3   4   2   34.43    2.17
   3   4   2   34.84    2.11
   3   4   2   30.63    2.01
   3   4   2   33.16    1.94
   3   4   2   32.22    2.56
   3   4   2   32.42    2.29
   3   4   2   34.25    2.67
   3   4   2   32.79    2.06
   4   4   2    9.34    0.64
   4   4   2    9.51    0.72
   4   4   2    6.71    0.93
   4   4   2    9.69    0.64
   4   4   2    7.96    1.07
   4   4   2    9.63    0.67
   5   4   2    0.00    0.10
   5   4   2    0.01    0.22
   5   4   2    0.19    0.16
   5   4   2    0.00    0.16
   6   4   2    3.93    0.37
   6   4   2    4.00    0.32
   6   4   2    3.75    0.29
   9  -5  -2   12.66    0.97
   8  -5  -2    1.64    0.26
   8  -5  -2    1.33    0.29
   8  -5  -2    1.79    0.26
   7  -5  -2    8.13    0.63
   7  -5  -2    8.45    0.71
   7  -5  -2    7.78    0.64
   7  -5  -2    8.05    0.64
   6  -5  -2   37.07    2.32
   6  -5  -2   35.99    2.30
   6  -5  -2   36.19    2.20
   6  -5  -2   33.17    2.53
   6  -5  -2   30.05    2.73
   6  -5  -2   33.42    2.06
   5  -5  -2   22.37    1.35
   5  -5  -2   21.70    1.47
   5  -5  -2   22.39    1.82
   5  -5  -2   22.61    1.42
   5  -5  -2   21.43    1.36
   5  -5  -2   19.83    1.45
   5  -5  -2   22.47    1.62
   5  -5  -2   22.28    1.41
   5  -5  -2   20.25    1.31
   4  -5  -2   12.84    1.08
   4  -5  -2    9.71    0.72
   4  -5  -2   11.12    0.76
   4  -5  -2   11.66    0.76
   4  -5  -2   11.18    0.70
   4  -5  -2   10.07    0.77
   4  -5  -2   10.70    0.85
   4  -5  -2   12.01    0.81
   3  -5  -2   21.74    1.51
   3  -5  -2   18.92    1.71
   3  -5  -2   22.99    1.78
   3  -5  -2   23.15    1.43
   2  -5  -2    1.67    0.39
   2  -5  -2    1.49    0.33
   2  -5  -2    1.74    0.32
   1  -5  -2   15.76    1.21
   1  -5  -2   15.81    1.30
   1  -5  -2   16.68    1.13
   1   5   2    0.25    0.31
   1   5   2    0.20    0.10
   1   5   2    0.44    0.30
   2   5   2    7.87    0.70
   2   5   2    7.02    0.55
   2   5   2    7.46    0.58
   2   5   2    7.66    0.78
   2   5   2    7.85    0.48
   3   5   2    2.06    0.27
   3   5   2    2.20    0.70
   3   5   2    2.17    0.18
   3   5   2    2.47    0.25
   3   5   2    2.08    0.26
   4   5   2    0.71    0.18
   4   5   2    0.43    0.16
   4   5   2    0.48    0.16
   4   5   2    0.65    0.19
   5   5   2    0.31    0.13
   5   5   2    0.14    0.13
   5   5   2    0.00    0.15
   6   5   2    0.26    0.05
   9  -6  -2    0.00    0.14
   8  -6  -2    0.73    0.21
   8  -6  -2    0.75    0.18
   7  -6  -2    0.09    0.27
   7  -6  -2    0.23    0.17
   7  -6  -2    0.04    0.24
   6  -6  -2    4.02    0.44
   6  -6  -2    1.99    0.63
   6  -6  -2    4.07    0.37
   6  -6  -2    3.66    0.28
   6  -6  -2    3.91    0.45
   5  -6  -2   20.74    1.55
   5  -6  -2   20.46    1.31
   5  -6  -2   21.91    1.36
   5  -6  -2   20.46    1.40
   5  -6  -2   20.75    1.26
   5  -6  -2   19.78    1.33
   5  -6  -2   21.27    1.81
   5  -6  -2   19.39    1.40
   4  -6  -2    1.00    0.17
   4  -6  -2    1.54    0.26
   4  -6  -2    1.28    0.23
   4  -6  -2    0.90    0.26
   4  -6  -2    1.45    0.20
   4  -6  -2    1.63    0.31
   4  -6  -2    1.07    0.45
   4  -6  -2    1.10    0.09
   4  -6  -2    1.35    0.18
   3  -6  -2   18.35    1.17
   3  -6  -2   18.59    1.13
   3  -6  -2   15.90    1.54
   3  -6  -2   20.39    1.39
   3  -6  -2   19.66    1.30
   3  -6  -2   19.07    1.24
   3  -6  -2   20.92    1.63
   2  -6  -2    3.47    0.28
   2  -6  -2    3.96    0.57
   2  -6  -2    3.84    0.46
   2  -6  -2    3.65    0.38
   2  -6  -2    4.14    0.53
   1  -6  -2    3.51    0.28
   1   6   2    3.88    0.29
   2   6   2    2.17    0.28
   2   6   2    1.54    0.68
   2   6   2    2.21    0.26
   2   6   2    2.03    0.19
   3   6   2    3.55    0.38
   3   6   2    3.99    0.25
   3   6   2    4.19    0.39
   3   6   2    3.53    0.35
   3   6   2    3.96    0.38
   4   6   2    0.74    0.14
   4   6   2    0.44    0.18
   4   6   2    0.66    0.14
   4   6   2    0.45    0.18
   5   6   2    0.18    0.08
   9  -7  -2   -0.09    0.18
   8  -7  -2    0.11    0.16
   8  -7  -2   -0.06    0.15
   7  -7  -2    9.55    0.73
   7  -7  -2   10.85    0.84
   7  -7  -2   10.62    0.77
   6  -7  -2    8.37    0.57
   6  -7  -2    7.97    0.65
   6  -7  -2    9.12    0.65
   6  -7  -2    9.96    0.75
   5  -7  -2   -0.10    0.48
   5  -7  -2    0.15    0.14
   5  -7  -2    0.16    0.16
   5  -7  -2    0.30    0.19
   5  -7  -2    0.04    0.13
   5  -7  -2    0.03    0.20
   4  -7  -2    1.04    0.50
   4  -7  -2    1.17    0.21
   4  -7  -2    1.27    0.20
   4  -7  -2    0.85    0.09
   4  -7  -2    1.21    0.29
   4  -7  -2    1.01    0.20
   3  -7  -2    5.66    0.48
   3  -7  -2    5.92    0.38
   3  -7  -2    5.18    0.70
   3  -7  -2    5.07    0.56
   3  -7  -2    5.93    0.65
   3  -7  -2    5.67    0.47
   2  -7  -2    1.00    0.24
   2  -7  -2    1.10    0.16
   2  -7  -2    0.43    0.35
   1  -7  -2   21.83    1.32
   0   7   2    5.23    0.36
   1   7   2    0.60    0.13
   1   7   2    0.57    0.15
   2   7   2    0.45    0.10
   2   7   2    0.32    0.18
   2   7   2    0.56    0.20
   3   7   2    7.02    0.50
   3   7   2    6.64    0.54
   3   7   2    8.51    0.55
   3   7   2    8.33    0.54
   4   7   2    2.87    0.23
   8  -8  -2    4.44    0.34
   8  -8  -2    2.84    0.30
   7  -8  -2   13.33    0.90
   7  -8  -2   12.33    0.97
   6  -8  -2    3.61    0.32
   6  -8  -2    3.91    0.37
   6  -8  -2    4.51    0.45
   5  -8  -2    1.45    0.18
   5  -8  -2    1.44    0.19
   5  -8  -2    1.34    0.23
   4  -8  -2    4.22    0.39
   4  -8  -2    4.08    0.45
   4  -8  -2    4.49    0.40
   3  -8  -2    0.93    0.24
   3  -8  -2    0.67    0.11
   3  -8  -2    1.01    0.23
   2  -8  -2    2.03    0.21
   2  -8  -2    1.82    0.28
   1  -8  -2    4.15    0.33
   0  -8  -2    2.07    0.24
   0   8   2    2.21    0.21
   1   8   2    0.38    0.10
   1   8   2    0.16    0.15
   2   8   2    1.18    0.16
   7  -9  -2    5.92    0.43
   7  -9  -2    5.92    0.47
   6  -9  -2    0.34    0.16
   5  -9  -2    1.11    0.15
   5  -9  -2    0.78    0.19
   4  -9  -2    1.80    0.20
   4  -9  -2    1.55    0.20
   4  -9  -2    0.88    0.25
   3  -9  -2    0.64    0.20
   3  -9  -2    0.74    0.09
   3  -9  -2    0.81    0.18
   2  -9  -2   11.36    0.76
   2  -9  -2   10.66    0.77
   2  -9  -2   10.59    0.66
   1  -9  -2    0.35    0.09
   1  -9  -2    0.43    0.16
  -1   9   2    0.34    0.11
   0  -9  -2    0.05    0.07
   0   9   2   -0.02    0.07
  -1  -9  -2    0.38    0.08
   1   9   2    0.35    0.11
   1   9   2    0.47    0.05
   6 -10  -2   -0.07    0.10
   5 -10  -2   -0.06    0.12
   5 -10  -2    0.01    0.08
   4 -10  -2    0.86    0.15
   4 -10  -2    0.99    0.13
   4 -10  -2    0.93    0.11
   3 -10  -2    8.52    0.57
   2 -10  -2    3.52    0.30
   2 -10  -2    3.95    0.29
  -2  10   2    4.15    0.26
   1 -10  -2    3.11    0.20
  -1  10   2    3.21    0.21
   1 -10   3    3.77    0.29
   2 -10   3    0.36    0.12
   3 -10   3    0.43    0.13
   4 -10   3    0.27    0.10
   4 -10   3    0.31    0.13
   4 -10   3    0.12    0.11
   5 -10   3    0.66    0.10
   5 -10   3    0.35    0.12
   1   9  -3    3.34    0.32
   3  -9   3    0.26    0.16
   3  -9   3    0.23    0.07
   4  -9   3    0.01    0.22
   4  -9   3    0.17    0.17
   4  -9   3    0.36    0.14
   5  -9   3    8.86    0.78
   5  -9   3   10.52    0.67
   5  -9   3   11.10    0.70
   5  -9   3   10.76    0.66
   6  -9   3    0.95    0.12
   6  -9   3    1.31    0.16
   6  -9   3    1.08    0.17
   7  -9   3    2.37    0.26
   3   8  -3    0.07    0.11
   2   8  -3    5.71    0.43
   0   8  -3   -0.02    0.13
   0  -8   3    0.31    0.16
   1  -8   3    0.20    0.11
   2  -8   3    8.55    0.71
   2  -8   3    9.46    0.58
   3  -8   3    0.82    0.13
   3  -8   3    0.85    0.27
   4  -8   3    2.29    0.26
   4  -8   3    2.14    0.32
   4  -8   3    2.21    0.32
   4  -8   3    2.56    0.29
   5  -8   3    3.15    0.32
   5  -8   3    2.81    0.37
   5  -8   3    2.29    0.32
   5  -8   3    3.28    0.28
   6  -8   3    0.53    0.23
   6  -8   3    0.67    0.21
   6  -8   3    0.39    0.15
   7  -8   3    4.69    0.44
   7  -8   3    5.21    0.32
   8  -8   3    1.60    0.24
   4   7  -3    3.95    0.32
   3   7  -3    0.61    0.16
   3   7  -3    0.34    0.22
   2   7  -3    0.90    0.24
   1   7  -3    0.09    0.09
   0   7  -3    0.29    0.11
   1  -7   3    8.10    0.54
   2  -7   3    0.12    0.14
   2  -7   3    0.22    0.16
   2  -7   3   -0.03    0.37
   3  -7   3    0.25    0.22
   3  -7   3    0.31    0.30
   3  -7   3    0.20    0.33
   3  -7   3    0.43    0.18
   3  -7   3    0.42    0.20
   3  -7   3    0.30    0.43
   3  -7   3    0.36    0.14
   4  -7   3   12.67    0.70
   4  -7   3   11.34    0.94
   4  -7   3   10.97    0.82
   4  -7   3   11.71    0.77
   4  -7   3   12.32    1.21
   5  -7   3    0.72    0.24
   5  -7   3    0.72    0.19
   5  -7   3    1.13    0.21
   5  -7   3    0.98    0.20
   6  -7   3    0.19    0.15
   6  -7   3   -0.03    0.25
   6  -7   3    0.20    0.21
   6  -7   3    0.01    0.14
   7  -7   3   11.80    0.67
   7  -7   3    9.53    0.77
   7  -7   3   11.04    0.88
   8  -7   3    0.12    0.14
   8  -7   3    0.21    0.10
   5   6  -3    0.56    0.15
   4   6  -3    0.18    0.16
   4   6  -3   -0.16    0.22
   3   6  -3   11.12    0.77
   3   6  -3   11.35    0.79
   2   6  -3    6.04    0.53
   2   6  -3    6.55    0.42
   2   6  -3    5.92    0.63
   1   6  -3    0.01    0.12
   1  -6   3    2.50    0.53
   1  -6   3    1.94    0.22
   2  -6   3    0.63    0.38
   2  -6   3    0.99    0.16
   2  -6   3    1.22    0.35
   2  -6   3    0.97    0.33
   2  -6   3    0.72    0.16
   2  -6   3    1.12    0.23
   3  -6   3    0.79    0.21
   3  -6   3    0.90    0.13
   3  -6   3    0.63    0.30
   3  -6   3    0.81    0.43
   3  -6   3    0.59    0.19
   3  -6   3    0.69    0.18
   3  -6   3    1.07    0.34
   4  -6   3    2.75    0.60
   4  -6   3    2.70    0.31
   4  -6   3    2.75    0.38
   4  -6   3    2.66    0.31
   4  -6   3    2.50    0.40
   4  -6   3    2.47    0.34
   4  -6   3    2.59    0.18
   4  -6   3    2.33    0.28
   5  -6   3    0.79    0.19
   5  -6   3    0.82    0.23
   5  -6   3    0.83    0.18
   5  -6   3    0.61    0.23
   5  -6   3    0.29    0.48
   5  -6   3    0.89    0.24
   6  -6   3    0.33    0.25
   6  -6   3    0.08    0.23
   6  -6   3    0.23    0.18
   6  -6   3    0.44    0.17
   7  -6   3    0.00    0.16
   7  -6   3    0.24    0.27
   7  -6   3    0.08    0.07
   7  -6   3    0.09    0.17
   8  -6   3    0.18    0.12
   8  -6   3    0.01    0.16
   9  -6   3    0.23    0.12
   6   5  -3    2.30    0.26
   5   5  -3    4.21    0.38
   5   5  -3    4.29    0.37
   4   5  -3    0.97    0.18
   4   5  -3    0.90    0.20
   3   5  -3    2.40    0.26
   3   5  -3    1.99    0.37
   3   5  -3    2.01    0.17
   3   5  -3    2.53    0.26
   3   5  -3    1.56    0.53
   3   5  -3    1.96    0.42
   2   5  -3   -0.02    0.17
   2   5  -3    0.10    0.10
   2   5  -3    0.32    0.27
   2   5  -3   -0.51    0.32
   2   5  -3    0.20    0.26
   1   5  -3   12.72    0.99
   1   5  -3   12.64    0.92
   1   5  -3   12.23    1.08
   1   5  -3   11.51    0.74
   0   5  -3    0.44    0.28
   0  -5   3   -0.03    0.30
  -1   5  -3    0.71    0.32
   1  -5   3    0.73    0.39
   1  -5   3    0.39    0.28
   1  -5   3    0.43    0.26
   2  -5   3   10.94    0.99
   2  -5   3   10.58    0.86
   2  -5   3   10.65    0.81
   3  -5   3    2.38    0.30
   3  -5   3    2.92    0.21
   3  -5   3    2.63    0.28
   3  -5   3    3.30    0.42
   3  -5   3    3.35    0.43
   3  -5   3    4.43    0.62
   4  -5   3    7.80    0.58
   4  -5   3    6.82    0.40
   4  -5   3    6.28    0.47
   4  -5   3    6.82    0.77
   4  -5   3    8.24    0.64
   4  -5   3    7.06    0.58
   4  -5   3    5.91    0.51
   4  -5   3    6.68    0.49
   4  -5   3    6.44    0.51
   4  -5   3    6.33    0.53
   5  -5   3    9.14    0.70
   5  -5   3   10.65    1.02
   5  -5   3    9.37    0.61
   5  -5   3    8.53    0.70
   5  -5   3    9.67    0.70
   5  -5   3    9.08    0.65
   5  -5   3    9.68    0.78
   5  -5   3    9.10    0.62
   6  -5   3    0.45    0.51
   6  -5   3    0.43    0.20
   6  -5   3    0.29    0.26
   6  -5   3    0.57    0.24
   6  -5   3    0.65    0.15
   7  -5   3    0.57    0.08
   7  -5   3    0.41    0.19
   7  -5   3    0.46    0.15
   7  -5   3    0.65    0.20
   8  -5   3    0.21    0.15
   8  -5   3    0.40    0.16
   8  -5   3    0.03    0.17
   9  -5   3    0.13    0.10
   9  -5   3    0.04    0.12
   7   4  -3    0.11    0.13
   7   4  -3   -0.01    0.13
   6   4  -3    2.69    0.33
   6   4  -3    3.08    0.28
   6   4  -3    2.97    0.33
   5   4  -3    5.33    0.46
   5   4  -3    3.51    0.39
   5   4  -3    4.44    0.38
   5   4  -3    4.25    0.37
   4   4  -3    0.16    0.18
   4   4  -3    0.10    0.17
   4   4  -3    0.30    0.47
   4   4  -3    0.38    0.17
   4   4  -3    0.07    0.16
   4   4  -3    0.22    0.17
   4   4  -3   -0.18    0.20
   4   4  -3   -0.08    0.26
   3   4  -3   13.45    0.95
   3   4  -3   15.27    1.10
   3   4  -3   13.89    0.85
   3   4  -3   15.87    1.03
   3   4  -3   13.55    0.99
   3   4  -3   15.45    1.30
   3   4  -3   14.70    0.91
   2   4  -3    3.20    0.56
   2   4  -3    2.51    0.37
   2   4  -3    2.99    0.37
   2   4  -3    2.09    0.19
   1   4  -3   16.46    1.36
   1   4  -3   16.71    1.13
   1   4  -3   18.14    1.21
  -1  -4   3   15.01    1.29
   0   4  -3   26.40    1.79
   0   4  -3   28.30    2.00
   0   4  -3   23.14    1.71
   0   4  -3   24.44    1.74
   0   4  -3   27.74    1.70
   0  -4   3   26.74    1.78
   0  -4   3   27.59    1.70
   0  -4   3   22.58    1.72
   0  -4   3   26.74    2.01
  -1   4  -3   54.35    3.43
   1  -4   3   60.98    3.49
   1  -4   3   57.39    3.64
   1  -4   3   59.61    4.16
   1  -4   3   50.57    3.42
   1  -4   3   51.94    3.44
   2  -4   3    4.62    0.62
   2  -4   3    3.79    0.39
   2  -4   3    3.27    0.42
   3  -4   3   15.21    1.24
   3  -4   3   14.19    1.24
   3  -4   3   14.77    1.05
   3  -4   3   14.10    0.98
   4  -4   3   30.28    1.72
   4  -4   3   25.31    1.98
   4  -4   3   27.82    2.16
   4  -4   3   28.71    2.13
   4  -4   3   26.55    1.62
   4  -4   3   26.94    1.80
   4  -4   3   24.35    1.70
   5  -4   3   27.80    1.79
   5  -4   3   27.57    1.86
   5  -4   3   28.13    1.91
   5  -4   3   26.14    1.76
   5  -4   3   28.08    1.72
   5  -4   3   30.33    2.31
   5  -4   3   28.71    2.11
   5  -4   3   30.56    1.78
   5  -4   3   30.25    1.93
   5  -4   3   28.32    2.27
   6  -4   3   17.32    1.11
   6  -4   3   14.29    1.50
   6  -4   3   17.29    1.19
   6  -4   3   17.13    1.03
   6  -4   3   16.44    1.17
   6  -4   3   18.06    1.31
   7  -4   3   13.91    0.96
   7  -4   3   14.69    1.03
   7  -4   3   13.39    1.11
   7  -4   3   14.74    1.02
   8  -4   3    0.36    0.19
   8  -4   3    0.55    0.19
   9  -4   3    0.11    0.11
   9  -4   3    0.03    0.12
   8   3  -3    0.85    0.14
   7   3  -3   -0.05    0.23
   7   3  -3    0.01    0.19
   6   3  -3    5.46    0.53
   6   3  -3    6.10    0.52
   6   3  -3    6.21    0.41
   6   3  -3    6.37    0.54
   5   3  -3   34.72    2.87
   5   3  -3   35.68    2.41
   5   3  -3   40.72    2.28
   5   3  -3   33.70    2.62
   4   3  -3    1.83    0.20
   4   3  -3    1.43    0.50
   4   3  -3    1.59    0.23
   4   3  -3    1.80    0.24
   4   3  -3    1.71    0.29
   4   3  -3    1.85    0.26
   4   3  -3    1.98    0.20
   4   3  -3    1.20    0.26
   3   3  -3    6.05    0.69
   3   3  -3    5.93    0.53
   3   3  -3    5.77    0.48
   2   3  -3    1.66    0.45
   2   3  -3    1.19    0.26
   2   3  -3    1.55    0.26
   1   3  -3    1.35    0.26
   1   3  -3    1.25    0.34
   1   3  -3    0.63    0.28
   1   3  -3    1.14    0.21
   1   3  -3    0.97    0.25
  -1  -3   3    1.04    0.32
  -1  -3   3    0.91    0.33
   0   3  -3   19.66    1.32
   0   3  -3   20.95    1.36
   0   3  -3   19.29    1.31
   0   3  -3   20.86    1.29
   0  -3   3   19.10    1.34
   0  -3   3   20.27    1.29
   0  -3   3   20.02    1.36
   0  -3   3   18.07    1.32
  -1   3  -3   40.58    2.51
  -1   3  -3   38.38    2.53
  -1   3  -3   39.47    2.66
  -1   3  -3   42.77    2.51
   1  -3   3   40.63    2.51
   1  -3   3   38.90    2.49
   1  -3   3   41.45    2.54
   1  -3   3   43.95    2.65
  -2   3  -3   55.02    3.38
  -2   3  -3   53.28    3.40
   2  -3   3   55.24    4.09
   2  -3   3   59.21    4.16
   2  -3   3   58.56    3.62
   2  -3   3   57.22    3.46
   2  -3   3   54.77    3.38
   3  -3   3   39.71    2.96
   3  -3   3   38.39    2.92
   3  -3   3   41.58    2.56
   3  -3   3   37.49    2.44
   4  -3   3    3.76    0.38
   4  -3   3    3.87    0.34
   4  -3   3    5.23    0.66
   4  -3   3    3.99    0.59
   5  -3   3    0.16    0.09
   5  -3   3   -0.17    0.40
   5  -3   3    0.14    0.05
   5  -3   3    0.16    0.17
   5  -3   3    0.16    0.18
   5  -3   3    0.11    0.13
   5  -3   3    0.27    0.22
   5  -3   3    0.15    0.21
   5  -3   3    0.10    0.08
   5  -3   3    0.46    0.35
   5  -3   3    0.03    0.07
   6  -3   3   19.32    1.13
   6  -3   3   15.69    1.61
   6  -3   3   20.00    1.30
   6  -3   3   17.42    1.41
   6  -3   3   19.65    1.30
   6  -3   3   18.86    1.20
   7  -3   3    0.19    0.20
   7  -3   3    0.35    0.28
   7  -3   3    0.21    0.25
   8  -3   3    3.74    0.32
   8  -3   3    3.47    0.41
   8  -3   3    3.06    0.32
   9  -3   3   -0.10    0.13
   9  -3   3    0.01    0.09
   8   2  -3    2.83    0.28
   7   2  -3    5.56    0.48
   7   2  -3    4.35    0.41
   7   2  -3    4.75    0.46
   6   2  -3    7.08    0.46
   6   2  -3    6.86    0.54
   6   2  -3    7.48    0.58
   6   2  -3    6.70    0.60
   6   2  -3    6.72    0.89
   5   2  -3    3.17    0.32
   5   2  -3    2.91    0.34
   5   2  -3    3.09    0.62
   5   2  -3    2.60    0.35
   5   2  -3    2.99    0.26
   5   2  -3    3.17    0.41
   4   2  -3    6.10    0.52
   4   2  -3    6.24    0.71
   4   2  -3    5.82    0.48
   4   2  -3    5.27    0.40
   4   2  -3    5.33    0.46
   4   2  -3    5.89    0.39
   4   2  -3    5.87    0.44
   4   2  -3    5.76    0.42
   3   2  -3    1.90    0.24
   3   2  -3    2.64    0.46
   3   2  -3    2.17    0.26
   3   2  -3    1.96    0.30
   2   2  -3  166.86    9.92
   2   2  -3  177.56   10.34
   2   2  -3  161.47    9.53
   2   2  -3  158.06    9.53
   2   2  -3  158.78   11.70
  -2  -2   3  158.66    9.54
  -2  -2   3  164.58    9.55
   1   2  -3    5.11    0.45
   1   2  -3    5.27    0.46
   1   2  -3    4.79    0.52
   1   2  -3    5.20    0.41
   1   2  -3    5.10    0.41
  -1  -2   3    4.54    0.41
  -1  -2   3    5.50    0.51
  -1  -2   3    4.52    0.40
  -1  -2   3    5.26    0.49
   0   2  -3    8.63    0.67
   0   2  -3    9.41    0.69
   0   2  -3    9.81    0.69
   0   2  -3    8.77    0.63
   0  -2   3    9.10    0.69
   0  -2   3    8.89    0.70
   0  -2   3    8.91    0.67
   0  -2   3    8.07    0.63
  -1   2  -3  512.91   28.25
  -1   2  -3  440.49   29.54
  -1   2  -3  439.75   30.75
  -1   2  -3  510.52   28.25
   1  -2   3  494.50   34.82
   1  -2   3  500.29   28.24
   1  -2   3  518.04   28.24
   1  -2   3  518.50   29.70
   1  -2   3  475.23   30.87
  -2   2  -3    0.08    0.25
  -2   2  -3    0.29    0.27
   2  -2   3    0.12    0.30
   2  -2   3    0.12    0.22
   2  -2   3   -0.03    0.17
   2  -2   3    0.17    0.16
   2  -2   3    0.16    0.25
   2  -2   3    0.08    0.22
   2  -2   3   -0.02    0.13
  -3   2  -3   11.66    0.90
   3  -2   3   15.09    1.12
   3  -2   3   11.46    0.89
   3  -2   3   13.98    1.08
   3  -2   3   12.44    0.91
   3  -2   3   14.44    0.86
   3  -2   3   12.68    0.89
   3  -2   3   12.68    0.90
   4  -2   3   34.43    2.38
   4  -2   3   27.04    2.34
   4  -2   3   30.20    2.00
   4  -2   3   31.96    1.91
   5  -2   3    8.00    0.62
   5  -2   3    7.94    0.61
   5  -2   3    8.88    0.89
   5  -2   3    7.68    0.59
   5  -2   3    8.00    0.66
   5  -2   3    7.74    0.52
   5  -2   3    8.44    0.59
   6  -2   3    0.50    0.11
   6  -2   3    0.29    0.22
   6  -2   3    0.43    0.26
   6  -2   3    0.38    0.24
   6  -2   3    0.49    0.15
   6  -2   3    0.34    0.46
   7  -2   3   15.82    1.01
   7  -2   3   15.33    1.09
   7  -2   3   14.98    1.11
   8  -2   3    6.53    0.48
   8  -2   3    5.32    0.44
   8  -2   3    5.33    0.43
   9  -2   3    8.10    0.56
   9  -2   3    7.29    0.51
   9   1  -3    0.15    0.12
   9   1  -3   -0.02    0.10
   8   1  -3    0.16    0.23
   8   1  -3    0.12    0.24
   7   1  -3    7.13    0.63
   7   1  -3    8.29    0.61
   7   1  -3    7.20    0.62
   6   1  -3    0.95    0.49
   6   1  -3    0.64    0.24
   6   1  -3    1.24    0.20
   6   1  -3    0.95    0.11
   6   1  -3    1.12    0.20
   6   1  -3    1.34    0.25
   5   1  -3    4.06    0.40
   5   1  -3    4.61    0.31
   5   1  -3    4.00    0.39
   5   1  -3    4.19    0.66
   5   1  -3    4.72    0.41
   5   1  -3    4.80    0.46
   5   1  -3    4.70    0.43
   4   1  -3   43.41    2.97
   4   1  -3   39.66    2.40
   4   1  -3   35.66    2.50
   4   1  -3   43.91    2.51
   4   1  -3   35.02    2.86
   4   1  -3   38.65    2.40
   3   1  -3   36.49    2.87
   3   1  -3   36.13    2.43
   3   1  -3   36.47    2.37
   3   1  -3   38.44    2.37
   3   1  -3   42.51    2.87
   3   1  -3   39.89    2.55
   3   1  -3   44.20    2.96
   3   1  -3   42.63    2.44
   3   1  -3   40.49    2.55
  -3  -1   3   39.33    2.38
  -3  -1   3   41.68    2.39
   2   1  -3   34.69    2.18
   2   1  -3   37.66    2.44
   2   1  -3   32.68    2.17
   2   1  -3   30.75    2.43
   2   1  -3   33.40    2.04
   2   1  -3   34.75    2.04
   2   1  -3   31.23    2.08
   2   1  -3   32.93    2.49
   2   1  -3   36.67    2.09
  -2  -1   3   34.28    2.05
  -2  -1   3   34.27    2.05
   1   1  -3   10.33    0.67
   1   1  -3    9.89    0.70
   1   1  -3    7.97    0.68
   1   1  -3   11.01    0.78
   1   1  -3    9.99    0.71
  -1  -1   3   11.34    0.71
  -1  -1   3   10.13    0.66
  -1  -1   3    9.31    0.69
  -1  -1   3   10.23    0.69
   0   1  -3   35.87    2.19
   0   1  -3   34.69    2.29
   0   1  -3   37.32    2.15
   0   1  -3   35.78    2.14
   0   1  -3   35.66    2.48
   0  -1   3   35.09    2.19
   0  -1   3   34.75    2.55
   0  -1   3   37.42    2.14
   0  -1   3   32.28    2.28
   0  -1   3   37.83    2.14
  -1   1  -3    8.11    0.60
  -1   1  -3    7.01    0.56
  -1   1  -3    9.50    0.62
  -1   1  -3    8.60    0.62
   1  -1   3    8.24    0.61
   1  -1   3    7.70    0.68
   1  -1   3    7.78    0.61
   1  -1   3    8.64    0.60
   1  -1   3    7.94    0.56
  -2   1  -3   -0.02    0.20
  -2   1  -3    0.31    0.21
   2  -1   3    0.11    0.17
   2  -1   3    0.12    0.15
   2  -1   3    0.07    0.14
   2  -1   3   -0.21    0.17
   2  -1   3   -0.05    0.20
   2  -1   3    0.24    0.22
   2  -1   3   -0.12    0.33
  -3   1  -3   73.05    4.48
   3  -1   3   70.61    4.83
   3  -1   3   85.10    4.83
   3  -1   3   69.84    4.62
   3  -1   3   73.68    4.47
   3  -1   3   78.20    5.51
   3  -1   3   79.56    4.63
   3  -1   3   77.62    5.53
   4  -1   3    4.33    0.34
   4  -1   3    3.77    0.61
   5  -1   3    7.38    0.55
   5  -1   3    6.40    0.49
   5  -1   3    6.51    0.56
   5  -1   3    7.07    0.45
   5  -1   3    7.09    0.83
   5  -1   3    6.51    0.53
   6  -1   3    2.09    0.59
   6  -1   3    2.94    0.35
   6  -1   3    3.10    0.25
   6  -1   3    2.98    0.34
   6  -1   3    3.37    0.39
   6  -1   3    3.01    0.39
   7  -1   3    5.09    0.47
   7  -1   3    5.56    0.48
   7  -1   3    4.21    0.40
   7  -1   3    5.13    0.51
   8  -1   3    0.18    0.16
   8  -1   3    0.45    0.19
   9  -1   3    2.21    0.19
   9   0  -3    0.49    0.20
   9   0  -3    0.68    0.15
   8   0  -3    0.19    0.17
   8   0  -3    0.39    0.18
   8   0  -3    0.18    0.20
   7   0  -3    1.30    0.23
   7   0  -3    1.33    0.27
   7   0  -3    0.71    0.48
   7   0  -3    1.55    0.27
   7   0  -3    2.21    0.28
   7   0  -3    1.46    0.28
   6   0  -3   10.18    0.72
   6   0  -3   11.60    0.84
   6   0  -3   11.64    0.78
   6   0  -3    9.98    1.03
   6   0  -3   10.79    0.83
   6   0  -3    9.54    0.75
   6   0  -3    9.84    0.73
   5   0  -3   -0.10    0.16
   5   0  -3   -0.06    0.42
   5   0  -3    0.04    0.16
   5   0  -3    0.10    0.14
   4   0  -3    1.89    0.46
   4   0  -3    1.45    0.41
   4   0  -3    1.53    0.30
   3   0  -3   42.71    2.77
   3   0  -3   37.05    2.25
   3   0  -3   35.55    2.34
   3   0  -3   37.01    2.25
   3   0  -3   40.05    2.34
   3   0  -3   38.41    2.44
   3   0  -3   39.14    2.43
   3   0  -3   38.47    2.79
   3   0  -3   41.96    2.84
  -3   0   3   36.30    2.25
  -3   0   3   38.27    2.25
   2   0  -3    0.41    0.13
   2   0  -3    0.33    0.14
   2   0  -3    0.54    0.15
   2   0  -3    0.42    0.13
   2   0  -3    0.31    0.29
   2   0  -3    0.38    0.13
   2   0  -3    0.47    0.24
   2   0  -3    0.40    0.11
   2   0  -3    0.29    0.17
  -2   0   3    0.36    0.18
  -2   0   3    0.35    0.14
   1   0  -3    3.05    0.34
   1   0  -3    3.23    0.32
   1   0  -3    3.21    0.29
   1   0  -3    3.02    0.26
   1   0  -3    2.81    0.27
   1   0  -3    3.12    0.35
   1   0  -3    3.27    0.31
  -1   0   3    3.25    0.32
  -1   0   3    3.03    0.28
  -1   0   3    3.04    0.37
   0   0  -3  541.18   29.72
   0   0  -3  500.59   32.41
   0   0  -3  504.21   29.66
   0   0  -3  516.95   31.11
   0   0   3  560.87   29.63
   0   0   3  501.59   29.55
   0   0   3  493.29   31.04
   0   0   3  489.59   32.37
  -1   0  -3   35.77    2.31
  -1   0  -3   37.04    2.27
  -1   0  -3   40.15    2.29
  -1   0  -3   35.30    2.42
   1   0   3   35.91    2.74
   1   0   3   37.89    2.27
   1   0   3   38.17    2.33
   1   0   3   39.69    2.42
   1   0   3   39.39    2.28
  -2   0  -3   19.01    1.21
  -2   0  -3   20.25    1.24
   2   0   3   17.85    1.39
   2   0   3   19.78    1.45
   2   0   3   19.67    1.23
   2   0   3   16.50    1.18
   2   0   3   18.48    1.19
   2   0   3   18.99    1.46
   2   0   3   19.89    1.25
   2   0   3   16.27    1.25
   2   0   3   19.47    1.20
   3   0   3    5.04    0.41
   3   0   3    5.20    0.57
   3   0   3    4.79    0.64
   4   0   3    0.88    0.45
   4   0   3    0.37    0.32
   4   0   3    0.90    0.21
   4   0   3    0.82    0.19
   5   0   3    0.52    0.15
   5   0   3    0.13    0.11
   5   0   3    0.25    0.07
   5   0   3    0.13    0.46
   5   0   3    0.23    0.12
   5   0   3    0.28    0.12
   5   0   3    0.15    0.21
   5   0   3    0.30    0.21
   5   0   3    0.26    0.15
   6   0   3    2.23    0.31
   6   0   3    1.96    0.63
   6   0   3    2.51    0.34
   6   0   3    2.76    0.32
   6   0   3    2.47    0.23
   6   0   3    2.31    0.29
   7   0   3    5.28    0.43
   7   0   3    5.21    0.44
   7   0   3    5.58    0.47
   8   0   3    0.07    0.17
   8   0   3   -0.06    0.14
   9  -1  -3    0.21    0.15
   9  -1  -3    0.35    0.15
   8  -1  -3    0.07    0.20
   8  -1  -3   -0.09    0.19
   8  -1  -3    0.12    0.17
   8  -1  -3    0.08    0.17
   7  -1  -3   13.26    0.96
   7  -1  -3   14.82    1.10
   7  -1  -3   13.90    1.01
   7  -1  -3   15.12    1.11
   7  -1  -3   15.42    1.03
   7  -1  -3   13.98    0.96
   6  -1  -3    1.21    0.25
   6  -1  -3    1.86    0.23
   6  -1  -3    2.43    0.26
   6  -1  -3    2.08    0.25
   6  -1  -3    2.17    0.52
   6  -1  -3    2.30    0.27
   6  -1  -3    1.64    0.23
   6  -1  -3    1.84    0.25
   6  -1  -3    1.97    0.26
   5  -1  -3    8.87    0.82
   5  -1  -3    9.62    0.83
   5  -1  -3    9.28    0.87
   5  -1  -3    8.28    0.81
   4  -1  -3   20.76    1.63
   4  -1  -3   21.19    1.65
   4  -1  -3   20.36    1.60
   4  -1  -3   22.56    1.60
   3  -1  -3    6.67    0.67
   3  -1  -3    6.97    0.63
   3  -1  -3    6.61    0.58
   3  -1  -3    6.46    0.57
   2  -1  -3   41.13    2.35
   2  -1  -3   40.09    2.53
   2  -1  -3   37.21    2.53
   2  -1  -3   37.02    2.86
   2  -1  -3   41.92    2.43
   2  -1  -3   40.72    2.83
   2  -1  -3   37.86    2.93
   2  -1  -3   40.56    2.34
   2  -1  -3   36.78    2.43
  -2   1   3   43.38    2.35
  -2   1   3   42.76    2.35
   1  -1  -3  116.82    8.65
   1  -1  -3  125.30    6.97
   1  -1  -3  115.44    7.57
   1  -1  -3  120.32    7.27
  -1   1   3  128.09    6.97
  -1   1   3  123.99    6.98
  -1   1   3  110.99    7.57
   0  -1  -3  115.12    6.35
   0  -1  -3  102.44    6.88
   0  -1  -3  112.93    6.35
   0  -1  -3  107.07    6.60
   0   1   3  106.26    6.35
   0   1   3  112.32    6.35
   0   1   3  108.52    6.88
   0   1   3  107.04    6.60
  -1  -1  -3   68.07    4.69
  -1  -1  -3   76.08    4.35
  -1  -1  -3   76.54    4.36
  -1  -1  -3   69.29    4.49
   1   1   3   74.21    4.34
   1   1   3   76.40    5.29
   1   1   3   74.53    4.69
   1   1   3   70.09    4.35
   1   1   3   78.00    4.49
  -2  -1  -3    8.79    0.71
  -2  -1  -3    8.25    0.70
   2   1   3    8.87    0.73
   2   1   3   10.16    0.66
   2   1   3   10.01    0.84
   2   1   3   10.19    0.72
   2   1   3    7.91    0.69
   2   1   3    9.11    0.88
   3   1   3   17.50    1.23
   3   1   3   18.01    1.47
   3   1   3   17.19    1.17
   3   1   3   18.27    1.45
   4   1   3    0.29    0.20
   4   1   3   -0.07    0.11
   4   1   3    0.07    0.19
   4   1   3    0.24    0.12
   4   1   3    0.35    0.23
   4   1   3    0.16    0.44
   4   1   3    0.06    0.12
   4   1   3    0.25    0.17
   4   1   3    0.09    0.35
   5   1   3    0.16    0.14
   5   1   3    0.01    0.15
   5   1   3    0.20    0.21
   5   1   3    0.54    0.54
   5   1   3    0.08    0.21
   5   1   3    0.29    0.11
   5   1   3    0.20    0.16
   5   1   3    0.24    0.18
   6   1   3    8.51    0.66
   6   1   3    8.17    0.64
   6   1   3    8.29    0.70
   6   1   3    8.64    0.56
   7   1   3    2.06    0.24
   7   1   3    2.19    0.27
   8   1   3    0.05    0.11
   8   1   3    0.10    0.14
   9  -2  -3    7.29    0.57
   9  -2  -3    6.35    0.51
   9  -2  -3    8.76    0.56
   8  -2  -3    4.13    0.39
   8  -2  -3    3.35    0.35
   8  -2  -3    3.76    0.41
   8  -2  -3    4.13    0.42
   8  -2  -3    4.35    0.39
   8  -2  -3    4.29    0.41
   7  -2  -3    1.55    0.21
   7  -2  -3    1.55    0.26
   7  -2  -3    1.29    0.25
   7  -2  -3    2.00    0.26
   7  -2  -3    1.57    0.26
   7  -2  -3    1.42    0.25
   7  -2  -3    1.11    0.26
   7  -2  -3    1.19    0.26
   6  -2  -3    2.66    0.27
   6  -2  -3    2.10    0.31
   6  -2  -3    1.55    0.40
   6  -2  -3    2.29    0.32
   6  -2  -3    2.22    0.28
   6  -2  -3    2.55    0.26
   6  -2  -3    2.00    0.26
   6  -2  -3    2.53    0.28
   6  -2  -3    2.08    0.26
   6  -2  -3    1.73    0.47
   5  -2  -3    0.27    0.35
   5  -2  -3    0.34    0.33
   5  -2  -3   -0.21    0.32
   5  -2  -3    0.20    0.25
   4  -2  -3    0.28    0.26
   4  -2  -3    0.37    0.22
   4  -2  -3    0.24    0.30
   4  -2  -3    0.58    0.34
   3  -2  -3    1.62    0.15
   3  -2  -3    1.47    0.17
   3  -2  -3    1.38    0.17
   3  -2  -3    1.65    0.23
   3  -2  -3    1.42    0.16
   3  -2  -3    1.93    0.38
   3  -2  -3    1.88    0.39
   3  -2  -3    1.36    0.16
   3  -2  -3    1.42    0.19
  -3   2   3    1.54    0.21
  -3   2   3    1.68    0.19
   2  -2  -3   58.77    3.58
   2  -2  -3   65.83    3.71
   2  -2  -3   61.57    3.86
   2  -2  -3   62.89    4.45
   2  -2  -3   59.86    3.86
   2  -2  -3   53.11    3.70
   2  -2  -3   54.00    4.29
   2  -2  -3   65.50    3.58
  -2   2   3   64.82    3.60
  -2   2   3   62.68    3.59
   1  -2  -3  184.89   11.54
   1  -2  -3  185.78   10.61
   1  -2  -3  184.89   11.07
   1  -2  -3  191.07   10.63
   1  -2  -3  180.04   13.17
  -1   2   3  195.43   10.64
  -1   2   3  171.07   11.54
  -1   2   3  189.70   10.63
  -1   2   3  166.27   11.07
   0  -2  -3    0.28    0.20
   0  -2  -3    0.25    0.25
   0  -2  -3    0.03    0.24
   0  -2  -3    0.04    0.22
   0  -2  -3    0.23    0.18
   0   2   3    0.30    0.22
   0   2   3    0.21    0.21
   0   2   3   -0.01    0.25
   0   2   3    0.24    0.17
   0   2   3    0.40    0.27
  -1  -2  -3   19.33    1.34
  -1  -2  -3   22.30    1.41
  -1  -2  -3   20.10    1.39
  -1  -2  -3   19.97    1.43
   1   2   3   21.99    1.44
   1   2   3   23.15    1.59
   1   2   3   20.34    1.41
   1   2   3   21.43    1.36
   1   2   3   20.02    1.38
   2   2   3    2.29    0.43
   2   2   3    2.16    0.33
   2   2   3    2.33    0.31
   3   2   3    0.82    0.25
   3   2   3    1.22    0.50
   3   2   3    0.85    0.25
   3   2   3    0.82    0.35
   4   2   3    0.69    0.18
   4   2   3    0.84    0.24
   4   2   3    0.51    0.39
   4   2   3    0.80    0.26
   4   2   3    0.38    0.53
   4   2   3    0.76    0.19
   4   2   3    0.56    0.20
   4   2   3    0.15    0.28
   4   2   3    0.66    0.15
   5   2   3   19.76    1.26
   5   2   3   17.74    1.76
   5   2   3   21.23    1.36
   5   2   3   19.75    1.26
   5   2   3   19.78    1.22
   5   2   3   18.75    1.28
   5   2   3   19.94    1.35
   6   2   3    0.06    0.20
   6   2   3    0.09    0.24
   6   2   3   -0.20    0.27
   6   2   3    0.18    0.13
   7   2   3    1.82    0.23
   7   2   3    1.64    0.20
   9  -3  -3   -0.05    0.12
   9  -3  -3   -0.05    0.17
   8  -3  -3    0.63    0.25
   8  -3  -3    1.01    0.23
   8  -3  -3    1.06    0.16
   8  -3  -3    1.24    0.21
   8  -3  -3    1.21    0.19
   8  -3  -3    0.92    0.22
   8  -3  -3    0.85    0.18
   7  -3  -3   11.47    0.84
   7  -3  -3   11.60    0.92
   7  -3  -3   12.33    0.86
   7  -3  -3   12.44    0.87
   7  -3  -3   12.14    0.79
   7  -3  -3   12.57    0.92
   7  -3  -3   13.04    0.97
   7  -3  -3   10.92    0.86
   6  -3  -3   12.35    0.80
   6  -3  -3   11.13    0.86
   6  -3  -3    9.08    1.03
   6  -3  -3   10.28    0.75
   6  -3  -3   10.22    0.80
   6  -3  -3   11.56    0.73
   6  -3  -3   10.90    0.78
   6  -3  -3   12.41    0.89
   5  -3  -3    8.39    0.80
   5  -3  -3    9.12    0.88
   4  -3  -3   46.23    3.20
   4  -3  -3   41.72    2.57
   4  -3  -3   42.95    2.57
   4  -3  -3   41.75    3.05
   4  -3  -3   45.40    2.68
   4  -3  -3   37.69    2.48
   4  -3  -3   41.17    2.68
   3  -3  -3   -0.01    0.15
   3  -3  -3   -0.14    0.12
   3  -3  -3   -0.21    0.10
   3  -3  -3    0.48    0.35
   3  -3  -3    0.00    0.36
   3  -3  -3    0.11    0.19
   3  -3  -3    0.07    0.10
   3  -3  -3    0.04    0.15
  -3   3   3    0.06    0.21
   2  -3  -3    8.43    0.69
   2  -3  -3    9.82    0.67
   2  -3  -3    9.87    0.83
   2  -3  -3    9.49    0.73
   2  -3  -3   10.34    0.72
  -2   3   3    8.54    0.71
  -2   3   3    9.31    0.75
   1  -3  -3   10.78    0.88
   1  -3  -3   11.14    0.81
   1  -3  -3   10.84    0.80
   1  -3  -3   11.16    0.75
   1  -3  -3   10.83    0.81
  -1   3   3   10.36    0.79
  -1   3   3    9.23    0.74
  -1   3   3   10.45    0.81
  -1   3   3   11.43    0.83
   0  -3  -3    2.71    0.34
   0  -3  -3    3.55    0.37
   0  -3  -3    2.24    0.32
   0  -3  -3    3.00    0.42
   0  -3  -3    2.64    0.40
   0   3   3    2.67    0.41
   0   3   3    2.64    0.32
   0   3   3    2.53    0.34
   0   3   3    2.13    0.37
   0   3   3    3.09    0.36
  -1  -3  -3    5.11    0.62
   1   3   3    7.51    0.62
   1   3   3    6.52    0.67
   1   3   3    6.76    0.55
   1   3   3    6.46    0.60
   2   3   3   12.15    0.90
   2   3   3   11.99    0.92
   2   3   3   12.34    1.06
   3   3   3    0.53    0.31
   3   3   3   -0.18    0.48
   3   3   3    0.14    0.10
   3   3   3    0.24    0.25
   3   3   3    0.25    0.15
   3   3   3    0.00    0.40
   3   3   3    0.00    0.16
   3   3   3    0.06    0.16
   4   3   3    7.78    0.58
   4   3   3    8.11    0.60
   4   3   3    7.98    0.57
   4   3   3    7.72    0.88
   4   3   3    8.85    1.04
   4   3   3    9.03    0.63
   4   3   3    7.75    0.67
   4   3   3    7.95    0.72
   5   3   3    5.30    0.38
   5   3   3    4.71    0.46
   5   3   3    4.35    0.39
   5   3   3    5.82    0.52
   6   3   3    1.02    0.18
   6   3   3    1.12    0.15
   6   3   3    1.19    0.27
   7   3   3    0.88    0.14
   7   3   3    0.86    0.13
   9  -4  -3    1.95    0.21
   9  -4  -3    1.23    0.24
   8  -4  -3    0.83    0.24
   8  -4  -3    0.74    0.19
   8  -4  -3    1.02    0.18
   8  -4  -3    0.37    0.19
   8  -4  -3    0.90    0.21
   7  -4  -3    9.18    0.66
   7  -4  -3    8.57    0.61
   7  -4  -3    7.43    0.65
   7  -4  -3    8.73    0.65
   7  -4  -3    8.34    0.73
   6  -4  -3   -0.12    0.16
   6  -4  -3    0.21    0.20
   6  -4  -3    0.18    0.19
   6  -4  -3    0.09    0.16
   6  -4  -3    0.10    0.21
   6  -4  -3    0.13    0.41
   6  -4  -3    0.06    0.05
   6  -4  -3    0.18    0.17
   5  -4  -3    0.09    0.08
   5  -4  -3    0.30    0.15
   5  -4  -3    0.04    0.21
   5  -4  -3    0.37    0.45
   5  -4  -3    0.20    0.19
   5  -4  -3    0.13    0.18
   4  -4  -3    4.62    0.38
   4  -4  -3    4.03    0.56
   4  -4  -3    4.11    0.53
   4  -4  -3    4.41    0.34
   3  -4  -3   70.78    4.39
   3  -4  -3   72.22    4.21
   3  -4  -3   59.88    4.86
   3  -4  -3   70.92    5.06
   2  -4  -3    6.50    0.64
   2  -4  -3    6.47    0.52
   2  -4  -3    6.45    0.57
   1  -4  -3    9.46    0.70
   1  -4  -3    8.78    0.79
   1  -4  -3   10.08    0.78
   1  -4  -3    9.73    0.80
  -1   4   3    7.99    0.80
   0  -4  -3   17.90    1.23
   0  -4  -3   17.81    1.33
   0   4   3   18.99    1.33
   0   4   3   18.24    1.24
   1   4   3    6.69    0.64
   1   4   3    5.96    0.56
   2   4   3    1.37    0.34
   2   4   3    1.68    0.43
   2   4   3    1.60    0.18
   2   4   3    1.73    0.18
   2   4   3    1.80    0.33
   2   4   3    1.39    0.22
   3   4   3    9.96    1.05
   3   4   3   11.61    0.78
   3   4   3   11.83    0.70
   3   4   3   13.32    1.27
   3   4   3   10.94    0.78
   3   4   3   11.53    0.80
   3   4   3   12.74    0.91
   3   4   3   11.58    0.99
   4   4   3   -0.03    0.18
   4   4   3    0.17    0.20
   4   4   3    0.05    0.26
   4   4   3   -0.31    0.62
   4   4   3    0.19    0.16
   5   4   3    8.62    0.58
   5   4   3    8.34    0.55
   5   4   3    7.81    0.58
   5   4   3    9.29    0.68
   6   4   3    0.77    0.20
   6   4   3    0.62    0.14
   6   4   3    0.78    0.11
   9  -5  -3    0.03    0.15
   8  -5  -3    0.36    0.22
   8  -5  -3    0.28    0.27
   8  -5  -3    0.20    0.17
   8  -5  -3    0.16    0.13
   7  -5  -3    1.21    0.21
   7  -5  -3    0.95    0.55
   7  -5  -3    1.28    0.23
   7  -5  -3    1.14    0.29
   7  -5  -3    0.95    0.25
   6  -5  -3    1.34    0.55
   6  -5  -3    2.38    0.30
   6  -5  -3    1.95    0.20
   6  -5  -3    2.20    0.29
   6  -5  -3    2.33    0.29
   6  -5  -3    2.31    0.29
   5  -5  -3    0.04    0.08
   5  -5  -3    0.18    0.41
   5  -5  -3    0.01    0.09
   5  -5  -3    0.02    0.13
   5  -5  -3    0.28    0.14
   5  -5  -3    0.19    0.15
   5  -5  -3    0.34    0.20
   5  -5  -3   -0.01    0.22
   5  -5  -3    0.08    0.12
   4  -5  -3    6.53    0.46
   4  -5  -3    6.95    0.55
   4  -5  -3    6.49    0.74
   4  -5  -3    6.61    0.71
   4  -5  -3    7.26    0.52
   4  -5  -3    6.41    0.44
   4  -5  -3    5.97    0.55
   4  -5  -3    6.29    0.51
   4  -5  -3    6.31    0.49
   3  -5  -3   84.94    5.33
   3  -5  -3   88.27    6.11
   3  -5  -3   86.57    5.09
   3  -5  -3   77.57    4.81
   3  -5  -3   76.97    5.89
   2  -5  -3   10.23    0.81
   2  -5  -3    9.29    0.87
   2  -5  -3    9.54    0.73
   1  -5  -3    1.74    0.38
   1  -5  -3    2.11    0.37
   1   5   3    0.24    0.11
   2   5   3    6.07    0.48
   2   5   3    6.58    0.41
   2   5   3    6.12    0.71
   2   5   3    6.24    0.45
   2   5   3    5.97    0.63
   3   5   3   36.33    2.06
   3   5   3   35.04    2.19
   3   5   3   36.77    2.15
   3   5   3   32.46    2.84
   3   5   3   34.33    2.25
   4   5   3    0.89    0.18
   4   5   3    0.97    0.17
   4   5   3    0.93    0.21
   4   5   3    0.87    0.25
   5   5   3    2.65    0.27
   5   5   3    3.24    0.28
   5   5   3    2.60    0.25
   9  -6  -3   -0.02    0.15
   8  -6  -3    0.75    0.26
   8  -6  -3    0.83    0.19
   7  -6  -3    3.19    0.37
   7  -6  -3    2.60    0.39
   7  -6  -3    2.89    0.30
   6  -6  -3    2.12    0.31
   6  -6  -3    2.44    0.33
   6  -6  -3    0.95    0.53
   6  -6  -3    1.88    0.22
   6  -6  -3    2.55    0.27
   5  -6  -3    3.45    0.27
   5  -6  -3    3.77    0.41
   5  -6  -3    3.00    0.29
   5  -6  -3    3.38    0.32
   5  -6  -3    3.43    0.33
   5  -6  -3    3.18    0.39
   5  -6  -3    2.97    0.36
   5  -6  -3    3.41    0.66
   4  -6  -3    4.37    0.44
   4  -6  -3    5.05    0.44
   4  -6  -3    5.12    0.53
   4  -6  -3    4.53    0.29
   4  -6  -3    4.18    0.47
   4  -6  -3    5.13    0.38
   4  -6  -3    6.28    0.70
   4  -6  -3    5.03    0.40
   4  -6  -3    4.78    0.38
   4  -6  -3    4.58    0.39
   3  -6  -3    0.40    0.16
   3  -6  -3    0.17    0.19
   3  -6  -3    0.39    0.37
   3  -6  -3    0.29    0.24
   3  -6  -3    0.28    0.10
   3  -6  -3    0.16    0.48
   3  -6  -3    0.00    0.15
   3  -6  -3    0.12    0.24
   2  -6  -3    3.91    0.41
   2  -6  -3    4.22    0.57
   2  -6  -3    4.28    0.49
   2  -6  -3    4.91    0.32
   1  -6  -3    0.11    0.13
   0   6   3    2.55    0.25
   1   6   3    0.14    0.11
   2   6   3   18.88    1.24
   2   6   3   18.80    1.12
   2   6   3   18.47    1.19
   3   6   3    0.17    0.06
   3   6   3   -0.03    0.21
   3   6   3    0.15    0.18
   3   6   3    0.08    0.18
   3   6   3   -0.06    0.19
   4   6   3    0.86    0.14
   4   6   3    0.95    0.14
   4   6   3    0.94    0.13
   4   6   3    0.95    0.15
   5   6   3    0.76    0.09
   9  -7  -3    0.05    0.12
   8  -7  -3    2.44    0.32
   8  -7  -3    1.57    0.28
   7  -7  -3   -0.15    0.23
   7  -7  -3   -0.03    0.28
   7  -7  -3    0.03    0.16
   6  -7  -3    5.14    0.51
   6  -7  -3    5.77    0.52
   6  -7  -3    4.62    0.37
   6  -7  -3    5.75    0.45
   5  -7  -3   19.36    1.23
   5  -7  -3   17.28    1.69
   5  -7  -3   18.38    1.32
   5  -7  -3   19.65    1.19
   5  -7  -3   18.88    1.44
   5  -7  -3   20.32    1.26
   4  -7  -3    1.43    0.31
   4  -7  -3    2.48    0.34
   4  -7  -3    1.26    0.54
   4  -7  -3    3.34    0.33
   4  -7  -3    2.44    0.29
   4  -7  -3    2.60    0.31
   4  -7  -3    2.35    0.16
   3  -7  -3    0.50    0.16
   3  -7  -3    0.48    0.31
   3  -7  -3    0.31    0.10
   3  -7  -3   -0.25    0.26
   3  -7  -3    0.39    0.19
   3  -7  -3    0.34    0.19
   2  -7  -3   26.16    1.62
   2  -7  -3   23.21    1.46
   1  -7  -3    0.27    0.15
   0   7   3    0.16    0.13
   1   7   3    2.66    0.23
   1   7   3    2.40    0.29
   2   7   3    0.77    0.17
   2   7   3    0.84    0.17
   2   7   3    0.79    0.11
   3   7   3   18.23    1.15
   3   7   3   16.66    1.21
   3   7   3   18.67    1.11
   8  -8  -3   11.73    0.90
   7  -8  -3   -0.06    0.17
   7  -8  -3    0.10    0.14
   6  -8  -3   13.09    0.82
   6  -8  -3   13.65    0.89
   6  -8  -3   12.43    1.00
   5  -8  -3    1.82    0.23
   5  -8  -3    2.29    0.28
   5  -8  -3    1.85    0.22
   4  -8  -3    2.81    0.29
   4  -8  -3    2.59    0.30
   4  -8  -3    2.36    0.31
   3  -8  -3    0.89    0.19
   3  -8  -3    0.78    0.22
   3  -8  -3    0.77    0.11
   2  -8  -3   17.14    1.23
   2  -8  -3   17.85    1.21
   2  -8  -3   20.58    1.12
   1  -8  -3    2.98    0.26
   1  -8  -3    2.51    0.26
   0  -8  -3    0.48    0.14
   0   8   3    0.51    0.10
   1   8   3    2.82    0.20
   1   8   3    2.65    0.35
   2   8   3    0.05    0.14
   2   8   3    0.23    0.15
   7  -9  -3    5.63    0.42
   6  -9  -3    0.26    0.23
   6  -9  -3    0.55    0.10
   5  -9  -3    2.99    0.25
   5  -9  -3    3.28    0.26
   5  -9  -3    2.93    0.30
   4  -9  -3   14.50    0.99
   4  -9  -3   15.21    0.99
   4  -9  -3   15.36    0.96
   3  -9  -3    0.24    0.14
   3  -9  -3    0.11    0.06
   3  -9  -3    0.17    0.13
   2  -9  -3   31.08    1.99
   1  -9  -3    2.49    0.21
  -1   9   3    2.69    0.22
   0  -9  -3    0.36    0.08
   0   9   3    0.19    0.09
   6 -10  -3    0.05    0.05
   6 -10  -3    0.04    0.10
   5 -10  -3    5.06    0.36
   5 -10  -3    4.85    0.34
   4 -10  -3    4.08    0.30
   4 -10  -3    4.29    0.30
   4 -10  -3    3.83    0.31
   3 -10  -3    1.83    0.18
   2 -10  -3    2.20    0.21
   1 -10   4    1.80    0.19
  -2  10  -4    0.79    0.10
   2 -10   4    1.41    0.16
   2 -10   4    0.84    0.07
   2 -10   4    0.88    0.15
   3 -10   4    0.85    0.15
   3 -10   4    1.07    0.14
   4 -10   4    4.44    0.31
   4 -10   4    4.34    0.33
   4 -10   4    4.06    0.30
   5 -10   4    2.36    0.19
   2   9  -4    2.14    0.19
   1   9  -4    0.33    0.12
   1  -9   4    8.98    0.56
   2  -9   4    0.05    0.16
   2  -9   4    0.04    0.11
   3  -9   4    9.32    0.57
   3  -9   4    9.97    0.67
   4  -9   4    4.09    0.40
   4  -9   4    4.32    0.37
   4  -9   4    3.74    0.32
   5  -9   4    0.39    0.14
   5  -9   4    0.47    0.13
   5  -9   4    0.00    0.16
   5  -9   4    0.32    0.09
   6  -9   4    5.78    0.46
   6  -9   4    5.03    0.35
   7  -9   4    2.93    0.27
   3   8  -4    0.76    0.14
   2   8  -4    3.68    0.37
   1   8  -4    0.20    0.11
   0   8  -4   20.48    1.19
   0  -8   4   18.90    1.19
   1  -8   4    9.91    0.64
   2  -8   4    0.56    0.16
   3  -8   4    3.67    0.27
   4  -8   4    6.24    0.53
   4  -8   4    6.16    0.51
   4  -8   4    5.84    0.54
   4  -8   4    5.96    0.49
   5  -8   4    0.55    0.22
   5  -8   4    0.78    0.20
   5  -8   4    0.78    0.18
   5  -8   4    0.89    0.18
   6  -8   4    8.83    0.68
   6  -8   4    7.21    0.51
   7  -8   4    0.03    0.07
   7  -8   4    0.23    0.15
   4   7  -4    0.34    0.18
   3   7  -4    0.16    0.21
   2   7  -4    4.00    0.37
   1   7  -4    1.98    0.20
   0   7  -4    0.67    0.16
   1  -7   4    1.41    0.21
   2  -7   4    0.56    0.16
   2  -7   4    0.57    0.24
   2  -7   4    0.77    0.43
   3  -7   4    2.91    0.28
   3  -7   4    2.20    0.59
   3  -7   4    2.88    0.25
   3  -7   4    2.91    0.32
   3  -7   4    2.02    0.44
   3  -7   4    2.49    0.33
   4  -7   4    4.82    0.43
   4  -7   4    3.06    0.72
   4  -7   4    5.47    0.44
   4  -7   4    4.94    0.48
   4  -7   4    4.49    0.47
   4  -7   4    5.07    0.30
   5  -7   4    0.09    0.18
   5  -7   4    0.24    0.23
   5  -7   4    0.03    0.21
   5  -7   4   -0.05    0.19
   6  -7   4    0.01    0.17
   6  -7   4   -0.03    0.14
   6  -7   4   -0.09    0.14
   7  -7   4   11.60    0.83
   7  -7   4   12.23    0.94
   7  -7   4   11.93    0.73
   8  -7   4    0.05    0.08
   8  -7   4    0.19    0.13
   5   6  -4    0.94    0.21
   4   6  -4    0.37    0.17
   4   6  -4    0.28    0.25
   3   6  -4    0.19    0.23
   3   6  -4    0.37    0.20
   3   6  -4    0.64    0.20
   2   6  -4    6.99    0.43
   2   6  -4    5.88    0.64
   2   6  -4    5.86    0.54
   1   6  -4   28.38    1.68
   0   6  -4    6.30    0.45
   1  -6   4    9.35    0.95
   1  -6   4   10.34    0.64
   2  -6   4    0.43    0.21
   2  -6   4    0.45    0.14
   2  -6   4    0.28    0.37
   2  -6   4    0.66    0.32
   2  -6   4    0.46    0.31
   3  -6   4    6.38    0.53
   3  -6   4    6.69    0.57
   3  -6   4    6.78    0.51
   3  -6   4    7.09    0.44
   3  -6   4    6.79    0.79
   3  -6   4    6.63    0.69
   3  -6   4    6.98    0.64
   4  -6   4   11.44    0.87
   4  -6   4    9.81    0.81
   4  -6   4   10.69    0.74
   4  -6   4    9.31    0.76
   4  -6   4   10.86    1.09
   4  -6   4   11.04    0.64
   4  -6   4   11.32    0.89
   4  -6   4   11.25    0.72
   5  -6   4    2.25    0.29
   5  -6   4    1.51    0.57
   5  -6   4    1.93    0.26
   5  -6   4    2.68    0.25
   5  -6   4    1.65    0.27
   5  -6   4    1.98    0.30
   6  -6   4   -0.06    0.17
   6  -6   4   -0.02    0.18
   6  -6   4    0.02    0.24
   6  -6   4    0.36    0.23
   7  -6   4    0.49    0.26
   7  -6   4    0.47    0.17
   7  -6   4    0.19    0.17
   7  -6   4    0.45    0.09
   8  -6   4    0.22    0.12
   8  -6   4    0.27    0.16
   6   5  -4   10.29    0.71
   5   5  -4    2.26    0.25
   5   5  -4    2.65    0.30
   5   5  -4    2.47    0.30
   4   5  -4    2.80    0.32
   4   5  -4    1.92    0.25
   4   5  -4    2.36    0.26
   4   5  -4    2.10    0.27
   3   5  -4    9.91    1.09
   3   5  -4   10.12    0.80
   3   5  -4   11.80    0.77
   3   5  -4   10.72    0.74
   3   5  -4   11.32    0.86
   3   5  -4   11.40    0.66
   3   5  -4    9.97    0.93
   2   5  -4    0.26    0.19
   2   5  -4    0.02    0.24
   2   5  -4   -0.07    0.35
   2   5  -4   -0.04    0.17
   2   5  -4    0.11    0.11
   2   5  -4   -0.02    0.27
   1   5  -4   54.89    3.32
   1   5  -4   53.94    3.49
   1   5  -4   48.24    3.06
   1   5  -4   53.20    3.91
   0   5  -4   53.35    3.93
   0  -5   4   52.73    3.97
   1  -5   4    8.35    0.81
   1  -5   4    8.42    0.68
   1  -5   4    7.61    0.68
   2  -5   4   10.94    0.89
   2  -5   4   10.81    1.02
   2  -5   4   11.33    0.84
   3  -5   4    2.50    0.25
   3  -5   4    2.62    0.37
   3  -5   4    1.88    0.20
   3  -5   4    2.36    0.24
   3  -5   4    2.48    0.39
   3  -5   4    2.85    0.55
   4  -5   4    4.28    0.46
   4  -5   4    3.96    0.34
   4  -5   4    3.62    0.38
   4  -5   4    3.57    0.23
   4  -5   4    3.81    0.39
   4  -5   4    3.77    0.37
   4  -5   4    3.71    0.32
   4  -5   4    4.25    0.41
   4  -5   4    3.14    0.35
   4  -5   4    4.59    0.70
   5  -5   4   15.04    1.21
   5  -5   4   18.10    1.21
   5  -5   4   18.79    1.08
   5  -5   4   18.20    1.59
   5  -5   4   15.75    1.20
   5  -5   4   18.77    1.34
   5  -5   4   18.71    1.12
   5  -5   4   15.84    1.14
   6  -5   4    2.69    0.32
   6  -5   4    2.15    0.64
   6  -5   4    3.31    0.27
   6  -5   4    2.89    0.37
   6  -5   4    3.59    0.37
   7  -5   4    3.74    0.27
   7  -5   4    4.14    0.38
   7  -5   4    4.48    0.42
   7  -5   4    4.61    0.47
   8  -5   4    0.21    0.15
   8  -5   4    0.11    0.14
   8  -5   4    0.18    0.12
   9  -5   4    0.00    0.09
   9  -5   4    0.01    0.09
   7   4  -4   10.24    0.62
   7   4  -4    8.26    0.63
   6   4  -4   -0.08    0.19
   6   4  -4    0.06    0.17
   5   4  -4    0.36    0.18
   5   4  -4    0.22    0.19
   5   4  -4   -0.02    0.19
   4   4  -4   44.89    2.66
   4   4  -4   41.80    2.79
   4   4  -4   38.86    2.92
   4   4  -4   44.89    2.79
   4   4  -4   42.83    2.92
   4   4  -4   50.67    2.76
   4   4  -4   44.88    3.43
   3   4  -4    0.04    0.16
   3   4  -4   -0.03    0.07
   3   4  -4    0.09    0.16
   3   4  -4    0.23    0.40
   3   4  -4    0.19    0.24
   3   4  -4    0.05    0.15
   3   4  -4    0.15    0.22
   2   4  -4    0.92    0.39
   2   4  -4    1.43    0.33
   2   4  -4    0.57    0.27
   2   4  -4    0.92    0.13
   1   4  -4   26.08    1.75
   1   4  -4   28.13    2.10
   1   4  -4   26.69    1.85
   0   4  -4    0.28    0.26
   0   4  -4    0.44    0.24
   0  -4   4    0.43    0.27
   0  -4   4    0.39    0.31
   0  -4   4    0.33    0.25
  -1   4  -4   22.61    1.67
   1  -4   4   22.30    1.70
   1  -4   4   27.67    1.64
   1  -4   4   26.44    1.72
   2  -4   4   95.86    6.32
   2  -4   4  100.80    7.25
   2  -4   4  100.17    6.06
   3  -4   4   88.57    6.42
   3  -4   4   87.78    5.57
   3  -4   4   87.54    6.31
   3  -4   4   84.04    5.33
   4  -4   4    4.18    0.38
   4  -4   4    3.55    0.38
   4  -4   4    3.36    0.35
   4  -4   4    3.75    0.57
   4  -4   4    3.76    0.32
   4  -4   4    3.80    0.41
   4  -4   4    3.58    0.36
   4  -4   4    3.76    0.61
   4  -4   4    3.94    0.31
   5  -4   4    0.77    0.12
   5  -4   4    0.93    0.16
   5  -4   4    1.16    0.57
   5  -4   4    0.80    0.22
   5  -4   4    0.53    0.15
   5  -4   4    0.66    0.23
   5  -4   4    0.49    0.49
   5  -4   4    0.41    0.17
   5  -4   4    0.90    0.23
   5  -4   4    0.68    0.20
   6  -4   4    3.90    0.41
   6  -4   4    3.47    0.43
   6  -4   4    3.10    0.36
   6  -4   4    3.85    0.40
   6  -4   4    3.63    0.30
   7  -4   4    1.66    0.26
   7  -4   4    1.45    0.27
   7  -4   4    1.02    0.10
   7  -4   4    1.31    0.29
   8  -4   4    4.90    0.41
   8  -4   4    4.69    0.41
   9  -4   4    0.76    0.12
   9  -4   4    0.40    0.12
   8   3  -4   -0.03    0.11
   8   3  -4    0.09    0.14
   7   3  -4    0.79    0.19
   7   3  -4    0.28    0.20
   6   3  -4    3.10    0.38
   6   3  -4    2.73    0.35
   6   3  -4    3.10    0.26
   6   3  -4    3.02    0.36
   5   3  -4   24.89    1.40
   5   3  -4   19.17    1.50
   5   3  -4   23.13    1.55
   5   3  -4   22.77    1.68
   5   3  -4   21.96    1.94
   5   3  -4   24.36    1.47
   4   3  -4    2.31    0.27
   4   3  -4    2.12    0.25
   4   3  -4    1.83    0.30
   4   3  -4    1.89    0.22
   4   3  -4    2.05    0.26
   4   3  -4    1.94    0.25
   4   3  -4    1.90    0.29
   4   3  -4    1.63    0.51
   3   3  -4   37.50    2.41
   3   3  -4   34.24    2.12
   3   3  -4   37.55    2.79
   3   3  -4   36.87    2.29
   2   3  -4   -0.03    0.19
   2   3  -4   -0.06    0.31
   2   3  -4   -0.09    0.19
   1   3  -4    2.91    0.34
   1   3  -4    2.63    0.40
   1   3  -4    2.87    0.37
   1   3  -4    2.40    0.38
   1   3  -4    3.70    0.49
  -1  -3   4    2.56    0.43
   0   3  -4   12.84    0.91
   0   3  -4   11.39    0.89
   0   3  -4   12.75    0.91
   0   3  -4   12.44    0.85
   0  -3   4   12.17    0.92
   0  -3   4   11.64    0.85
   0  -3   4   12.39    0.90
   0  -3   4   11.07    0.91
  -1   3  -4    1.66    0.30
  -1   3  -4    1.29    0.31
  -1   3  -4    1.54    0.28
  -1   3  -4    1.63    0.34
   1  -3   4    1.54    0.29
   1  -3   4    1.63    0.35
   1  -3   4    1.35    0.30
   1  -3   4    1.71    0.30
  -2   3  -4   13.75    1.04
   2  -3   4   13.24    1.00
   2  -3   4   14.99    1.18
   2  -3   4   15.39    1.04
   2  -3   4   13.74    1.03
   2  -3   4   15.11    0.98
   3  -3   4   47.56    3.08
   3  -3   4   46.29    3.51
   3  -3   4   46.93    2.94
   3  -3   4   49.15    3.56
   4  -3   4   29.00    2.20
   4  -3   4   27.06    2.20
   4  -3   4   26.87    1.77
   4  -3   4   28.84    1.78
   4  -3   4   29.11    1.87
   5  -3   4   10.36    1.03
   5  -3   4   10.73    0.65
   5  -3   4    8.69    0.66
   5  -3   4   10.98    0.68
   5  -3   4   10.49    0.76
   5  -3   4   11.07    0.76
   5  -3   4   11.13    1.05
   5  -3   4   10.38    0.82
   5  -3   4    9.48    0.72
   5  -3   4   10.10    0.72
   6  -3   4   18.15    1.19
   6  -3   4   20.24    1.30
   6  -3   4   16.44    1.40
   6  -3   4   16.17    1.57
   6  -3   4   20.09    1.30
   6  -3   4   19.25    1.13
   7  -3   4    0.76    0.28
   7  -3   4    0.45    0.25
   7  -3   4    0.84    0.23
   8  -3   4   21.36    1.61
   8  -3   4   26.25    1.60
   9  -3   4    4.03    0.30
   9  -3   4    3.32    0.30
   8   2  -4    4.29    0.39
   8   2  -4    5.35    0.38
   7   2  -4    5.44    0.46
   7   2  -4    6.09    0.49
   7   2  -4    5.40    0.51
   6   2  -4    1.41    0.22
   6   2  -4    1.51    0.22
   6   2  -4    1.36    0.25
   6   2  -4    0.87    0.53
   6   2  -4    1.36    0.16
   5   2  -4    2.49    0.33
   5   2  -4    2.85    0.40
   5   2  -4    2.64    0.29
   5   2  -4    3.31    0.62
   5   2  -4    2.22    0.31
   5   2  -4    2.32    0.25
   4   2  -4    7.04    0.46
   4   2  -4    6.91    0.54
   4   2  -4    6.68    0.50
   4   2  -4    6.42    0.46
   4   2  -4    7.34    0.50
   4   2  -4    6.57    0.55
   4   2  -4    7.56    0.78
   4   2  -4    6.68    0.53
   4   2  -4    6.17    0.55
   3   2  -4   48.50    3.29
   3   2  -4   51.73    3.79
   3   2  -4   53.11    3.15
   2   2  -4   71.08    4.31
   2   2  -4   73.71    5.27
   2   2  -4   73.33    4.64
   2   2  -4   72.85    5.12
   2   2  -4   70.32    4.31
   2   2  -4   80.31    4.44
  -2  -2   4   71.17    4.32
  -2  -2   4   67.28    4.32
   1   2  -4    8.40    0.70
   1   2  -4    7.91    0.64
   1   2  -4    8.85    0.59
   1   2  -4    8.53    0.64
   1   2  -4    7.62    0.63
  -1  -2   4    8.33    0.67
  -1  -2   4    8.75    0.67
  -1  -2   4    7.23    0.62
  -1  -2   4    6.83    0.58
   0   2  -4   20.78    1.30
   0   2  -4   19.17    1.29
   0   2  -4   17.61    1.42
   0   2  -4   19.34    1.34
   0   2  -4   19.40    1.26
   0  -2   4   19.75    1.33
   0  -2   4   20.73    1.26
   0  -2   4   20.74    1.29
   0  -2   4   19.60    1.29
  -1   2  -4  208.62   13.47
  -1   2  -4  218.34   12.93
  -1   2  -4  223.31   14.04
  -1   2  -4  226.23   12.93
   1  -2   4  231.58   15.83
   1  -2   4  230.58   14.04
   1  -2   4  227.78   13.47
   1  -2   4  217.30   12.92
   1  -2   4  220.95   12.92
  -2   2  -4    2.39    0.36
  -2   2  -4    2.84    0.39
   2  -2   4    2.08    0.34
   2  -2   4    2.73    0.32
   2  -2   4    2.97    0.35
   2  -2   4    3.09    0.43
   3  -2   4   36.50    2.20
   3  -2   4   33.08    2.66
   3  -2   4   37.93    2.66
   3  -2   4   33.76    2.30
   4  -2   4    0.67    0.21
   4  -2   4    1.27    0.39
   4  -2   4    0.90    0.21
   4  -2   4    0.89    0.43
   5  -2   4    3.42    0.64
   5  -2   4    4.37    0.40
   5  -2   4    4.60    0.42
   5  -2   4    3.64    0.28
   5  -2   4    4.36    0.40
   5  -2   4    3.95    0.33
   5  -2   4    3.97    0.30
   5  -2   4    5.21    0.41
   5  -2   4    4.42    0.35
   6  -2   4   11.98    0.78
   6  -2   4    9.33    1.15
   6  -2   4   12.36    0.86
   6  -2   4   11.28    0.73
   6  -2   4   12.30    0.87
   7  -2   4    0.87    0.30
   7  -2   4    1.15    0.23
   7  -2   4    1.02    0.26
   8  -2   4    2.40    0.26
   8  -2   4    2.51    0.30
   8  -2   4    2.12    0.29
   9  -2   4    1.04    0.15
   9   1  -4    0.21    0.11
   9   1  -4    0.34    0.16
   8   1  -4    3.98    0.37
   8   1  -4    4.14    0.41
   8   1  -4    4.09    0.37
   7   1  -4    2.89    0.39
   7   1  -4    2.90    0.37
   7   1  -4    3.18    0.33
   6   1  -4   19.32    1.42
   6   1  -4   19.67    1.42
   6   1  -4   17.81    1.63
   6   1  -4   19.80    1.23
   6   1  -4   18.67    1.14
   6   1  -4   18.17    1.31
   5   1  -4    9.94    0.96
   5   1  -4    8.30    0.65
   5   1  -4    8.94    0.69
   5   1  -4    9.28    0.58
   5   1  -4    9.89    0.74
   5   1  -4    8.61    0.62
   5   1  -4   10.22    0.75
   4   1  -4    2.17    0.52
   4   1  -4    2.26    0.21
   4   1  -4    2.75    0.52
   4   1  -4    2.17    0.21
   4   1  -4    2.25    0.23
   4   1  -4    2.16    0.21
   3   1  -4    0.32    0.35
   3   1  -4    0.04    0.11
   3   1  -4    0.04    0.12
   3   1  -4   -0.02    0.13
   3   1  -4    0.20    0.17
   3   1  -4    0.30    0.31
   3   1  -4    0.16    0.16
   3   1  -4    0.03    0.12
  -3  -1   4    0.13    0.18
   2   1  -4   19.74    1.37
   2   1  -4   23.49    1.45
   2   1  -4   24.49    1.63
   2   1  -4   23.28    1.37
   2   1  -4   20.71    1.36
   2   1  -4   21.48    1.66
   2   1  -4   19.34    1.43
   2   1  -4   21.88    1.36
  -2  -1   4   22.29    1.37
  -2  -1   4   22.78    1.38
   1   1  -4   26.54    1.56
   1   1  -4   24.11    1.55
   1   1  -4   26.74    1.63
   1   1  -4   24.02    1.55
   1   1  -4   26.17    1.80
  -1  -1   4   26.05    1.55
  -1  -1   4   22.22    1.62
  -1  -1   4   25.55    1.57
  -1  -1   4   22.91    1.56
   0   1  -4    0.18    0.21
   0   1  -4    0.32    0.20
   0   1  -4    0.23    0.20
   0   1  -4    0.59    0.24
   0   1  -4    0.15    0.26
   0  -1   4    0.33    0.25
   0  -1   4    0.20    0.26
   0  -1   4   -0.01    0.22
   0  -1   4    0.40    0.20
   0  -1   4    0.28    0.15
  -1   1  -4   69.65    4.72
  -1   1  -4   83.31    4.58
  -1   1  -4   71.86    4.92
  -1   1  -4   85.48    4.58
  -1   1  -4   73.70    5.35
   1  -1   4   76.47    5.55
   1  -1   4   81.66    4.58
   1  -1   4   78.36    4.72
   1  -1   4   76.11    4.58
   1  -1   4   79.66    4.93
  -2   1  -4    1.41    0.34
  -2   1  -4    1.68    0.32
   2  -1   4    1.46    0.30
   2  -1   4    1.09    0.20
   2  -1   4    1.83    0.27
   2  -1   4    1.52    0.25
   2  -1   4    1.93    0.42
   2  -1   4    1.40    0.31
   2  -1   4    1.49    0.23
   3  -1   4    0.01    0.23
   3  -1   4   -0.07    0.38
   3  -1   4   -0.15    0.20
   3  -1   4   -0.09    0.18
   4  -1   4    3.52    0.34
   4  -1   4    3.87    0.37
   4  -1   4    3.33    0.60
   5  -1   4    0.25    0.09
   5  -1   4    0.10    0.13
   5  -1   4   -0.01    0.14
   5  -1   4    0.01    0.22
   5  -1   4    0.12    0.45
   5  -1   4    0.13    0.12
   5  -1   4    0.19    0.21
   5  -1   4    0.29    0.17
   5  -1   4    0.22    0.20
   6  -1   4    2.62    0.31
   6  -1   4    2.10    0.28
   6  -1   4    1.72    0.60
   6  -1   4    2.38    0.25
   6  -1   4    2.26    0.29
   6  -1   4    2.67    0.29
   7  -1   4    2.54    0.29
   7  -1   4    2.80    0.33
   7  -1   4    2.39    0.28
   8  -1   4    0.43    0.25
   8  -1   4    0.38    0.14
   9   0  -4    0.07    0.19
   9   0  -4   -0.13    0.18
   8   0  -4    1.51    0.21
   8   0  -4    1.01    0.23
   8   0  -4    1.33    0.27
   7   0  -4    9.09    0.76
   7   0  -4    9.61    0.78
   7   0  -4    9.36    1.02
   7   0  -4    8.99    0.69
   7   0  -4    9.90    0.73
   6   0  -4    2.11    0.27
   6   0  -4    2.51    0.32
   6   0  -4    2.16    0.27
   6   0  -4    2.03    0.27
   6   0  -4    2.65    0.54
   6   0  -4    2.58    0.36
   5   0  -4   22.98    1.70
   5   0  -4   18.82    1.38
   5   0  -4   21.92    1.59
   5   0  -4   22.75    1.75
   5   0  -4   22.62    1.56
   5   0  -4   21.59    1.45
   5   0  -4   21.38    1.29
   4   0  -4    1.72    0.41
   4   0  -4    1.39    0.24
   4   0  -4    1.93    0.44
   3   0  -4    3.38    0.28
   3   0  -4    2.95    0.32
   3   0  -4    4.25    0.49
   3   0  -4    4.23    0.51
   3   0  -4    3.32    0.27
   3   0  -4    3.67    0.27
   3   0  -4    3.85    0.26
   3   0  -4    3.33    0.29
   3   0  -4    3.53    0.28
  -3   0   4    3.21    0.29
  -3   0   4    3.25    0.32
   2   0  -4   14.50    1.14
   2   0  -4   15.47    0.93
   2   0  -4   12.67    0.92
   2   0  -4   15.57    0.98
   2   0  -4   14.73    0.94
   2   0  -4   14.15    1.13
   2   0  -4   14.36    0.96
   2   0  -4   14.10    0.94
  -2   0   4   15.37    0.95
  -2   0   4   15.25    0.94
   1   0  -4    2.49    0.30
   1   0  -4    2.20    0.26
   1   0  -4    2.74    0.30
   1   0  -4    2.40    0.27
   1   0  -4    3.31    0.39
   1   0  -4    2.17    0.29
  -1   0   4    2.35    0.27
  -1   0   4    2.12    0.28
  -1   0   4    2.39    0.32
  -1   0   4    2.37    0.32
   0   0  -4   31.29    1.91
   0   0  -4   31.49    1.94
   0   0  -4   33.33    2.03
   0   0  -4   33.87    1.93
   0   0   4   25.90    2.27
   0   0   4   30.58    1.91
   0   0   4   30.87    2.03
   0   0   4   31.12    1.94
   0   0   4   34.34    1.94
  -1   0  -4  100.69    6.53
  -1   0  -4  113.85    6.31
  -1   0  -4  103.46    6.82
  -1   0  -4  104.59    6.31
   1   0   4  107.82    6.31
   1   0   4  107.91    7.70
   1   0   4  115.62    6.82
   1   0   4  106.70    6.30
   1   0   4  108.54    6.54
  -2   0  -4  211.21   12.19
  -2   0  -4  206.68   12.18
   2   0   4  218.57   13.22
   2   0   4  187.81   12.16
   2   0   4  221.07   12.70
   2   0   4  209.36   12.19
   2   0   4  212.89   14.94
   3   0   4    0.15    0.24
   3   0   4   -0.11    0.40
   3   0   4    0.14    0.18
   4   0   4    0.94    0.21
   4   0   4    0.43    0.47
   4   0   4    0.88    0.20
   4   0   4    0.84    0.17
   4   0   4    0.89    0.14
   4   0   4    0.93    0.22
   4   0   4    0.86    0.24
   5   0   4    0.99    0.18
   5   0   4    0.61    0.17
   5   0   4    0.34    0.51
   5   0   4    1.01    0.23
   5   0   4    0.82    0.12
   5   0   4    0.72    0.15
   5   0   4    0.86    0.18
   5   0   4    0.64    0.18
   5   0   4    0.56    0.24
   6   0   4    8.92    0.67
   6   0   4    9.51    0.58
   6   0   4    9.06    0.70
   6   0   4    9.37    0.73
   6   0   4    8.54    0.67
   6   0   4    7.68    1.05
   7   0   4    2.16    0.25
   7   0   4    2.50    0.31
   8   0   4    2.61    0.23
   8   0   4    2.03    0.26
   9  -1  -4    0.24    0.15
   9  -1  -4    0.42    0.14
   8  -1  -4    0.74    0.24
   8  -1  -4    0.72    0.22
   8  -1  -4    1.00    0.22
   8  -1  -4    0.75    0.26
   7  -1  -4   14.88    1.11
   7  -1  -4   16.72    1.21
   7  -1  -4   15.11    1.04
   7  -1  -4   13.97    1.08
   7  -1  -4   17.78    1.20
   7  -1  -4   16.71    1.06
   6  -1  -4    0.60    0.18
   6  -1  -4    0.28    0.34
   6  -1  -4    0.33    0.13
   6  -1  -4    0.93    0.43
   6  -1  -4    0.60    0.18
   6  -1  -4    0.73    0.22
   6  -1  -4    0.69    0.20
   6  -1  -4    0.49    0.19
   6  -1  -4    0.53    0.20
   6  -1  -4    0.50    0.21
   5  -1  -4    2.06    0.44
   5  -1  -4    2.09    0.41
   4  -1  -4  124.82    9.73
   4  -1  -4  132.09    9.77
   4  -1  -4  147.10    9.53
   4  -1  -4  142.91    9.90
   3  -1  -4    3.25    0.26
   3  -1  -4    3.38    0.25
   3  -1  -4    3.49    0.45
   3  -1  -4    3.35    0.24
   3  -1  -4    3.43    0.48
   3  -1  -4    3.12    0.40
   3  -1  -4    3.61    0.24
   3  -1  -4    2.97    0.27
   3  -1  -4    3.42    0.25
  -3   1   4    3.26    0.27
   2  -1  -4    0.01    0.13
   2  -1  -4    0.03    0.14
   2  -1  -4    0.04    0.12
   2  -1  -4    0.24    0.34
   2  -1  -4    0.16    0.20
   2  -1  -4    0.15    0.19
   2  -1  -4   -0.03    0.15
   2  -1  -4    0.29    0.32
   2  -1  -4    0.12    0.14
  -2   1   4    0.10    0.21
  -2   1   4    0.09    0.16
   1  -1  -4    9.59    0.91
   1  -1  -4   11.20    0.85
   1  -1  -4   10.82    0.76
   1  -1  -4   10.97    0.71
   1  -1  -4   10.90    0.75
   1  -1  -4   10.15    0.75
  -1   1   4    9.94    0.75
  -1   1   4   12.13    0.77
  -1   1   4   11.09    0.77
  -1   1   4    9.53    0.72
   0  -1  -4    2.66    0.31
   0  -1  -4    2.76    0.37
   0  -1  -4    3.55    0.39
   0  -1  -4    3.15    0.39
   0   1   4    2.80    0.33
   0   1   4    2.83    0.40
   0   1   4    2.93    0.35
   0   1   4    2.94    0.38
  -1  -1  -4   48.69    3.44
  -1  -1  -4   56.68    3.61
  -1  -1  -4   62.04    3.40
  -1  -1  -4   53.08    3.37
   1   1   4   57.01    3.37
   1   1   4   53.73    3.38
   1   1   4   59.03    3.46
   1   1   4   59.45    3.62
  -2  -1  -4  136.02    8.36
   2   1   4  145.79   10.21
   2   1   4  143.50   10.19
   2   1   4  134.55    8.35
   2   1   4  151.39    8.66
   3   1   4   30.38    1.94
   3   1   4   28.87    2.32
   3   1   4   30.60    2.37
   3   1   4   32.11    2.05
   4   1   4   11.03    0.73
   4   1   4   11.87    1.13
   4   1   4   12.44    0.80
   4   1   4   13.24    0.85
   4   1   4   10.22    0.81
   4   1   4   10.46    0.70
   4   1   4   10.34    0.74
   4   1   4    9.48    0.78
   4   1   4   11.44    0.79
   5   1   4    8.74    0.65
   5   1   4    7.01    0.96
   5   1   4    8.27    0.61
   5   1   4    7.56    0.57
   5   1   4    7.23    0.60
   5   1   4    7.25    0.52
   5   1   4    7.64    0.52
   5   1   4    8.03    0.59
   6   1   4    0.46    0.21
   6   1   4    0.48    0.13
   6   1   4    0.48    0.21
   6   1   4    0.25    0.24
   7   1   4    3.47    0.32
   7   1   4    4.34    0.44
   8   1   4    0.47    0.13
   8   1   4    0.30    0.10
   9  -2  -4    1.36    0.18
   9  -2  -4    1.04    0.21
   9  -2  -4    0.78    0.19
   8  -2  -4    0.18    0.22
   8  -2  -4    0.19    0.24
   8  -2  -4    0.21    0.14
   8  -2  -4    0.37    0.23
   8  -2  -4    0.24    0.19
   8  -2  -4    0.32    0.14
   8  -2  -4    0.22    0.13
   8  -2  -4    0.00    0.20
   7  -2  -4   15.36    1.12
   7  -2  -4   15.39    1.04
   7  -2  -4   13.84    1.02
   7  -2  -4   12.38    1.13
   7  -2  -4   15.25    1.03
   7  -2  -4   16.54    1.00
   7  -2  -4   14.72    0.97
   7  -2  -4   14.89    1.12
   6  -2  -4    0.95    0.24
   6  -2  -4    0.51    0.18
   6  -2  -4    0.69    0.15
   6  -2  -4    0.66    0.18
   6  -2  -4    1.00    0.24
   6  -2  -4    0.31    0.32
   6  -2  -4    0.70    0.19
   6  -2  -4    0.72    0.19
   6  -2  -4    0.11    0.37
   6  -2  -4    0.45    0.17
   5  -2  -4    5.96    0.58
   5  -2  -4    4.24    0.49
   5  -2  -4    4.80    0.60
   4  -2  -4    0.29    0.35
   4  -2  -4    0.06    0.39
   4  -2  -4    0.20    0.21
   3  -2  -4    6.92    0.55
   3  -2  -4    6.96    0.61
   3  -2  -4    7.95    0.74
   3  -2  -4    8.29    0.74
   3  -2  -4    7.81    0.54
   3  -2  -4    7.39    0.51
   3  -2  -4    7.86    0.55
   3  -2  -4    8.21    0.52
   3  -2  -4    8.15    0.55
  -3   2   4    7.52    0.54
  -3   2   4    8.06    0.57
   2  -2  -4    0.43    0.21
   2  -2  -4    0.51    0.17
   2  -2  -4    0.40    0.39
   2  -2  -4    0.31    0.17
   2  -2  -4    0.32    0.21
   2  -2  -4    0.50    0.15
   2  -2  -4    0.38    0.17
   2  -2  -4    0.43    0.36
  -2   2   4    0.37    0.25
  -2   2   4    0.52    0.24
   1  -2  -4   15.40    1.06
   1  -2  -4   17.23    1.03
   1  -2  -4   16.63    1.09
   1  -2  -4   15.95    1.22
   1  -2  -4   14.58    1.04
  -1   2   4   14.64    1.03
  -1   2   4   15.27    1.08
   0  -2  -4    0.15    0.25
   0  -2  -4    0.20    0.23
   0  -2  -4    0.39    0.21
   0  -2  -4    0.23    0.24
   0   2   4    0.30    0.23
   0   2   4    0.55    0.30
  -1  -2  -4    6.69    0.65
  -1  -2  -4    6.86    0.64
   1   2   4    7.10    0.56
   1   2   4    7.38    0.66
   1   2   4    7.43    0.63
   1   2   4    7.50    0.67
   1   2   4    5.90    0.62
   2   2   4   14.14    1.36
   2   2   4   16.12    1.17
   2   2   4   17.24    1.10
   2   2   4   16.45    1.31
   3   2   4    3.01    0.31
   3   2   4    2.85    0.29
   3   2   4    3.96    0.53
   3   2   4    4.85    0.71
   3   2   4    4.12    0.45
   3   2   4    3.54    0.40
   3   2   4    3.32    0.24
   4   2   4   37.40    2.55
   4   2   4   38.32    2.44
   4   2   4   41.45    3.06
   4   2   4   37.71    2.38
   4   2   4   36.66    2.45
   4   2   4   40.23    2.32
   4   2   4   37.93    2.58
   4   2   4   39.64    2.57
   5   2   4    2.13    0.28
   5   2   4    2.50    0.28
   5   2   4    2.45    0.25
   5   2   4    2.48    0.25
   5   2   4    1.75    0.57
   5   2   4    2.92    0.36
   6   2   4    1.86    0.22
   6   2   4    2.09    0.22
   6   2   4    1.45    0.32
   6   2   4    1.39    0.26
   7   2   4    0.12    0.13
   7   2   4   -0.01    0.22
   9  -3  -4    0.28    0.11
   9  -3  -4    0.14    0.11
   8  -3  -4   30.62    1.98
   8  -3  -4   30.36    2.18
   8  -3  -4   27.73    1.96
   8  -3  -4   27.62    1.83
   8  -3  -4   30.97    1.96
   8  -3  -4   28.92    1.87
   7  -3  -4    3.35    0.38
   7  -3  -4    3.86    0.43
   7  -3  -4    3.51    0.38
   7  -3  -4    3.10    0.36
   7  -3  -4    3.61    0.40
   7  -3  -4    4.02    0.41
   7  -3  -4    3.79    0.35
   7  -3  -4    3.41    0.35
   6  -3  -4    0.16    0.39
   6  -3  -4    0.60    0.16
   6  -3  -4    0.77    0.24
   6  -3  -4    1.11    0.24
   6  -3  -4    0.89    0.20
   6  -3  -4    0.71    0.23
   6  -3  -4    0.85    0.19
   6  -3  -4    1.07    0.18
   5  -3  -4    4.52    0.61
   5  -3  -4    4.54    0.54
   5  -3  -4    4.60    0.37
   5  -3  -4    3.86    0.35
   5  -3  -4    4.67    0.43
   4  -3  -4    0.91    0.13
   4  -3  -4    1.44    0.47
   4  -3  -4    0.78    0.13
   4  -3  -4    0.80    0.14
   4  -3  -4    1.01    0.45
   4  -3  -4    0.90    0.13
   3  -3  -4    6.64    0.78
   3  -3  -4    7.84    0.52
   3  -3  -4    7.77    0.55
   3  -3  -4    7.03    0.71
   3  -3  -4    6.18    0.54
   2  -3  -4   50.29    2.85
   2  -3  -4   46.19    2.99
   2  -3  -4   45.49    3.42
   2  -3  -4   46.24    2.80
  -2   3   4   44.33    2.82
  -2   3   4   43.66    2.81
   1  -3  -4   25.44    1.72
   1  -3  -4   26.60    1.72
   1  -3  -4   28.55    1.71
   1  -3  -4   27.41    2.03
   1  -3  -4   28.28    1.81
  -1   3   4   26.43    1.74
  -1   3   4   24.60    1.71
  -1   3   4   26.36    1.80
  -1   3   4   27.25    1.76
   0  -3  -4    2.37    0.40
   0  -3  -4    3.46    0.46
   0  -3  -4    3.08    0.41
   0  -3  -4    2.92    0.35
   0   3   4    3.06    0.41
   0   3   4    1.84    0.39
   0   3   4    3.00    0.46
   0   3   4    3.43    0.39
   1   3   4   13.83    1.22
   1   3   4   16.61    1.22
   1   3   4   17.75    1.31
   1   3   4   17.27    1.14
   2   3   4    3.56    0.41
   2   3   4    2.80    0.22
   2   3   4    3.00    0.42
   2   3   4    3.24    0.50
   3   3   4    2.49    0.52
   3   3   4    4.18    0.47
   3   3   4    3.84    0.35
   3   3   4    4.30    0.27
   3   3   4    4.58    0.52
   3   3   4    4.64    0.79
   3   3   4    4.17    0.36
   3   3   4    3.67    0.36
   4   3   4    0.62    0.35
   4   3   4    0.95    0.28
   4   3   4    1.10    0.50
   4   3   4    1.01    0.23
   4   3   4    1.13    0.18
   4   3   4    1.32    0.21
   5   3   4    1.32    0.23
   5   3   4    0.93    0.15
   5   3   4    0.83    0.23
   5   3   4    1.03    0.19
   6   3   4    0.32    0.18
   6   3   4    0.26    0.12
   6   3   4    0.30    0.14
   7   3   4    0.12    0.12
   9  -4  -4    1.57    0.19
   9  -4  -4    1.44    0.19
   8  -4  -4    0.09    0.17
   8  -4  -4   -0.30    0.24
   8  -4  -4   -0.09    0.16
   8  -4  -4    0.16    0.20
   7  -4  -4    0.23    0.44
   7  -4  -4    0.10    0.26
   7  -4  -4    0.13    0.17
   7  -4  -4    0.30    0.21
   7  -4  -4    0.21    0.23
   7  -4  -4    0.32    0.17
   7  -4  -4    0.54    0.19
   6  -4  -4    0.29    0.15
   6  -4  -4    0.63    0.23
   6  -4  -4    0.29    0.42
   6  -4  -4    0.90    0.25
   6  -4  -4    0.35    0.06
   6  -4  -4    0.35    0.22
   6  -4  -4    0.61    0.20
   6  -4  -4    0.46    0.16
   5  -4  -4    0.02    0.35
   5  -4  -4    0.21    0.14
   5  -4  -4    0.32    0.19
   5  -4  -4    0.13    0.17
   5  -4  -4    0.09    0.38
   5  -4  -4    0.10    0.09
   5  -4  -4    0.32    0.21
   5  -4  -4    0.16    0.20
   4  -4  -4    0.26    0.16
   4  -4  -4    0.24    0.38
   4  -4  -4    0.55    0.37
   4  -4  -4    0.27    0.16
   3  -4  -4    0.20    0.18
   3  -4  -4   -0.02    0.20
   3  -4  -4   -0.33    0.41
   3  -4  -4   -0.15    0.39
   2  -4  -4  132.35    8.08
   2  -4  -4  130.37    7.74
   2  -4  -4  118.22    9.21
   1  -4  -4   18.73    1.43
   1  -4  -4   22.25    1.38
   1  -4  -4   22.96    1.49
   1  -4  -4   19.21    1.61
   0   4   4    2.07    0.40
   0   4   4    1.59    0.34
   1   4   4    3.15    0.44
   1   4   4    3.62    0.49
   2   4   4    2.71    0.46
   2   4   4    3.07    0.33
   2   4   4    2.65    0.29
   2   4   4    3.69    0.45
   2   4   4    2.89    0.23
   3   4   4    0.19    0.13
   3   4   4    0.10    0.29
   3   4   4    0.25    0.19
   3   4   4    0.13    0.12
   3   4   4    0.09    0.19
   3   4   4    0.31    0.32
   3   4   4    0.27    0.59
   4   4   4    5.88    0.47
   4   4   4    5.76    0.48
   4   4   4    6.06    0.51
   4   4   4    5.97    0.49
   5   4   4    0.07    0.16
   5   4   4    0.16    0.19
   5   4   4   -0.06    0.11
   5   4   4    0.09    0.09
   6   4   4    0.41    0.09
   6   4   4    0.33    0.11
   6   4   4    0.72    0.15
   9  -5  -4    1.56    0.20
   9  -5  -4    1.99    0.24
   9  -5  -4    1.56    0.20
   8  -5  -4    3.59    0.34
   8  -5  -4    3.73    0.42
   8  -5  -4    3.24    0.32
   7  -5  -4    5.88    0.58
   7  -5  -4    6.06    0.50
   7  -5  -4    6.47    0.52
   6  -5  -4   15.84    1.07
   6  -5  -4   15.92    1.21
   6  -5  -4   17.31    1.10
   6  -5  -4   13.74    1.16
   6  -5  -4   13.45    1.41
   6  -5  -4   16.16    0.95
   5  -5  -4    6.47    0.56
   5  -5  -4    5.77    0.55
   5  -5  -4    5.62    0.52
   5  -5  -4    5.45    0.41
   5  -5  -4    7.02    0.50
   5  -5  -4    6.19    0.44
   5  -5  -4    6.81    0.42
   5  -5  -4    6.76    0.48
   5  -5  -4    6.27    0.86
   4  -5  -4    2.11    0.26
   4  -5  -4    1.72    0.23
   4  -5  -4    1.91    0.30
   4  -5  -4    1.81    0.31
   4  -5  -4    2.24    0.30
   4  -5  -4    1.80    0.52
   4  -5  -4    1.77    0.52
   4  -5  -4    1.90    0.25
   4  -5  -4    2.07    0.20
   4  -5  -4    1.98    0.24
   3  -5  -4   34.51    2.03
   3  -5  -4   30.40    2.00
   3  -5  -4   33.03    2.47
   3  -5  -4   30.96    1.85
   3  -5  -4   30.85    2.42
   3  -5  -4   29.94    2.01
   3  -5  -4   32.43    2.14
   2  -5  -4   15.29    1.11
   2  -5  -4   15.49    1.03
   2  -5  -4   14.31    1.22
   2  -5  -4   13.57    0.87
   1  -5  -4    2.31    0.43
   1  -5  -4    3.12    0.41
   1   5   4   21.46    1.28
   2   5   4   11.39    0.80
   2   5   4   10.22    1.21
   2   5   4   11.09    0.93
   2   5   4   10.42    1.01
   2   5   4   11.14    0.76
   2   5   4   12.06    0.70
   3   5   4    0.06    0.10
   3   5   4    0.08    0.19
   3   5   4    0.17    0.19
   3   5   4    0.28    0.13
   4   5   4    0.09    0.17
   4   5   4    0.18    0.13
   4   5   4    0.10    0.16
   4   5   4    0.26    0.24
   5   5   4   -0.05    0.17
   5   5   4    0.05    0.13
   9  -6  -4    2.78    0.25
   9  -6  -4    2.63    0.29
   8  -6  -4    1.83    0.24
   8  -6  -4    1.38    0.19
   8  -6  -4    1.68    0.24
   7  -6  -4    4.85    0.44
   7  -6  -4    5.68    0.50
   7  -6  -4    6.41    0.48
   6  -6  -4   10.93    0.74
   6  -6  -4   10.46    0.66
   6  -6  -4   10.60    0.85
   6  -6  -4    9.78    0.77
   5  -6  -4    2.33    0.22
   5  -6  -4    1.89    0.32
   5  -6  -4    2.96    0.25
   5  -6  -4    2.29    0.30
   5  -6  -4    1.66    0.57
   5  -6  -4    2.15    0.29
   5  -6  -4    2.72    0.32
   5  -6  -4    1.51    0.27
   5  -6  -4    2.07    0.29
   4  -6  -4   21.69    1.76
   4  -6  -4   19.97    1.52
   4  -6  -4   19.68    1.35
   4  -6  -4   20.53    1.19
   4  -6  -4   20.10    1.34
   4  -6  -4   20.11    1.70
   4  -6  -4   21.61    1.46
   4  -6  -4   20.12    1.52
   4  -6  -4   19.88    1.32
   4  -6  -4   21.08    1.26
   3  -6  -4    6.28    0.79
   3  -6  -4    7.15    0.61
   3  -6  -4    7.23    0.53
   3  -6  -4    6.98    0.54
   3  -6  -4    7.11    0.69
   3  -6  -4    6.75    0.85
   3  -6  -4    7.41    0.45
   3  -6  -4    6.92    0.51
   2  -6  -4   11.21    0.84
   2  -6  -4   10.96    0.93
   2  -6  -4    9.84    0.74
   2  -6  -4   10.60    0.66
   1  -6  -4   -0.04    0.12
   0   6   4    0.04    0.12
   1   6   4    5.74    0.39
   2   6   4   -0.04    0.11
   2   6   4   -0.08    0.20
   3   6   4    1.57    0.21
   3   6   4    1.09    0.22
   3   6   4    1.48    0.19
   4   6   4    0.20    0.12
   4   6   4    0.44    0.11
   4   6   4    0.59    0.13
   9  -7  -4    0.37    0.14
   9  -7  -4    0.15    0.11
   8  -7  -4    0.76    0.18
   8  -7  -4    0.57    0.18
   7  -7  -4    4.69    0.32
   7  -7  -4    5.07    0.48
   7  -7  -4    5.27    0.50
   7  -7  -4    5.02    0.44
   6  -7  -4   -0.10    0.22
   6  -7  -4    0.20    0.12
   6  -7  -4   -0.22    0.27
   5  -7  -4    1.83    0.24
   5  -7  -4    1.62    0.20
   5  -7  -4    1.55    0.30
   5  -7  -4    1.94    0.22
   5  -7  -4    2.07    0.31
   4  -7  -4   13.65    0.92
   4  -7  -4   14.52    0.91
   4  -7  -4   12.23    1.27
   4  -7  -4   12.28    0.78
   4  -7  -4   15.60    0.88
   4  -7  -4   12.16    1.02
   3  -7  -4    1.23    0.23
   3  -7  -4    1.11    0.13
   3  -7  -4    0.95    0.33
   3  -7  -4    1.23    0.24
   3  -7  -4    0.34    0.57
   3  -7  -4    1.51    0.23
   2  -7  -4    2.47    0.23
   2  -7  -4    3.79    0.37
   2  -7  -4    2.27    0.28
   1  -7  -4   18.96    1.15
   0  -7  -4    0.45    0.15
   0   7   4    0.37    0.10
   1   7   4    8.81    0.56
   2   7   4    0.83    0.10
   2   7   4    0.62    0.20
   3   7   4   -0.09    0.10
   3   7   4    0.01    0.11
   8  -8  -4    9.49    0.73
   7  -8  -4    0.15    0.25
   7  -8  -4    0.08    0.14
   7  -8  -4    0.09    0.07
   6  -8  -4    6.70    0.49
   6  -8  -4    6.48    0.44
   6  -8  -4    5.56    0.53
   5  -8  -4   23.75    1.53
   5  -8  -4   24.16    1.51
   5  -8  -4   23.02    1.45
   4  -8  -4    0.71    0.18
   4  -8  -4    0.41    0.17
   4  -8  -4    0.47    0.14
   4  -8  -4    0.36    0.23
   3  -8  -4   10.48    0.73
   3  -8  -4   10.24    0.62
   3  -8  -4    9.46    0.72
   2  -8  -4   13.09    0.83
   2  -8  -4   13.52    0.95
   2  -8  -4   13.97    0.90
   1  -8  -4    9.00    0.58
   0  -8  -4    8.01    0.52
   0   8   4    7.94    0.51
   1   8   4    4.17    0.29
   1   8   4    4.25    0.34
   2   8   4    0.02    0.10
   2   8   4    0.10    0.10
   7  -9  -4    2.14    0.23
   6  -9  -4   12.15    0.78
   6  -9  -4   12.98    0.86
   5  -9  -4    0.07    0.15
   5  -9  -4    0.11    0.14
   5  -9  -4    0.13    0.08
   4  -9  -4    0.55    0.22
   4  -9  -4    0.55    0.18
   4  -9  -4    0.85    0.13
   3  -9  -4    4.74    0.42
   3  -9  -4    4.98    0.37
   3  -9  -4    4.79    0.29
   2  -9  -4    3.10    0.31
   2  -9  -4    3.44    0.23
   1  -9  -4   -0.01    0.07
  -1   9   4   -0.01    0.07
   0  -9  -4    0.55    0.08
   0   9   4    0.55    0.08
   5 -10  -4    0.24    0.10
   5 -10  -4    0.12    0.10
   4 -10  -4    0.30    0.12
   4 -10  -4    0.27    0.10
   4 -10  -4    0.40    0.08
   3 -10  -4    2.54    0.24
  -1  10  -5    0.55    0.07
   1 -10   5    0.24    0.06
   1 -10   5    0.44    0.11
   2 -10   5    2.89    0.26
   2 -10   5    2.92    0.26
   3 -10   5    1.18    0.17
   4 -10   5    0.02    0.08
   4 -10   5    0.07    0.09
   1   9  -5    2.95    0.20
   1   9  -5    3.43    0.31
   0   9  -5    0.06    0.07
   1  -9   5    2.99    0.23
   2  -9   5    5.82    0.37
   2  -9   5    5.30    0.45
   3  -9   5    0.45    0.17
   3  -9   5    0.29    0.15
   3  -9   5    0.22    0.07
   4  -9   5    2.50    0.28
   4  -9   5    1.69    0.21
   4  -9   5    1.93    0.23
   5  -9   5    3.11    0.28
   5  -9   5    2.82    0.29
   5  -9   5    2.79    0.21
   5  -9   5    2.36    0.24
   6  -9   5   -0.05    0.07
   6  -9   5    0.03    0.10
   3   8  -5    1.05    0.15
   2   8  -5    0.35    0.14
   2   8  -5    0.29    0.06
   1   8  -5    3.55    0.27
   0   8  -5    2.71    0.22
   0  -8   5    2.53    0.27
   1  -8   5   11.31    0.71
   2  -8   5    0.19    0.15
   3  -8   5    0.73    0.20
   3  -8   5    1.34    0.16
   4  -8   5    0.01    0.19
   4  -8   5   -0.03    0.16
   4  -8   5    0.27    0.21
   5  -8   5   -0.16    0.13
   5  -8   5   -0.04    0.16
   5  -8   5   -0.01    0.13
   5  -8   5   -0.03    0.21
   6  -8   5    2.42    0.22
   6  -8   5    2.56    0.29
   7  -8   5    2.02    0.24
   4   7  -5    4.19    0.33
   3   7  -5    0.46    0.16
   2   7  -5    0.32    0.10
   2   7  -5    0.23    0.22
   1   7  -5    0.99    0.16
   0   7  -5    1.03    0.18
   1  -7   5    2.93    0.28
   2  -7   5    3.52    0.68
   2  -7   5    4.27    0.33
   2  -7   5    4.47    0.41
   2  -7   5    4.49    0.45
   3  -7   5    0.53    0.19
   3  -7   5    0.46    0.23
   3  -7   5    0.80    0.23
   3  -7   5    0.35    0.13
   3  -7   5    0.37    0.43
   4  -7   5    2.88    0.30
   4  -7   5    2.83    0.30
   4  -7   5    2.75    0.18
   4  -7   5    2.92    0.38
   4  -7   5    2.97    0.37
   5  -7   5    5.51    0.45
   5  -7   5    5.40    0.54
   6  -7   5    3.23    0.41
   6  -7   5    2.98    0.30
   6  -7   5    3.23    0.28
   7  -7   5    2.88    0.31
   7  -7   5    3.78    0.34
   7  -7   5    3.03    0.22
   8  -7   5    2.44    0.22
   8  -7   5    3.03    0.27
   5   6  -5   10.56    0.70
   4   6  -5    6.63    0.50
   3   6  -5    0.38    0.17
   3   6  -5    0.43    0.16
   3   6  -5    0.55    0.20
   3   6  -5    0.47    0.08
   2   6  -5   10.66    0.65
   2   6  -5   10.61    0.76
   2   6  -5    9.49    1.07
   1   6  -5   19.93    1.16
   1   6  -5   18.17    1.63
   0   6  -5    5.01    0.65
   1  -6   5    1.18    0.18
   1  -6   5    1.11    0.43
   2  -6   5   -0.01    0.38
   2  -6   5    0.02    0.20
   2  -6   5   -0.15    0.21
   2  -6   5   -0.23    0.13
   2  -6   5    0.30    0.33
   3  -6   5    0.06    0.20
   3  -6   5    0.32    0.30
   3  -6   5    0.49    0.31
   3  -6   5    0.26    0.14
   3  -6   5    0.37    0.17
   3  -6   5    0.37    0.12
   3  -6   5    1.04    0.48
   4  -6   5   18.66    1.27
   4  -6   5   17.96    1.34
   4  -6   5   18.62    1.71
   4  -6   5   21.42    1.48
   4  -6   5   19.73    1.43
   4  -6   5   19.25    1.14
   4  -6   5   20.73    1.22
   4  -6   5   19.08    1.28
   5  -6   5   13.39    1.04
   5  -6   5   13.82    0.84
   5  -6   5   11.86    0.92
   5  -6   5   12.65    0.90
   5  -6   5   13.21    0.87
   6  -6   5    0.21    0.16
   6  -6   5    0.22    0.18
   6  -6   5    0.21    0.16
   6  -6   5    0.64    0.20
   7  -6   5    1.63    0.20
   7  -6   5    2.33    0.27
   7  -6   5    1.49    0.16
   8  -6   5    3.62    0.37
   6   5  -5    0.51    0.15
   6   5  -5    0.47    0.11
   5   5  -5    2.78    0.34
   5   5  -5    3.01    0.31
   5   5  -5    2.90    0.33
   4   5  -5   21.89    1.35
   4   5  -5   21.17    1.40
   4   5  -5   24.11    1.39
   4   5  -5   19.75    1.47
   3   5  -5    0.73    0.20
   3   5  -5    0.88    0.20
   3   5  -5    0.94    0.22
   3   5  -5    0.24    0.30
   3   5  -5    0.78    0.49
   3   5  -5    0.63    0.29
   3   5  -5    0.72    0.11
   2   5  -5    4.21    0.39
   2   5  -5    4.41    0.30
   2   5  -5    4.27    0.48
   2   5  -5    3.71    0.38
   2   5  -5    4.25    0.57
   2   5  -5    4.40    0.67
   1   5  -5    3.84    0.49
   1   5  -5    3.65    0.52
   1   5  -5    2.87    0.54
   0   5  -5    2.76    0.50
   0  -5   5    2.97    0.56
   1  -5   5    1.40    0.43
   1  -5   5    0.73    0.32
   1  -5   5    1.16    0.33
   2  -5   5    0.04    0.41
   2  -5   5    0.18    0.13
   2  -5   5   -0.11    0.27
   2  -5   5    0.01    0.26
   3  -5   5    0.02    0.12
   3  -5   5   -0.13    0.24
   3  -5   5   -0.10    0.17
   3  -5   5    0.02    0.10
   3  -5   5   -0.43    0.43
   3  -5   5    0.13    0.26
   4  -5   5    2.15    0.33
   4  -5   5    2.10    0.26
   4  -5   5    2.38    0.58
   4  -5   5    1.89    0.25
   4  -5   5    2.58    0.24
   4  -5   5    1.92    0.34
   4  -5   5    2.16    0.15
   4  -5   5    1.63    0.23
   4  -5   5    2.14    0.27
   5  -5   5    0.17    0.17
   5  -5   5    0.35    0.20
   5  -5   5    0.39    0.13
   5  -5   5    0.55    0.22
   5  -5   5    0.13    0.45
   5  -5   5    0.26    0.17
   5  -5   5    0.20    0.19
   5  -5   5    0.17    0.22
   6  -5   5    1.51    0.24
   6  -5   5    1.60    0.21
   6  -5   5    1.30    0.29
   6  -5   5    1.20    0.26
   7  -5   5    0.62    0.10
   7  -5   5    0.76    0.24
   7  -5   5    0.60    0.21
   7  -5   5    0.53    0.25
   8  -5   5    2.00    0.23
   8  -5   5    2.09    0.29
   7   4  -5    1.84    0.21
   7   4  -5    2.16    0.23
   6   4  -5    2.60    0.33
   6   4  -5    3.20    0.35
   5   4  -5    1.02    0.27
   5   4  -5    1.31    0.23
   5   4  -5    1.15    0.24
   5   4  -5    1.32    0.19
   4   4  -5    8.32    0.55
   4   4  -5    7.30    0.61
   4   4  -5    6.66    0.66
   4   4  -5    7.83    0.56
   4   4  -5    6.61    0.60
   4   4  -5    7.26    0.94
   4   4  -5    8.39    0.55
   3   4  -5    0.67    0.18
   3   4  -5    0.53    0.42
   3   4  -5    0.36    0.23
   3   4  -5    0.44    0.09
   3   4  -5    0.64    0.17
   3   4  -5    0.34    0.26
   3   4  -5    0.45    0.19
   2   4  -5    6.47    0.42
   2   4  -5    6.26    0.74
   2   4  -5    6.61    0.64
   2   4  -5    7.09    0.57
   2   4  -5    5.70    0.49
   1   4  -5   64.12    3.93
   1   4  -5   65.23    4.65
   1   4  -5   59.71    4.11
   0   4  -5   10.60    0.87
   0   4  -5   10.99    0.81
   1  -4   5    0.10    0.27
   1  -4   5    0.16    0.25
   1  -4   5    0.43    0.35
   2  -4   5  274.25   16.85
   2  -4   5  279.80   17.55
   2  -4   5  280.15   20.08
   3  -4   5   10.40    1.00
   3  -4   5   10.47    0.78
   3  -4   5   11.18    0.84
   3  -4   5   10.80    0.99
   3  -4   5   10.46    0.64
   4  -4   5   16.56    1.05
   4  -4   5   17.48    1.28
   4  -4   5   17.66    1.48
   4  -4   5   15.88    1.16
   4  -4   5   15.92    0.98
   4  -4   5   17.54    1.15
   4  -4   5   16.99    1.23
   4  -4   5   17.29    1.10
   4  -4   5   17.62    1.17
   4  -4   5   16.79    1.46
   5  -4   5   10.27    1.10
   5  -4   5    8.61    0.73
   5  -4   5    9.53    0.68
   5  -4   5    8.64    0.72
   5  -4   5    9.81    0.64
   5  -4   5   10.54    0.64
   5  -4   5   10.02    0.73
   5  -4   5    8.93    1.03
   5  -4   5   10.60    0.81
   6  -4   5    0.19    0.16
   6  -4   5    0.20    0.38
   6  -4   5    0.60    0.20
   6  -4   5    0.46    0.22
   6  -4   5    0.43    0.24
   7  -4   5    8.81    0.83
   7  -4   5   11.53    0.79
   7  -4   5   10.09    0.63
   7  -4   5   11.40    0.79
   8  -4   5   27.24    1.83
   8   3  -5    0.26    0.10
   8   3  -5    0.16    0.11
   7   3  -5    4.66    0.41
   7   3  -5    5.67    0.41
   6   3  -5    0.43    0.18
   6   3  -5    0.48    0.17
   6   3  -5    0.25    0.21
   6   3  -5    0.42    0.16
   5   3  -5    2.67    0.31
   5   3  -5    2.23    0.30
   5   3  -5    2.29    0.29
   5   3  -5    2.49    0.32
   5   3  -5    2.04    0.60
   4   3  -5    2.54    0.33
   4   3  -5    2.72    0.58
   4   3  -5    2.69    0.37
   4   3  -5    2.32    0.25
   4   3  -5    2.59    0.30
   4   3  -5    3.16    0.30
   4   3  -5    2.51    0.27
   4   3  -5    2.67    0.29
   3   3  -5   22.24    1.46
   3   3  -5   22.61    1.34
   3   3  -5   21.49    1.53
   3   3  -5   23.47    1.59
   3   3  -5   24.40    1.86
   3   3  -5   23.39    1.49
   2   3  -5    6.66    0.63
   2   3  -5    7.38    0.57
   2   3  -5    7.71    0.80
   1   3  -5    5.56    0.47
   1   3  -5    4.77    0.54
   1   3  -5    5.62    0.53
  -1  -3   5    4.72    0.58
   0   3  -5    3.14    0.44
   0   3  -5    2.90    0.37
   0   3  -5    3.52    0.41
   0   3  -5    2.86    0.42
   0  -3   5    3.12    0.40
   0  -3   5    3.12    0.37
   0  -3   5    2.73    0.43
   0  -3   5    2.51    0.43
  -1   3  -5   18.16    1.28
  -1   3  -5   18.02    1.33
  -1   3  -5   19.04    1.36
  -1   3  -5   18.95    1.34
   1  -3   5   19.25    1.34
   1  -3   5   21.23    1.49
   1  -3   5   20.28    1.28
   1  -3   5   18.65    1.31
   1  -3   5   19.28    1.35
   2  -3   5    2.24    0.29
   2  -3   5    1.70    0.39
   2  -3   5    1.90    0.38
   2  -3   5    2.27    0.33
   3  -3   5    3.27    0.40
   3  -3   5    3.44    0.37
   3  -3   5    3.34    0.53
   3  -3   5    3.84    0.57
   4  -3   5   33.05    2.51
   4  -3   5   36.50    2.39
   4  -3   5   40.79    2.92
   4  -3   5   38.28    2.77
   4  -3   5   37.54    2.38
   4  -3   5   39.50    2.34
   4  -3   5   36.67    2.28
   4  -3   5   37.57    2.53
   4  -3   5   40.90    2.94
   4  -3   5   41.06    2.51
   5  -3   5    0.59    0.48
   5  -3   5    0.71    0.24
   5  -3   5    0.89    0.13
   5  -3   5    0.82    0.21
   5  -3   5    0.56    0.18
   5  -3   5    0.82    0.21
   5  -3   5    0.41    0.17
   5  -3   5    1.08    0.17
   5  -3   5    0.91    0.16
   6  -3   5    3.92    0.42
   6  -3   5    4.03    0.32
   6  -3   5    4.23    0.42
   6  -3   5    4.22    0.44
   6  -3   5    2.49    0.57
   6  -3   5    3.37    0.40
   7  -3   5    4.71    0.42
   7  -3   5    4.42    0.30
   7  -3   5    4.77    0.39
   7  -3   5    5.16    0.47
   8  -3   5    4.58    0.43
   8  -3   5    4.43    0.38
   8   2  -5    0.70    0.16
   8   2  -5    0.66    0.16
   7   2  -5    1.57    0.23
   7   2  -5    1.64    0.22
   7   2  -5    1.33    0.25
   6   2  -5    4.08    0.43
   6   2  -5    4.28    0.44
   6   2  -5    4.28    0.33
   6   2  -5    4.01    0.43
   5   2  -5    3.08    0.41
   5   2  -5    3.93    0.75
   5   2  -5    2.70    0.35
   5   2  -5    2.89    0.25
   5   2  -5    3.01    0.35
   5   2  -5    3.16    0.33
   4   2  -5   16.48    1.05
   4   2  -5   13.83    0.96
   4   2  -5   16.06    1.13
   4   2  -5   16.16    0.99
   4   2  -5   14.73    0.97
   4   2  -5   17.08    1.34
   4   2  -5   13.98    0.92
   4   2  -5   14.29    1.04
   4   2  -5   14.52    1.12
   3   2  -5    7.26    0.76
   3   2  -5    6.94    0.74
   3   2  -5    7.46    0.58
   3   2  -5    7.02    0.53
   2   2  -5   -0.09    0.18
   2   2  -5    0.04    0.21
   2   2  -5    0.24    0.21
   2   2  -5    0.13    0.34
   2   2  -5    0.21    0.19
   2   2  -5    0.22    0.38
   1   2  -5   30.09    1.87
   1   2  -5   31.19    2.14
   1   2  -5   29.31    1.87
   1   2  -5   32.66    1.97
   1   2  -5   28.66    1.86
  -1  -2   5   29.99    1.88
  -1  -2   5   30.42    1.88
  -1  -2   5   26.75    1.86
  -1  -2   5   27.57    1.96
   0   2  -5    4.67    0.42
   0   2  -5    4.60    0.44
   0   2  -5    5.04    0.47
   0   2  -5    4.59    0.53
   0   2  -5    4.30    0.49
   0  -2   5    4.01    0.46
   0  -2   5    4.40    0.53
   0  -2   5    4.37    0.43
   0  -2   5    3.82    0.48
   0  -2   5    4.19    0.41
  -1   2  -5   71.14    4.82
  -1   2  -5   77.42    4.50
  -1   2  -5   74.94    4.62
  -1   2  -5   72.72    4.51
   1  -2   5   73.78    4.50
   1  -2   5   71.24    4.48
   1  -2   5   78.49    4.82
   1  -2   5   77.93    5.41
   1  -2   5   80.66    4.62
  -2   2  -5    6.97    0.67
   2  -2   5    8.17    0.64
   2  -2   5    8.67    0.75
   2  -2   5    6.20    0.62
   2  -2   5    8.51    0.61
   3  -2   5    2.13    0.42
   3  -2   5    1.87    0.33
   3  -2   5    1.72    0.45
   3  -2   5    1.95    0.29
   4  -2   5    0.24    0.21
   4  -2   5    0.34    0.20
   4  -2   5    0.21    0.17
   4  -2   5    0.43    0.16
   4  -2   5    0.67    0.44
   4  -2   5    0.33    0.23
   4  -2   5    0.26    0.14
   4  -2   5    0.14    0.18
   4  -2   5   -0.01    0.26
   5  -2   5    2.94    0.36
   5  -2   5    3.49    0.39
   5  -2   5    2.25    0.59
   5  -2   5    3.88    0.37
   5  -2   5    2.71    0.28
   5  -2   5    3.38    0.32
   5  -2   5    3.07    0.24
   6  -2   5    2.15    0.23
   6  -2   5    2.05    0.29
   6  -2   5    2.46    0.30
   6  -2   5    1.89    0.32
   6  -2   5    1.27    0.58
   7  -2   5    0.76    0.09
   7  -2   5    0.64    0.18
   7  -2   5    0.58    0.29
   7  -2   5    1.11    0.19
   8  -2   5    1.10    0.18
   8  -2   5    0.60    0.14
   8  -2   5    1.27    0.20
   9   1  -5   10.29    0.63
   9   1  -5    7.70    0.57
   8   1  -5    0.29    0.22
   8   1  -5   -0.06    0.22
   8   1  -5   -0.09    0.14
   7   1  -5    1.67    0.29
   7   1  -5    1.94    0.25
   7   1  -5    2.25    0.37
   7   1  -5    1.91    0.29
   6   1  -5    2.55    0.22
   6   1  -5    3.15    0.31
   6   1  -5    3.12    0.36
   6   1  -5    2.79    0.37
   6   1  -5    1.39    0.54
   6   1  -5    3.09    0.34
   5   1  -5    2.94    0.32
   5   1  -5    3.37    0.59
   5   1  -5    2.26    0.26
   5   1  -5    2.96    0.34
   5   1  -5    2.80    0.28
   5   1  -5    3.03    0.34
   5   1  -5    2.92    0.23
   4   1  -5    0.17    0.11
   4   1  -5    0.28    0.12
   4   1  -5    0.22    0.12
   4   1  -5    0.28    0.10
   4   1  -5    0.72    0.41
   4   1  -5    0.19    0.35
   3   1  -5    0.83    0.35
   3   1  -5    0.38    0.33
   3   1  -5    0.44    0.14
   3   1  -5    0.49    0.18
   3   1  -5    0.45    0.13
   3   1  -5    0.21    0.14
   3   1  -5    0.33    0.15
   2   1  -5    2.49    0.26
   2   1  -5    2.52    0.36
   2   1  -5    2.60    0.32
   2   1  -5    2.90    0.34
   2   1  -5    2.87    0.35
   2   1  -5    3.61    0.46
   2   1  -5    2.28    0.28
   2   1  -5    3.91    0.47
  -2  -1   5    2.46    0.36
  -2  -1   5    2.48    0.37
   1   1  -5    8.48    0.63
   1   1  -5    8.97    0.63
   1   1  -5    8.71    0.58
   1   1  -5    7.77    0.72
   1   1  -5    7.80    0.66
  -1  -1   5    7.02    0.58
  -1  -1   5    8.09    0.65
  -1  -1   5    8.22    0.66
  -1  -1   5    7.33    0.62
   0   1  -5   12.88    0.85
   0   1  -5   14.35    0.93
   0   1  -5   11.82    0.95
   0   1  -5   12.74    0.90
   0   1  -5   12.67    0.91
   0  -1   5   12.45    0.96
   0  -1   5   13.25    0.93
   0  -1   5   12.17    0.86
   0  -1   5   13.10    0.93
   0  -1   5   12.03    0.90
  -1   1  -5    3.66    0.36
  -1   1  -5    4.11    0.42
  -1   1  -5    4.21    0.47
  -1   1  -5    3.27    0.38
  -1   1  -5    4.31    0.49
   1  -1   5    3.98    0.47
   1  -1   5    3.71    0.47
   1  -1   5    4.45    0.43
   1  -1   5    2.55    0.48
   1  -1   5    4.34    0.40
  -2   1  -5    2.48    0.39
  -2   1  -5    2.39    0.39
   2  -1   5    2.99    0.35
   2  -1   5    1.99    0.39
   2  -1   5    2.70    0.34
   2  -1   5    3.05    0.49
   3  -1   5    0.11    0.22
   3  -1   5    0.32    0.26
   3  -1   5    0.04    0.40
   3  -1   5    0.17    0.20
   4  -1   5   13.27    0.86
   4  -1   5   11.81    0.81
   4  -1   5   11.98    0.88
   4  -1   5   12.81    1.18
   4  -1   5   11.32    0.88
   4  -1   5   13.09    0.88
   4  -1   5   12.36    0.92
   4  -1   5   12.84    0.82
   4  -1   5   12.85    0.78
   5  -1   5    7.12    0.57
   5  -1   5    6.17    0.47
   5  -1   5    6.41    0.55
   5  -1   5    6.74    0.48
   5  -1   5    7.88    0.91
   5  -1   5    7.62    0.55
   5  -1   5    7.01    0.51
   5  -1   5    8.24    0.58
   5  -1   5    7.48    0.59
   6  -1   5    2.98    0.36
   6  -1   5    2.77    0.28
   6  -1   5    2.76    0.36
   6  -1   5    2.25    0.30
   6  -1   5    0.87    0.57
   7  -1   5    1.65    0.14
   7  -1   5    2.33    0.26
   7  -1   5    2.49    0.29
   7  -1   5    2.57    0.31
   8  -1   5    0.67    0.14
   8  -1   5    1.20    0.20
   9   0  -5   -0.05    0.11
   9   0  -5    0.11    0.15
   8   0  -5    0.20    0.20
   8   0  -5    0.53    0.24
   8   0  -5    0.25    0.16
   7   0  -5    5.28    0.49
   7   0  -5    5.13    0.49
   7   0  -5    4.53    0.45
   7   0  -5    4.96    0.47
   6   0  -5    0.69    0.22
   6   0  -5    0.65    0.20
   6   0  -5    0.61    0.21
   6   0  -5    0.70    0.23
   6   0  -5    0.42    0.41
   6   0  -5    0.44    0.20
   5   0  -5    0.32    0.20
   5   0  -5    0.32    0.18
   5   0  -5    0.41    0.18
   5   0  -5    0.54    0.23
   5   0  -5    0.26    0.08
   5   0  -5    0.47    0.42
   5   0  -5    0.38    0.36
   4   0  -5    7.82    0.75
   4   0  -5    7.92    0.77
   3   0  -5   66.27    3.85
   3   0  -5   72.96    4.50
   3   0  -5   60.57    3.85
   3   0  -5   61.40    4.59
   3   0  -5   62.50    3.72
   3   0  -5   60.25    3.72
   3   0  -5   58.32    4.01
   3   0  -5   69.71    4.02
  -3   0   5   64.11    3.72
  -3   0   5   57.40    3.72
   2   0  -5    6.32    0.52
   2   0  -5    7.29    0.53
   2   0  -5    7.05    0.53
   2   0  -5    7.10    0.65
   2   0  -5    7.38    0.49
   2   0  -5    7.50    0.67
   2   0  -5    5.70    0.48
   2   0  -5    6.49    0.55
  -2   0   5    7.28    0.56
  -2   0   5    6.76    0.57
   1   0  -5    4.35    0.41
   1   0  -5    4.49    0.42
   1   0  -5    4.88    0.53
   1   0  -5    5.17    0.53
   1   0  -5    4.86    0.49
  -1   0   5    4.15    0.38
  -1   0   5    5.00    0.57
  -1   0   5    4.64    0.56
  -1   0   5    4.44    0.40
   0   0  -5   14.10    0.98
   0   0  -5   12.12    1.06
   0   0  -5   13.84    0.99
   0   0  -5   15.11    0.93
   0   0  -5   15.48    0.99
   0   0   5   15.28    1.02
   0   0   5   14.65    1.00
   0   0   5   12.92    1.08
   0   0   5   13.61    0.94
   0   0   5   13.75    1.00
  -1   0  -5   -0.03    0.19
  -1   0  -5   -0.01    0.27
  -1   0  -5    0.03    0.21
  -1   0  -5    0.14    0.27
   1   0   5   -0.03    0.25
   1   0   5   -0.02    0.24
   1   0   5    0.16    0.30
   1   0   5   -0.07    0.33
   1   0   5    0.05    0.22
  -2   0  -5    2.62    0.41
   2   0   5    3.89    0.56
   2   0   5    2.15    0.37
   2   0   5    3.83    0.41
   2   0   5    3.89    0.42
   2   0   5    2.88    0.48
   3   0   5    2.50    0.53
   3   0   5    2.09    0.32
   3   0   5    2.37    0.32
   4   0   5    2.84    0.27
   4   0   5    2.92    0.63
   4   0   5    2.88    0.27
   4   0   5    3.37    0.35
   4   0   5    2.67    0.33
   4   0   5    3.20    0.38
   4   0   5    3.03    0.32
   4   0   5    2.57    0.35
   4   0   5    2.89    0.27
   5   0   5    0.88    0.21
   5   0   5    1.12    0.23
   5   0   5    1.39    0.28
   5   0   5    1.23    0.15
   5   0   5    1.01    0.21
   5   0   5    1.00    0.18
   5   0   5    1.06    0.21
   5   0   5    1.16    0.58
   5   0   5    1.24    0.24
   6   0   5    9.44    0.71
   6   0   5    9.56    0.71
   6   0   5    9.01    0.62
   6   0   5    9.65    0.68
   7   0   5    3.99    0.34
   7   0   5    4.47    0.46
   8   0   5    0.02    0.08
   8   0   5    0.19    0.15
   9  -1  -5    5.08    0.40
   9  -1  -5    5.76    0.46
   9  -1  -5    5.09    0.43
   8  -1  -5    1.21    0.21
   8  -1  -5    1.05    0.29
   8  -1  -5    1.02    0.23
   8  -1  -5    1.11    0.26
   7  -1  -5    6.58    0.52
   7  -1  -5    6.30    0.55
   7  -1  -5    6.45    0.54
   7  -1  -5    5.58    0.45
   7  -1  -5    6.22    0.58
   6  -1  -5   10.16    0.99
   6  -1  -5    8.97    0.67
   6  -1  -5    9.80    0.75
   6  -1  -5    9.59    0.76
   6  -1  -5   11.02    0.77
   6  -1  -5    8.51    0.62
   6  -1  -5    8.44    0.67
   6  -1  -5   10.02    0.68
   6  -1  -5    8.23    0.89
   5  -1  -5   27.06    2.27
   5  -1  -5   34.99    2.27
   5  -1  -5   28.39    1.90
   5  -1  -5   30.21    2.14
   4  -1  -5    2.42    0.39
   4  -1  -5    1.47    0.37
   4  -1  -5    2.31    0.47
   3  -1  -5   64.69    4.41
   3  -1  -5   61.64    3.93
   3  -1  -5   63.36    3.94
   3  -1  -5   59.32    3.64
   3  -1  -5   57.81    3.77
   3  -1  -5   69.92    4.57
   3  -1  -5   67.49    3.78
   3  -1  -5   60.10    4.47
   3  -1  -5   59.69    3.64
  -3   1   5   56.52    3.65
  -3   1   5   63.04    3.64
   2  -1  -5   12.22    1.02
   2  -1  -5   10.96    0.81
   2  -1  -5   13.56    0.82
   2  -1  -5   13.19    1.03
   2  -1  -5   12.57    0.85
   2  -1  -5   13.23    0.86
   2  -1  -5   13.48    0.87
   2  -1  -5   11.98    0.85
   2  -1  -5   11.30    0.95
  -2   1   5   13.07    0.87
  -2   1   5   12.69    0.86
   1  -1  -5    2.79    0.32
   1  -1  -5    2.57    0.46
   1  -1  -5    2.47    0.36
   1  -1  -5    2.39    0.35
   1  -1  -5    2.60    0.30
  -1   1   5    2.34    0.32
  -1   1   5    2.08    0.31
  -1   1   5    2.13    0.37
  -1   1   5    2.41    0.37
   0  -1  -5   93.24    6.09
   0  -1  -5   92.35    5.83
   0  -1  -5  102.74    5.66
   0  -1  -5   95.11    5.65
   0   1   5   94.45    5.66
   0   1   5   99.11    6.10
   0   1   5   91.15    5.84
   0   1   5   98.58    5.65
  -1  -1  -5   46.21    2.86
  -1  -1  -5   49.83    2.87
  -1  -1  -5   45.89    3.03
  -1  -1  -5   41.64    2.88
   1   1   5   46.21    2.85
   1   1   5   48.25    2.90
   1   1   5   49.23    3.03
   1   1   5   45.60    2.87
   2   1   5    0.50    0.24
   2   1   5    0.57    0.44
   2   1   5    0.41    0.27
   3   1   5   16.47    1.40
   3   1   5   15.74    1.10
   3   1   5   15.45    1.16
   4   1   5    0.70    0.54
   4   1   5    0.88    0.19
   4   1   5    0.78    0.28
   4   1   5    0.86    0.17
   4   1   5    1.08    0.22
   4   1   5    0.87    0.20
   4   1   5    0.87    0.18
   4   1   5    0.71    0.19
   4   1   5    0.83    0.26
   5   1   5    0.69    0.17
   5   1   5    0.50    0.21
   5   1   5    0.58    0.24
   5   1   5    0.68    0.15
   5   1   5    0.82    0.60
   5   1   5    0.66    0.18
   5   1   5    0.82    0.27
   6   1   5    2.46    0.37
   6   1   5    2.94    0.26
   6   1   5    2.87    0.35
   7   1   5   -0.04    0.18
   7   1   5    0.03    0.17
   9  -2  -5    2.12    0.24
   9  -2  -5    2.04    0.22
   9  -2  -5    1.57    0.24
   8  -2  -5   -0.12    0.17
   8  -2  -5   -0.06    0.19
   8  -2  -5    0.12    0.13
   8  -2  -5    0.02    0.21
   8  -2  -5    0.21    0.14
   8  -2  -5   -0.19    0.21
   8  -2  -5   -0.10    0.17
   8  -2  -5   -0.02    0.21
   7  -2  -5    2.74    0.29
   7  -2  -5    2.20    0.26
   7  -2  -5    2.38    0.36
   7  -2  -5    2.25    0.32
   7  -2  -5    3.01    0.36
   7  -2  -5    2.55    0.27
   7  -2  -5    2.21    0.27
   7  -2  -5    2.38    0.30
   6  -2  -5    8.75    0.65
   6  -2  -5    8.65    0.65
   6  -2  -5    9.49    0.75
   6  -2  -5    9.91    0.72
   6  -2  -5    8.96    0.72
   6  -2  -5    9.17    0.66
   6  -2  -5    9.53    0.67
   6  -2  -5    8.74    0.88
   6  -2  -5    8.44    0.62
   5  -2  -5    0.04    0.38
   5  -2  -5    0.35    0.37
   5  -2  -5    0.02    0.20
   4  -2  -5    7.31    0.75
   4  -2  -5    7.44    0.78
   3  -2  -5   46.08    2.82
   3  -2  -5   46.63    3.29
   3  -2  -5   44.84    2.82
   3  -2  -5   39.75    2.70
   3  -2  -5   39.54    2.62
   3  -2  -5   48.29    2.71
   3  -2  -5   40.81    2.63
   3  -2  -5   47.34    3.18
  -3   2   5   43.33    2.64
   2  -2  -5    2.78    0.36
   2  -2  -5    2.38    0.29
   2  -2  -5    2.65    0.32
   2  -2  -5    2.93    0.37
   2  -2  -5    3.33    0.43
   2  -2  -5    3.07    0.30
   2  -2  -5    2.41    0.26
   2  -2  -5    3.91    0.56
  -2   2   5    3.00    0.38
   1  -2  -5   44.00    2.68
   1  -2  -5   41.38    2.64
   1  -2  -5   40.93    2.64
   1  -2  -5   47.73    2.82
   1  -2  -5   47.03    3.18
  -1   2   5   39.57    2.63
  -1   2   5   44.66    2.82
  -1   2   5   42.74    2.66
  -1   2   5   39.88    2.68
   0  -2  -5   26.11    1.67
   0  -2  -5   24.73    1.63
   0  -2  -5   27.31    1.74
   0  -2  -5   24.64    1.67
   0   2   5   26.43    1.65
   0   2   5   24.09    1.68
  -1  -2  -5   24.72    1.84
   1   2   5   31.43    1.94
   1   2   5   25.04    1.86
   1   2   5   30.85    1.83
   2   2   5   30.13    2.10
   2   2   5   30.57    2.41
   2   2   5   31.76    1.99
   3   2   5    1.70    0.36
   3   2   5    1.82    0.21
   3   2   5    1.66    0.20
   3   2   5    1.63    0.22
   3   2   5    1.30    0.33
   3   2   5    1.72    0.17
   3   2   5    1.61    0.59
   4   2   5    6.76    0.55
   4   2   5    7.18    0.57
   4   2   5    8.34    0.64
   4   2   5    7.56    0.66
   4   2   5    9.13    1.02
   4   2   5    7.14    0.53
   4   2   5    7.76    0.58
   4   2   5    7.56    0.68
   5   2   5    3.11    0.28
   5   2   5    2.75    0.31
   5   2   5    3.10    0.33
   5   2   5    2.74    0.37
   5   2   5    2.86    0.35
   6   2   5    0.15    0.19
   6   2   5    0.17    0.13
   6   2   5    0.16    0.14
   7   2   5    6.63    0.48
   7   2   5    6.07    0.42
   9  -3  -5    0.30    0.13
   9  -3  -5    0.34    0.13
   9  -3  -5    0.09    0.19
   9  -3  -5    0.25    0.10
   8  -3  -5    4.34    0.45
   8  -3  -5    4.49    0.42
   8  -3  -5    3.91    0.35
   8  -3  -5    3.47    0.37
   8  -3  -5    4.26    0.37
   8  -3  -5    4.02    0.37
   8  -3  -5    3.63    0.38
   7  -3  -5    2.58    0.31
   7  -3  -5    3.21    0.33
   7  -3  -5    2.43    0.31
   7  -3  -5    2.58    0.28
   7  -3  -5    3.14    0.39
   7  -3  -5    2.79    0.32
   7  -3  -5    3.03    0.39
   6  -3  -5    4.84    0.41
   6  -3  -5    5.31    0.48
   6  -3  -5    4.96    0.41
   6  -3  -5    4.35    0.60
   6  -3  -5    4.54    0.47
   6  -3  -5    4.18    0.44
   6  -3  -5    4.68    0.45
   5  -3  -5   25.04    1.84
   5  -3  -5   23.22    1.73
   5  -3  -5   22.15    1.49
   5  -3  -5   25.46    1.91
   5  -3  -5   21.75    1.39
   5  -3  -5   23.95    1.57
   5  -3  -5   23.24    1.69
   4  -3  -5    1.71    0.19
   4  -3  -5    2.21    0.53
   4  -3  -5    1.92    0.22
   4  -3  -5    1.83    0.19
   4  -3  -5    2.51    0.48
   4  -3  -5    2.23    0.22
   3  -3  -5   12.66    0.88
   3  -3  -5   12.50    1.08
   3  -3  -5   12.55    0.84
   3  -3  -5   12.06    1.07
   2  -3  -5   64.59    4.17
   2  -3  -5   62.23    3.90
   2  -3  -5   62.73    4.76
   2  -3  -5   69.50    3.99
   1  -3  -5    3.25    0.40
   1  -3  -5    2.65    0.33
   1  -3  -5    2.92    0.41
   1  -3  -5    1.67    0.35
   1  -3  -5    2.51    0.40
  -1   3   5    1.85    0.40
   0  -3  -5   10.23    0.80
   0  -3  -5    7.52    0.76
   0  -3  -5    9.34    0.69
   0   3   5    7.74    0.79
   0   3   5    9.38    0.78
   0   3   5    9.80    0.71
   1   3   5    7.31    0.60
   1   3   5    6.72    0.68
   2   3   5    0.04    0.10
   2   3   5   -0.09    0.49
   2   3   5    0.03    0.27
   2   3   5    0.03    0.16
   2   3   5    0.24    0.27
   3   3   5   12.68    0.98
   3   3   5   11.64    0.84
   3   3   5   16.19    1.35
   3   3   5   13.36    1.05
   3   3   5   13.11    0.82
   3   3   5   12.55    0.88
   3   3   5   13.21    0.78
   4   3   5   44.17    2.71
   4   3   5   40.29    2.58
   4   3   5   38.96    2.45
   4   3   5   38.33    2.51
   4   3   5   41.95    3.25
   5   3   5    0.13    0.19
   5   3   5    0.05    0.11
   5   3   5   -0.01    0.16
   5   3   5   -0.10    0.26
   6   3   5    5.20    0.34
   6   3   5    4.63    0.35
   6   3   5    4.71    0.41
   9  -4  -5    0.70    0.19
   9  -4  -5    0.70    0.17
   8  -4  -5    4.93    0.43
   8  -4  -5    5.30    0.45
   8  -4  -5    5.12    0.48
   8  -4  -5    5.35    0.46
   8  -4  -5    5.51    0.48
   7  -4  -5   10.61    0.81
   7  -4  -5   10.27    0.83
   7  -4  -5   10.66    0.74
   7  -4  -5    7.83    1.01
   7  -4  -5    9.50    0.75
   7  -4  -5    9.83    0.74
   6  -4  -5   14.41    0.93
   6  -4  -5   16.59    1.08
   6  -4  -5   13.66    1.38
   6  -4  -5   15.47    1.15
   6  -4  -5   14.70    1.07
   6  -4  -5   16.04    1.19
   6  -4  -5   16.83    1.05
   5  -4  -5    3.50    0.40
   5  -4  -5    4.05    0.36
   5  -4  -5    3.91    0.36
   5  -4  -5    4.47    0.72
   5  -4  -5    4.07    0.40
   5  -4  -5    3.73    0.43
   5  -4  -5    3.97    0.29
   5  -4  -5    3.69    0.62
   4  -4  -5    0.45    0.19
   4  -4  -5    0.40    0.13
   4  -4  -5    0.55    0.41
   4  -4  -5    0.39    0.18
   4  -4  -5    0.41    0.39
   4  -4  -5    0.25    0.12
   3  -4  -5    6.85    0.56
   3  -4  -5    5.89    0.69
   3  -4  -5    6.85    0.53
   3  -4  -5    5.45    0.74
   2  -4  -5    4.39    0.42
   2  -4  -5    4.47    0.53
   2  -4  -5    4.65    0.51
   1  -4  -5    3.13    0.37
   1  -4  -5    3.11    0.45
   1  -4  -5    3.05    0.41
   1   4   5    1.23    0.36
   1   4   5    1.13    0.14
   1   4   5    0.82    0.31
   2   4   5    0.49    0.20
   2   4   5    0.68    0.57
   2   4   5    0.72    0.36
   2   4   5    0.56    0.34
   2   4   5    0.79    0.13
   3   4   5   22.68    1.39
   3   4   5   23.17    1.99
   3   4   5   22.37    1.32
   3   4   5   21.48    1.46
   4   4   5    0.45    0.20
   4   4   5    0.34    0.18
   4   4   5    0.53    0.14
   4   4   5    0.45    0.27
   5   4   5    0.03    0.15
   5   4   5    0.14    0.11
   6   4   5    1.32    0.18
   6   4   5    1.63    0.14
   9  -5  -5    0.55    0.17
   9  -5  -5    0.78    0.21
   8  -5  -5    1.71    0.24
   8  -5  -5    1.95    0.27
   8  -5  -5    2.22    0.26
   7  -5  -5   17.71    1.18
   7  -5  -5   18.46    1.34
   7  -5  -5   16.04    1.29
   7  -5  -5   17.11    1.21
   6  -5  -5   -0.05    0.17
   6  -5  -5    0.08    0.24
   6  -5  -5    0.07    0.25
   6  -5  -5    0.53    0.50
   6  -5  -5    0.05    0.23
   6  -5  -5    0.03    0.10
   5  -5  -5    1.89    0.23
   5  -5  -5    1.44    0.50
   5  -5  -5    1.86    0.54
   5  -5  -5    2.11    0.23
   5  -5  -5    1.89    0.21
   5  -5  -5    1.87    0.18
   5  -5  -5    2.34    0.25
   5  -5  -5    2.14    0.32
   5  -5  -5    2.21    0.29
   5  -5  -5    2.01    0.27
   4  -5  -5   12.25    1.01
   4  -5  -5   14.00    0.93
   4  -5  -5   13.03    0.83
   4  -5  -5   13.22    1.22
   4  -5  -5   13.32    0.91
   4  -5  -5   14.00    1.00
   4  -5  -5   12.87    1.01
   4  -5  -5   14.11    1.27
   4  -5  -5   13.97    0.88
   4  -5  -5   12.87    0.87
   3  -5  -5    2.66    0.29
   3  -5  -5    2.71    0.31
   3  -5  -5    3.23    0.56
   3  -5  -5    3.18    0.35
   3  -5  -5    3.24    0.41
   3  -5  -5    2.34    0.27
   3  -5  -5    2.60    0.20
   3  -5  -5    2.80    0.64
   2  -5  -5    0.18    0.27
   2  -5  -5    0.10    0.29
   2  -5  -5    0.43    0.25
   2  -5  -5    0.23    0.09
   1  -5  -5    8.66    0.77
   1  -5  -5    8.14    0.66
   1  -5  -5    6.96    0.49
   1   5   5    0.24    0.12
   2   5   5    1.10    0.68
   2   5   5    2.39    0.29
   2   5   5    2.26    0.22
   3   5   5    1.38    0.14
   3   5   5    1.37    0.23
   3   5   5    1.05    0.23
   4   5   5    0.13    0.23
   4   5   5    0.16    0.15
   4   5   5    0.16    0.13
   5   5   5    0.73    0.14
   9  -6  -5    2.18    0.24
   9  -6  -5    2.67    0.27
   8  -6  -5    1.12    0.17
   8  -6  -5    0.90    0.21
   8  -6  -5    0.80    0.20
   7  -6  -5   17.14    1.25
   7  -6  -5   18.20    1.38
   7  -6  -5   19.34    1.21
   6  -6  -5    0.52    0.24
   6  -6  -5    0.40    0.20
   6  -6  -5    0.32    0.14
   6  -6  -5    0.41    0.51
   6  -6  -5   -0.04    0.24
   6  -6  -5    0.32    0.18
   5  -6  -5   37.90    2.35
   5  -6  -5   37.96    2.97
   5  -6  -5   39.91    2.50
   5  -6  -5   37.31    2.36
   5  -6  -5   37.88    2.69
   5  -6  -5   35.91    2.45
   5  -6  -5   36.91    2.73
   5  -6  -5   35.11    2.34
   5  -6  -5   36.88    2.24
   4  -6  -5   -0.07    0.21
   4  -6  -5    0.14    0.14
   4  -6  -5    0.19    0.26
   4  -6  -5   -0.12    0.26
   4  -6  -5   -0.04    0.42
   4  -6  -5   -0.02    0.14
   4  -6  -5    0.06    0.05
   4  -6  -5   -0.23    0.51
   4  -6  -5   -0.04    0.19
   3  -6  -5   29.28    2.02
   3  -6  -5   29.60    1.90
   3  -6  -5   28.23    1.82
   3  -6  -5   28.83    2.29
   3  -6  -5   27.66    1.75
   3  -6  -5   28.09    1.85
   3  -6  -5   29.95    1.69
   3  -6  -5   28.56    2.31
   2  -6  -5    0.23    0.17
   2  -6  -5    0.13    0.28
   2  -6  -5    0.14    0.31
   2  -6  -5    0.37    0.11
   2  -6  -5    0.31    0.19
   1  -6  -5    5.01    0.36
   0   6   5    0.08    0.08
   1   6   5    0.48    0.14
   2   6   5   12.67    0.83
   2   6   5   10.98    0.71
   3   6   5    0.62    0.17
   3   6   5    0.55    0.20
   3   6   5    0.67    0.20
   4   6   5   -0.02    0.07
   4   6   5    0.03    0.10
   4   6   5   -0.06    0.15
   9  -7  -5    0.78    0.19
   8  -7  -5    5.65    0.44
   8  -7  -5    5.35    0.47
   7  -7  -5   24.64    1.44
   7  -7  -5   22.95    1.80
   7  -7  -5   24.72    1.56
   6  -7  -5    2.67    0.30
   6  -7  -5    3.49    0.36
   6  -7  -5    2.37    0.25
   5  -7  -5    0.57    0.13
   5  -7  -5    0.58    0.20
   5  -7  -5    1.00    0.27
   5  -7  -5    0.71    0.17
   4  -7  -5    8.28    0.58
   4  -7  -5    8.60    0.61
   4  -7  -5    6.89    0.98
   4  -7  -5    7.54    0.66
   4  -7  -5    7.58    0.57
   3  -7  -5   11.31    1.26
   3  -7  -5   12.19    0.85
   3  -7  -5   13.22    0.86
   3  -7  -5   11.31    0.82
   3  -7  -5   12.82    0.75
   2  -7  -5    0.42    0.14
   2  -7  -5    0.27    0.21
   2  -7  -5    0.21    0.12
   1  -7  -5   41.55    2.45
   0  -7  -5    5.62    0.39
   0   7   5    5.76    0.40
   1   7   5   10.39    0.65
   2   7   5    8.00    0.57
   2   7   5    7.93    0.49
   3   7   5    3.04    0.24
   3   7   5    3.03    0.26
   8  -8  -5    2.97    0.31
   8  -8  -5    3.26    0.34
   7  -8  -5    6.09    0.47
   7  -8  -5    4.18    0.42
   7  -8  -5    5.37    0.32
   6  -8  -5    5.69    0.41
   6  -8  -5    6.12    0.47
   5  -8  -5    0.36    0.17
   5  -8  -5    0.18    0.24
   5  -8  -5    0.44    0.14
   4  -8  -5    0.51    0.25
   4  -8  -5    0.80    0.18
   4  -8  -5    0.64    0.18
   4  -8  -5    0.83    0.20
   3  -8  -5    0.89    0.17
   3  -8  -5    0.75    0.10
   3  -8  -5    0.87    0.21
   2  -8  -5    0.80    0.19
   2  -8  -5    0.74    0.14
   2  -8  -5    0.98    0.19
   1  -8  -5    0.67    0.14
   0  -8  -5    0.48    0.13
   0   8   5    0.54    0.10
  -1  -8  -5    1.64    0.16
   1   8   5    1.90    0.15
   1   8   5    1.01    0.22
   2   8   5    2.99    0.24
   7  -9  -5    0.86    0.15
   6  -9  -5    2.37    0.25
   6  -9  -5    2.28    0.19
   5  -9  -5    5.65    0.39
   5  -9  -5    5.84    0.43
   5  -9  -5    6.08    0.41
   4  -9  -5    0.22    0.19
   4  -9  -5    0.11    0.11
   4  -9  -5    0.04    0.13
   3  -9  -5    2.37    0.28
   3  -9  -5    1.83    0.21
   2  -9  -5    0.23    0.17
   2  -9  -5    0.22    0.06
   1  -9  -5    0.51    0.10
  -1   9   5    0.41    0.11
   0  -9  -5    3.52    0.25
   0   9   5    3.90    0.24
   5 -10  -5    0.17    0.07
   4 -10  -5    0.68    0.08
   3 -10  -5    0.87    0.11
   2 -10   6    1.34    0.15
   3 -10   6    3.24    0.26
   3 -10   6    3.35    0.26
   4 -10   6    0.03    0.07
   1   9  -6    1.79    0.22
   1   9  -6    2.51    0.15
  -1  -9   6    2.24    0.21
   0   9  -6    0.27    0.10
   0  -9   6    0.23    0.13
  -1   9  -6    0.94    0.13
   1  -9   6    1.22    0.13
   2  -9   6   10.04    0.73
   2  -9   6   10.87    0.64
   3  -9   6    1.41    0.20
   3  -9   6    0.70    0.21
   3  -9   6    1.18    0.10
   4  -9   6    0.61    0.15
   4  -9   6    0.74    0.14
   4  -9   6    0.40    0.17
   4  -9   6    0.52    0.14
   5  -9   6   11.42    0.66
   5  -9   6    9.33    0.80
   6  -9   6    0.15    0.14
   6  -9   6    0.14    0.07
   3   8  -6    3.62    0.28
   2   8  -6    2.58    0.16
   2   8  -6    2.53    0.26
   1   8  -6    3.82    0.37
   1   8  -6    4.70    0.31
   0   8  -6    5.27    0.37
   0  -8   6    4.69    0.38
   1  -8   6    5.94    0.40
   2  -8   6    8.19    0.67
   2  -8   6    8.74    0.55
   3  -8   6    0.23    0.23
   3  -8   6    0.22    0.10
   3  -8   6    0.24    0.18
   4  -8   6    0.59    0.15
   4  -8   6    0.54    0.21
   4  -8   6    0.38    0.21
   5  -8   6    4.64    0.41
   5  -8   6    4.41    0.39
   5  -8   6    4.03    0.35
   6  -8   6    6.76    0.68
   6  -8   6    9.57    0.55
   7  -8   6    1.58    0.21
   4   7  -6    1.71    0.21
   3   7  -6   -0.01    0.14
   2   7  -6    0.05    0.15
   2   7  -6    0.07    0.09
   1   7  -6    0.36    0.14
   0   7  -6   31.88    1.89
   1  -7   6    4.24    0.34
   2  -7   6    1.90    0.30
   2  -7   6    2.56    0.60
   2  -7   6    2.54    0.25
   2  -7   6    2.70    0.33
   3  -7   6    0.25    0.48
   3  -7   6    1.73    0.22
   3  -7   6    1.51    0.18
   3  -7   6    1.57    0.28
   4  -7   6    0.76    0.21
   4  -7   6    0.62    0.21
   4  -7   6    0.68    0.23
   4  -7   6    0.96    0.24
   5  -7   6    1.89    0.26
   5  -7   6    1.62    0.25
   6  -7   6   -0.08    0.17
   6  -7   6    0.00    0.15
   6  -7   6   -0.03    0.14
   7  -7   6    1.24    0.14
   7  -7   6    1.89    0.23
   5   6  -6    0.71    0.15
   4   6  -6    1.45    0.22
   4   6  -6    1.65    0.26
   3   6  -6    5.45    0.44
   3   6  -6    5.41    0.46
   3   6  -6    5.58    0.47
   3   6  -6    5.21    0.46
   3   6  -6    5.53    0.34
   2   6  -6   17.24    1.01
   2   6  -6   16.62    1.57
   2   6  -6   16.30    1.12
   2   6  -6   16.83    1.16
   1   6  -6    4.26    0.33
   1   6  -6    4.44    0.72
   0   6  -6    4.71    0.36
   0   6  -6    4.89    0.67
  -1   6  -6   11.69    1.23
   1  -6   6   15.96    0.87
   1  -6   6   12.52    1.25
   2  -6   6    5.61    0.72
   2  -6   6    5.17    0.37
   2  -6   6    5.52    0.61
   2  -6   6    5.11    0.65
   2  -6   6    5.12    0.48
   3  -6   6    6.99    0.69
   3  -6   6    7.41    0.58
   3  -6   6    7.77    0.49
   3  -6   6    7.44    0.87
   3  -6   6    7.12    0.56
   3  -6   6    7.27    0.69
   4  -6   6   17.96    1.13
   4  -6   6   17.81    1.62
   4  -6   6   18.18    1.35
   4  -6   6   16.49    1.27
   4  -6   6   16.56    1.18
   4  -6   6   19.15    1.05
   5  -6   6    5.57    0.51
   5  -6   6    5.43    0.45
   5  -6   6    5.13    0.47
   5  -6   6    6.02    0.42
   6  -6   6    4.98    0.44
   6  -6   6    4.96    0.39
   6  -6   6    5.85    0.54
   6  -6   6    4.59    0.44
   7  -6   6    8.00    0.49
   7  -6   6    7.78    0.58
   8  -6   6    0.88    0.16
   8  -6   6    0.61    0.15
   6   5  -6    0.65    0.16
   6   5  -6    1.01    0.16
   5   5  -6   25.89    1.58
   5   5  -6   23.75    1.66
   4   5  -6   18.57    1.37
   4   5  -6   19.52    1.26
   4   5  -6   21.17    1.31
   4   5  -6   21.09    1.31
   3   5  -6    0.35    0.20
   3   5  -6    0.17    0.07
   3   5  -6    0.47    0.28
   3   5  -6    0.19    0.55
   3   5  -6    0.19    0.19
   3   5  -6   -0.01    0.20
   2   5  -6   33.40    2.08
   2   5  -6   34.22    2.14
   2   5  -6   31.98    1.90
   2   5  -6   32.33    2.57
   2   5  -6   31.09    2.26
   2   5  -6   30.96    2.15
   1   5  -6   12.58    0.80
   1   5  -6   12.72    1.09
   1   5  -6   13.34    1.00
   1   5  -6   14.29    1.22
   0   5  -6    7.97    0.87
   1  -5   6   21.07    1.67
   1  -5   6   19.15    1.20
   2  -5   6    2.33    0.22
   2  -5   6    2.48    0.54
   2  -5   6    2.21    0.42
   2  -5   6    1.98    0.38
   2  -5   6    2.47    0.28
   3  -5   6   40.43    2.71
   3  -5   6   49.65    3.53
   3  -5   6   48.44    2.65
   3  -5   6   47.56    3.03
   3  -5   6   43.97    2.88
   3  -5   6   42.47    2.86
   4  -5   6   39.73    2.35
   4  -5   6   35.83    2.60
   4  -5   6   37.54    2.47
   4  -5   6   38.66    2.50
   4  -5   6   34.84    2.61
   4  -5   6   41.25    2.86
   4  -5   6   41.74    2.27
   4  -5   6   42.52    3.12
   5  -5   6    0.92    0.20
   5  -5   6    1.14    0.22
   5  -5   6    0.72    0.52
   5  -5   6    0.34    0.18
   5  -5   6    0.52    0.20
   5  -5   6    0.50    0.17
   6  -5   6    0.39    0.25
   6  -5   6    0.70    0.22
   6  -5   6    0.32    0.22
   6  -5   6    0.36    0.16
   7  -5   6    9.27    0.56
   7  -5   6    9.17    0.65
   7  -5   6    7.35    0.74
   7  -5   6    9.89    0.69
   8  -5   6    0.14    0.11
   8  -5   6    0.14    0.16
   7   4  -6    0.02    0.16
   7   4  -6    0.02    0.12
   6   4  -6    2.74    0.30
   6   4  -6    3.00    0.27
   6   4  -6    3.50    0.38
   5   4  -6    0.03    0.23
   5   4  -6    0.10    0.21
   5   4  -6    0.05    0.15
   5   4  -6    0.23    0.16
   4   4  -6    0.06    0.18
   4   4  -6    0.10    0.20
   4   4  -6    0.06    0.21
   4   4  -6    0.01    0.15
   4   4  -6    0.00    0.48
   4   4  -6   -0.14    0.20
   3   4  -6    7.04    0.52
   3   4  -6    7.16    0.44
   3   4  -6    6.88    0.67
   3   4  -6    7.34    0.86
   3   4  -6    6.79    0.56
   3   4  -6    6.75    0.51
   3   4  -6    7.55    0.61
   2   4  -6   19.16    1.62
   2   4  -6   19.64    1.42
   2   4  -6   18.10    1.26
   2   4  -6   20.69    1.33
   1   4  -6    0.27    0.24
   1   4  -6   -0.12    0.33
   1   4  -6    0.21    0.27
   0   4  -6    3.31    0.42
   0   4  -6    2.67    0.44
   1  -4   6   -0.32    0.25
   1  -4   6    0.07    0.27
   2  -4   6  111.51    6.89
   2  -4   6  103.64    6.60
   3  -4   6    4.09    0.27
   3  -4   6    3.76    0.47
   3  -4   6    4.31    0.60
   3  -4   6    3.23    0.35
   3  -4   6    3.76    0.38
   3  -4   6    3.01    0.46
   3  -4   6    4.46    0.60
   4  -4   6    1.27    0.11
   4  -4   6    1.30    0.21
   4  -4   6    1.60    0.24
   4  -4   6    1.37    0.18
   4  -4   6    1.20    0.47
   4  -4   6    1.78    0.22
   4  -4   6    1.53    0.23
   4  -4   6    1.35    0.30
   4  -4   6    0.84    0.48
   4  -4   6    0.86    0.25
   5  -4   6    5.45    0.48
   5  -4   6    4.00    0.49
   5  -4   6    5.31    0.48
   5  -4   6    4.46    0.44
   5  -4   6    5.41    0.40
   5  -4   6    4.33    0.77
   5  -4   6    5.91    0.53
   5  -4   6    6.04    0.41
   6  -4   6    0.60    0.18
   6  -4   6    0.19    0.14
   6  -4   6    0.03    0.25
   6  -4   6    0.35    0.17
   7  -4   6    0.18    0.15
   7  -4   6    0.31    0.10
   7  -4   6    0.40    0.24
   8  -4   6    4.29    0.35
   8  -4   6    4.02    0.34
   8   3  -6    0.24    0.10
   8   3  -6    0.02    0.11
   7   3  -6    2.17    0.23
   7   3  -6    1.62    0.27
   6   3  -6    0.39    0.22
   6   3  -6    0.32    0.18
   6   3  -6    0.51    0.16
   5   3  -6   11.75    0.79
   5   3  -6   10.27    0.87
   5   3  -6    9.92    1.17
   5   3  -6   12.35    0.84
   5   3  -6   12.14    0.72
   5   3  -6   11.95    0.73
   5   3  -6    9.33    0.74
   4   3  -6    0.14    0.18
   4   3  -6    0.32    0.28
   4   3  -6   -0.05    0.20
   4   3  -6    0.16    0.15
   4   3  -6    0.69    0.49
   4   3  -6    0.15    0.19
   4   3  -6    0.08    0.12
   4   3  -6    0.15    0.17
   4   3  -6    0.14    0.16
   3   3  -6    0.54    0.10
   3   3  -6    0.40    0.24
   3   3  -6    0.53    0.18
   3   3  -6    0.74    0.24
   3   3  -6    0.56    0.24
   3   3  -6    0.48    0.16
   3   3  -6    0.45    0.40
   3   3  -6    0.47    0.16
   2   3  -6    0.98    0.28
   2   3  -6    1.03    0.27
   2   3  -6    1.10    0.40
   1   3  -6    0.22    0.29
   1   3  -6    0.54    0.24
   1   3  -6    0.61    0.28
   0   3  -6    0.70    0.28
   0   3  -6    0.98    0.29
   0   3  -6    0.49    0.32
   0   3  -6    0.20    0.27
   0  -3   6    0.32    0.27
   0  -3   6    0.28    0.28
   0  -3   6    0.52    0.30
   0  -3   6    0.55    0.33
  -1   3  -6   15.38    1.22
   1  -3   6   18.46    1.24
   1  -3   6   17.62    1.34
   1  -3   6   15.63    1.23
   1  -3   6   17.35    1.14
   2  -3   6    9.98    0.79
   2  -3   6    9.17    0.91
   2  -3   6   10.15    0.74
   3  -3   6   -0.22    0.41
   3  -3   6    0.20    0.24
   3  -3   6    0.04    0.35
   3  -3   6    0.06    0.22
   4  -3   6    3.23    0.33
   4  -3   6    3.79    0.36
   4  -3   6    3.45    0.33
   4  -3   6    3.73    0.44
   4  -3   6    2.58    0.19
   4  -3   6    3.04    0.34
   4  -3   6    3.15    0.32
   4  -3   6    3.36    0.60
   4  -3   6    3.56    0.34
   4  -3   6    3.71    0.41
   4  -3   6    3.53    0.59
   5  -3   6    7.02    0.58
   5  -3   6    7.09    0.48
   5  -3   6    7.03    0.88
   5  -3   6    7.68    0.54
   5  -3   6    7.70    0.54
   5  -3   6    5.75    0.52
   5  -3   6    7.38    0.52
   5  -3   6    5.67    0.57
   5  -3   6    6.91    0.60
   6  -3   6    0.74    0.16
   6  -3   6    1.02    0.28
   6  -3   6    0.75    0.25
   6  -3   6    0.98    0.18
   7  -3   6    3.55    0.40
   7  -3   6    3.32    0.41
   7  -3   6    3.05    0.31
   7  -3   6    3.41    0.24
   8  -3   6    0.76    0.18
   8  -3   6    1.50    0.18
   8   2  -6    3.40    0.29
   7   2  -6    1.64    0.29
   7   2  -6    2.12    0.26
   6   2  -6    4.47    0.78
   6   2  -6    3.79    0.41
   6   2  -6    4.15    0.42
   6   2  -6    4.16    0.44
   6   2  -6    3.72    0.42
   5   2  -6    0.85    0.14
   5   2  -6    0.68    0.10
   5   2  -6    0.69    0.21
   5   2  -6    0.08    0.44
   5   2  -6    0.88    0.29
   5   2  -6    0.73    0.20
   5   2  -6    0.97    0.23
   5   2  -6    0.58    0.08
   4   2  -6    0.35    0.12
   4   2  -6    0.33    0.17
   4   2  -6    0.72    0.42
   4   2  -6    0.43    0.13
   4   2  -6    0.44    0.20
   4   2  -6    0.37    0.16
   4   2  -6    0.40    0.18
   4   2  -6    0.52    0.24
   4   2  -6    0.45    0.19
   3   2  -6    8.41    0.86
   3   2  -6    8.54    0.67
   3   2  -6    9.02    0.64
   3   2  -6    8.11    0.83
   2   2  -6    0.43    0.21
   2   2  -6    0.33    0.22
   2   2  -6    0.80    0.37
   2   2  -6    0.48    0.42
   1   2  -6    0.91    0.27
   1   2  -6    1.08    0.31
   1   2  -6    0.84    0.26
   1   2  -6    0.81    0.26
   1   2  -6    1.06    0.36
  -1  -2   6    0.84    0.32
  -1  -2   6    0.46    0.30
   0   2  -6    0.30    0.30
   0   2  -6   -0.04    0.25
   0   2  -6   -0.25    0.21
   0   2  -6    0.17    0.22
   0   2  -6    0.24    0.24
   0  -2   6    0.28    0.27
   0  -2   6   -0.04    0.27
   0  -2   6    0.23    0.21
   0  -2   6    0.11    0.23
   0  -2   6    0.15    0.28
  -1   2  -6   76.59    4.80
  -1   2  -6   76.24    5.02
  -1   2  -6   77.47    4.70
  -1   2  -6   79.69    4.68
   1  -2   6   82.92    4.81
   1  -2   6   71.61    4.68
   1  -2   6   83.12    5.02
   1  -2   6   69.35    4.66
   1  -2   6   85.39    5.62
   2  -2   6   -0.02    0.32
   2  -2   6    0.24    0.23
   2  -2   6    0.27    0.27
   3  -2   6    0.93    0.27
   3  -2   6    1.12    0.37
   3  -2   6    0.86    0.42
   3  -2   6    0.81    0.27
   4  -2   6    0.49    0.16
   4  -2   6    0.86    0.24
   4  -2   6    0.23    0.44
   4  -2   6    0.88    0.18
   4  -2   6    1.04    0.22
   4  -2   6    0.90    0.16
   4  -2   6    0.85    0.20
   4  -2   6    0.88    0.21
   4  -2   6    0.75    0.24
   5  -2   6   -0.13    0.20
   5  -2   6    0.10    0.21
   5  -2   6   -0.04    0.16
   5  -2   6    0.10    0.23
   5  -2   6    0.04    0.20
   5  -2   6    0.19    0.48
   5  -2   6    0.00    0.13
   6  -2   6    1.50    0.27
   6  -2   6    1.44    0.19
   6  -2   6    1.43    0.25
   6  -2   6    1.47    0.23
   7  -2   6    4.17    0.43
   7  -2   6    3.34    0.31
   7  -2   6    3.28    0.24
   7  -2   6    3.87    0.40
   8  -2   6    0.03    0.15
   8  -2   6   -0.06    0.14
   9   1  -6    8.13    0.58
   8   1  -6    4.69    0.41
   8   1  -6    4.97    0.37
   7   1  -6   13.55    1.09
   7   1  -6   13.82    1.07
   7   1  -6   14.97    1.02
   7   1  -6   14.04    0.94
   6   1  -6   48.65    3.20
   6   1  -6   47.59    3.95
   6   1  -6   55.01    3.44
   6   1  -6   49.98    3.09
   6   1  -6   54.58    3.75
   6   1  -6   55.91    3.71
   5   1  -6    0.05    0.15
   5   1  -6   -0.34    0.23
   5   1  -6    0.04    0.15
   5   1  -6    0.03    0.18
   5   1  -6    0.43    0.46
   5   1  -6    0.24    0.49
   5   1  -6    0.10    0.11
   5   1  -6   -0.09    0.19
   4   1  -6    2.38    0.23
   4   1  -6    2.57    0.49
   4   1  -6    2.02    0.25
   4   1  -6    2.56    0.53
   3   1  -6  137.45    8.24
   3   1  -6  139.94    8.59
   3   1  -6  140.50    9.48
   3   1  -6  125.02    9.74
   2   1  -6    0.07    0.32
   2   1  -6    0.36    0.25
   2   1  -6   -0.06    0.22
   2   1  -6    0.05    0.19
   2   1  -6    0.35    0.29
  -2  -1   6   -0.01    0.29
  -2  -1   6    0.23    0.28
   1   1  -6    0.29    0.28
   1   1  -6    0.14    0.23
   1   1  -6    0.19    0.22
   1   1  -6    0.13    0.22
   1   1  -6    0.16    0.28
  -1  -1   6    0.18    0.21
  -1  -1   6   -0.26    0.26
  -1  -1   6    0.02    0.24
  -1  -1   6    0.08    0.28
   0   1  -6   53.93    3.21
   0   1  -6   56.48    3.29
   0   1  -6   51.94    3.72
   0   1  -6   51.56    3.43
   0   1  -6   57.94    3.24
   0  -1   6   50.15    3.81
   0  -1   6   51.76    3.43
   0  -1   6   51.10    3.22
   0  -1   6   52.45    3.28
   0  -1   6   54.67    3.24
  -1   1  -6    3.48    0.34
  -1   1  -6    3.36    0.47
  -1   1  -6    3.39    0.45
  -1   1  -6    4.14    0.43
  -1   1  -6    3.09    0.38
   1  -1   6    3.73    0.42
   1  -1   6    3.62    0.48
   1  -1   6    2.83    0.43
   1  -1   6    3.39    0.48
   1  -1   6    3.91    0.41
   2  -1   6   23.30    1.78
   2  -1   6   27.92    2.09
   2  -1   6   28.00    1.83
   2  -1   6   28.29    1.75
   3  -1   6   34.52    2.67
   3  -1   6   35.32    2.26
   3  -1   6   36.06    2.37
   3  -1   6   36.30    2.72
   4  -1   6   -0.02    0.26
   4  -1   6    0.27    0.20
   4  -1   6   -0.02    0.15
   4  -1   6    0.04    0.18
   4  -1   6    0.13    0.15
   4  -1   6    0.02    0.44
   4  -1   6    0.07    0.18
   4  -1   6   -0.09    0.22
   5  -1   6    1.92    0.27
   5  -1   6    0.87    0.23
   5  -1   6    1.00    0.24
   5  -1   6    1.59    0.25
   5  -1   6    1.61    0.18
   5  -1   6    1.67    0.29
   5  -1   6    0.97    0.54
   5  -1   6    1.54    0.19
   6  -1   6    1.23    0.21
   6  -1   6    1.18    0.25
   6  -1   6    1.35    0.26
   6  -1   6    1.47    0.30
   7  -1   6    2.02    0.16
   7  -1   6    2.17    0.24
   7  -1   6    2.28    0.30
   7  -1   6    2.35    0.30
   8  -1   6    0.76    0.16
   9   0  -6    3.87    0.33
   8   0  -6    1.02    0.24
   8   0  -6    0.94    0.22
   8   0  -6    1.17    0.21
   8   0  -6    1.32    0.21
   7   0  -6   15.98    1.07
   7   0  -6   14.62    1.15
   7   0  -6   13.82    0.96
   7   0  -6   14.48    1.02
   7   0  -6   16.40    1.16
   6   0  -6   29.22    1.79
   6   0  -6   29.10    1.92
   6   0  -6   26.92    2.10
   6   0  -6   23.74    1.65
   6   0  -6   26.88    1.95
   6   0  -6   29.72    1.71
   6   0  -6   23.74    2.12
   6   0  -6   22.38    1.95
   5   0  -6    1.02    0.46
   5   0  -6    0.69    0.10
   5   0  -6    0.83    0.22
   5   0  -6    0.80    0.17
   5   0  -6    0.89    0.24
   5   0  -6    0.95    0.20
   5   0  -6    1.10    0.48
   5   0  -6    0.74    0.20
   4   0  -6    7.10    0.50
   4   0  -6    7.57    0.48
   4   0  -6    8.19    0.76
   4   0  -6    6.51    0.48
   4   0  -6    7.25    0.51
   4   0  -6    8.21    0.73
   3   0  -6    1.29    0.41
   3   0  -6    0.85    0.24
   3   0  -6    0.93    0.17
   3   0  -6    1.07    0.20
   3   0  -6    1.45    0.22
   3   0  -6    0.91    0.17
   3   0  -6    1.00    0.21
   3   0  -6    1.33    0.32
  -3   0   6    0.68    0.23
   2   0  -6    5.04    0.38
   2   0  -6    4.17    0.39
   2   0  -6    3.82    0.38
   2   0  -6    4.69    0.47
   2   0  -6    4.56    0.46
   2   0  -6    5.20    0.42
   2   0  -6    4.59    0.56
  -2   0   6    4.81    0.55
  -2   0   6    4.83    0.48
   1   0  -6   22.02    1.55
   1   0  -6   24.10    1.40
   1   0  -6   22.96    1.38
   1   0  -6   20.59    1.36
   1   0  -6   21.39    1.34
  -1   0   6   18.80    1.34
  -1   0   6   19.76    1.40
  -1   0   6   21.51    1.39
  -1   0   6   20.72    1.39
  -1   0   6   17.55    1.52
   0   0  -6   14.72    1.08
   0   0  -6   16.62    1.09
   0   0  -6   14.77    1.16
   0   0  -6   15.77    1.02
   0   0  -6   15.55    1.09
   0   0   6   15.07    1.21
   0   0   6   15.97    1.12
   0   0   6   14.00    1.09
   0   0   6   16.13    1.10
   0   0   6   14.67    1.04
  -1   0  -6    2.94    0.38
  -1   0  -6    2.86    0.44
  -1   0  -6    3.26    0.45
  -1   0  -6    3.03    0.35
   1   0   6    2.75    0.41
   1   0   6    3.32    0.42
   1   0   6    3.43    0.47
   1   0   6    3.09    0.39
   1   0   6    3.61    0.50
   2   0   6    4.29    0.49
   2   0   6    4.73    0.62
   2   0   6    4.63    0.45
   3   0   6   32.57    2.57
   3   0   6   31.82    2.23
   3   0   6   35.12    2.13
   4   0   6    0.14    0.16
   4   0   6    0.25    0.28
   4   0   6    0.39    0.23
   4   0   6    0.38    0.21
   4   0   6    0.14    0.19
   4   0   6    0.14    0.50
   4   0   6    0.22    0.18
   4   0   6    0.56    0.20
   5   0   6    1.84    0.22
   5   0   6    1.30    0.27
   5   0   6    2.18    0.31
   5   0   6    1.81    0.26
   5   0   6    1.90    0.26
   5   0   6    1.13    0.60
   5   0   6    1.77    0.22
   6   0   6    6.22    0.57
   6   0   6    6.14    0.52
   6   0   6    6.65    0.44
   6   0   6    5.64    0.49
   7   0   6    0.48    0.18
   7   0   6    1.05    0.26
   8   0   6    0.18    0.11
   9  -1  -6   -0.01    0.14
   8  -1  -6    0.03    0.20
   8  -1  -6   -0.09    0.18
   8  -1  -6   -0.02    0.19
   8  -1  -6   -0.09    0.16
   8  -1  -6    0.16    0.21
   7  -1  -6    8.05    0.67
   7  -1  -6    8.27    0.60
   7  -1  -6    8.00    0.72
   7  -1  -6    7.85    0.59
   7  -1  -6    9.07    0.70
   7  -1  -6    8.77    0.66
   6  -1  -6    0.43    0.18
   6  -1  -6    0.65    0.21
   6  -1  -6    0.47    0.26
   6  -1  -6    0.68    0.19
   6  -1  -6    0.28    0.45
   6  -1  -6    0.57    0.23
   5  -1  -6    3.05    0.55
   5  -1  -6    3.15    0.35
   5  -1  -6    3.21    0.35
   5  -1  -6    2.80    0.22
   5  -1  -6    3.11    0.33
   5  -1  -6    3.02    0.32
   5  -1  -6    3.76    0.53
   4  -1  -6    4.38    0.57
   4  -1  -6    4.24    0.50
   4  -1  -6    4.49    0.29
   4  -1  -6    3.31    0.30
   4  -1  -6    3.97    0.28
   4  -1  -6    4.33    0.29
   4  -1  -6    4.38    0.29
   3  -1  -6   29.17    1.80
   3  -1  -6   27.21    1.81
   3  -1  -6   32.23    1.90
   3  -1  -6   27.84    1.79
   3  -1  -6   28.16    1.89
   3  -1  -6   32.41    2.18
   3  -1  -6   27.93    2.16
   3  -1  -6   32.73    1.82
  -3   1   6   25.12    1.79
   2  -1  -6   46.34    3.22
   2  -1  -6   47.74    3.01
   2  -1  -6   50.07    3.21
   2  -1  -6   50.57    3.01
   2  -1  -6   53.22    3.07
   2  -1  -6   52.33    3.57
  -2   1   6   50.95    3.02
  -2   1   6   47.70    3.01
   1  -1  -6    5.01    0.59
   1  -1  -6    5.46    0.49
   1  -1  -6    5.54    0.44
   1  -1  -6    4.61    0.51
   1  -1  -6    5.10    0.54
  -1   1   6    4.91    0.49
  -1   1   6    5.74    0.58
  -1   1   6    4.13    0.46
  -1   1   6    5.64    0.57
   0  -1  -6    0.10    0.23
   0  -1  -6    0.01    0.29
   0  -1  -6   -0.20    0.23
   0  -1  -6   -0.15    0.24
   0   1   6    0.13    0.28
   0   1   6    0.18    0.25
   0   1   6    0.02    0.27
   0   1   6   -0.11    0.31
  -1  -1  -6   -0.36    0.25
   1   1   6   -0.22    0.27
   1   1   6    0.03    0.31
   1   1   6    0.32    0.25
   1   1   6   -0.20    0.37
   1   1   6   -0.09    0.25
   2   1   6   11.55    1.05
   2   1   6   10.09    0.84
   2   1   6   11.55    0.85
   3   1   6   20.62    1.38
   3   1   6   23.39    1.44
   3   1   6   22.20    1.53
   3   1   6   20.68    1.26
   3   1   6   21.06    1.31
   3   1   6   23.00    1.80
   3   1   6   20.29    1.45
   4   1   6    2.47    0.26
   4   1   6    2.22    0.28
   4   1   6    1.98    0.34
   4   1   6    1.57    0.63
   4   1   6    2.56    0.31
   4   1   6    2.09    0.24
   4   1   6    2.53    0.29
   4   1   6    2.64    0.31
   4   1   6    2.00    0.38
   5   1   6    0.50    0.18
   5   1   6    0.35    0.15
   5   1   6    0.30    0.18
   5   1   6    0.21    0.27
   5   1   6    0.02    0.57
   5   1   6    0.48    0.22
   6   1   6    5.45    0.38
   6   1   6    5.05    0.43
   6   1   6    5.07    0.46
   7   1   6    4.42    0.36
   7   1   6    3.90    0.33
   9  -2  -6    1.30    0.21
   9  -2  -6    0.97    0.20
   8  -2  -6    1.14    0.23
   8  -2  -6    0.78    0.24
   8  -2  -6    1.10    0.29
   8  -2  -6    1.31    0.21
   8  -2  -6    0.85    0.23
   7  -2  -6    0.57    0.25
   7  -2  -6    0.34    0.21
   7  -2  -6    0.11    0.14
   7  -2  -6    0.50    0.25
   7  -2  -6    0.17    0.27
   7  -2  -6    0.03    0.49
   7  -2  -6    0.15    0.19
   6  -2  -6    0.24    0.39
   6  -2  -6    0.14    0.16
   6  -2  -6    0.02    0.17
   6  -2  -6    0.37    0.14
   6  -2  -6    0.23    0.23
   6  -2  -6    0.22    0.16
   6  -2  -6    0.10    0.18
   5  -2  -6    2.00    0.28
   5  -2  -6    2.69    0.50
   5  -2  -6    2.35    0.28
   5  -2  -6    2.10    0.31
   5  -2  -6    1.99    0.17
   5  -2  -6    2.41    0.27
   5  -2  -6    1.78    0.43
   4  -2  -6    1.24    0.15
   4  -2  -6    1.05    0.14
   4  -2  -6    1.53    0.39
   4  -2  -6    1.52    0.17
   4  -2  -6    1.22    0.16
   4  -2  -6    1.64    0.47
   3  -2  -6    8.45    0.77
   3  -2  -6    8.57    0.62
   3  -2  -6    7.89    0.80
   3  -2  -6    7.86    0.57
   2  -2  -6   67.11    5.02
   2  -2  -6   74.95    4.36
   2  -2  -6   78.14    4.55
   2  -2  -6   66.88    4.24
   2  -2  -6   78.95    5.20
  -2   2   6   63.66    4.22
  -2   2   6   65.86    4.25
   1  -2  -6   93.79    5.63
   1  -2  -6  109.28    6.07
   1  -2  -6   95.56    5.80
   1  -2  -6   90.52    5.62
  -1   2   6   87.10    5.62
  -1   2   6   91.74    5.65
   0  -2  -6    1.12    0.34
   0  -2  -6    1.49    0.31
   0  -2  -6    1.11    0.27
   0  -2  -6    0.71    0.29
   0   2   6    0.83    0.29
   0   2   6    1.09    0.31
   0   2   6    0.74    0.37
   0   2   6    0.77    0.30
   1   2   6    3.47    0.41
   1   2   6    1.83    0.46
   2   2   6    0.14    0.46
   2   2   6    0.56    0.30
   2   2   6    0.47    0.31
   3   2   6   10.42    1.12
   3   2   6   11.60    0.64
   3   2   6   10.71    0.73
   3   2   6    9.61    0.85
   3   2   6   10.71    0.90
   3   2   6    9.26    0.70
   4   2   6   -0.19    0.17
   4   2   6    0.16    0.18
   4   2   6    0.05    0.19
   4   2   6    0.24    0.26
   4   2   6   -0.10    0.25
   4   2   6    0.27    0.58
   5   2   6   10.66    0.76
   5   2   6    9.57    0.64
   5   2   6    9.27    0.64
   5   2   6    8.63    0.66
   6   2   6    2.54    0.24
   6   2   6    2.07    0.23
   6   2   6    2.57    0.30
   7   2   6   -0.08    0.13
   9  -3  -6    0.41    0.21
   9  -3  -6    0.28    0.18
   9  -3  -6    0.29    0.21
   8  -3  -6    1.61    0.31
   8  -3  -6    1.68    0.22
   8  -3  -6    2.88    0.36
   8  -3  -6    2.37    0.28
   8  -3  -6    2.23    0.30
   8  -3  -6    2.38    0.28
   7  -3  -6    2.11    0.30
   7  -3  -6    2.59    0.30
   7  -3  -6    2.12    0.29
   7  -3  -6    2.53    0.33
   7  -3  -6    2.49    0.37
   7  -3  -6    2.74    0.36
   6  -3  -6    9.26    0.93
   6  -3  -6    9.21    0.70
   6  -3  -6    7.22    0.92
   6  -3  -6    9.55    0.69
   6  -3  -6   10.02    0.78
   6  -3  -6    9.15    0.68
   6  -3  -6    9.72    0.74
   6  -3  -6   10.29    0.75
   5  -3  -6    1.53    0.24
   5  -3  -6    2.07    0.27
   5  -3  -6    2.26    0.60
   5  -3  -6    1.57    0.46
   5  -3  -6    1.73    0.28
   5  -3  -6    1.60    0.17
   5  -3  -6    1.97    0.22
   4  -3  -6    0.01    0.34
   4  -3  -6    0.30    0.41
   4  -3  -6    0.13    0.13
   4  -3  -6    0.09    0.13
   3  -3  -6    4.11    0.41
   3  -3  -6    4.18    0.54
   3  -3  -6    5.03    0.69
   3  -3  -6    4.00    0.38
   2  -3  -6    0.83    0.24
   2  -3  -6    1.65    0.51
   2  -3  -6    1.60    0.35
   2  -3  -6    1.04    0.27
   1  -3  -6   48.66    2.78
   1  -3  -6   42.62    2.61
   1  -3  -6   37.57    2.61
  -1   3   6   36.17    2.63
   0  -3  -6    1.48    0.31
   0  -3  -6    1.40    0.34
   0   3   6    1.54    0.36
   0   3   6    1.59    0.33
   1   3   6    4.33    0.48
   1   3   6    3.62    0.51
   2   3   6    7.08    0.88
   2   3   6    6.64    0.69
   2   3   6    6.27    0.42
   2   3   6    7.42    0.64
   2   3   6    6.11    0.51
   3   3   6    0.20    0.28
   3   3   6   -0.15    0.54
   3   3   6    0.12    0.14
   3   3   6   -0.03    0.19
   3   3   6    0.07    0.10
   3   3   6   -0.46    0.31
   4   3   6   -0.11    0.19
   4   3   6   -0.01    0.19
   4   3   6    0.34    0.18
   5   3   6    0.16    0.25
   5   3   6    0.07    0.10
   5   3   6    0.06    0.16
   6   3   6    1.88    0.17
   6   3   6    1.18    0.20
   9  -4  -6    0.90    0.17
   9  -4  -6    1.21    0.20
   8  -4  -6    5.35    0.45
   8  -4  -6    5.79    0.52
   8  -4  -6    5.19    0.54
   8  -4  -6    5.88    0.47
   7  -4  -6    8.25    0.73
   7  -4  -6    8.91    0.73
   7  -4  -6    9.10    0.63
   7  -4  -6    7.83    0.65
   6  -4  -6    7.27    0.58
   6  -4  -6    7.09    0.86
   6  -4  -6    6.02    0.84
   6  -4  -6    8.12    0.66
   6  -4  -6    7.11    0.62
   6  -4  -6    7.57    0.47
   6  -4  -6    8.17    0.60
   5  -4  -6    1.71    0.19
   5  -4  -6    2.26    0.23
   5  -4  -6    1.66    0.22
   5  -4  -6    1.43    0.54
   5  -4  -6    0.81    0.44
   5  -4  -6    1.86    0.27
   5  -4  -6    1.34    0.29
   4  -4  -6    5.77    0.48
   4  -4  -6    4.59    0.39
   4  -4  -6    5.99    0.68
   4  -4  -6    4.55    0.40
   4  -4  -6    5.77    0.49
   4  -4  -6    5.53    0.44
   4  -4  -6    4.66    0.51
   4  -4  -6    5.86    0.46
   4  -4  -6    6.25    0.71
   4  -4  -6    5.69    0.39
   3  -4  -6    7.89    0.77
   3  -4  -6    7.65    0.84
   3  -4  -6    6.85    0.58
   3  -4  -6    7.94    0.65
   2  -4  -6   12.99    1.09
   2  -4  -6   12.39    0.99
   2  -4  -6   12.89    0.93
   1  -4  -6    0.31    0.22
   1  -4  -6    0.63    0.27
   1   4   6    1.03    0.14
   2   4   6    0.59    0.35
   2   4   6    0.21    0.37
   2   4   6    0.39    0.13
   2   4   6    0.17    0.20
   2   4   6   -0.14    0.53
   3   4   6    0.49    0.63
   3   4   6    0.90    0.18
   3   4   6    0.96    0.23
   3   4   6    0.99    0.14
   4   4   6    0.58    0.27
   4   4   6    0.62    0.16
   4   4   6    0.34    0.18
   5   4   6    0.08    0.10
   5   4   6   -0.11    0.15
   9  -5  -6    0.41    0.21
   9  -5  -6    0.34    0.22
   8  -5  -6    0.82    0.16
   8  -5  -6    0.43    0.26
   8  -5  -6    0.32    0.26
   8  -5  -6    0.56    0.23
   7  -5  -6    3.89    0.45
   7  -5  -6    3.84    0.40
   7  -5  -6    3.67    0.45
   7  -5  -6    3.76    0.44
   6  -5  -6    1.68    0.59
   6  -5  -6    3.46    0.36
   6  -5  -6    3.65    0.37
   6  -5  -6    3.10    0.35
   6  -5  -6    3.77    0.38
   6  -5  -6    3.33    0.27
   5  -5  -6   14.37    1.01
   5  -5  -6   14.40    0.91
   5  -5  -6   14.93    1.36
   5  -5  -6   13.48    0.94
   5  -5  -6   15.26    1.02
   5  -5  -6   14.48    1.33
   5  -5  -6   13.94    0.95
   5  -5  -6   15.76    1.13
   5  -5  -6   15.88    1.00
   5  -5  -6   14.75    1.14
   4  -5  -6   18.88    1.61
   4  -5  -6   18.06    1.22
   4  -5  -6   19.34    1.33
   4  -5  -6   18.75    1.22
   4  -5  -6   18.93    1.26
   4  -5  -6   18.50    1.41
   4  -5  -6   18.83    1.40
   4  -5  -6   20.54    1.62
   4  -5  -6   18.77    1.16
   3  -5  -6   23.76    1.50
   3  -5  -6   26.81    2.05
   3  -5  -6   23.34    1.62
   3  -5  -6   28.19    1.79
   3  -5  -6   27.91    1.68
   3  -5  -6   25.99    2.04
   3  -5  -6   23.82    1.55
   3  -5  -6   26.08    1.64
   2  -5  -6    0.14    0.29
   2  -5  -6    0.20    0.15
   2  -5  -6    0.39    0.17
   2  -5  -6    0.21    0.10
   2  -5  -6    0.37    0.26
   2  -5  -6   -0.09    0.25
   1  -5  -6   18.29    1.10
   1   5   6   10.62    0.67
   2   5   6   14.11    0.87
   2   5   6   14.69    0.99
   3   5   6    9.92    0.76
   3   5   6    8.98    0.68
   3   5   6    9.47    0.59
   3   5   6   10.86    0.69
   4   5   6    0.97    0.15
   4   5   6    0.62    0.23
   4   5   6    0.92    0.19
   5   5   6    1.58    0.15
   9  -6  -6    2.38    0.29
   9  -6  -6    3.42    0.27
   8  -6  -6   16.34    1.03
   8  -6  -6   14.83    1.20
   7  -6  -6   29.38    1.82
   7  -6  -6   28.72    2.10
   7  -6  -6   26.87    2.05
   6  -6  -6    0.94    0.29
   6  -6  -6    0.97    0.26
   6  -6  -6    0.87    0.14
   6  -6  -6    0.99    0.28
   5  -6  -6    2.86    0.26
   5  -6  -6    2.95    0.36
   5  -6  -6    2.67    0.33
   5  -6  -6    3.04    0.29
   5  -6  -6    3.06    0.40
   5  -6  -6    3.10    0.38
   5  -6  -6    1.66    0.56
   4  -6  -6   71.06    4.19
   4  -6  -6   58.28    3.89
   4  -6  -6   60.60    4.37
   4  -6  -6   59.73    4.16
   4  -6  -6   74.64    4.77
   4  -6  -6   67.88    4.22
   4  -6  -6   72.16    4.01
   4  -6  -6   73.47    4.95
   3  -6  -6   17.77    1.09
   3  -6  -6   17.16    0.97
   3  -6  -6   15.99    1.16
   3  -6  -6   16.83    1.49
   3  -6  -6   15.95    1.26
   3  -6  -6   16.45    1.03
   3  -6  -6   13.40    1.38
   3  -6  -6   15.09    1.07
   2  -6  -6   13.91    0.82
   2  -6  -6   12.94    1.02
   2  -6  -6   13.06    1.09
   2  -6  -6   13.16    0.91
   2  -6  -6   13.55    0.93
   1  -6  -6    3.15    0.27
   0   6   6    6.92    0.47
   1   6   6   12.17    0.76
   2   6   6   12.85    0.76
   2   6   6   12.01    0.85
   3   6   6    0.26    0.17
   3   6   6    0.48    0.16
   4   6   6    3.24    0.22
   4   6   6    2.25    0.23
   9  -7  -6   -0.08    0.11
   9  -7  -6    0.05    0.12
   8  -7  -6    0.69    0.16
   8  -7  -6    0.73    0.18
   7  -7  -6    1.45    0.14
   7  -7  -6    1.13    0.22
   7  -7  -6    1.09    0.26
   6  -7  -6    6.33    0.57
   6  -7  -6    6.02    0.58
   6  -7  -6    6.61    0.45
   6  -7  -6    6.46    0.50
   5  -7  -6    2.88    0.30
   5  -7  -6    2.49    0.37
   5  -7  -6    2.96    0.34
   5  -7  -6    2.75    0.25
   4  -7  -6    5.83    0.43
   4  -7  -6    4.96    0.46
   4  -7  -6    5.03    0.49
   4  -7  -6    4.97    0.42
   3  -7  -6    0.02    0.19
   3  -7  -6    0.32    0.46
   3  -7  -6    0.24    0.19
   3  -7  -6   -0.03    0.09
   3  -7  -6    0.06    0.18
   2  -7  -6    6.08    0.40
   2  -7  -6    5.44    0.51
   1  -7  -6   18.72    1.14
   0  -7  -6    1.02    0.16
   0   7   6    0.91    0.16
   1   7   6    0.49    0.13
   2   7   6    6.32    0.40
   2   7   6    6.93    0.48
   2   7   6    6.83    0.50
   3   7   6    0.33    0.10
   3   7   6    0.12    0.09
   8  -8  -6    0.27    0.14
   8  -8  -6    0.39    0.15
   7  -8  -6    3.33    0.36
   7  -8  -6    3.27    0.21
   6  -8  -6    2.78    0.26
   6  -8  -6    2.83    0.36
   5  -8  -6    8.64    0.79
   5  -8  -6   11.22    0.69
   5  -8  -6   11.06    0.74
   5  -8  -6   10.58    0.69
   4  -8  -6   11.74    0.80
   4  -8  -6   10.84    0.92
   4  -8  -6   13.40    0.82
   4  -8  -6   12.22    0.81
   3  -8  -6    1.41    0.23
   3  -8  -6    1.89    0.25
   3  -8  -6    1.63    0.14
   2  -8  -6    2.63    0.34
   2  -8  -6    2.53    0.22
   1  -8  -6    1.04    0.15
  -1   8   6    0.86    0.15
   0  -8  -6    0.68    0.11
   0   8   6    0.70    0.11
  -1  -8  -6    7.79    0.49
   1   8   6    7.22    0.47
   1   8   6    8.68    0.55
   7  -9  -6    0.16    0.12
   6  -9  -6    3.65    0.33
   6  -9  -6    3.35    0.24
   5  -9  -6   -0.04    0.12
   5  -9  -6    0.15    0.14
   4  -9  -6    0.43    0.14
   4  -9  -6    0.87    0.14
   4  -9  -6    0.44    0.17
   4  -9  -6    0.66    0.14
   3  -9  -6    0.17    0.12
   3  -9  -6    0.27    0.14
   2  -9  -6    2.09    0.15
   2  -9  -6    1.97    0.23
   1  -9  -6    0.07    0.05
  -1   9   6    0.06    0.07
   1   9  -7    0.46    0.11
   1   9  -7    1.02    0.14
   1   9  -7    0.89    0.07
  -1  -9   7    0.46    0.12
   0   9  -7    0.06    0.09
   0  -9   7    0.19    0.13
  -1   9  -7    4.03    0.29
   1  -9   7    4.22    0.30
   2  -9   7    1.34    0.15
   2  -9   7    1.96    0.23
   3  -9   7    4.73    0.40
   3  -9   7    4.93    0.44
   4  -9   7    1.58    0.20
   4  -9   7    2.29    0.24
   4  -9   7    1.58    0.22
   5  -9   7    0.28    0.15
   5  -9   7    0.78    0.14
   3   8  -7    1.52    0.17
   3   8  -7    1.29    0.13
   2   8  -7    0.01    0.17
   2   8  -7    0.00    0.12
   1   8  -7    0.10    0.15
   1   8  -7    0.18    0.10
   0   8  -7    8.80    0.55
   0  -8   7    8.19    0.56
  -1   8  -7    5.74    0.41
   1  -8   7    5.86    0.40
   2  -8   7   -0.10    0.23
   2  -8   7    0.19    0.11
   3  -8   7    0.26    0.18
   3  -8   7    0.13    0.09
   3  -8   7    0.19    0.23
   4  -8   7    0.08    0.20
   4  -8   7    0.22    0.21
   5  -8   7    2.75    0.25
   5  -8   7    2.54    0.35
   5  -8   7    2.78    0.32
   6  -8   7    5.80    0.56
   6  -8   7    7.20    0.43
   4   7  -7    0.93    0.14
   4   7  -7    0.77    0.09
   3   7  -7    0.19    0.13
   3   7  -7    0.28    0.14
   2   7  -7    8.96    0.53
   2   7  -7    7.84    0.65
   1   7  -7    5.41    0.38
   0   7  -7    0.78    0.15
   1  -7   7    0.73    0.19
   2  -7   7    2.34    0.33
   2  -7   7    2.32    0.24
   2  -7   7    2.09    0.27
   3  -7   7    3.96    0.44
   3  -7   7    4.54    0.46
   3  -7   7    4.52    0.31
   4  -7   7    0.01    0.21
   4  -7   7    0.00    0.16
   4  -7   7    0.06    0.20
   5  -7   7    0.48    0.16
   5  -7   7    0.51    0.24
   6  -7   7    5.52    0.50
   6  -7   7    5.64    0.41
   7  -7   7    2.83    0.23
   7  -7   7    2.82    0.29
   5   6  -7    1.34    0.17
   4   6  -7    1.65    0.18
   4   6  -7    1.09    0.19
   4   6  -7    1.39    0.22
   4   6  -7    1.42    0.19
   3   6  -7   18.48    1.08
   3   6  -7   18.03    1.25
   3   6  -7   18.44    1.19
   3   6  -7   18.18    1.21
   3   6  -7   19.46    1.18
   2   6  -7    1.88    0.24
   2   6  -7    1.23    0.26
   2   6  -7    1.85    0.18
   1   6  -7   28.39    1.57
   1   6  -7   27.36    1.77
   1   6  -7   21.47    2.13
   0   6  -7   17.11    1.49
   0   6  -7   17.35    1.03
   0  -6   7   15.35    1.45
  -1   6  -7    0.32    0.38
   1  -6   7    0.09    0.12
   1  -6   7    0.33    0.41
   2  -6   7    0.89    0.17
   2  -6   7    0.89    0.19
   2  -6   7    0.27    0.43
   3  -6   7   69.80    4.23
   3  -6   7   72.24    3.92
   3  -6   7   64.59    4.23
   3  -6   7   65.88    5.11
   3  -6   7   64.15    4.01
   3  -6   7   64.52    4.43
   4  -6   7   -0.02    0.20
   4  -6   7    0.01    0.46
   4  -6   7    0.11    0.07
   4  -6   7   -0.03    0.21
   4  -6   7    0.07    0.19
   5  -6   7    9.16    0.73
   5  -6   7    9.99    0.69
   5  -6   7   10.78    0.85
   5  -6   7   10.33    0.68
   6  -6   7    0.38    0.13
   6  -6   7    0.17    0.25
   6  -6   7    0.08    0.17
   7  -6   7    0.09    0.20
   7  -6   7    0.23    0.11
   7  -6   7    0.18    0.09
   8  -6   7    2.81    0.23
   6   5  -7    7.32    0.54
   6   5  -7    8.04    0.52
   5   5  -7    1.54    0.21
   5   5  -7    2.04    0.25
   4   5  -7    5.67    0.52
   4   5  -7    6.42    0.47
   4   5  -7    6.03    0.48
   4   5  -7    6.51    0.49
   3   5  -7    0.55    0.21
   3   5  -7    0.44    0.09
   3   5  -7   -0.16    0.48
   3   5  -7    0.45    0.21
   3   5  -7    0.40    0.20
   2   5  -7    0.11    0.43
   2   5  -7   -0.22    0.26
   2   5  -7   -0.06    0.20
   2   5  -7    0.26    0.13
   2   5  -7    0.14    0.17
   2   5  -7   -0.01    0.30
   1   5  -7   37.11    2.49
   1   5  -7   34.71    2.11
   1   5  -7   33.30    2.38
   1   5  -7   38.35    2.81
   1  -5   7    4.96    0.37
   2  -5   7   -0.05    0.14
   2  -5   7    0.31    0.43
   2  -5   7    0.02    0.28
   2  -5   7    0.08    0.30
   2  -5   7   -0.01    0.21
   3  -5   7    0.57    0.13
   3  -5   7    0.28    0.29
   3  -5   7    0.50    0.21
   3  -5   7    0.20    0.42
   3  -5   7    0.37    0.31
   3  -5   7    0.53    0.21
   4  -5   7    1.30    0.22
   4  -5   7    2.25    0.29
   4  -5   7    1.26    0.32
   4  -5   7    0.72    0.51
   4  -5   7    1.98    0.24
   4  -5   7    1.85    0.14
   4  -5   7    1.96    0.25
   4  -5   7    0.99    0.32
   5  -5   7   -0.16    0.47
   5  -5   7    0.06    0.19
   5  -5   7    0.07    0.14
   5  -5   7    0.05    0.23
   5  -5   7    0.18    0.19
   6  -5   7    4.95    0.46
   6  -5   7    4.49    0.44
   6  -5   7    4.84    0.38
   6  -5   7    5.63    0.53
   7  -5   7    5.44    0.45
   7  -5   7    5.87    0.43
   7  -5   7    5.27    0.37
   7  -5   7    6.23    0.49
   8  -5   7    2.80    0.25
   7   4  -7    0.47    0.16
   7   4  -7    0.31    0.12
   6   4  -7    0.18    0.21
   6   4  -7    0.00    0.15
   6   4  -7    0.05    0.13
   6   4  -7   -0.02    0.21
   5   4  -7    2.13    0.28
   5   4  -7    1.90    0.28
   5   4  -7    2.36    0.27
   5   4  -7    2.30    0.20
   5   4  -7    1.81    0.27
   4   4  -7    3.27    0.34
   4   4  -7    3.09    0.31
   4   4  -7    2.79    0.40
   4   4  -7    2.97    0.31
   4   4  -7    4.39    0.76
   4   4  -7    2.82    0.33
   3   4  -7    2.34    0.29
   3   4  -7    2.07    0.37
   3   4  -7    2.75    0.28
   3   4  -7    2.19    0.39
   3   4  -7    2.57    0.59
   3   4  -7    2.61    0.27
   3   4  -7    2.46    0.20
   2   4  -7    5.96    0.54
   2   4  -7    5.52    0.37
   2   4  -7    4.74    0.42
   2   4  -7    6.09    0.73
   2   4  -7    5.95    0.62
   2   4  -7    5.49    0.47
   1   4  -7    0.61    0.28
   1   4  -7    0.69    0.47
   1   4  -7    0.82    0.32
   1  -4   7    0.27    0.29
   1  -4   7    0.28    0.28
   2  -4   7   46.08    2.97
   2  -4   7   47.32    3.33
   2  -4   7   42.50    2.83
   2  -4   7   42.65    2.61
   3  -4   7   14.70    1.13
   3  -4   7   17.80    0.99
   3  -4   7   20.73    1.54
   3  -4   7   17.07    1.09
   3  -4   7   16.57    1.19
   3  -4   7   15.50    1.40
   3  -4   7   15.42    1.23
   3  -4   7   15.49    1.04
   4  -4   7    4.51    0.41
   4  -4   7    4.02    0.51
   4  -4   7    4.60    0.40
   4  -4   7    2.77    0.64
   4  -4   7    5.42    0.81
   4  -4   7    3.89    0.44
   4  -4   7    4.82    0.28
   4  -4   7    3.97    0.37
   4  -4   7    4.53    0.41
   5  -4   7    1.26    0.24
   5  -4   7    1.17    0.22
   5  -4   7    1.42    0.27
   5  -4   7    1.41    0.26
   5  -4   7    1.18    0.17
   5  -4   7    0.81    0.56
   6  -4   7   13.58    0.98
   6  -4   7   14.00    0.97
   6  -4   7   13.46    1.06
   6  -4   7   13.07    0.85
   7  -4   7    4.97    0.34
   7  -4   7    5.74    0.46
   7  -4   7    5.15    0.43
   8  -4   7    0.46    0.12
   8  -4   7    0.54    0.13
   8   3  -7    0.17    0.11
   7   3  -7    0.27    0.19
   7   3  -7    0.55    0.17
   6   3  -7    0.11    0.21
   6   3  -7    0.39    0.17
   5   3  -7    0.19    0.10
   5   3  -7    0.35    0.21
   5   3  -7    0.06    0.48
   5   3  -7    0.33    0.16
   5   3  -7    0.21    0.24
   5   3  -7    0.27    0.20
   4   3  -7    2.14    0.29
   4   3  -7    1.57    0.54
   4   3  -7    2.58    0.24
   4   3  -7    2.34    0.23
   4   3  -7    1.44    0.30
   4   3  -7    2.03    0.32
   4   3  -7    2.19    0.29
   4   3  -7    1.81    0.24
   4   3  -7    2.26    0.30
   3   3  -7    6.69    0.55
   3   3  -7    6.32    0.58
   3   3  -7    7.46    0.60
   3   3  -7    6.46    0.58
   3   3  -7    6.65    0.49
   3   3  -7    7.09    0.43
   3   3  -7    7.31    0.83
   3   3  -7    8.59    0.68
   3   3  -7    6.94    0.51
   2   3  -7    2.94    0.41
   2   3  -7    3.53    0.57
   2   3  -7    2.98    0.37
   1   3  -7    0.19    0.24
   1   3  -7    0.24    0.26
   0   3  -7    0.19    0.27
   0   3  -7    0.44    0.28
   0  -3   7   -0.02    0.30
   0  -3   7    0.19    0.28
   1  -3   7    2.28    0.49
   1  -3   7    3.21    0.42
   1  -3   7    3.27    0.42
   1  -3   7    2.74    0.43
   2  -3   7    0.50    0.32
   2  -3   7    0.84    0.28
   2  -3   7    0.99    0.37
   3  -3   7   22.43    1.49
   3  -3   7   20.33    1.56
   3  -3   7   20.74    1.42
   3  -3   7   22.74    1.63
   3  -3   7   25.97    1.55
   3  -3   7   23.60    1.85
   3  -3   7   25.69    1.92
   3  -3   7   24.97    1.36
   4  -3   7    3.26    0.65
   4  -3   7    2.61    0.29
   4  -3   7    2.14    0.35
   4  -3   7    2.40    0.33
   4  -3   7    2.77    0.33
   4  -3   7    1.97    0.55
   4  -3   7    2.58    0.17
   4  -3   7    2.72    0.28
   4  -3   7    2.32    0.32
   4  -3   7    2.01    0.36
   4  -3   7    2.56    0.26
   5  -3   7    0.14    0.14
   5  -3   7    0.56    0.20
   5  -3   7    0.01    0.23
   5  -3   7    0.39    0.18
   5  -3   7   -0.03    0.19
   5  -3   7    0.38    0.49
   5  -3   7    0.30    0.20
   5  -3   7    0.48    0.22
   6  -3   7    9.18    0.69
   6  -3   7    7.70    0.59
   6  -3   7    8.57    0.57
   6  -3   7    9.26    0.68
   7  -3   7    3.32    0.24
   7  -3   7    3.20    0.39
   7  -3   7    4.06    0.40
   8  -3   7    9.22    0.59
   8  -3   7    7.17    0.57
   8   2  -7    1.98    0.25
   8   2  -7    2.05    0.20
   7   2  -7    3.36    0.37
   7   2  -7    3.23    0.41
   7   2  -7    3.34    0.35
   6   2  -7   13.20    1.05
   6   2  -7   12.29    1.36
   6   2  -7   14.02    0.86
   6   2  -7   14.29    1.01
   6   2  -7   14.63    1.06
   6   2  -7   13.89    0.92
   5   2  -7    0.85    0.15
   5   2  -7    0.43    0.10
   5   2  -7    0.91    0.15
   5   2  -7    0.59    0.12
   5   2  -7    0.72    0.08
   5   2  -7    0.92    0.60
   5   2  -7    0.95    0.25
   5   2  -7    0.54    0.29
   5   2  -7    0.94    0.22
   4   2  -7   14.47    0.98
   4   2  -7   14.48    1.03
   4   2  -7   14.19    0.92
   4   2  -7   15.00    1.27
   4   2  -7   12.81    1.02
   4   2  -7   13.15    0.85
   4   2  -7   14.46    0.96
   4   2  -7   12.72    0.87
   4   2  -7   11.63    0.87
   3   2  -7   25.30    1.94
   3   2  -7   25.08    1.70
   3   2  -7   24.10    2.01
   3   2  -7   25.90    1.62
   2   2  -7   35.72    2.27
   2   2  -7   37.19    2.38
   2   2  -7   35.13    2.62
   2   2  -7   35.45    2.72
   1   2  -7    5.00    0.50
   1   2  -7    4.89    0.59
   1   2  -7    5.08    0.51
   1   2  -7    4.81    0.46
  -1  -2   7    3.59    0.52
   0   2  -7    0.45    0.27
   0   2  -7    0.46    0.28
   0   2  -7    0.72    0.37
   0   2  -7    0.52    0.28
   0   2  -7    0.73    0.24
   0  -2   7    0.39    0.33
   0  -2   7    0.46    0.33
   0  -2   7    0.33    0.30
   0  -2   7    0.28    0.26
  -1   2  -7    0.21    0.30
   1  -2   7    0.09    0.29
   1  -2   7   -0.19    0.28
   1  -2   7    0.39    0.31
   1  -2   7    0.35    0.25
   2  -2   7   -0.15    0.32
   2  -2   7   -0.05    0.29
   2  -2   7   -0.13    0.24
   3  -2   7    0.24    0.27
   3  -2   7    0.26    0.40
   3  -2   7    0.05    0.10
   3  -2   7    0.35    0.40
   3  -2   7    0.14    0.23
   4  -2   7   10.43    0.75
   4  -2   7    9.60    0.70
   4  -2   7   10.78    0.74
   4  -2   7   10.71    0.66
   4  -2   7    9.91    1.03
   4  -2   7    9.24    0.67
   4  -2   7    8.81    0.57
   4  -2   7    9.61    0.67
   5  -2   7    1.94    0.24
   5  -2   7    1.70    0.25
   5  -2   7    1.71    0.21
   5  -2   7    1.79    0.28
   5  -2   7    2.06    0.24
   5  -2   7    0.92    0.55
   6  -2   7   11.02    0.70
   6  -2   7   11.25    0.81
   6  -2   7    9.48    0.70
   6  -2   7   10.39    0.80
   7  -2   7    0.16    0.09
   7  -2   7    0.20    0.17
   7  -2   7    0.33    0.18
   7  -2   7    0.11    0.20
   8  -2   7    0.80    0.12
   8  -2   7    0.99    0.16
   9   1  -7    0.06    0.11
   8   1  -7   10.49    0.91
   8   1  -7   12.36    0.84
   8   1  -7   12.82    0.78
   7   1  -7    2.11    0.31
   7   1  -7    2.30    0.33
   7   1  -7    2.04    0.26
   7   1  -7    2.45    0.34
   6   1  -7    2.08    0.28
   6   1  -7    1.35    0.26
   6   1  -7    2.04    0.24
   6   1  -7    1.67    0.23
   6   1  -7    1.48    0.16
   6   1  -7    0.32    0.48
   5   1  -7    4.17    0.30
   5   1  -7    2.44    0.57
   5   1  -7    4.06    0.42
   5   1  -7    3.83    0.39
   5   1  -7    4.37    0.41
   5   1  -7    4.10    0.70
   5   1  -7    4.06    0.35
   4   1  -7   -0.06    0.13
   4   1  -7   -0.12    0.14
   4   1  -7   -0.01    0.11
   4   1  -7    0.09    0.17
   4   1  -7   -0.05    0.17
   4   1  -7    0.50    0.42
   4   1  -7    0.02    0.21
   4   1  -7    0.07    0.11
   4   1  -7    0.08    0.44
   4   1  -7    0.13    0.19
   3   1  -7    2.39    0.31
   3   1  -7    2.53    0.32
   3   1  -7    3.42    0.52
   3   1  -7    2.16    0.45
   2   1  -7   82.65    5.27
   2   1  -7   76.00    4.78
   2   1  -7   75.89    4.57
   2   1  -7   63.18    4.44
   1   1  -7   11.30    0.75
   1   1  -7   10.41    0.85
   1   1  -7    9.95    0.79
   1   1  -7   10.22    0.88
   1   1  -7   10.86    0.80
  -1  -1   7    8.92    0.84
  -1  -1   7    9.54    0.85
   0   1  -7    1.26    0.37
   0   1  -7    1.38    0.30
   0   1  -7    1.07    0.31
   0   1  -7    0.50    0.27
   0   1  -7    1.25    0.29
   0  -1   7    1.02    0.32
   0  -1   7    0.87    0.33
   0  -1   7    1.04    0.27
   0  -1   7    0.73    0.27
   0  -1   7    1.07    0.35
  -1   1  -7    0.59    0.32
   1  -1   7    0.85    0.37
   1  -1   7    0.82    0.33
   1  -1   7    0.58    0.31
   1  -1   7    0.66    0.28
   1  -1   7    0.97    0.32
   2  -1   7    0.83    0.31
   2  -1   7    0.80    0.41
   2  -1   7    0.54    0.26
   3  -1   7    3.67    0.45
   3  -1   7    3.35    0.33
   3  -1   7    3.81    0.43
   3  -1   7    3.15    0.60
   3  -1   7    3.53    0.26
   4  -1   7    1.53    0.25
   4  -1   7    0.94    0.27
   4  -1   7    1.47    0.20
   4  -1   7    1.64    0.21
   4  -1   7    1.00    0.53
   4  -1   7    1.35    0.21
   4  -1   7    1.25    0.30
   4  -1   7    1.27    0.17
   5  -1   7    1.18    0.58
   5  -1   7    1.86    0.22
   5  -1   7    2.11    0.29
   5  -1   7    2.38    0.27
   5  -1   7    2.02    0.22
   5  -1   7    1.38    0.29
   5  -1   7    2.23    0.24
   6  -1   7    0.13    0.16
   6  -1   7   -0.14    0.19
   6  -1   7    0.17    0.16
   6  -1   7    0.18    0.27
   7  -1   7    0.71    0.19
   7  -1   7    0.84    0.18
   7  -1   7    1.09    0.11
   7  -1   7    1.44    0.21
   8  -1   7    0.05    0.11
   9   0  -7    0.10    0.14
   8   0  -7    2.05    0.27
   8   0  -7    1.99    0.29
   7   0  -7    1.00    0.31
   7   0  -7    0.88    0.26
   7   0  -7    0.95    0.26
   7   0  -7    1.44    0.23
   6   0  -7    0.41    0.41
   6   0  -7   -0.08    0.49
   6   0  -7    0.52    0.21
   6   0  -7    0.53    0.24
   6   0  -7    0.21    0.21
   6   0  -7    0.34    0.07
   6   0  -7    0.34    0.20
   5   0  -7    7.80    0.62
   5   0  -7    7.72    0.63
   5   0  -7    6.84    0.78
   5   0  -7    7.59    0.64
   5   0  -7    7.14    0.47
   5   0  -7    8.11    0.82
   5   0  -7    7.55    0.58
   5   0  -7    6.50    0.56
   4   0  -7    3.32    0.29
   4   0  -7    3.55    0.32
   4   0  -7    2.99    0.49
   4   0  -7    4.03    0.30
   4   0  -7    4.12    0.57
   3   0  -7    1.86    0.42
   3   0  -7    1.59    0.44
   3   0  -7    1.77    0.24
   3   0  -7    2.09    0.27
   2   0  -7   34.52    2.55
   2   0  -7   33.84    2.18
   2   0  -7   39.13    2.30
   2   0  -7   33.23    2.17
   2   0  -7   35.99    2.19
  -2   0   7   32.33    2.19
   1   0  -7    0.43    0.33
   1   0  -7    0.24    0.24
   1   0  -7    0.47    0.30
   1   0  -7    0.73    0.25
   1   0  -7    0.19    0.23
  -1   0   7    0.34    0.26
  -1   0   7    0.08    0.31
  -1   0   7    0.48    0.23
  -1   0   7    0.48    0.26
  -1   0   7    0.40    0.31
   0   0  -7    2.38    0.40
   0   0  -7    3.47    0.43
   0   0  -7    2.59    0.43
   0   0  -7    2.78    0.36
   0   0  -7    3.17    0.38
   0   0   7    1.89    0.40
   0   0   7    2.77    0.37
   0   0   7    3.13    0.45
   0   0   7    2.67    0.39
   0   0   7    2.11    0.45
  -1   0  -7    3.71    0.52
  -1   0  -7    4.02    0.50
   1   0   7    4.90    0.51
   1   0   7    5.70    0.49
   1   0   7    4.93    0.65
   1   0   7    4.19    0.57
   2   0   7   58.24    4.09
   2   0   7   52.02    3.61
   2   0   7   55.55    3.45
   3   0   7   10.33    0.82
   3   0   7    9.87    0.64
   3   0   7    8.40    0.70
   3   0   7    9.32    0.67
   3   0   7   10.28    1.01
   3   0   7   10.50    0.80
   3   0   7    9.78    0.59
   4   0   7    0.40    0.26
   4   0   7    0.32    0.51
   4   0   7    0.01    0.22
   4   0   7   -0.02    0.17
   4   0   7    0.22    0.21
   4   0   7   -0.17    0.21
   4   0   7   -0.01    0.16
   5   0   7   19.53    1.89
   5   0   7   23.36    1.56
   5   0   7   20.22    1.43
   5   0   7   23.50    1.39
   5   0   7   23.02    1.45
   5   0   7   25.12    1.56
   6   0   7    1.48    0.20
   6   0   7    1.22    0.22
   6   0   7    0.65    0.29
   6   0   7    1.34    0.19
   7   0   7    0.39    0.11
   7   0   7    0.44    0.23
   9  -1  -7   -0.11    0.13
   8  -1  -7    0.50    0.17
   8  -1  -7    0.21    0.22
   8  -1  -7    0.34    0.21
   8  -1  -7    0.27    0.20
   7  -1  -7   32.32    2.40
   7  -1  -7   32.28    2.20
   7  -1  -7   33.21    2.38
   7  -1  -7   33.94    2.10
   6  -1  -7    2.58    0.35
   6  -1  -7    2.63    0.37
   6  -1  -7    3.01    0.37
   6  -1  -7    2.70    0.33
   6  -1  -7    3.17    0.38
   6  -1  -7    2.82    0.62
   5  -1  -7    0.04    0.15
   5  -1  -7   -0.03    0.20
   5  -1  -7   -0.57    0.36
   5  -1  -7   -0.14    0.16
   5  -1  -7    0.21    0.18
   5  -1  -7   -0.11    0.32
   5  -1  -7   -0.01    0.08
   5  -1  -7   -0.05    0.14
   4  -1  -7   55.57    3.35
   4  -1  -7   49.67    3.34
   4  -1  -7   55.33    3.81
   4  -1  -7   51.81    3.84
   4  -1  -7   54.72    3.21
   4  -1  -7   48.82    3.21
   3  -1  -7    0.85    0.26
   3  -1  -7    0.91    0.23
   3  -1  -7    1.28    0.22
   3  -1  -7    0.96    0.42
   2  -1  -7    8.50    0.60
   2  -1  -7    8.39    0.66
   2  -1  -7    8.28    0.69
   2  -1  -7    7.93    0.78
  -2   1   7    7.34    0.70
   1  -1  -7   87.50    6.24
   1  -1  -7   82.72    5.28
   1  -1  -7   95.14    5.44
   1  -1  -7   87.72    5.29
   1  -1  -7   93.85    5.68
  -1   1   7   86.16    5.29
  -1   1   7   87.93    5.30
   0  -1  -7   13.34    1.00
   0  -1  -7   13.05    0.99
   0  -1  -7   14.01    0.92
   0  -1  -7   13.44    1.03
   0   1   7   12.99    1.00
   0   1   7   12.45    1.00
   0   1   7   13.34    0.95
   0   1   7   12.60    1.04
  -1  -1  -7   52.61    3.42
   1   1   7   50.80    3.41
   1   1   7   55.16    3.61
   1   1   7   57.68    3.45
   1   1   7   58.17    4.07
   2   1   7  116.44    8.32
   2   1   7  114.99    7.37
   2   1   7  113.44    7.05
   3   1   7    3.63    0.36
   3   1   7    4.17    0.41
   3   1   7    3.29    0.49
   3   1   7    4.43    0.39
   3   1   7    4.41    0.29
   3   1   7    4.12    0.72
   3   1   7    4.12    0.48
   4   1   7   16.73    1.62
   4   1   7   17.97    1.16
   4   1   7   18.35    1.24
   4   1   7   16.50    1.30
   4   1   7   16.56    1.22
   4   1   7   19.04    1.11
   4   1   7   17.12    1.23
   5   1   7    7.01    0.59
   5   1   7    5.99    0.53
   5   1   7    6.40    0.49
   5   1   7    6.84    0.46
   6   1   7    0.15    0.13
   6   1   7   -0.02    0.19
   7   1   7    7.96    0.58
   9  -2  -7   -0.13    0.16
   8  -2  -7    0.56    0.24
   8  -2  -7   -0.10    0.19
   8  -2  -7    0.16    0.23
   8  -2  -7    0.19    0.27
   8  -2  -7    0.10    0.19
   7  -2  -7    4.31    0.50
   7  -2  -7    3.10    0.71
   7  -2  -7    5.96    0.42
   7  -2  -7    4.69    0.47
   7  -2  -7    4.65    0.42
   7  -2  -7    4.92    0.42
   7  -2  -7    5.33    0.52
   6  -2  -7    5.32    0.72
   6  -2  -7    5.65    0.49
   6  -2  -7    5.55    0.49
   6  -2  -7    4.92    0.43
   6  -2  -7    5.16    0.49
   6  -2  -7    5.68    0.52
   5  -2  -7   22.26    1.54
   5  -2  -7   21.39    1.51
   5  -2  -7   22.01    1.66
   5  -2  -7   20.05    1.39
   5  -2  -7   18.43    1.23
   5  -2  -7   21.02    1.32
   5  -2  -7   19.37    1.51
   4  -2  -7    3.13    0.28
   4  -2  -7    3.20    0.31
   4  -2  -7    3.68    0.62
   3  -2  -7   10.85    0.73
   3  -2  -7   10.71    0.78
   3  -2  -7   10.32    0.97
   2  -2  -7   22.50    1.45
   2  -2  -7   22.04    1.37
   2  -2  -7   20.58    1.64
   2  -2  -7   18.16    1.41
   1  -2  -7    0.26    0.25
   1  -2  -7    0.58    0.25
   1  -2  -7    0.38    0.42
   1  -2  -7    0.10    0.31
  -1   2   7    0.01    0.31
   0  -2  -7    0.24    0.25
   0  -2  -7    0.20    0.26
   0   2   7    0.26    0.27
   0   2   7   -0.14    0.29
   0   2   7    0.14    0.31
   1   2   7    0.63    0.32
   1   2   7    0.75    0.46
   2   2   7    5.27    0.36
   2   2   7    4.99    0.44
   2   2   7    5.09    0.56
   2   2   7    5.58    0.62
   2   2   7    6.00    0.68
   3   2   7   12.97    0.94
   3   2   7   11.75    1.05
   3   2   7   12.48    0.89
   3   2   7   12.38    0.98
   3   2   7   13.81    0.85
   3   2   7   14.02    1.32
   3   2   7   13.27    0.79
   4   2   7   24.43    1.55
   4   2   7   24.12    1.48
   4   2   7   19.87    2.05
   4   2   7   25.85    1.65
   5   2   7    1.02    0.29
   5   2   7    1.75    0.21
   5   2   7    1.66    0.22
   6   2   7    0.77    0.14
   6   2   7    1.41    0.21
   9  -3  -7    2.49    0.28
   9  -3  -7    2.60    0.30
   9  -3  -7    2.21    0.26
   8  -3  -7    0.16    0.26
   8  -3  -7    0.11    0.25
   8  -3  -7    0.20    0.25
   8  -3  -7    0.34    0.18
   7  -3  -7    0.76    0.19
   7  -3  -7    0.71    0.21
   7  -3  -7    0.44    0.19
   7  -3  -7    1.03    0.31
   7  -3  -7    0.66    0.20
   6  -3  -7    6.58    0.52
   6  -3  -7    6.41    0.57
   6  -3  -7    5.53    0.36
   6  -3  -7    5.81    0.74
   6  -3  -7    5.51    0.48
   6  -3  -7    5.50    0.50
   6  -3  -7    6.27    0.55
   5  -3  -7   15.72    1.01
   5  -3  -7   14.64    1.15
   5  -3  -7   16.42    1.15
   5  -3  -7   14.92    1.32
   5  -3  -7   15.74    1.05
   5  -3  -7   14.88    0.92
   5  -3  -7   15.36    1.33
   5  -3  -7   13.30    1.13
   4  -3  -7    0.64    0.11
   4  -3  -7    0.43    0.17
   4  -3  -7    0.74    0.46
   4  -3  -7    0.49    0.18
   4  -3  -7    1.20    0.45
   4  -3  -7    0.42    0.17
   4  -3  -7    0.59    0.15
   3  -3  -7    1.28    0.37
   3  -3  -7    0.72    0.27
   3  -3  -7    1.52    0.51
   3  -3  -7    1.22    0.25
   2  -3  -7    3.25    0.61
   2  -3  -7    3.66    0.44
   2  -3  -7    3.19    0.39
   1  -3  -7    4.34    0.46
   1  -3  -7    4.84    0.54
   1   3   7   20.89    1.57
   1   3   7   22.20    1.47
   1   3   7   20.44    1.26
   2   3   7    4.46    0.30
   2   3   7    2.56    0.50
   2   3   7    3.12    0.53
   2   3   7    3.76    0.35
   2   3   7    4.50    0.78
   3   3   7    0.26    0.61
   3   3   7    0.32    0.15
   3   3   7    0.07    0.13
   3   3   7   -0.32    0.39
   3   3   7    0.13    0.24
   3   3   7   -0.01    0.15
   4   3   7    1.69    0.24
   4   3   7    0.92    0.22
   4   3   7    1.23    0.22
   5   3   7    0.48    0.25
   5   3   7    0.41    0.17
   5   3   7    0.51    0.09
   6   3   7    7.70    0.49
   6   3   7    7.97    0.56
   9  -4  -7   -0.08    0.20
   9  -4  -7   -0.01    0.21
   9  -4  -7   -0.15    0.18
   8  -4  -7    5.06    0.46
   8  -4  -7    5.63    0.49
   8  -4  -7    5.01    0.52
   7  -4  -7   -0.01    0.18
   7  -4  -7    0.02    0.27
   7  -4  -7   -0.17    0.27
   7  -4  -7    0.15    0.26
   6  -4  -7    0.82    0.11
   6  -4  -7    0.91    0.20
   6  -4  -7    0.55    0.43
   6  -4  -7    0.89    0.26
   6  -4  -7    0.80    0.30
   6  -4  -7    0.86    0.49
   6  -4  -7    1.01    0.27
   5  -4  -7   10.79    0.73
   5  -4  -7   11.29    0.74
   5  -4  -7   13.23    1.13
   5  -4  -7   10.59    0.73
   5  -4  -7   11.78    1.13
   5  -4  -7   10.71    0.81
   5  -4  -7   11.80    0.77
   5  -4  -7   11.52    0.91
   5  -4  -7   11.44    0.92
   5  -4  -7   13.27    0.83
   4  -4  -7    0.37    0.13
   4  -4  -7    0.34    0.18
   4  -4  -7    0.53    0.15
   4  -4  -7   -0.02    0.22
   4  -4  -7    0.42    0.19
   4  -4  -7    0.46    0.19
   4  -4  -7    0.36    0.37
   4  -4  -7    0.01    0.44
   4  -4  -7    0.42    0.15
   3  -4  -7   10.28    0.77
   3  -4  -7   14.29    1.17
   3  -4  -7   11.54    0.81
   3  -4  -7   13.44    1.09
   3  -4  -7   12.41    0.87
   3  -4  -7   12.23    0.72
   3  -4  -7   12.81    0.95
   2  -4  -7   30.63    1.89
   2  -4  -7   32.06    2.20
   2  -4  -7   32.00    2.46
   2  -4  -7   34.08    2.08
   1  -4  -7    4.69    0.49
   1  -4  -7    4.96    0.54
   1   4   7    0.74    0.12
   2   4   7    3.69    0.58
   2   4   7    4.71    0.86
   2   4   7    4.52    0.44
   2   4   7    2.78    0.55
   2   4   7    5.21    0.33
   3   4   7    4.55    0.42
   3   4   7    4.56    0.31
   3   4   7    4.51    0.43
   3   4   7    4.55    0.37
   4   4   7    2.35    0.28
   4   4   7    2.30    0.25
   4   4   7    2.37    0.30
   5   4   7    0.86    0.13
   5   4   7    1.31    0.18
   9  -5  -7    5.56    0.49
   9  -5  -7    6.23    0.44
   8  -5  -7    9.23    0.76
   8  -5  -7    9.13    0.78
   8  -5  -7    9.76    0.67
   7  -5  -7    7.05    0.60
   7  -5  -7    6.93    0.60
   7  -5  -7    7.45    0.65
   6  -5  -7   19.80    1.55
   6  -5  -7   20.75    1.36
   6  -5  -7   19.81    1.78
   6  -5  -7   20.66    1.24
   6  -5  -7   21.30    1.54
   5  -5  -7   10.01    1.07
   5  -5  -7   10.44    0.67
   5  -5  -7   10.14    0.66
   5  -5  -7    9.80    0.69
   5  -5  -7    8.67    0.72
   5  -5  -7   10.79    0.73
   5  -5  -7    9.85    0.81
   5  -5  -7   10.11    0.84
   5  -5  -7   10.54    1.04
   4  -5  -7    0.16    0.15
   4  -5  -7   -0.06    0.20
   4  -5  -7    0.11    0.17
   4  -5  -7    0.00    0.51
   4  -5  -7    0.10    0.38
   4  -5  -7    0.04    0.26
   4  -5  -7    0.00    0.14
   4  -5  -7   -0.03    0.21
   4  -5  -7    0.01    0.14
   3  -5  -7   22.16    1.75
   3  -5  -7   20.71    1.37
   3  -5  -7   20.54    1.36
   3  -5  -7   19.99    1.31
   3  -5  -7   20.21    1.77
   3  -5  -7   22.02    1.25
   3  -5  -7   23.11    1.56
   3  -5  -7   21.12    1.43
   2  -5  -7   12.89    0.74
   2  -5  -7   11.61    1.17
   2  -5  -7   12.57    0.92
   2  -5  -7   12.50    1.02
   2  -5  -7   10.44    0.82
   1  -5  -7    1.32    0.16
   1   5   7   11.37    0.71
   2   5   7    1.82    0.19
   2   5   7    1.66    0.23
   3   5   7    1.26    0.27
   3   5   7    1.36    0.11
   3   5   7    1.51    0.19
   3   5   7    0.97    0.23
   4   5   7    0.51    0.12
   4   5   7    0.66    0.17
   4   5   7    0.35    0.14
   9  -6  -7    1.59    0.20
   9  -6  -7    0.96    0.18
   8  -6  -7    2.75    0.29
   7  -6  -7   12.20    0.98
   7  -6  -7   12.42    0.97
   7  -6  -7   12.41    0.85
   6  -6  -7    4.06    0.44
   6  -6  -7    3.84    0.32
   6  -6  -7    4.18    0.38
   6  -6  -7    4.68    0.49
   5  -6  -7    0.45    0.44
   5  -6  -7   -0.11    0.20
   5  -6  -7   -0.17    0.29
   5  -6  -7    0.01    0.14
   5  -6  -7    0.10    0.13
   5  -6  -7   -0.19    0.23
   5  -6  -7   -0.38    0.40
   4  -6  -7    3.45    0.39
   4  -6  -7    2.99    0.62
   4  -6  -7    4.45    0.43
   4  -6  -7    3.93    0.45
   4  -6  -7    3.44    0.78
   4  -6  -7    3.54    0.35
   4  -6  -7    4.51    0.35
   3  -6  -7    8.69    0.59
   3  -6  -7    8.10    0.80
   3  -6  -7    8.84    0.53
   3  -6  -7    8.47    0.63
   3  -6  -7    8.04    0.72
   3  -6  -7    8.13    0.60
   3  -6  -7    7.82    1.01
   2  -6  -7    0.72    0.35
   2  -6  -7    1.27    0.62
   2  -6  -7    1.53    0.18
   2  -6  -7    0.98    0.32
   2  -6  -7    1.13    0.24
   1  -6  -7   24.86    1.49
   0  -6  -7    0.26    0.14
   0   6   7    0.32    0.14
   1   6   7    0.38    0.14
   2   6   7    0.16    0.22
   2   6   7    0.19    0.10
   3   6   7    0.02    0.16
   3   6   7   -0.03    0.14
   9  -7  -7    0.17    0.11
   9  -7  -7    0.17    0.12
   8  -7  -7    0.03    0.14
   8  -7  -7    0.25    0.16
   7  -7  -7    0.53    0.08
   7  -7  -7    0.63    0.17
   7  -7  -7    0.44    0.16
   7  -7  -7    0.23    0.24
   6  -7  -7    0.77    0.26
   6  -7  -7    0.69    0.27
   6  -7  -7    0.59    0.21
   6  -7  -7    0.42    0.14
   5  -7  -7    1.34    0.26
   5  -7  -7    1.30    0.32
   5  -7  -7    1.34    0.20
   5  -7  -7    1.24    0.16
   4  -7  -7    4.08    0.43
   4  -7  -7    4.99    0.40
   4  -7  -7    4.62    0.53
   4  -7  -7    4.86    0.37
   3  -7  -7    1.85    0.27
   3  -7  -7    2.06    0.25
   3  -7  -7    2.19    0.18
   3  -7  -7    2.12    0.24
   2  -7  -7    1.78    0.20
   2  -7  -7    2.16    0.29
   1  -7  -7    2.10    0.23
   0  -7  -7    3.86    0.31
   0   7   7    3.62    0.28
   1   7   7    7.86    0.50
   2   7   7    0.00    0.12
   2   7   7   -0.13    0.17
   8  -8  -7    0.09    0.11
   7  -8  -7    0.13    0.14
   6  -8  -7    0.63    0.16
   6  -8  -7    0.48    0.13
   6  -8  -7    0.56    0.22
   5  -8  -7    5.93    0.41
   5  -8  -7    4.42    0.45
   5  -8  -7    5.23    0.45
   5  -8  -7    5.15    0.37
   4  -8  -7    0.94    0.21
   4  -8  -7    0.53    0.17
   4  -8  -7    0.86    0.21
   4  -8  -7    1.07    0.17
   3  -8  -7    0.62    0.09
   3  -8  -7    0.63    0.20
   2  -8  -7    0.12    0.10
   2  -8  -7    0.10    0.14
   1  -8  -7    0.57    0.12
  -1   8   7    0.35    0.13
   0  -8  -7    5.87    0.37
   0   8   7    5.32    0.36
  -1  -8  -7    0.39    0.08
   1   8   7    0.41    0.12
   1   8   7    0.39    0.06
   1   8   7    0.43    0.12
   7  -9  -7    0.99    0.13
   6  -9  -7    7.59    0.47
   5  -9  -7   -0.02    0.12
   5  -9  -7    0.02    0.13
   4  -9  -7    0.83    0.21
   4  -9  -7    1.14    0.18
   4  -9  -7    1.58    0.18
   3  -9  -7    0.05    0.13
   3  -9  -7    0.22    0.11
   2  -9  -7   -0.04    0.12
   2  -9  -7    0.12    0.04
   2  -9  -7    0.11    0.11
   1  -9  -7    3.20    0.20
  -1   9   7    2.84    0.21
   1   9  -8    0.56    0.11
   0   9  -8    0.09    0.08
   0  -9   8    0.28    0.09
  -1   9  -8   10.01    0.61
   1  -9   8    9.61    0.60
   2  -9   8    0.13    0.23
   2  -9   8    0.21    0.09
   3  -9   8    1.18    0.15
   3  -9   8    1.33    0.19
   4  -9   8    2.51    0.23
   4  -9   8    1.63    0.25
   4  -9   8    2.22    0.22
   5  -9   8    0.62    0.10
   3   8  -8    4.78    0.30
   3   8  -8    3.75    0.30
   2   8  -8   -0.06    0.17
   2   8  -8    0.19    0.16
   1   8  -8   16.93    0.95
   1   8  -8   14.49    1.05
   0   8  -8    0.03    0.09
   0  -8   8    0.11    0.17
  -1   8  -8    7.47    0.53
   1  -8   8    8.41    0.53
   2  -8   8    8.94    0.75
   2  -8   8   10.37    0.61
   2  -8   8    9.80    0.73
   3  -8   8    5.57    0.43
   3  -8   8    5.49    0.45
   3  -8   8    4.70    0.33
   4  -8   8    0.09    0.13
   4  -8   8    0.16    0.19
   4  -8   8    0.26    0.15
   5  -8   8    8.63    0.59
   5  -8   8    9.14    0.57
   5  -8   8    7.70    0.70
   6  -8   8    2.04    0.23
   6  -8   8    1.97    0.18
   3   7  -8   16.61    1.03
   3   7  -8   15.52    0.97
   3   7  -8   14.38    0.99
   2   7  -8    2.86    0.21
   2   7  -8    2.90    0.37
   1   7  -8    1.59    0.19
   0   7  -8   -0.10    0.18
   1  -7   8    1.84    0.23
   2  -7   8   20.25    1.14
   2  -7   8   17.03    1.27
   3  -7   8    1.57    0.28
   3  -7   8    1.46    0.17
   3  -7   8    1.39    0.22
   4  -7   8    7.83    0.60
   4  -7   8    8.31    0.61
   4  -7   8    7.71    0.66
   5  -7   8    3.16    0.41
   5  -7   8    3.61    0.36
   5  -7   8    3.37    0.29
   6  -7   8    0.56    0.17
   6  -7   8    0.50    0.11
   7  -7   8   -0.02    0.11
   5   6  -8    0.43    0.14
   5   6  -8    0.55    0.16
   5   6  -8    0.52    0.12
   4   6  -8    0.86    0.19
   4   6  -8    1.09    0.17
   4   6  -8    1.34    0.17
   4   6  -8    0.90    0.21
   3   6  -8    7.51    0.58
   3   6  -8    7.26    0.45
   3   6  -8    8.10    0.57
   3   6  -8    7.51    0.59
   3   6  -8    7.62    0.57
   2   6  -8    0.70    0.21
   2   6  -8    0.55    0.23
   2   6  -8    0.86    0.14
   1   6  -8    6.41    0.86
   0   6  -8   29.37    1.65
   0   6  -8   26.10    2.25
   0  -6   8   26.13    2.25
   1  -6   8    9.09    1.13
   1  -6   8   12.77    0.73
   2  -6   8    9.39    0.55
   2  -6   8    7.30    0.61
   2  -6   8    7.84    0.95
   3  -6   8   47.83    2.80
   3  -6   8   38.38    3.44
   3  -6   8   45.64    2.57
   3  -6   8   41.99    2.65
   4  -6   8    6.19    0.56
   4  -6   8    6.23    0.50
   4  -6   8    5.01    0.34
   4  -6   8    6.96    0.49
   5  -6   8    0.11    0.18
   5  -6   8    0.24    0.17
   5  -6   8    0.37    0.20
   5  -6   8    0.18    0.24
   6  -6   8   23.78    1.65
   6  -6   8   25.42    1.83
   7  -6   8   -0.15    0.12
   7  -6   8    0.05    0.07
   7  -6   8    0.02    0.09
   6   5  -8    0.12    0.10
   6   5  -8    0.10    0.08
   6   5  -8   -0.06    0.15
   5   5  -8    0.86    0.17
   5   5  -8    0.63    0.20
   5   5  -8    0.98    0.17
   4   5  -8    3.76    0.34
   4   5  -8    3.37    0.34
   4   5  -8    3.38    0.31
   4   5  -8    3.26    0.38
   3   5  -8    9.54    0.64
   3   5  -8    9.78    0.73
   3   5  -8    9.22    0.57
   3   5  -8    9.40    0.69
   2   5  -8    5.40    0.69
   2   5  -8    6.77    0.42
   2   5  -8    6.59    0.53
   2   5  -8    5.92    0.48
   2   5  -8    6.12    0.85
   2   5  -8    5.73    0.58
   1   5  -8    3.31    0.28
   1   5  -8    2.73    0.59
   0   5  -8    3.15    0.30
   1  -5   8   15.10    0.93
   2  -5   8    6.80    0.74
   2  -5   8    6.56    0.58
   2  -5   8    7.31    0.86
   2  -5   8    7.88    0.48
   2  -5   8    6.73    0.68
   3  -5   8    2.65    0.29
   3  -5   8    1.64    0.44
   3  -5   8    1.49    0.39
   3  -5   8    2.56    0.63
   3  -5   8    2.43    0.22
   3  -5   8    2.81    0.30
   4  -5   8    2.42    0.33
   4  -5   8    2.84    0.20
   4  -5   8    2.87    0.39
   4  -5   8    2.86    0.69
   4  -5   8    2.60    0.31
   4  -5   8    3.51    0.34
   5  -5   8    9.67    0.80
   5  -5   8    8.96    0.71
   5  -5   8    9.58    0.65
   5  -5   8    8.83    0.65
   6  -5   8    5.35    0.41
   6  -5   8    5.42    0.53
   6  -5   8    5.33    0.48
   7  -5   8   -0.17    0.11
   7  -5   8   -0.04    0.17
   7  -5   8   -0.03    0.08
   7   4  -8    0.21    0.12
   6   4  -8    0.20    0.20
   6   4  -8    0.15    0.18
   5   4  -8    6.05    0.50
   5   4  -8    6.15    0.42
   5   4  -8    6.03    0.54
   5   4  -8    6.21    0.46
   4   4  -8    0.18    0.19
   4   4  -8    0.39    0.53
   4   4  -8    0.12    0.16
   4   4  -8    0.17    0.22
   4   4  -8    0.38    0.19
   3   4  -8    3.40    0.39
   3   4  -8    3.47    0.24
   3   4  -8    2.81    0.45
   3   4  -8    3.19    0.36
   3   4  -8    4.37    0.80
   3   4  -8    3.08    0.43
   3   4  -8    3.46    0.35
   2   4  -8   13.72    0.84
   2   4  -8   12.91    0.94
   2   4  -8   12.85    0.88
   2   4  -8   14.39    1.10
   2   4  -8   15.42    1.29
   2   4  -8   14.07    1.02
   1   4  -8    0.63    0.30
   1   4  -8    0.15    0.27
   1   4  -8    0.33    0.47
   1   4  -8    0.16    0.15
   1  -4   8   -0.09    0.29
   1  -4   8    0.44    0.30
   2  -4   8   50.35    3.36
   2  -4   8   49.09    3.37
   2  -4   8   59.40    3.12
   2  -4   8   53.38    3.53
   3  -4   8    1.17    0.35
   3  -4   8    1.02    0.46
   3  -4   8    1.08    0.34
   3  -4   8    2.05    0.26
   3  -4   8    2.02    0.27
   3  -4   8    1.91    0.18
   3  -4   8    1.97    0.23
   3  -4   8    1.61    0.51
   4  -4   8    2.35    0.26
   4  -4   8    1.08    0.52
   4  -4   8    1.78    0.23
   4  -4   8    1.06    0.31
   4  -4   8    1.69    0.14
   4  -4   8    2.42    0.70
   4  -4   8    0.88    0.31
   4  -4   8    1.83    0.27
   4  -4   8    1.99    0.26
   5  -4   8    5.06    0.52
   5  -4   8    5.10    0.42
   5  -4   8    4.96    0.44
   5  -4   8    5.52    0.48
   6  -4   8   -0.09    0.21
   6  -4   8    0.15    0.16
   6  -4   8   -0.03    0.20
   6  -4   8    0.10    0.22
   7  -4   8    0.55    0.15
   7  -4   8    0.38    0.09
   7  -4   8    0.42    0.13
   8  -4   8    3.07    0.29
   8   3  -8   12.97    0.88
   7   3  -8    1.84    0.21
   7   3  -8    1.02    0.19
   7   3  -8    1.42    0.19
   6   3  -8    2.33    0.22
   6   3  -8    1.47    0.26
   6   3  -8    2.31    0.25
   6   3  -8    2.70    0.30
   5   3  -8    9.29    1.07
   5   3  -8    8.62    0.71
   5   3  -8    8.40    0.58
   5   3  -8    8.41    0.63
   5   3  -8    9.73    0.71
   5   3  -8    8.94    0.59
   4   3  -8    1.50    0.25
   4   3  -8    2.21    0.24
   4   3  -8    1.45    0.28
   4   3  -8    1.38    0.55
   4   3  -8    2.31    0.27
   4   3  -8    2.09    0.23
   4   3  -8    2.99    0.31
   4   3  -8    2.19    0.33
   4   3  -8    1.32    0.29
   3   3  -8    5.37    0.45
   3   3  -8    5.43    0.52
   3   3  -8    5.22    0.40
   3   3  -8    5.23    0.54
   3   3  -8    5.64    0.75
   3   3  -8    4.63    0.42
   3   3  -8    4.57    0.44
   2   3  -8   24.07    1.61
   2   3  -8   24.18    1.52
   2   3  -8   20.13    1.34
   2   3  -8   23.59    1.86
   1   3  -8    0.17    0.27
   1   3  -8    0.32    0.26
   0   3  -8    0.43    0.30
   0   3  -8    0.62    0.30
   1  -3   8   15.02    1.13
   1  -3   8   14.77    1.08
   2  -3   8    7.73    0.50
   2  -3   8    8.85    0.70
   2  -3   8    7.16    0.80
   2  -3   8    7.92    0.72
   3  -3   8   14.63    1.08
   3  -3   8   13.85    0.82
   3  -3   8   12.27    0.88
   3  -3   8   12.55    0.95
   3  -3   8   14.89    1.22
   3  -3   8   13.79    1.26
   3  -3   8   14.55    1.01
   3  -3   8   13.14    0.92
   4  -3   8    1.64    0.13
   4  -3   8    2.18    0.28
   4  -3   8    1.85    0.26
   4  -3   8    1.28    0.38
   4  -3   8    0.62    0.43
   4  -3   8    2.09    0.27
   4  -3   8    1.88    0.26
   4  -3   8    0.64    0.49
   4  -3   8    1.14    0.31
   5  -3   8    0.04    0.20
   5  -3   8    0.19    0.23
   5  -3   8    0.10    0.16
   5  -3   8    0.49    0.38
   5  -3   8    0.25    0.19
   5  -3   8    0.36    0.23
   6  -3   8    0.11    0.24
   6  -3   8    0.38    0.24
   6  -3   8    0.61    0.18
   7  -3   8    0.29    0.15
   7  -3   8    0.16    0.19
   7  -3   8    0.28    0.08
   8  -3   8    0.92    0.13
   8   2  -8    3.51    0.30
   8   2  -8    3.02    0.35
   7   2  -8    2.18    0.30
   7   2  -8    2.68    0.28
   6   2  -8    4.13    0.34
   6   2  -8    4.16    0.49
   6   2  -8    4.10    0.46
   6   2  -8    4.06    0.44
   6   2  -8    4.37    0.32
   5   2  -8    0.46    0.13
   5   2  -8    0.40    0.12
   5   2  -8    0.67    0.10
   5   2  -8    0.60    0.22
   5   2  -8    0.87    0.52
   5   2  -8    0.50    0.24
   5   2  -8    0.66    0.18
   5   2  -8    0.83    0.22
   4   2  -8    1.19    0.26
   4   2  -8    1.09    0.26
   4   2  -8    1.14    0.23
   4   2  -8    0.34    0.48
   4   2  -8    0.63    0.20
   4   2  -8    0.94    0.48
   4   2  -8    1.27    0.18
   4   2  -8    1.13    0.16
   4   2  -8    0.89    0.26
   3   2  -8    0.60    0.26
   3   2  -8    0.54    0.20
   3   2  -8    1.13    0.46
   3   2  -8    0.64    0.17
   3   2  -8    0.67    0.24
   3   2  -8    0.74    0.10
   3   2  -8    0.66    0.41
   2   2  -8   13.94    0.99
   2   2  -8   13.89    1.17
   2   2  -8   13.78    1.04
   1   2  -8   54.16    3.61
   1   2  -8   53.10    3.32
   1   2  -8   52.21    3.17
   1   2  -8   41.31    3.13
   0   2  -8    6.25    0.54
   0   2  -8    5.88    0.60
   0  -2   8    5.86    0.57
   0  -2   8    5.91    0.59
   1  -2   8   -0.28    0.29
   1  -2   8   -0.12    0.23
   1  -2   8    0.20    0.26
   1  -2   8   -0.10    0.33
   2  -2   8    2.00    0.40
   2  -2   8    2.13    0.38
   2  -2   8    2.71    0.47
   3  -2   8    3.05    0.24
   3  -2   8    3.14    0.44
   3  -2   8    2.35    0.51
   3  -2   8    2.74    0.56
   3  -2   8    2.60    0.33
   3  -2   8    2.69    0.33
   3  -2   8    2.14    0.39
   4  -2   8    4.13    0.26
   4  -2   8    5.06    0.73
   4  -2   8    4.32    0.38
   4  -2   8    4.35    0.40
   4  -2   8    3.52    0.49
   4  -2   8    4.33    0.37
   4  -2   8    4.10    0.38
   4  -2   8    4.63    0.47
   4  -2   8    4.57    0.41
   5  -2   8    0.34    0.23
   5  -2   8    0.02    0.20
   5  -2   8   -0.02    0.37
   5  -2   8    0.15    0.24
   5  -2   8   -0.21    0.13
   5  -2   8    0.00    0.17
   6  -2   8    0.44    0.18
   6  -2   8    0.10    0.24
   6  -2   8    0.54    0.17
   6  -2   8    0.24    0.26
   7  -2   8    5.69    0.37
   7  -2   8    6.44    0.47
   7  -2   8    6.02    0.49
   9   1  -8    0.22    0.11
   9   1  -8    0.23    0.16
   8   1  -8    7.74    0.59
   8   1  -8    7.10    0.59
   7   1  -8    1.80    0.28
   7   1  -8    1.75    0.34
   7   1  -8    1.30    0.28
   6   1  -8    1.92    0.34
   6   1  -8    0.41    0.50
   6   1  -8    1.89    0.29
   6   1  -8    1.58    0.23
   6   1  -8    1.45    0.15
   5   1  -8   17.58    1.11
   5   1  -8   19.16    1.36
   5   1  -8   19.92    1.60
   5   1  -8   18.68    1.56
   5   1  -8   17.25    1.37
   5   1  -8   17.96    1.20
   5   1  -8   18.19    1.27
   4   1  -8   23.07    1.62
   4   1  -8   22.58    1.46
   4   1  -8   22.82    1.53
   4   1  -8   27.30    1.55
   4   1  -8   26.28    1.62
   4   1  -8   26.68    1.97
   4   1  -8   24.32    1.54
   4   1  -8   21.70    1.76
   4   1  -8   22.72    1.74
   4   1  -8   26.61    1.92
   3   1  -8    3.58    0.41
   3   1  -8    4.21    0.59
   3   1  -8    4.10    0.57
   3   1  -8    3.76    0.39
   2   1  -8   51.75    3.07
   2   1  -8   45.48    3.20
   2   1  -8   50.47    3.54
   1   1  -8   16.98    1.31
   1   1  -8   18.22    1.14
   1   1  -8   14.81    1.21
   1   1  -8   17.19    1.20
  -1  -1   8   15.24    1.23
   0   1  -8    8.65    0.82
   0   1  -8   11.57    0.82
   0   1  -8   10.26    0.76
   0   1  -8    9.90    0.83
   0   1  -8    9.56    0.87
   0  -1   8    9.59    0.83
   0  -1   8    9.36    0.87
   0  -1   8   10.62    0.82
   0  -1   8   10.20    0.79
   1  -1   8   18.04    1.45
   1  -1   8   19.92    1.56
   1  -1   8   20.61    1.36
   1  -1   8   20.14    1.42
   2  -1   8    0.76    0.33
   2  -1   8    0.43    0.39
   2  -1   8    0.30    0.27
   3  -1   8    1.54    0.24
   3  -1   8    1.42    0.22
   3  -1   8    1.56    0.51
   3  -1   8    1.53    0.16
   3  -1   8    0.72    0.31
   3  -1   8    1.39    0.22
   3  -1   8    1.52    0.37
   4  -1   8    5.34    0.42
   4  -1   8    3.40    0.72
   4  -1   8    5.60    0.42
   4  -1   8    5.04    0.42
   4  -1   8    5.58    0.52
   4  -1   8    4.38    0.30
   4  -1   8    5.86    0.48
   5  -1   8   -0.10    0.23
   5  -1   8   -0.20    0.52
   5  -1   8    0.13    0.19
   5  -1   8    0.24    0.18
   5  -1   8    0.27    0.18
   5  -1   8    0.47    0.19
   6  -1   8    1.24    0.20
   6  -1   8    0.64    0.26
   6  -1   8    1.13    0.19
   6  -1   8    0.59    0.14
   7  -1   8    1.61    0.19
   7  -1   8    1.23    0.20
   9   0  -8    2.62    0.25
   9   0  -8    2.61    0.25
   8   0  -8    0.78    0.24
   8   0  -8    0.86    0.23
   8   0  -8    1.22    0.24
   7   0  -8    1.64    0.29
   7   0  -8    2.14    0.29
   7   0  -8    1.33    0.28
   6   0  -8    2.00    0.62
   6   0  -8    3.10    0.32
   6   0  -8    2.96    0.22
   6   0  -8    3.07    0.38
   6   0  -8    3.55    0.42
   6   0  -8    3.54    0.39
   5   0  -8   13.29    0.80
   5   0  -8   13.43    1.01
   5   0  -8   12.17    0.92
   5   0  -8   12.23    0.89
   5   0  -8   13.93    1.21
   5   0  -8   13.16    1.00
   5   0  -8   13.31    1.19
   4   0  -8    9.74    0.67
   4   0  -8    9.96    0.79
   4   0  -8   10.65    0.97
   4   0  -8   11.79    0.98
   4   0  -8    9.57    0.64
   4   0  -8   11.05    0.70
   4   0  -8    9.58    0.70
   4   0  -8   10.25    0.73
   3   0  -8   23.48    1.45
   3   0  -8   22.62    1.52
   3   0  -8   22.47    1.78
   3   0  -8   21.40    1.74
   2   0  -8    6.08    0.70
   2   0  -8    6.72    0.54
   2   0  -8    7.06    0.58
   1   0  -8   40.30    2.63
   1   0  -8   43.73    3.02
   1   0  -8   41.38    2.63
   1   0  -8   46.33    2.77
  -1   0   8   37.09    2.63
   0   0  -8   47.90    2.89
   0   0  -8   43.20    2.75
   0   0  -8   42.60    2.75
   0   0  -8   46.83    3.14
   0   0  -8   36.60    2.72
   0   0   8   40.82    2.79
   0   0   8   43.15    2.76
   0   0   8   46.17    3.22
   0   0   8   47.56    2.90
   0   0   8   40.13    2.74
  -1   0  -8    2.19    0.42
   1   0   8    2.66    0.40
   1   0   8    1.50    0.46
   1   0   8    2.81    0.48
   1   0   8    2.39    0.40
   2   0   8    4.30    0.65
   2   0   8    5.08    0.53
   2   0   8    4.71    0.56
   3   0   8    2.48    0.27
   3   0   8    2.25    0.58
   3   0   8    2.36    0.32
   3   0   8    1.87    0.40
   3   0   8    2.47    0.20
   3   0   8    2.13    0.40
   3   0   8    2.94    0.29
   4   0   8    0.16    0.25
   4   0   8    0.04    0.29
   4   0   8   -0.09    0.19
   4   0   8    0.16    0.22
   4   0   8    0.45    0.55
   4   0   8   -0.02    0.22
   4   0   8    0.02    0.19
   5   0   8    0.58    0.18
   5   0   8    0.58    0.20
   5   0   8    0.48    0.27
   5   0   8    0.84    0.24
   6   0   8    4.67    0.45
   6   0   8    3.78    0.37
   6   0   8    4.97    0.35
   7   0   8    0.58    0.15
   9  -1  -8    1.34    0.22
   9  -1  -8    1.14    0.20
   8  -1  -8    0.34    0.20
   8  -1  -8    0.21    0.16
   8  -1  -8    0.16    0.21
   8  -1  -8    0.12    0.20
   7  -1  -8   -0.06    0.28
   7  -1  -8    0.29    0.58
   7  -1  -8    0.09    0.21
   7  -1  -8   -0.07    0.20
   7  -1  -8    0.30    0.25
   6  -1  -8    0.47    0.28
   6  -1  -8    0.31    0.17
   6  -1  -8    0.05    0.21
   6  -1  -8    0.45    0.26
   6  -1  -8    0.36    0.07
   6  -1  -8    0.24    0.18
   6  -1  -8   -0.19    0.42
   5  -1  -8    0.56    0.21
   5  -1  -8    0.61    0.25
   5  -1  -8    0.33    0.44
   5  -1  -8    0.74    0.17
   5  -1  -8    0.60    0.24
   5  -1  -8    0.74    0.21
   5  -1  -8    0.63    0.12
   4  -1  -8    0.21    0.15
   4  -1  -8    0.26    0.42
   4  -1  -8   -0.10    0.15
   3  -1  -8    0.38    0.19
   3  -1  -8    0.35    0.23
   3  -1  -8    0.57    0.41
   3  -1  -8    0.30    0.20
   2  -1  -8   22.76    1.55
   2  -1  -8   22.82    1.74
   2  -1  -8   22.51    1.47
   1  -1  -8    3.70    0.53
   1  -1  -8    5.26    0.45
   1  -1  -8    4.85    0.59
   1  -1  -8    5.10    0.51
  -1   1   8    3.03    0.53
   0  -1  -8    4.59    0.58
   0  -1  -8    5.68    0.55
   0  -1  -8    5.50    0.48
   0   1   8    5.36    0.56
   0   1   8    5.06    0.51
   0   1   8    4.88    0.59
   0   1   8    3.31    0.54
   1   1   8    2.57    0.42
   1   1   8    2.30    0.40
   1   1   8    2.89    0.53
   2   1   8    6.77    0.46
   2   1   8    6.48    0.69
   2   1   8    7.04    0.55
   2   1   8    7.68    0.65
   2   1   8    8.19    0.87
   3   1   8   -0.14    0.27
   3   1   8   -0.18    0.20
   3   1   8    0.05    0.20
   3   1   8    0.18    0.11
   3   1   8    0.18    0.32
   3   1   8    0.18    0.37
   3   1   8    0.27    0.19
   4   1   8   13.27    0.97
   4   1   8   14.50    0.91
   4   1   8   13.53    0.88
   4   1   8   13.54    0.95
   4   1   8   11.62    1.26
   5   1   8   20.00    1.27
   5   1   8   15.01    1.24
   5   1   8   17.60    1.16
   5   1   8   20.20    1.12
   6   1   8    0.24    0.15
   6   1   8   -0.36    0.23
   7   1   8    0.98    0.14
   9  -2  -8   -0.02    0.15
   9  -2  -8   -0.19    0.16
   8  -2  -8   -0.09    0.26
   8  -2  -8    0.10    0.20
   8  -2  -8    0.10    0.17
   7  -2  -8    1.06    0.28
   7  -2  -8    1.22    0.24
   7  -2  -8    0.85    0.29
   7  -2  -8    1.06    0.25
   7  -2  -8    0.48    0.56
   6  -2  -8    0.31    0.34
   6  -2  -8    0.59    0.08
   6  -2  -8    0.80    0.25
   6  -2  -8    0.25    0.25
   6  -2  -8    0.68    0.28
   6  -2  -8    0.57    0.22
   5  -2  -8    4.80    0.45
   5  -2  -8    4.25    0.41
   5  -2  -8    3.85    0.32
   5  -2  -8    4.63    0.58
   5  -2  -8    4.15    0.42
   5  -2  -8    4.75    0.42
   4  -2  -8    0.89    0.20
   4  -2  -8    1.32    0.16
   4  -2  -8    1.21    0.20
   4  -2  -8    0.99    0.20
   4  -2  -8    1.45    0.51
   4  -2  -8    1.10    0.24
   4  -2  -8    1.50    0.16
   3  -2  -8    0.56    0.21
   3  -2  -8    0.36    0.41
   3  -2  -8    0.64    0.22
   2  -2  -8    0.06    0.43
   2  -2  -8    0.26    0.23
   2  -2  -8   -0.06    0.22
   1  -2  -8   14.85    1.29
   1  -2  -8   16.29    1.08
   1  -2  -8   14.71    1.21
   1  -2  -8   16.22    1.16
   1   2   8   19.74    1.43
   1   2   8   22.03    1.74
   2   2   8    0.09    0.33
   2   2   8    0.17    0.21
   2   2   8    0.39    0.51
   2   2   8   -0.23    0.30
   2   2   8    0.18    0.13
   3   2   8    1.45    0.24
   3   2   8    1.41    0.18
   3   2   8    0.93    0.30
   3   2   8    1.72    0.66
   3   2   8    1.71    0.28
   3   2   8    1.82    0.26
   3   2   8    0.69    0.44
   4   2   8   10.67    0.75
   4   2   8   11.42    0.82
   4   2   8   11.59    0.71
   4   2   8    9.35    0.78
   5   2   8    0.29    0.11
   5   2   8    0.11    0.17
   5   2   8    0.18    0.26
   6   2   8    6.24    0.41
   9  -3  -8    5.54    0.48
   9  -3  -8    5.15    0.45
   9  -3  -8    6.59    0.43
   8  -3  -8    8.90    0.76
   8  -3  -8   10.17    0.72
   8  -3  -8    9.98    0.80
   8  -3  -8    9.69    0.78
   7  -3  -8    3.54    0.44
   7  -3  -8    2.35    0.54
   7  -3  -8    3.50    0.38
   7  -3  -8    3.98    0.46
   7  -3  -8    3.76    0.36
   6  -3  -8   11.19    0.91
   6  -3  -8   12.30    0.94
   6  -3  -8   10.83    0.71
   6  -3  -8   11.29    1.13
   6  -3  -8   12.31    0.91
   6  -3  -8   12.58    0.81
   5  -3  -8   -0.08    0.21
   5  -3  -8   -0.20    0.17
   5  -3  -8   -0.08    0.49
   5  -3  -8    0.01    0.17
   5  -3  -8    0.16    0.13
   5  -3  -8   -0.14    0.21
   4  -3  -8    2.75    0.29
   4  -3  -8    3.29    0.36
   4  -3  -8    3.63    0.35
   4  -3  -8    4.01    0.68
   4  -3  -8    3.36    0.40
   4  -3  -8    3.49    0.35
   4  -3  -8    3.38    0.31
   4  -3  -8    3.31    0.34
   3  -3  -8   26.84    1.67
   3  -3  -8   24.14    1.52
   3  -3  -8   24.53    1.76
   3  -3  -8   29.17    2.04
   2  -3  -8    4.66    0.68
   2  -3  -8    5.14    0.54
   2  -3  -8    4.31    0.46
   1  -3  -8    6.08    0.64
   1  -3  -8    5.90    0.55
   1   3   8    0.80    0.15
   1   3   8    1.10    0.56
   2   3   8    1.43    0.43
   2   3   8    1.79    0.21
   2   3   8    1.39    0.41
   2   3   8    2.23    0.65
   2   3   8    2.21    0.29
   3   3   8    4.46    0.44
   3   3   8    3.49    0.38
   3   3   8    3.41    0.28
   3   3   8    3.98    0.41
   3   3   8    2.56    0.75
   4   3   8    0.48    0.19
   4   3   8    0.41    0.26
   4   3   8    0.51    0.20
   5   3   8    0.89    0.17
   9  -4  -8    4.40    0.34
   9  -4  -8    4.37    0.38
   9  -4  -8    3.41    0.36
   8  -4  -8    1.51    0.30
   8  -4  -8    1.27    0.28
   8  -4  -8    0.87    0.28
   7  -4  -8   14.16    1.12
   7  -4  -8   13.43    1.08
   7  -4  -8   14.88    0.96
   6  -4  -8   38.35    2.45
   6  -4  -8   40.27    2.60
   6  -4  -8   40.67    2.94
   6  -4  -8   45.56    3.02
   5  -4  -8    0.05    0.13
   5  -4  -8   -0.01    0.21
   5  -4  -8    0.03    0.13
   5  -4  -8    0.20    0.27
   5  -4  -8    0.16    0.13
   5  -4  -8   -0.01    0.22
   5  -4  -8   -0.06    0.37
   5  -4  -8    0.31    0.52
   5  -4  -8    0.12    0.10
   4  -4  -8   25.59    1.87
   4  -4  -8   25.94    1.74
   4  -4  -8   24.06    1.62
   4  -4  -8   28.28    2.06
   4  -4  -8   28.18    1.65
   4  -4  -8   23.63    2.03
   4  -4  -8   24.84    1.85
   4  -4  -8   25.82    1.54
   4  -4  -8   23.19    1.62
   3  -4  -8    7.70    0.47
   3  -4  -8    6.70    0.51
   3  -4  -8    7.73    0.62
   3  -4  -8    8.89    0.90
   3  -4  -8    7.98    0.69
   3  -4  -8    7.58    0.52
   3  -4  -8    6.75    0.54
   2  -4  -8    1.41    0.33
   2  -4  -8    2.05    0.39
   2  -4  -8    1.33    0.55
   2  -4  -8    1.40    0.17
   2  -4  -8    1.53    0.22
   1  -4  -8    2.77    0.21
   1  -4  -8    2.45    0.46
   1   4   8    2.59    0.25
   1   4   8    2.61    0.68
   2   4   8    0.97    0.16
   2   4   8    1.11    0.63
   2   4   8    1.05    0.26
   3   4   8    0.38    0.23
   3   4   8    0.00    0.20
   3   4   8    0.23    0.10
   3   4   8    0.28    0.25
   4   4   8    0.04    0.14
   4   4   8    0.22    0.16
   4   4   8    0.20    0.18
   5   4   8    0.39    0.13
   5   4   8    0.53    0.10
   9  -5  -8    1.80    0.22
   8  -5  -8    0.38    0.26
   8  -5  -8    0.12    0.24
   8  -5  -8    0.42    0.18
   7  -5  -8    0.29    0.27
   7  -5  -8    0.43    0.30
   7  -5  -8    0.27    0.25
   6  -5  -8   19.00    1.87
   6  -5  -8   24.36    1.70
   6  -5  -8   23.78    1.48
   6  -5  -8   21.65    1.36
   6  -5  -8   22.52    1.66
   5  -5  -8    4.45    0.45
   5  -5  -8    4.45    0.82
   5  -5  -8    4.59    0.37
   5  -5  -8    4.92    0.35
   5  -5  -8    5.08    0.47
   5  -5  -8    5.31    0.54
   5  -5  -8    4.71    0.40
   5  -5  -8    3.73    0.43
   4  -5  -8    0.43    0.21
   4  -5  -8    0.85    0.56
   4  -5  -8   -0.03    0.33
   4  -5  -8    0.34    0.15
   4  -5  -8    0.40    0.16
   4  -5  -8    0.19    0.23
   4  -5  -8    0.05    0.22
   4  -5  -8    0.37    0.20
   3  -5  -8    5.03    0.52
   3  -5  -8    4.21    0.39
   3  -5  -8    4.41    0.40
   3  -5  -8    4.59    0.39
   3  -5  -8    5.07    0.57
   3  -5  -8    4.14    0.80
   3  -5  -8    4.84    0.31
   2  -5  -8    2.98    0.50
   2  -5  -8    3.25    0.25
   2  -5  -8    3.11    0.35
   2  -5  -8    2.82    0.69
   2  -5  -8    2.47    0.44
   1  -5  -8    2.81    0.25
   0   5   8   50.68    2.98
   1   5   8    3.98    0.32
   2   5   8    2.21    0.20
   2   5   8    1.69    0.29
   3   5   8   16.50    1.10
   3   5   8   16.58    1.14
   4   5   8    1.65    0.16
   9  -6  -8    4.29    0.33
   9  -6  -8    3.87    0.36
   8  -6  -8    1.18    0.20
   8  -6  -8    0.77    0.19
   8  -6  -8    0.99    0.19
   7  -6  -8    2.03    0.31
   7  -6  -8    1.97    0.14
   7  -6  -8    2.74    0.29
   7  -6  -8    3.10    0.40
   6  -6  -8    4.92    0.49
   6  -6  -8    5.14    0.55
   6  -6  -8    5.32    0.38
   6  -6  -8    5.28    0.49
   5  -6  -8   -0.08    0.13
   5  -6  -8   -0.25    0.29
   5  -6  -8   -0.15    0.23
   5  -6  -8   -0.04    0.19
   5  -6  -8    0.50    0.20
   5  -6  -8   -0.01    0.58
   4  -6  -8    3.67    0.47
   4  -6  -8    3.15    0.29
   4  -6  -8    3.01    0.62
   4  -6  -8    3.23    0.30
   4  -6  -8    2.93    0.32
   3  -6  -8   14.56    0.90
   3  -6  -8   13.55    0.83
   3  -6  -8   12.02    1.03
   3  -6  -8   12.62    1.33
   3  -6  -8   14.40    0.94
   2  -6  -8    6.53    0.53
   2  -6  -8    6.05    0.42
   2  -6  -8    6.03    0.95
   1  -6  -8    0.19    0.14
   0  -6  -8    3.46    0.28
   0   6   8    3.78    0.31
   1   6   8    0.21    0.10
   2   6   8    4.61    0.30
   2   6   8    4.54    0.43
   3   6   8    6.04    0.45
   8  -7  -8    2.31    0.25
   8  -7  -8    1.93    0.28
   7  -7  -8    1.51    0.22
   7  -7  -8    1.32    0.28
   7  -7  -8    2.00    0.23
   7  -7  -8    1.81    0.14
   6  -7  -8    0.33    0.13
   6  -7  -8    0.31    0.27
   6  -7  -8    0.21    0.23
   6  -7  -8    0.38    0.21
   5  -7  -8    2.44    0.31
   5  -7  -8    2.91    0.35
   5  -7  -8    2.69    0.30
   5  -7  -8    2.67    0.26
   4  -7  -8    0.06    0.16
   4  -7  -8   -0.21    0.19
   4  -7  -8    0.28    0.20
   4  -7  -8   -0.22    0.18
   3  -7  -8    1.19    0.25
   3  -7  -8    1.18    0.23
   3  -7  -8    1.21    0.13
   2  -7  -8    2.35    0.21
   2  -7  -8    1.78    0.28
   1  -7  -8    5.98    0.40
   0  -7  -8    0.16    0.13
   0   7   8    0.03    0.14
  -1  -7  -8    0.08    0.13
   1   7   8    0.26    0.10
   2   7   8    0.00    0.12
   2   7   8    0.02    0.10
   8  -8  -8    0.19    0.11
   7  -8  -8    0.29    0.13
   6  -8  -8    0.84    0.17
   6  -8  -8    0.92    0.21
   6  -8  -8    0.93    0.14
   5  -8  -8    4.24    0.47
   5  -8  -8    5.12    0.35
   5  -8  -8    4.11    0.36
   5  -8  -8    4.90    0.33
   4  -8  -8    0.30    0.18
   4  -8  -8    0.07    0.13
   4  -8  -8    0.26    0.14
   3  -8  -8    1.07    0.09
   3  -8  -8    0.92    0.26
   3  -8  -8    0.95    0.21
   2  -8  -8    0.11    0.13
   2  -8  -8    0.05    0.09
   1  -8  -8    0.13    0.10
  -1   8   8    0.01    0.12
   0  -8  -8    0.18    0.07
   0   8   8    0.10    0.07
   6  -9  -8    0.07    0.10
   6  -9  -8    0.05    0.07
   5  -9  -8    0.68    0.13
   5  -9  -8    1.10    0.12
   4  -9  -8    1.80    0.19
   4  -9  -8    1.88    0.19
   3  -9  -8   -0.09    0.12
   3  -9  -8    0.03    0.09
   2  -9  -8    0.13    0.11
   2  -9  -8    0.24    0.10
   0   9  -9    3.08    0.21
   0  -9   9    2.93    0.21
  -1   9  -9    4.57    0.31
   1  -9   9    4.61    0.30
   2  -9   9    5.26    0.39
   2  -9   9    5.78    0.43
   2  -9   9    5.53    0.34
   3  -9   9    9.18    0.63
   4  -9   9    6.73    0.61
   4  -9   9    8.05    0.52
   4  -9   9    9.19    0.53
   2   8  -9    9.97    0.65
   2   8  -9    9.29    0.64
   1   8  -9   -0.01    0.08
   1   8  -9   -0.09    0.14
   0   8  -9    0.92    0.15
   0  -8   9    1.37    0.16
  -1   8  -9    6.74    0.44
   1  -8   9    5.88    0.43
   2  -8   9    0.36    0.16
   2  -8   9    0.25    0.13
   2  -8   9    0.27    0.23
   3  -8   9    1.50    0.22
   3  -8   9    1.12    0.24
   3  -8   9    1.33    0.11
   4  -8   9   16.66    0.91
   4  -8   9   12.07    1.09
   5  -8   9    0.23    0.16
   5  -8   9    0.49    0.14
   6  -8   9    1.76    0.24
   6  -8   9    1.67    0.14
   4   7  -9    0.15    0.08
   3   7  -9    5.50    0.39
   3   7  -9    5.61    0.42
   3   7  -9    5.05    0.40
   2   7  -9    0.05    0.07
   2   7  -9    0.09    0.21
   1   7  -9    3.11    0.24
   1   7  -9    2.14    0.26
   0  -7   9   14.48    0.89
   1  -7   9    0.07    0.17
   2  -7   9    1.28    0.16
   2  -7   9    0.99    0.28
   3  -7   9    0.13    0.24
   3  -7   9   -0.10    0.18
   3  -7   9    0.02    0.11
   4  -7   9   11.18    0.93
   4  -7   9   12.58    0.81
   4  -7   9   12.03    0.83
   5  -7   9   -0.03    0.20
   5  -7   9    0.33    0.16
   6  -7   9    0.03    0.12
   6  -7   9    0.09    0.13
   5   6  -9   -0.12    0.16
   5   6  -9   -0.09    0.08
   5   6  -9   -0.19    0.12
   4   6  -9    0.05    0.17
   4   6  -9   -0.10    0.16
   4   6  -9    0.08    0.12
   4   6  -9   -0.09    0.11
   3   6  -9    0.61    0.23
   3   6  -9    0.21    0.20
   3   6  -9    0.29    0.19
   3   6  -9    0.62    0.15
   2   6  -9    9.28    0.71
   2   6  -9   10.02    0.61
   2   6  -9   10.54    0.74
   0   6  -9    0.61    0.48
   0   6  -9    0.23    0.19
   0  -6   9   -0.02    0.44
   1  -6   9    6.73    0.90
   1  -6   9    7.77    0.52
   2  -6   9    0.19    0.48
   2  -6   9    0.16    0.27
   2  -6   9    0.08    0.17
   3  -6   9   34.92    2.07
   3  -6   9   35.65    2.27
   4  -6   9    0.93    0.24
   4  -6   9    1.42    0.26
   4  -6   9    1.37    0.24
   5  -6   9    3.82    0.35
   5  -6   9    4.81    0.43
   5  -6   9    4.55    0.37
   5  -6   9    4.54    0.35
   6  -6   9    2.48    0.29
   6  -6   9    3.01    0.28
   7  -6   9    5.03    0.34
   7  -6   9    3.84    0.38
   6   5  -9    1.92    0.16
   6   5  -9    1.91    0.24
   5   5  -9    2.99    0.29
   5   5  -9    2.82    0.26
   5   5  -9    2.80    0.29
   4   5  -9    9.73    0.66
   4   5  -9    9.30    0.67
   4   5  -9    9.07    0.69
   4   5  -9    9.23    0.63
   3   5  -9    3.18    0.36
   3   5  -9    2.59    0.21
   3   5  -9    3.42    0.33
   3   5  -9    3.07    0.38
   2   5  -9    5.95    0.51
   2   5  -9    5.43    0.62
   2   5  -9    5.70    0.85
   1   5  -9    7.49    0.90
   1   5  -9    6.99    0.48
   0   5  -9    3.37    0.27
   1  -5   9   13.84    0.86
   2  -5   9    9.01    0.51
   2  -5   9    8.15    0.94
   2  -5   9    6.15    0.67
   2  -5   9    7.49    0.57
   2  -5   9    5.30    0.74
   3  -5   9   -0.03    0.32
   3  -5   9    0.14    0.14
   3  -5   9    0.47    0.33
   3  -5   9    0.02    0.23
   3  -5   9   -0.01    0.44
   3  -5   9    0.00    0.16
   4  -5   9    7.80    0.60
   4  -5   9    8.84    0.70
   4  -5   9    7.61    0.47
   4  -5   9    8.69    0.61
   4  -5   9    7.18    0.61
   5  -5   9    0.04    0.21
   5  -5   9    0.01    0.16
   5  -5   9    0.07    0.14
   5  -5   9    0.12    0.20
   6  -5   9    0.13    0.14
   6  -5   9    0.03    0.16
   6  -5   9    0.12    0.20
   7  -5   9    7.56    0.55
   7   4  -9    0.96    0.17
   6   4  -9    7.26    0.58
   5   4  -9    0.07    0.23
   5   4  -9    0.37    0.17
   5   4  -9    0.35    0.08
   5   4  -9    0.57    0.19
   4   4  -9    4.98    0.41
   4   4  -9    4.75    0.42
   4   4  -9    5.09    0.43
   4   4  -9    4.74    0.49
   4   4  -9    7.04    0.96
   3   4  -9    6.00    0.50
   3   4  -9    5.34    0.35
   3   4  -9    5.43    0.81
   3   4  -9    5.59    0.45
   3   4  -9    5.56    0.47
   3   4  -9    5.21    0.59
   3   4  -9    5.03    0.60
   2   4  -9   27.97    1.97
   2   4  -9   31.98    2.04
   2   4  -9   28.48    2.14
   2   4  -9   31.52    2.47
   2   4  -9   32.91    1.81
   1   4  -9    9.85    0.63
   1   4  -9   10.04    0.82
   1   4  -9    9.54    0.89
   1  -4   9    0.29    0.13
   2  -4   9    2.25    0.30
   2  -4   9    1.28    0.38
   2  -4   9    1.91    0.22
   2  -4   9    1.90    0.45
   3  -4   9    5.54    0.65
   3  -4   9    5.28    0.49
   3  -4   9    4.40    0.58
   3  -4   9    6.34    0.40
   3  -4   9    5.63    0.47
   3  -4   9    5.84    0.50
   3  -4   9    5.34    0.77
   4  -4   9    0.32    0.46
   4  -4   9    0.05    0.24
   4  -4   9    0.22    0.48
   4  -4   9    0.12    0.07
   4  -4   9    0.06    0.20
   4  -4   9    0.20    0.20
   4  -4   9    0.31    0.20
   5  -4   9    0.10    0.20
   5  -4   9    0.42    0.16
   5  -4   9    0.81    0.23
   5  -4   9    0.40    0.22
   6  -4   9   -0.13    0.14
   6  -4   9    0.03    0.16
   7  -4   9    1.75    0.14
   7   3  -9    4.40    0.39
   7   3  -9    4.99    0.39
   6   3  -9    2.12    0.30
   6   3  -9    2.45    0.30
   6   3  -9    2.52    0.23
   5   3  -9    6.74    0.46
   5   3  -9    6.43    0.57
   5   3  -9    5.88    0.55
   5   3  -9    6.13    0.43
   4   3  -9    7.69    0.55
   4   3  -9    6.75    0.61
   4   3  -9    8.19    0.64
   4   3  -9    7.90    0.65
   4   3  -9    7.45    0.55
   4   3  -9    6.85    0.93
   4   3  -9    8.07    0.66
   3   3  -9    7.37    0.64
   3   3  -9    7.51    0.60
   3   3  -9    8.78    0.68
   3   3  -9    8.70    0.94
   3   3  -9    8.26    0.57
   3   3  -9    8.51    0.73
   2   3  -9   15.54    1.26
   2   3  -9   13.32    0.80
   2   3  -9   14.47    0.98
   2   3  -9   15.34    1.07
   2   3  -9   12.22    0.85
   2   3  -9   10.97    0.90
   1   3  -9   12.95    1.01
   1   3  -9   14.16    1.08
   1  -3   9    0.16    0.28
   1  -3   9    0.17    0.33
   2  -3   9    0.48    0.24
   2  -3   9    0.46    0.30
   2  -3   9    0.82    0.37
   2  -3   9    1.14    0.18
   3  -3   9   20.26    1.11
   3  -3   9   18.20    1.17
   3  -3   9   17.80    1.27
   3  -3   9   18.84    1.31
   3  -3   9   18.74    1.23
   3  -3   9   20.43    1.64
   3  -3   9   15.56    1.53
   3  -3   9   17.08    1.37
   4  -3   9   17.18    1.15
   4  -3   9   18.17    1.22
   4  -3   9   17.28    1.09
   4  -3   9   17.34    1.32
   4  -3   9   16.78    1.02
   5  -3   9    5.70    0.45
   5  -3   9    5.52    0.53
   5  -3   9    6.17    0.47
   6  -3   9    3.57    0.30
   6  -3   9    3.79    0.40
   6  -3   9    2.63    0.30
   7  -3   9    0.64    0.13
   8   2  -9    1.61    0.21
   8   2  -9    1.71    0.20
   7   2  -9   -0.10    0.13
   7   2  -9   -0.20    0.22
   6   2  -9    2.79    0.36
   6   2  -9    3.06    0.41
   6   2  -9    3.17    0.38
   6   2  -9    3.00    0.25
   5   2  -9    3.11    0.67
   5   2  -9    2.40    0.32
   5   2  -9    2.26    0.27
   5   2  -9    2.61    0.35
   5   2  -9    1.95    0.24
   5   2  -9    2.35    0.33
   5   2  -9    2.42    0.21
   5   2  -9    1.99    0.23
   4   2  -9    3.20    0.41
   4   2  -9    2.92    0.36
   4   2  -9    3.04    0.31
   4   2  -9    2.68    0.61
   4   2  -9    2.48    0.30
   4   2  -9    2.71    0.34
   4   2  -9    2.77    0.29
   4   2  -9    2.85    0.38
   4   2  -9    2.89    0.55
   3   2  -9   21.11    1.25
   3   2  -9   24.29    1.73
   3   2  -9   21.08    1.49
   3   2  -9   19.01    1.37
   3   2  -9   19.74    1.30
   3   2  -9   23.91    1.82
   3   2  -9   20.23    1.56
   3   2  -9   23.63    1.43
   2   2  -9    0.91    0.29
   2   2  -9    1.01    0.39
   2   2  -9    0.66    0.28
   1   2  -9    0.75    0.31
   1   2  -9    0.99    0.36
   1   2  -9    1.24    0.33
   0   2  -9    0.59    0.31
   0   2  -9    0.25    0.28
   1  -2   9    3.72    0.51
   1  -2   9    4.07    0.52
   2  -2   9    8.11    0.74
   2  -2   9    7.33    0.60
   2  -2   9    8.64    0.72
   2  -2   9    8.24    0.51
   2  -2   9    7.49    0.79
   3  -2   9   34.48    2.13
   3  -2   9   31.35    2.02
   3  -2   9   34.16    2.20
   3  -2   9   32.31    2.29
   3  -2   9   34.97    1.96
   3  -2   9   30.66    2.58
   3  -2   9   34.49    2.65
   4  -2   9    0.44    0.49
   4  -2   9    0.58    0.29
   4  -2   9    1.79    0.29
   4  -2   9    1.60    0.26
   4  -2   9    1.33    0.11
   4  -2   9    1.64    0.28
   4  -2   9    1.50    0.40
   5  -2   9    8.37    0.59
   5  -2   9    7.40    0.64
   5  -2   9    8.82    0.68
   5  -2   9    9.11    0.61
   6  -2   9   15.00    1.02
   6  -2   9   13.00    0.97
   6  -2   9   14.42    0.89
   7  -2   9    0.01    0.18
   7  -2   9   -0.17    0.16
   8   1  -9    4.99    0.45
   8   1  -9    6.55    0.49
   7   1  -9    4.13    0.45
   7   1  -9    5.08    0.49
   7   1  -9    5.23    0.48
   6   1  -9   37.66    2.68
   6   1  -9   35.54    2.44
   6   1  -9   37.07    2.63
   6   1  -9   36.49    2.19
   5   1  -9    0.12    0.13
   5   1  -9   -0.05    0.49
   5   1  -9    0.19    0.22
   5   1  -9    0.05    0.43
   5   1  -9    0.24    0.21
   5   1  -9    0.10    0.07
   5   1  -9    0.27    0.23
   5   1  -9    0.04    0.08
   5   1  -9    0.26    0.18
   4   1  -9    4.00    0.41
   4   1  -9    5.22    0.65
   4   1  -9    3.85    0.34
   4   1  -9    3.47    0.36
   4   1  -9    3.96    0.40
   4   1  -9    3.98    0.40
   4   1  -9    4.44    0.64
   4   1  -9    3.99    0.35
   4   1  -9    4.51    0.40
   4   1  -9    3.84    0.39
   3   1  -9   33.22    2.26
   3   1  -9   38.35    2.66
   3   1  -9   37.19    2.37
   3   1  -9   39.34    2.76
   3   1  -9   32.35    2.08
   3   1  -9   35.66    2.26
   2   1  -9    1.06    0.39
   2   1  -9    0.81    0.26
   2   1  -9    0.70    0.28
   1   1  -9    0.15    0.26
   1   1  -9   -0.01    0.28
   1   1  -9    0.03    0.26
   0   1  -9   58.26    3.72
   0   1  -9   61.00    3.89
   1  -1   9    1.84    0.45
   1  -1   9    2.49    0.43
   1  -1   9    1.91    0.37
   2  -1   9    5.02    0.59
   2  -1   9    5.90    0.77
   2  -1   9    5.90    0.39
   2  -1   9    5.32    0.62
   3  -1   9   11.50    0.64
   3  -1   9    9.82    0.70
   3  -1   9    9.67    1.05
   3  -1   9   10.61    0.74
   3  -1   9    9.95    0.85
   3  -1   9    9.43    0.85
   4  -1   9    0.65    0.25
   4  -1   9    0.41    0.22
   4  -1   9    0.61    0.20
   4  -1   9    0.49    0.16
   4  -1   9   -0.14    0.50
   4  -1   9    0.24    0.32
   4  -1   9    0.34    0.06
   5  -1   9    8.76    0.71
   5  -1   9    9.57    0.74
   5  -1   9    9.55    0.64
   5  -1   9    9.28    0.65
   6  -1   9    1.20    0.25
   6  -1   9    1.24    0.20
   6  -1   9    1.47    0.20
   7  -1   9    0.48    0.14
   7  -1   9    0.80    0.15
   9   0  -9    0.55    0.13
   9   0  -9    0.31    0.16
   8   0  -9   -0.20    0.27
   8   0  -9    0.07    0.14
   8   0  -9    0.05    0.15
   7   0  -9    7.64    0.68
   7   0  -9    7.58    0.62
   7   0  -9    7.78    0.66
   6   0  -9   28.25    2.03
   6   0  -9   31.42    2.18
   6   0  -9   31.02    1.94
   6   0  -9   31.55    2.22
   6   0  -9   31.43    1.81
   6   0  -9   26.24    2.37
   5   0  -9    7.13    0.82
   5   0  -9    6.08    0.44
   5   0  -9    7.40    0.54
   5   0  -9    7.31    0.59
   5   0  -9    6.57    0.73
   5   0  -9    6.48    0.59
   5   0  -9    5.92    0.54
   4   0  -9    0.30    0.21
   4   0  -9    0.04    0.19
   4   0  -9   -0.04    0.13
   4   0  -9   -0.15    0.38
   4   0  -9   -0.12    0.18
   4   0  -9   -0.04    0.42
   4   0  -9   -0.03    0.13
   4   0  -9    0.03    0.16
   4   0  -9    0.08    0.15
   4   0  -9    0.08    0.14
   3   0  -9    0.99    0.40
   3   0  -9    1.02    0.24
   3   0  -9    1.16    0.25
   3   0  -9    0.53    0.42
   2   0  -9    3.18    0.55
   2   0  -9    3.23    0.38
   2   0  -9    3.21    0.41
   1   0  -9    4.44    0.47
   1   0  -9    4.90    0.60
   1   0  -9    2.56    0.54
   1   0  -9    4.67    0.50
   0   0  -9   10.85    0.85
   0   0  -9    9.75    0.78
   0   0  -9   10.63    0.89
   0   0   9    9.91    0.88
   1   0   9    6.60    0.64
   1   0   9    6.57    0.68
   1   0   9    6.96    0.73
   2   0   9    0.78    0.36
   2   0   9    0.65    0.15
   2   0   9    0.48    0.45
   2   0   9    0.47    0.22
   2   0   9    0.48    0.31
   3   0   9    0.18    0.15
   3   0   9    0.07    0.15
   3   0   9    0.25    0.50
   3   0   9   -0.07    0.27
   3   0   9    0.48    0.20
   3   0   9    0.21    0.21
   3   0   9    0.10    0.32
   4   0   9    0.18    0.52
   4   0   9    0.16    0.23
   4   0   9    0.06    0.23
   4   0   9    0.05    0.20
   4   0   9    0.20    0.20
   5   0   9    3.16    0.41
   5   0   9    4.00    0.32
   5   0   9    3.60    0.36
   5   0   9    3.41    0.35
   6   0   9   10.11    0.75
   6   0   9   10.33    0.76
   6   0   9   11.24    0.68
   7   0   9    2.84    0.24
   9  -1  -9    2.79    0.30
   9  -1  -9    2.75    0.28
   8  -1  -9    0.32    0.27
   8  -1  -9    0.63    0.18
   8  -1  -9    0.49    0.19
   7  -1  -9    0.15    0.29
   7  -1  -9    0.04    0.20
   7  -1  -9    0.02    0.24
   7  -1  -9   -0.02    0.22
   6  -1  -9    3.66    0.44
   6  -1  -9    3.26    0.33
   6  -1  -9    3.11    0.35
   6  -1  -9    3.90    0.40
   6  -1  -9    1.89    0.58
   6  -1  -9    3.14    0.24
   5  -1  -9    1.16    0.26
   5  -1  -9    1.28    0.28
   5  -1  -9    1.20    0.20
   5  -1  -9    1.58    0.29
   5  -1  -9    1.57    0.26
   5  -1  -9    1.41    0.17
   5  -1  -9    1.76    0.56
   4  -1  -9   12.72    0.97
   4  -1  -9   11.62    0.79
   4  -1  -9   12.35    0.82
   4  -1  -9   11.97    0.85
   4  -1  -9   13.11    1.11
   4  -1  -9   13.25    0.90
   4  -1  -9   13.50    0.99
   4  -1  -9   14.53    0.87
   4  -1  -9   11.46    0.96
   3  -1  -9    5.42    0.69
   3  -1  -9    4.92    0.50
   3  -1  -9    5.68    0.53
   2  -1  -9    0.12    0.24
   2  -1  -9    0.31    0.24
   2  -1  -9    0.83    0.42
   1  -1  -9    0.29    0.27
   1  -1  -9    0.40    0.46
   1  -1  -9    0.04    0.24
  -1   1   9    0.65    0.33
   0  -1  -9   13.18    1.12
   0  -1  -9   13.91    1.19
   0   1   9   14.48    1.18
  -1  -1  -9   15.67    1.40
   1   1   9   18.97    1.27
   1   1   9   17.62    1.35
   1   1   9   18.59    1.49
   2   1   9   26.00    1.83
   2   1   9   29.54    2.23
   2   1   9   28.41    1.85
   2   1   9   29.05    1.63
   2   1   9   27.37    1.96
   2   1   9   25.19    1.77
   3   1   9   11.91    0.78
   3   1   9   10.73    0.85
   3   1   9   12.60    0.71
   3   1   9    9.23    1.17
   3   1   9   10.87    1.00
   3   1   9   12.58    0.83
   4   1   9    1.79    0.25
   4   1   9    1.83    0.26
   4   1   9    2.03    0.29
   4   1   9    2.39    0.30
   5   1   9    0.46    0.19
   5   1   9    0.21    0.14
   5   1   9    0.34    0.18
   5   1   9    0.19    0.18
   6   1   9    3.14    0.31
   6   1   9    3.32    0.27
   9  -2  -9    0.02    0.16
   9  -2  -9    0.05    0.16
   8  -2  -9    5.57    0.47
   8  -2  -9    4.85    0.47
   8  -2  -9    4.96    0.45
   7  -2  -9   16.99    1.23
   7  -2  -9   15.36    1.26
   7  -2  -9   16.48    1.11
   7  -2  -9   16.35    1.25
   6  -2  -9    0.01    0.47
   6  -2  -9    0.03    0.09
   6  -2  -9    0.18    0.22
   6  -2  -9    0.19    0.18
   6  -2  -9    0.00    0.26
   6  -2  -9   -0.11    0.27
   5  -2  -9    1.70    0.57
   5  -2  -9    1.91    0.28
   5  -2  -9    1.83    0.19
   5  -2  -9    1.94    0.25
   5  -2  -9    2.05    0.32
   5  -2  -9    2.26    0.23
   4  -2  -9   19.28    1.24
   4  -2  -9   17.46    1.15
   4  -2  -9   19.72    1.41
   4  -2  -9   19.65    1.41
   4  -2  -9   18.55    1.39
   4  -2  -9   19.47    1.30
   4  -2  -9   17.98    1.21
   4  -2  -9   19.95    1.58
   4  -2  -9   18.25    1.22
   3  -2  -9    4.21    0.45
   3  -2  -9    4.26    0.29
   3  -2  -9    4.67    0.70
   3  -2  -9    4.24    0.45
   2  -2  -9   95.59    6.53
   2  -2  -9   89.82    5.65
   2  -2  -9   90.70    5.91
   1  -2  -9   29.09    2.00
   1  -2  -9   28.61    2.21
   1  -2  -9   29.27    1.89
   0  -2  -9    2.85    0.57
   0   2   9    2.88    0.55
   1   2   9   13.44    1.20
   1   2   9   11.98    0.76
   2   2   9    9.45    0.68
   2   2   9    9.46    1.07
   2   2   9   10.44    0.61
   2   2   9    8.38    0.90
   2   2   9    9.34    0.79
   3   2   9   17.30    1.18
   3   2   9   16.00    1.13
   3   2   9   17.01    1.00
   3   2   9   14.75    1.55
   3   2   9   17.43    1.07
   4   2   9    4.82    0.43
   4   2   9    4.38    0.43
   4   2   9    4.48    0.43
   4   2   9    5.66    0.42
   5   2   9    4.22    0.30
   5   2   9    4.82    0.44
   6   2   9    4.18    0.28
   9  -3  -9    0.30    0.11
   9  -3  -9    0.13    0.14
   9  -3  -9   -0.04    0.22
   8  -3  -9    8.52    0.66
   8  -3  -9    7.49    0.65
   8  -3  -9    7.81    0.63
   8  -3  -9    7.77    0.57
   7  -3  -9    1.46    0.26
   7  -3  -9    2.24    0.26
   7  -3  -9    1.77    0.32
   7  -3  -9    1.53    0.35
   6  -3  -9    0.05    0.10
   6  -3  -9   -0.02    0.25
   6  -3  -9    0.09    0.29
   6  -3  -9    0.37    0.49
   6  -3  -9    0.18    0.24
   6  -3  -9    0.08    0.20
   5  -3  -9    8.78    0.75
   5  -3  -9    9.74    0.75
   5  -3  -9    8.84    0.59
   5  -3  -9    8.29    0.66
   5  -3  -9    9.33    0.60
   5  -3  -9    9.62    0.73
   5  -3  -9    9.04    1.01
   5  -3  -9    9.36    0.58
   5  -3  -9    8.65    0.61
   4  -3  -9    0.82    0.20
   4  -3  -9    0.62    0.24
   4  -3  -9    0.61    0.21
   4  -3  -9    0.65    0.17
   4  -3  -9    1.10    0.20
   4  -3  -9    0.98    0.27
   4  -3  -9    0.66    0.16
   4  -3  -9    0.81    0.23
   4  -3  -9    0.67    0.51
   3  -3  -9    0.13    0.21
   3  -3  -9    0.07    0.23
   3  -3  -9    0.10    0.08
   3  -3  -9    0.01    0.15
   3  -3  -9    0.63    0.48
   3  -3  -9    0.25    0.16
   3  -3  -9    0.09    0.16
   2  -3  -9    7.50    0.67
   2  -3  -9    6.93    0.60
   2  -3  -9    6.70    0.81
   2  -3  -9    6.33    0.43
   1  -3  -9    7.18    0.65
   1  -3  -9    7.43    0.48
   1  -3  -9    7.16    0.84
   1  -3  -9    8.04    0.75
   1   3   9   20.88    1.25
   1   3   9   20.57    1.75
   2   3   9    1.14    0.26
   2   3   9    0.73    0.58
   2   3   9    1.35    0.18
   3   3   9    0.54    0.23
   3   3   9    0.82    0.14
   3   3   9    0.40    0.21
   3   3   9    0.85    0.27
   4   3   9    0.40    0.15
   4   3   9    0.21    0.17
   4   3   9    0.14    0.16
   5   3   9    1.01    0.17
   9  -4  -9    0.12    0.20
   9  -4  -9    0.04    0.21
   8  -4  -9    1.18    0.28
   8  -4  -9    0.68    0.22
   8  -4  -9    1.28    0.28
   7  -4  -9    0.90    0.22
   7  -4  -9    0.71    0.32
   7  -4  -9    0.96    0.21
   6  -4  -9   46.26    3.03
   6  -4  -9   48.29    3.51
   6  -4  -9   50.71    2.86
   6  -4  -9   46.73    3.43
   5  -4  -9    0.55    0.19
   5  -4  -9    0.54    0.29
   5  -4  -9    0.39    0.16
   5  -4  -9    0.42    0.13
   5  -4  -9    0.36    0.23
   5  -4  -9    0.39    0.15
   5  -4  -9    0.32    0.53
   5  -4  -9    0.54    0.23
   4  -4  -9   10.44    0.79
   4  -4  -9    9.22    0.67
   4  -4  -9   10.64    0.66
   4  -4  -9   11.33    1.07
   4  -4  -9    9.69    0.75
   4  -4  -9    9.41    0.78
   4  -4  -9   10.22    0.69
   4  -4  -9    8.84    0.78
   3  -4  -9   23.60    1.31
   3  -4  -9   25.44    1.83
   3  -4  -9   21.46    1.59
   3  -4  -9   18.50    1.36
   3  -4  -9   22.59    1.49
   3  -4  -9   22.15    1.43
   2  -4  -9   -0.17    0.17
   2  -4  -9    0.04    0.29
   2  -4  -9   -0.20    0.28
   2  -4  -9    0.04    0.52
   2  -4  -9    0.06    0.11
   1  -4  -9    9.13    1.01
   1  -4  -9    9.70    0.61
   1   4   9    1.38    0.64
   1   4   9    1.86    0.22
   2   4   9    3.49    0.40
   2   4   9    3.22    0.26
   3   4   9    3.56    0.25
   3   4   9    3.36    0.38
   3   4   9    4.77    0.44
   3   4   9    4.59    0.40
   4   4   9    0.12    0.11
   4   4   9    0.15    0.14
   4   4   9    0.18    0.13
   9  -5  -9    0.36    0.15
   9  -5  -9    0.65    0.20
   8  -5  -9    0.35    0.20
   8  -5  -9    0.24    0.24
   8  -5  -9    0.27    0.17
   7  -5  -9   -0.02    0.21
   7  -5  -9    0.00    0.18
   7  -5  -9    0.27    0.25
   6  -5  -9    0.19    0.24
   6  -5  -9    0.13    0.25
   6  -5  -9    0.02    0.15
   6  -5  -9    0.08    0.30
   5  -5  -9    4.55    0.45
   5  -5  -9    5.39    0.47
   5  -5  -9    5.00    0.50
   5  -5  -9    5.60    0.58
   5  -5  -9    5.46    0.40
   5  -5  -9    5.96    0.41
   4  -5  -9   19.26    1.20
   4  -5  -9   20.89    1.65
   4  -5  -9   19.32    1.39
   4  -5  -9   17.24    1.19
   4  -5  -9   17.46    1.15
   4  -5  -9   17.71    1.33
   4  -5  -9   17.16    1.25
   3  -5  -9    0.50    0.19
   3  -5  -9    0.40    0.19
   3  -5  -9    0.35    0.10
   3  -5  -9    0.14    0.30
   3  -5  -9    0.51    0.56
   3  -5  -9    0.46    0.31
   2  -5  -9   -0.07    0.54
   2  -5  -9    0.13    0.31
   2  -5  -9    0.03    0.33
   2  -5  -9    0.32    0.15
   2  -5  -9    0.08    0.12
   1  -5  -9   22.71    1.34
   1  -5  -9   21.45    1.88
   0  -5  -9    3.78    0.32
   0   5   9    4.18    0.30
   1   5   9    2.83    0.26
   2   5   9    1.94    0.28
   3   5   9    0.06    0.17
   3   5   9    0.35    0.15
   4   5   9    0.38    0.12
   9  -6  -9    0.98    0.15
   8  -6  -9    5.98    0.45
   8  -6  -9    5.97    0.53
   8  -6  -9    5.96    0.50
   7  -6  -9    0.53    0.23
   7  -6  -9    0.96    0.23
   7  -6  -9    0.46    0.18
   7  -6  -9    0.39    0.06
   6  -6  -9    0.54    0.22
   6  -6  -9    0.26    0.14
   6  -6  -9    0.60    0.24
   6  -6  -9    0.51    0.30
   5  -6  -9    9.75    0.73
   5  -6  -9   10.35    0.68
   5  -6  -9   10.92    0.83
   5  -6  -9    9.91    0.66
   4  -6  -9   10.88    0.69
   4  -6  -9   10.18    0.82
   4  -6  -9    8.69    0.68
   4  -6  -9    8.61    0.63
   3  -6  -9    3.12    0.35
   3  -6  -9    3.15    0.24
   3  -6  -9    2.89    0.75
   3  -6  -9    3.16    0.36
   2  -6  -9    1.09    0.20
   2  -6  -9    1.26    0.16
   1  -6  -9    0.40    0.11
   0  -6  -9    2.69    0.23
   0   6   9    2.74    0.26
   1   6   9    2.50    0.20
   2   6   9    0.05    0.20
   2   6   9   -0.14    0.18
   2   6   9    0.12    0.07
   3   6   9    0.63    0.11
   3   6   9    0.92    0.13
   8  -7  -9    2.21    0.22
   8  -7  -9    1.91    0.22
   8  -7  -9    1.91    0.25
   7  -7  -9    0.12    0.23
   7  -7  -9    0.21    0.13
   7  -7  -9    0.11    0.06
   7  -7  -9    0.14    0.15
   6  -7  -9    0.15    0.21
   6  -7  -9   -0.01    0.12
   6  -7  -9    0.21    0.26
   5  -7  -9    1.69    0.20
   5  -7  -9    0.90    0.31
   5  -7  -9    1.65    0.18
   5  -7  -9    1.32    0.20
   4  -7  -9    4.01    0.36
   4  -7  -9    4.02    0.41
   4  -7  -9    3.81    0.38
   3  -7  -9   11.21    0.66
   3  -7  -9   10.66    0.75
   2  -7  -9    0.46    0.21
   2  -7  -9    0.30    0.11
   1  -7  -9    0.08    0.09
   0  -7  -9    0.80    0.12
   0   7   9    0.94    0.15
  -1  -7  -9    0.03    0.08
   1   7   9    0.04    0.13
   1   7   9    0.16    0.08
   7  -8  -9    0.19    0.11
   7  -8  -9    0.09    0.11
   6  -8  -9    0.71    0.13
   6  -8  -9    1.12    0.15
   6  -8  -9    1.10    0.18
   5  -8  -9   15.31    1.12
   5  -8  -9   16.07    0.96
   5  -8  -9   13.97    0.97
   4  -8  -9    4.19    0.39
   4  -8  -9    4.09    0.34
   3  -8  -9    0.20    0.23
   3  -8  -9    0.24    0.12
   2  -8  -9    0.38    0.18
   2  -8  -9    0.55    0.08
   1  -8  -9    0.14    0.06
  -1   8   9    0.10    0.09
   0  -8  -9    0.01    0.08
   0   8   9    0.07    0.08
   5  -9  -9    3.16    0.24
   4  -9  -9    3.20    0.22
   4  -9  -9    2.91    0.24
   0   9 -10    4.29    0.26
   0  -9  10    4.20    0.28
  -1   9 -10    0.51    0.08
   1  -9  10    0.62    0.09
  -2   9 -10    0.02    0.07
   2  -9  10    0.04    0.14
   3  -9  10    1.84    0.20
   2   8 -10    6.46    0.50
   2   8 -10    8.18    0.48
   1   8 -10    0.59    0.15
   1   8 -10    0.55    0.08
   0   8 -10    0.04    0.11
   0  -8  10    0.19    0.15
  -1   8 -10    7.25    0.44
   1  -8  10    5.63    0.43
   2  -8  10    0.38    0.16
   2  -8  10    0.32    0.12
   2  -8  10    0.32    0.17
   3  -8  10    3.54    0.34
   3  -8  10    3.46    0.38
   4  -8  10   20.79    1.68
   4  -8  10   25.03    1.40
   5  -8  10    0.32    0.11
   5  -8  10    0.26    0.17
   3   7 -10    0.62    0.18
   3   7 -10    0.50    0.15
   3   7 -10    0.31    0.14
   2   7 -10    8.79    0.53
   2   7 -10    8.12    0.62
   2   7 -10    9.49    0.63
   1   7 -10    3.61    0.27
   1   7 -10    3.39    0.34
   1   7 -10    3.04    0.34
   0  -7  10    0.39    0.19
   1  -7  10    3.17    0.30
   2  -7  10    3.45    0.29
   2  -7  10    4.06    0.45
   3  -7  10    1.16    0.19
   3  -7  10    1.17    0.15
   3  -7  10    1.33    0.22
   4  -7  10   -0.11    0.19
   4  -7  10    0.21    0.22
   4  -7  10   -0.02    0.14
   5  -7  10    1.38    0.24
   6  -7  10    3.36    0.24
   6  -7  10    2.72    0.28
   5   6 -10    0.02    0.10
   5   6 -10    0.00    0.12
   4   6 -10    3.39    0.26
   4   6 -10    3.14    0.29
   4   6 -10    3.09    0.29
   4   6 -10    3.29    0.32
   3   6 -10    4.60    0.40
   3   6 -10    4.92    0.44
   3   6 -10    4.58    0.39
   3   6 -10    5.28    0.43
   2   6 -10    0.68    0.13
   2   6 -10    0.59    0.25
   2   6 -10    0.75    0.21
   0   6 -10    1.16    0.21
   1  -6  10    1.16    0.22
   2  -6  10    0.23    0.20
   2  -6  10   -0.01    0.17
   3  -6  10   18.99    1.25
   3  -6  10   18.15    1.11
   4  -6  10    5.10    0.44
   4  -6  10    4.66    0.49
   4  -6  10    4.82    0.46
   5  -6  10    0.66    0.23
   5  -6  10    0.88    0.14
   5  -6  10    0.67    0.21
   6  -6  10    0.05    0.14
   6  -6  10    0.03    0.09
   6  -6  10    0.08    0.17
   6   5 -10    0.64    0.12
   6   5 -10    0.66    0.09
   5   5 -10    1.07    0.17
   5   5 -10    1.04    0.21
   4   5 -10   -0.02    0.20
   4   5 -10    0.18    0.21
   4   5 -10   -0.16    0.18
   3   5 -10   10.18    0.67
   3   5 -10   10.07    0.76
   3   5 -10    9.50    0.59
   3   5 -10   10.70    0.73
   3   5 -10    9.52    0.68
   2   5 -10    3.23    0.33
   2   5 -10    1.48    0.58
   1   5 -10   17.63    1.71
   1   5 -10   20.55    1.19
   0   5 -10    2.42    0.28
   1  -5  10    3.06    0.30
   2  -5  10    1.52    0.60
   2  -5  10    2.78    0.34
   2  -5  10    2.51    0.26
   3  -5  10    0.47    0.26
   3  -5  10    0.61    0.25
   3  -5  10    0.48    0.52
   3  -5  10    0.88    0.15
   4  -5  10    1.70    0.28
   4  -5  10    1.66    0.28
   4  -5  10    1.58    0.26
   4  -5  10    1.68    0.24
   5  -5  10    1.90    0.22
   5  -5  10    1.69    0.29
   5  -5  10    2.54    0.26
   5  -5  10    1.85    0.22
   6  -5  10   -0.04    0.16
   6  -5  10   -0.03    0.17
   6  -5  10    0.14    0.11
   7  -5  10    0.67    0.11
   7   4 -10    1.21    0.16
   6   4 -10    0.26    0.14
   5   4 -10    3.14    0.21
   4   4 -10    4.49    0.39
   4   4 -10    4.58    0.42
   4   4 -10    4.61    0.41
   3   4 -10    1.31    0.58
   3   4 -10    3.21    0.38
   3   4 -10    3.66    0.36
   3   4 -10    2.36    0.43
   3   4 -10    3.11    0.22
   3   4 -10    3.72    0.40
   2   4 -10    0.54    0.26
   2   4 -10    0.68    0.47
   2   4 -10    0.71    0.33
   2   4 -10    0.35    0.31
   2   4 -10    0.30    0.14
   1   4 -10   10.92    0.69
   0   4 -10    6.52    0.48
   1  -4  10   -0.28    0.19
   2  -4  10    0.82    0.28
   2  -4  10    0.99    0.43
   2  -4  10    0.50    0.35
   2  -4  10    1.20    0.20
   3  -4  10    0.33    0.25
   3  -4  10   -0.16    0.45
   3  -4  10    0.17    0.19
   3  -4  10    0.50    0.24
   3  -4  10    0.19    0.17
   3  -4  10   -0.10    0.33
   4  -4  10    1.65    0.28
   4  -4  10    2.55    0.26
   4  -4  10    2.13    0.28
   4  -4  10    2.86    0.33
   5  -4  10    6.99    0.49
   5  -4  10    7.24    0.58
   5  -4  10    7.42    0.52
   5  -4  10    6.27    0.58
   6  -4  10    1.04    0.18
   6  -4  10    0.91    0.22
   7  -4  10    0.03    0.11
   7   3 -10    2.72    0.28
   7   3 -10    2.69    0.28
   6   3 -10    1.41    0.28
   6   3 -10    1.75    0.20
   5   3 -10    0.32    0.17
   5   3 -10    0.26    0.19
   5   3 -10    0.34    0.10
   5   3 -10    0.36    0.25
   4   3 -10    3.73    0.43
   4   3 -10    3.43    0.35
   4   3 -10    3.67    0.37
   4   3 -10    3.22    0.36
   4   3 -10    3.09    0.70
   4   3 -10    2.85    0.42
   3   3 -10    6.24    0.85
   3   3 -10    6.59    0.41
   3   3 -10    6.78    0.59
   3   3 -10    5.59    0.53
   3   3 -10    6.47    0.50
   3   3 -10    5.72    0.64
   3   3 -10    6.76    0.52
   2   3 -10   -0.22    0.39
   2   3 -10    0.33    0.28
   2   3 -10   -0.11    0.16
   2   3 -10   -0.05    0.21
   2   3 -10    0.15    0.19
   2   3 -10   -0.18    0.28
   1   3 -10   39.92    2.65
   1   3 -10   38.84    2.52
   1   3 -10   37.57    2.28
   1  -3  10    0.07    0.13
   2  -3  10    3.30    0.52
   2  -3  10    3.26    0.42
   2  -3  10    4.35    0.31
   2  -3  10    2.81    0.50
   3  -3  10   12.72    0.96
   3  -3  10   14.58    0.94
   3  -3  10   13.33    0.90
   3  -3  10   12.17    1.03
   3  -3  10   14.67    0.83
   3  -3  10   11.82    1.26
   4  -3  10   -0.07    0.22
   4  -3  10    0.34    0.23
   4  -3  10    0.07    0.06
   4  -3  10    0.22    0.24
   4  -3  10    0.24    0.18
   4  -3  10    0.14    0.48
   5  -3  10    0.39    0.15
   5  -3  10    0.41    0.22
   5  -3  10    0.58    0.24
   6  -3  10    0.22    0.16
   6  -3  10    0.12    0.21
   7  -3  10    1.53    0.19
   8   2 -10    0.81    0.16
   7   2 -10    2.01    0.26
   7   2 -10    1.57    0.22
   6   2 -10    0.06    0.20
   6   2 -10    0.28    0.20
   6   2 -10    0.07    0.11
   6   2 -10    0.25    0.18
   5   2 -10    0.65    0.12
   5   2 -10    0.82    0.18
   5   2 -10    0.65    0.53
   5   2 -10    0.91    0.24
   5   2 -10    0.88    0.27
   5   2 -10    0.53    0.28
   4   2 -10   17.59    1.24
   4   2 -10   15.54    1.20
   4   2 -10   16.83    1.12
   4   2 -10   17.09    1.51
   4   2 -10   15.53    1.04
   4   2 -10   16.32    1.07
   4   2 -10   15.38    1.42
   4   2 -10   14.84    1.16
   4   2 -10   17.35    1.15
   3   2 -10    7.30    0.47
   3   2 -10    7.13    0.54
   3   2 -10    8.02    0.86
   3   2 -10    7.39    0.61
   3   2 -10    7.21    0.68
   3   2 -10    8.28    0.64
   3   2 -10    7.17    0.56
   3   2 -10    8.36    0.84
   2   2 -10    1.61    0.26
   2   2 -10    1.64    0.36
   2   2 -10    1.47    0.18
   2   2 -10    1.52    0.22
   2   2 -10    1.21    0.41
   2   2 -10    1.20    0.33
   1   2 -10    1.22    0.36
   1   2 -10    1.81    0.37
   1  -2  10    8.04    0.51
   1  -2  10    6.63    0.71
   2  -2  10    3.15    0.50
   2  -2  10    4.49    0.31
   2  -2  10    3.45    0.54
   2  -2  10    3.72    0.42
   3  -2  10    3.78    0.39
   3  -2  10    2.29    0.46
   3  -2  10    2.39    0.49
   3  -2  10    2.39    0.56
   3  -2  10    3.90    0.28
   3  -2  10    3.26    0.39
   4  -2  10   14.91    0.89
   4  -2  10   13.50    0.94
   4  -2  10   11.07    1.22
   4  -2  10   14.45    1.01
   5  -2  10    0.19    0.15
   5  -2  10    0.14    0.17
   5  -2  10    0.27    0.23
   5  -2  10   -0.17    0.15
   6  -2  10    1.24    0.19
   6  -2  10    0.88    0.19
   6  -2  10    0.99    0.17
   7  -2  10    2.68    0.28
   8   1 -10    1.31    0.19
   8   1 -10    0.97    0.17
   7   1 -10    2.82    0.37
   7   1 -10    2.77    0.36
   7   1 -10    4.18    0.41
   6   1 -10   19.97    1.53
   6   1 -10   19.45    1.25
   6   1 -10   21.33    1.54
   6   1 -10   21.63    1.43
   5   1 -10    1.49    0.61
   5   1 -10    1.40    0.53
   5   1 -10    1.72    0.18
   5   1 -10    2.17    0.29
   5   1 -10    2.51    0.32
   5   1 -10    1.98    0.21
   5   1 -10    2.07    0.28
   4   1 -10    1.96    0.22
   4   1 -10    2.06    0.26
   4   1 -10    1.47    0.51
   4   1 -10    2.69    0.63
   4   1 -10    1.41    0.27
   4   1 -10    1.63    0.27
   4   1 -10    2.05    0.27
   4   1 -10    1.77    0.31
   4   1 -10    1.72    0.20
   4   1 -10    1.78    0.28
   3   1 -10    6.84    0.52
   3   1 -10    7.16    0.62
   3   1 -10    7.16    0.47
   3   1 -10    9.16    0.86
   3   1 -10    8.40    0.63
   3   1 -10    8.78    0.83
   3   1 -10    7.55    0.56
   3   1 -10    8.18    0.67
   2   1 -10    0.08    0.35
   2   1 -10    0.12    0.24
   2   1 -10   -0.04    0.12
   2   1 -10   -0.03    0.26
   1   1 -10    0.15    0.29
   1   1 -10    0.15    0.28
   1   1 -10   -0.02    0.18
   1  -1  10   -0.19    0.34
   1  -1  10    0.06    0.28
   2  -1  10   26.03    1.91
   2  -1  10   24.38    2.11
   2  -1  10   27.54    1.74
   2  -1  10   28.44    1.59
   2  -1  10   26.36    1.82
   3  -1  10    8.09    0.95
   3  -1  10    8.21    0.65
   3  -1  10    7.61    0.80
   3  -1  10    7.50    0.75
   3  -1  10    8.86    0.63
   3  -1  10    9.28    0.54
   4  -1  10    0.86    0.20
   4  -1  10    0.52    0.17
   4  -1  10    0.64    0.22
   4  -1  10    0.10    0.52
   4  -1  10    0.19    0.24
   5  -1  10    3.58    0.34
   5  -1  10    3.59    0.32
   5  -1  10    4.06    0.43
   5  -1  10    3.73    0.33
   6  -1  10    4.36    0.36
   6  -1  10    4.92    0.35
   6  -1  10    4.08    0.38
   9   0 -10    0.00    0.10
   8   0 -10    1.27    0.23
   8   0 -10    1.26    0.23
   8   0 -10    1.25    0.23
   7   0 -10    0.07    0.22
   7   0 -10    0.00    0.28
   7   0 -10    0.20    0.22
   6   0 -10    0.47    0.24
   6   0 -10    0.40    0.25
   6   0 -10    0.45    0.12
   6   0 -10    0.65    0.59
   6   0 -10    0.21    0.27
   6   0 -10    0.46    0.22
   5   0 -10    9.60    0.72
   5   0 -10   10.53    0.80
   5   0 -10    9.58    0.62
   5   0 -10    9.54    0.62
   5   0 -10    8.23    0.62
   5   0 -10   10.23    0.80
   5   0 -10   10.92    0.71
   5   0 -10    9.65    1.01
   4   0 -10   57.31    3.27
   4   0 -10   58.30    3.43
   4   0 -10   51.81    3.88
   4   0 -10   59.00    3.41
   4   0 -10   52.77    3.94
   4   0 -10   55.33    4.10
   4   0 -10   51.22    3.44
   4   0 -10   57.98    4.02
   4   0 -10   55.83    3.55
   4   0 -10   50.23    3.60
   3   0 -10   14.23    1.00
   3   0 -10   15.80    1.29
   3   0 -10   18.08    1.07
   3   0 -10   14.81    0.90
   3   0 -10   15.98    1.30
   3   0 -10   16.73    1.12
   3   0 -10   14.18    0.95
   3   0 -10   13.85    1.14
   2   0 -10    0.04    0.24
   2   0 -10    0.05    0.23
   2   0 -10    0.15    0.37
   1   0 -10    1.29    0.34
   1   0 -10    1.23    0.33
   1   0 -10    1.17    0.38
   1   0  10   16.48    1.42
   1   0  10   17.46    1.04
   1   0  10   17.12    1.25
   1   0  10   17.30    1.32
   2   0  10   12.52    0.98
   2   0  10   11.73    1.16
   2   0  10   12.63    0.76
   2   0  10   12.11    0.86
   2   0  10   11.41    1.03
   3   0  10   -0.06    0.13
   3   0  10    0.08    0.16
   3   0  10   -0.06    0.13
   3   0  10    0.11    0.21
   3   0  10    0.35    0.33
   3   0  10   -0.10    0.35
   3   0  10    0.13    0.35
   4   0  10    0.13    0.22
   4   0  10    0.00    0.21
   4   0  10    0.26    0.25
   4   0  10    0.09    0.20
   5   0  10   16.62    1.08
   5   0  10   17.83    1.19
   5   0  10   14.67    1.16
   5   0  10   18.11    1.05
   6   0  10    0.07    0.14
   6   0  10    0.12    0.13
   6   0  10    0.22    0.15
   9  -1 -10   -0.03    0.17
   9  -1 -10    0.55    0.13
   8  -1 -10    6.32    0.49
   8  -1 -10    7.38    0.59
   8  -1 -10    6.38    0.60
   7  -1 -10    3.90    0.42
   7  -1 -10    3.98    0.40
   7  -1 -10    4.00    0.43
   7  -1 -10    2.88    0.36
   6  -1 -10    1.90    0.29
   6  -1 -10    2.22    0.35
   6  -1 -10    1.78    0.19
   6  -1 -10    2.27    0.25
   6  -1 -10    0.88    0.54
   6  -1 -10    1.68    0.30
   5  -1 -10    4.52    0.32
   5  -1 -10    4.80    0.34
   5  -1 -10    4.02    0.30
   5  -1 -10    5.13    0.47
   5  -1 -10    4.64    0.38
   5  -1 -10    4.72    0.76
   5  -1 -10    4.76    0.48
   4  -1 -10    1.17    0.52
   4  -1 -10    1.07    0.24
   4  -1 -10    1.84    0.20
   4  -1 -10    1.46    0.28
   4  -1 -10    1.87    0.21
   4  -1 -10    1.96    0.28
   4  -1 -10    1.68    0.29
   4  -1 -10    1.96    0.24
   3  -1 -10   19.26    1.12
   3  -1 -10   18.70    1.29
   3  -1 -10   16.53    1.18
   3  -1 -10   18.30    1.50
   3  -1 -10   19.41    1.23
   3  -1 -10   17.08    1.07
   2  -1 -10    9.55    0.88
   2  -1 -10    8.13    0.69
   2  -1 -10    8.35    0.74
   1  -1 -10    1.67    0.50
   1  -1 -10    0.85    0.30
   1  -1 -10    1.09    0.33
   0  -1 -10    0.66    0.37
   0   1  10    0.50    0.37
   1   1  10   16.77    1.37
   1   1  10   14.54    0.93
   2   1  10    0.76    0.32
   2   1  10    0.45    0.35
   2   1  10    1.24    0.18
   2   1  10    1.19    0.22
   2   1  10    0.73    0.52
   2   1  10    1.20    0.20
   3   1  10    1.33    0.26
   3   1  10    1.69    0.22
   3   1  10    0.24    0.53
   3   1  10    1.74    0.28
   3   1  10    1.62    0.17
   4   1  10    0.30    0.23
   4   1  10   -0.03    0.20
   4   1  10   -0.05    0.20
   4   1  10   -0.02    0.16
   5   1  10    0.14    0.16
   5   1  10    0.07    0.12
   5   1  10    0.09    0.13
   5   1  10    0.04    0.12
   6   1  10    0.11    0.16
   6   1  10    0.23    0.12
   9  -2 -10    0.73    0.14
   9  -2 -10    0.58    0.18
   8  -2 -10    1.05    0.23
   8  -2 -10    1.27    0.25
   7  -2 -10    0.68    0.30
   7  -2 -10    0.69    0.19
   7  -2 -10    0.33    0.26
   6  -2 -10    1.82    0.20
   6  -2 -10    1.43    0.57
   6  -2 -10    2.88    0.34
   6  -2 -10    2.40    0.31
   6  -2 -10    2.24    0.36
   6  -2 -10    2.01    0.30
   5  -2 -10    7.27    0.82
   5  -2 -10    7.72    0.53
   5  -2 -10    8.11    0.64
   5  -2 -10    8.73    0.67
   5  -2 -10    9.50    0.68
   5  -2 -10    6.56    0.53
   5  -2 -10    7.17    0.59
   5  -2 -10    8.15    0.53
   5  -2 -10    7.21    0.50
   4  -2 -10    2.23    0.32
   4  -2 -10    2.01    0.59
   4  -2 -10    1.94    0.28
   4  -2 -10    2.33    0.24
   4  -2 -10    2.32    0.25
   4  -2 -10    2.21    0.28
   4  -2 -10    2.14    0.25
   4  -2 -10    1.63    0.28
   3  -2 -10   31.76    2.26
   3  -2 -10   28.63    1.87
   3  -2 -10   27.91    2.08
   3  -2 -10   29.67    1.69
   3  -2 -10   28.40    1.75
   3  -2 -10   30.19    1.97
   3  -2 -10   26.61    1.84
   2  -2 -10    3.72    0.43
   2  -2 -10    3.04    0.37
   2  -2 -10    3.91    0.48
   2  -2 -10    4.52    0.62
   2  -2 -10    3.28    0.26
   1  -2 -10   20.42    1.19
   1  -2 -10   19.46    1.36
   1  -2 -10   20.66    1.62
   1  -2 -10   21.72    1.48
  -1   2  10   16.86    1.60
   0  -2 -10    6.43    0.75
   0   2  10    6.42    0.77
   1   2  10    0.20    0.15
   1   2  10   -0.24    0.46
   2   2  10    8.39    1.02
   2   2  10    6.72    0.79
   2   2  10    8.58    0.56
   2   2  10    9.84    0.68
   2   2  10    9.27    0.66
   2   2  10    7.48    0.80
   3   2  10    0.69    0.23
   3   2  10    0.74    0.25
   3   2  10    1.22    0.25
   3   2  10    1.20    0.16
   4   2  10    3.81    0.35
   4   2  10    3.60    0.37
   4   2  10    3.18    0.33
   4   2  10    3.40    0.35
   5   2  10    5.12    0.38
   5   2  10    4.86    0.40
   9  -3 -10    0.00    0.09
   9  -3 -10    0.15    0.16
   9  -3 -10    0.01    0.13
   8  -3 -10    8.25    0.61
   8  -3 -10    9.08    0.70
   8  -3 -10    8.68    0.68
   7  -3 -10    2.81    0.41
   7  -3 -10    2.96    0.36
   7  -3 -10    3.12    0.40
   7  -3 -10    3.16    0.44
   6  -3 -10    3.27    0.40
   6  -3 -10    1.51    0.51
   6  -3 -10    2.27    0.23
   6  -3 -10    2.46    0.27
   6  -3 -10    2.77    0.35
   6  -3 -10    2.50    0.36
   5  -3 -10   44.82    3.46
   5  -3 -10   47.02    3.32
   5  -3 -10   45.90    2.74
   5  -3 -10   48.35    2.89
   5  -3 -10   39.54    2.93
   5  -3 -10   42.61    2.82
   5  -3 -10   51.83    3.35
   5  -3 -10   48.26    3.28
   5  -3 -10   44.58    2.87
   4  -3 -10    0.56    0.27
   4  -3 -10    0.96    0.24
   4  -3 -10    0.85    0.27
   4  -3 -10    0.80    0.19
   4  -3 -10    0.89    0.18
   4  -3 -10    1.15    0.57
   4  -3 -10    0.54    0.23
   4  -3 -10    0.69    0.17
   4  -3 -10    0.50    0.20
   3  -3 -10    4.24    0.39
   3  -3 -10    4.64    0.53
   3  -3 -10    5.29    0.49
   3  -3 -10    4.44    0.48
   3  -3 -10    4.71    0.31
   3  -3 -10    4.71    0.40
   3  -3 -10    5.40    0.72
   2  -3 -10    4.08    0.70
   2  -3 -10    4.50    0.30
   2  -3 -10    4.15    0.48
   2  -3 -10    3.55    0.39
   2  -3 -10    4.29    0.55
   1  -3 -10    3.95    0.31
   1  -3 -10    5.32    0.79
   0  -3 -10    1.83    0.55
   0   3  10    2.02    0.57
  -1  -3 -10   51.54    4.27
   1   3  10   61.49    3.43
   1   3  10   61.95    4.45
   2   3  10    0.00    0.14
   2   3  10    0.22    0.22
   2   3  10    0.00    0.17
   3   3  10    0.09    0.22
   3   3  10    0.26    0.22
   3   3  10    0.19    0.09
   3   3  10    0.61    0.25
   4   3  10    3.14    0.28
   4   3  10    2.92    0.30
   4   3  10    3.37    0.31
   5   3  10    0.40    0.13
   5   3  10    0.29    0.09
   9  -4 -10    2.58    0.28
   8  -4 -10    3.84    0.46
   8  -4 -10    4.33    0.42
   7  -4 -10    0.38    0.26
   7  -4 -10    0.18    0.27
   7  -4 -10    0.32    0.31
   6  -4 -10    0.15    0.31
   6  -4 -10    0.49    0.25
   6  -4 -10    0.30    0.26
   6  -4 -10   -0.01    0.54
   6  -4 -10    0.33    0.19
   6  -4 -10    0.42    0.15
   5  -4 -10   15.25    1.09
   5  -4 -10   13.42    1.30
   5  -4 -10   15.54    0.90
   5  -4 -10   13.02    1.08
   5  -4 -10   14.76    0.92
   5  -4 -10   12.27    0.95
   5  -4 -10   13.46    0.94
   5  -4 -10   15.09    1.11
   4  -4 -10   -0.05    0.22
   4  -4 -10    0.08    0.21
   4  -4 -10    0.08    0.21
   4  -4 -10    0.12    0.18
   4  -4 -10    0.30    0.20
   4  -4 -10   -0.04    0.17
   4  -4 -10    0.11    0.17
   4  -4 -10    0.10    0.16
   4  -4 -10    0.32    0.54
   3  -4 -10    1.18    0.36
   3  -4 -10    1.25    0.22
   3  -4 -10    1.31    0.15
   3  -4 -10    0.88    0.54
   3  -4 -10    1.13    0.21
   3  -4 -10    0.72    0.32
   3  -4 -10    1.41    0.29
   2  -4 -10    2.81    0.34
   2  -4 -10    2.77    0.68
   2  -4 -10    2.46    0.43
   2  -4 -10    3.12    0.24
   2  -4 -10    2.39    0.48
   1  -4 -10   -0.07    0.13
   1  -4 -10    0.03    0.53
   0  -4 -10    0.98    0.57
   0   4  10    1.98    0.64
   1   4  10   -0.04    0.15
   2   4  10   -0.02    0.24
   2   4  10   -0.04    0.15
   2   4  10    0.24    0.14
   3   4  10    0.23    0.17
   3   4  10    0.56    0.15
   4   4  10    1.17    0.14
   4   4  10    1.26    0.17
   4   4  10    0.91    0.13
   9  -5 -10    2.29    0.24
   8  -5 -10    0.11    0.16
   8  -5 -10   -0.13    0.22
   8  -5 -10    0.12    0.18
   7  -5 -10    0.67    0.23
   7  -5 -10    0.64    0.25
   7  -5 -10    0.36    0.26
   6  -5 -10    2.26    0.23
   6  -5 -10    2.09    0.38
   6  -5 -10    2.49    0.35
   6  -5 -10    2.03    0.30
   5  -5 -10    4.52    0.44
   5  -5 -10    4.55    0.35
   5  -5 -10    4.32    0.36
   5  -5 -10    4.37    0.52
   5  -5 -10    2.39    0.75
   5  -5 -10    3.74    0.37
   4  -5 -10    0.47    0.19
   4  -5 -10    0.42    0.29
   4  -5 -10    0.39    0.17
   4  -5 -10    0.26    0.52
   3  -5 -10    2.11    0.20
   3  -5 -10    2.72    0.71
   3  -5 -10    1.50    0.37
   3  -5 -10    2.02    0.26
   2  -5 -10    0.08    0.12
   2  -5 -10    0.36    0.21
   2  -5 -10    0.07    0.40
   1  -5 -10    1.47    0.67
   1  -5 -10    2.44    0.24
   0  -5 -10    8.53    0.56
   0   5  10    8.36    0.54
   1   5  10    0.19    0.11
   2   5  10    3.88    0.29
   2   5  10    5.05    0.43
   2   5  10    4.46    0.38
   3   5  10    0.21    0.13
   3   5  10   -0.04    0.10
   9  -6 -10    0.38    0.10
   8  -6 -10    0.46    0.24
   8  -6 -10    0.54    0.15
   7  -6 -10    1.03    0.31
   7  -6 -10    0.91    0.24
   7  -6 -10    1.12    0.19
   6  -6 -10    0.33    0.22
   6  -6 -10    0.43    0.21
   6  -6 -10    0.51    0.22
   6  -6 -10    0.40    0.14
   5  -6 -10    0.20    0.15
   5  -6 -10    0.59    0.21
   5  -6 -10    0.46    0.18
   5  -6 -10    0.71    0.23
   4  -6 -10    1.80    0.35
   4  -6 -10    1.80    0.24
   4  -6 -10    1.67    0.23
   3  -6 -10    0.00    0.11
   3  -6 -10    0.10    0.20
   3  -6 -10    0.10    0.19
   2  -6 -10    5.27    0.37
   2  -6 -10    5.85    0.49
   1  -6 -10    6.65    0.44
   0  -6 -10    0.42    0.11
   0   6  10    0.22    0.15
  -1  -6 -10    0.03    0.10
   1   6  10    0.03    0.11
   2   6  10    0.23    0.16
   2   6  10    0.20    0.13
   8  -7 -10    0.79    0.13
   7  -7 -10    0.10    0.13
   7  -7 -10   -0.10    0.14
   6  -7 -10    2.39    0.31
   6  -7 -10    2.63    0.23
   6  -7 -10    2.15    0.24
   5  -7 -10    0.55    0.12
   5  -7 -10    0.46    0.20
   5  -7 -10    0.57    0.14
   5  -7 -10    0.47    0.17
   4  -7 -10   -0.02    0.18
   4  -7 -10   -0.11    0.15
   4  -7 -10   -0.15    0.18
   3  -7 -10    0.46    0.20
   3  -7 -10    0.45    0.08
   3  -7 -10    0.62    0.27
   2  -7 -10    1.32    0.19
   2  -7 -10    1.27    0.15
   1  -7 -10    2.70    0.23
  -1   7  10    2.64    0.22
   0   7  10    5.51    0.36
  -1  -7 -10    0.37    0.08
   1   7  10    0.31    0.07
   1   7  10    0.25    0.11
   7  -8 -10    0.65    0.14
   6  -8 -10    3.02    0.24
   6  -8 -10    2.86    0.28
   5  -8 -10    0.38    0.16
   5  -8 -10    0.22    0.11
   4  -8 -10    3.94    0.38
   4  -8 -10    4.25    0.32
   4  -8 -10    4.05    0.36
   3  -8 -10    1.68    0.20
   3  -8 -10    1.74    0.23
   2  -8 -10    6.45    0.50
   2  -8 -10    5.94    0.37
   1  -8 -10    1.74    0.20
   1  -8 -10    1.37    0.11
   2   8 -11    1.55    0.16
   1   8 -11    2.30    0.15
   1   8 -11    2.11    0.18
   1   8 -11    1.71    0.23
  -1  -8  11    2.16    0.19
   0   8 -11    0.01    0.10
   0  -8  11    0.12    0.10
  -1   8 -11    0.63    0.14
   1  -8  11    0.34    0.10
   2  -8  11    3.00    0.35
   2  -8  11    3.63    0.34
   2  -8  11    3.93    0.25
   3  -8  11    0.59    0.17
   4  -8  11    5.67    0.49
   3   7 -11   11.86    0.82
   3   7 -11   12.80    0.79
   3   7 -11   11.38    0.76
   2   7 -11    2.02    0.26
   2   7 -11    2.11    0.13
   2   7 -11    1.28    0.21
   1   7 -11    0.62    0.12
   1   7 -11    0.50    0.23
   1   7 -11    0.25    0.16
   0  -7  11    0.08    0.18
  -1   7 -11    3.11    0.29
   1  -7  11    3.19    0.28
   2  -7  11   12.15    0.91
   2  -7  11   13.20    0.78
   3  -7  11    0.87    0.17
   3  -7  11    0.92    0.10
   3  -7  11    1.29    0.20
   4  -7  11    0.02    0.18
   4  -7  11    0.06    0.21
   4  -7  11   -0.02    0.13
   5  -7  11    1.64    0.22
   4   6 -11    1.65    0.17
   4   6 -11    1.63    0.19
   4   6 -11    0.89    0.20
   3   6 -11    4.11    0.40
   3   6 -11    3.57    0.34
   3   6 -11    4.39    0.38
   2   6 -11    0.77    0.12
   2   6 -11    0.85    0.17
   2   6 -11    0.56    0.24
   0   6 -11    0.73    0.15
   1  -6  11   -0.02    0.19
   2  -6  11    0.89    0.23
   2  -6  11    0.94    0.19
   3  -6  11    3.00    0.36
   3  -6  11    3.17    0.23
   4  -6  11    0.47    0.20
   4  -6  11    0.73    0.21
   4  -6  11    0.67    0.18
   5  -6  11   -0.09    0.18
   5  -6  11    0.10    0.10
   5  -6  11   -0.04    0.13
   6  -6  11    1.19    0.15
   6  -6  11    0.71    0.14
   6   5 -11    0.90    0.12
   5   5 -11    6.34    0.44
   5   5 -11    6.33    0.48
   4   5 -11    7.28    0.56
   4   5 -11    6.88    0.51
   4   5 -11    7.79    0.53
   3   5 -11    2.46    0.29
   3   5 -11    1.94    0.14
   3   5 -11    1.63    0.28
   3   5 -11    1.99    0.27
   2   5 -11    1.09    0.28
   1   5 -11   10.74    0.66
   1   5 -11    9.15    1.11
   0   5 -11    3.87    0.34
   1  -5  11   34.12    2.03
   2  -5  11    8.81    0.73
   2  -5  11   10.41    0.61
   2  -5  11    7.59    1.05
   3  -5  11    2.35    0.32
   3  -5  11    2.01    0.20
   4  -5  11    1.66    0.23
   4  -5  11    1.88    0.24
   4  -5  11    1.45    0.22
   4  -5  11    1.53    0.21
   5  -5  11   10.49    0.91
   5  -5  11   12.40    0.76
   5  -5  11   11.26    0.83
   5  -5  11   11.78    0.74
   6  -5  11    8.32    0.50
   6  -5  11    6.77    0.56
   6   4 -11    0.76    0.21
   6   4 -11    1.27    0.14
   5   4 -11   19.11    1.24
   5   4 -11   16.45    1.10
   4   4 -11    9.41    0.69
   4   4 -11   10.24    0.70
   4   4 -11   10.39    0.78
   3   4 -11    1.95    0.28
   3   4 -11    1.84    0.60
   3   4 -11    2.21    0.26
   3   4 -11    1.88    0.17
   3   4 -11    2.59    0.30
   2   4 -11   21.41    1.36
   2   4 -11   17.69    1.50
   2   4 -11   17.73    1.43
   2   4 -11   23.12    1.22
   2   4 -11   18.41    1.76
   1   4 -11    0.01    0.17
   0   4 -11    1.59    0.23
   1  -4  11   15.15    0.94
   2  -4  11    2.99    0.29
   2  -4  11    3.97    0.44
   3  -4  11   10.00    0.78
   3  -4  11   11.01    0.66
   3  -4  11   11.40    0.78
   3  -4  11    9.81    0.77
   4  -4  11   19.25    1.43
   4  -4  11   18.18    1.24
   4  -4  11   18.43    1.30
   4  -4  11   19.09    1.20
   5  -4  11    6.61    0.42
   5  -4  11    5.81    0.45
   5  -4  11    4.78    0.40
   5  -4  11    5.02    0.49
   6  -4  11    3.21    0.28
   6  -4  11    3.00    0.29
   7   3 -11    0.08    0.09
   7   3 -11    0.03    0.13
   6   3 -11    1.08    0.18
   6   3 -11    1.35    0.16
   6   3 -11    1.68    0.22
   5   3 -11   25.55    1.61
   5   3 -11   28.36    1.80
   5   3 -11   25.42    1.66
   4   3 -11    9.86    0.68
   4   3 -11    8.53    1.05
   4   3 -11    8.32    0.74
   4   3 -11   10.08    0.74
   4   3 -11    9.21    0.65
   3   3 -11    5.06    0.44
   3   3 -11    5.04    0.46
   3   3 -11    5.38    0.34
   3   3 -11    2.94    0.69
   3   3 -11    4.65    0.58
   3   3 -11    5.56    0.47
   3   3 -11    5.21    0.55
   2   3 -11   25.10    1.38
   2   3 -11   23.52    1.52
   2   3 -11   19.84    1.65
   2   3 -11   23.38    1.96
   2   3 -11   22.64    1.59
   1   3 -11    1.77    0.43
   1   3 -11    2.10    0.24
   1  -3  11    4.72    0.37
   2  -3  11    2.98    0.35
   2  -3  11    1.49    0.42
   2  -3  11    2.52    0.26
   2  -3  11    1.71    0.49
   3  -3  11   14.85    0.84
   3  -3  11   14.25    0.97
   3  -3  11   13.41    0.89
   3  -3  11   12.54    0.99
   4  -3  11    0.12    0.22
   4  -3  11   -0.09    0.16
   4  -3  11    0.45    0.22
   4  -3  11   -0.01    0.15
   5  -3  11    8.33    0.61
   5  -3  11    9.36    0.69
   5  -3  11    9.00    0.63
   6  -3  11    0.02    0.14
   6  -3  11    0.13    0.13
   8   2 -11    0.27    0.12
   8   2 -11    0.26    0.10
   7   2 -11    0.39    0.21
   7   2 -11    0.39    0.18
   6   2 -11    0.02    0.27
   6   2 -11    0.28    0.12
   6   2 -11    0.23    0.25
   6   2 -11    0.10    0.20
   5   2 -11    0.35    0.25
   5   2 -11    0.20    0.18
   5   2 -11    0.14    0.21
   5   2 -11   -0.51    0.52
   5   2 -11    0.26    0.11
   5   2 -11   -0.04    0.21
   4   2 -11    3.09    0.32
   4   2 -11    3.05    0.37
   4   2 -11    2.04    0.34
   4   2 -11    2.90    0.33
   4   2 -11    1.49    0.55
   4   2 -11    3.38    0.36
   4   2 -11    2.16    0.61
   4   2 -11    2.86    0.31
   3   2 -11    3.06    0.62
   3   2 -11    2.99    0.29
   3   2 -11    2.27    0.32
   3   2 -11    2.42    0.39
   3   2 -11    2.68    0.34
   3   2 -11    2.85    0.60
   3   2 -11    2.49    0.21
   3   2 -11    2.08    0.39
   2   2 -11    3.64    0.50
   2   2 -11    4.00    0.41
   2   2 -11    4.02    0.29
   2   2 -11    3.64    0.32
   2   2 -11    3.81    0.47
   2   2 -11    4.21    0.56
   2   2 -11    3.29    0.37
   1   2 -11   16.66    1.26
   1   2 -11   15.78    0.98
   1   2 -11   16.32    1.19
   1  -2  11    6.64    0.44
   2  -2  11    0.84    0.18
   2  -2  11    0.70    0.42
   2  -2  11    0.29    0.33
   2  -2  11    0.53    0.27
   3  -2  11    1.30    0.20
   3  -2  11    1.10    0.28
   3  -2  11    1.98    0.29
   3  -2  11    0.52    0.41
   4  -2  11    3.26    0.37
   4  -2  11    3.52    0.41
   4  -2  11    3.29    0.35
   5  -2  11    3.79    0.42
   5  -2  11    3.43    0.37
   5  -2  11    3.92    0.32
   6  -2  11    0.07    0.10
   6  -2  11    0.11    0.14
   8   1 -11    5.88    0.45
   8   1 -11    5.79    0.47
   7   1 -11    0.89    0.22
   7   1 -11    1.18    0.19
   7   1 -11    0.55    0.23
   6   1 -11    3.91    0.33
   6   1 -11    4.11    0.40
   6   1 -11    4.45    0.45
   6   1 -11    4.03    0.41
   5   1 -11    0.82    0.56
   5   1 -11    1.80    0.30
   5   1 -11    1.36    0.54
   5   1 -11    1.05    0.21
   5   1 -11    1.93    0.28
   5   1 -11    1.44    0.19
   5   1 -11    1.68    0.29
   5   1 -11    1.61    0.20
   4   1 -11    9.02    0.73
   4   1 -11   10.12    0.73
   4   1 -11    9.60    0.75
   4   1 -11    9.45    0.97
   4   1 -11    8.57    0.98
   4   1 -11    8.68    0.62
   4   1 -11    8.57    0.63
   4   1 -11    8.68    0.70
   4   1 -11    9.67    0.70
   3   1 -11    6.21    0.58
   3   1 -11    5.68    0.51
   3   1 -11    6.00    0.73
   3   1 -11    5.58    0.37
   3   1 -11    6.23    0.72
   3   1 -11    4.85    0.43
   3   1 -11    5.66    0.53
   3   1 -11    6.05    0.47
   2   1 -11    7.84    0.60
   2   1 -11    8.23    0.62
   2   1 -11    8.84    0.56
   2   1 -11   10.26    0.79
   2   1 -11   10.01    0.86
   2   1 -11    9.43    0.79
   1   1 -11   11.86    0.95
   1   1 -11   10.71    0.70
   1   1 -11   11.83    0.89
   1  -1  11   10.61    0.66
   2  -1  11    9.45    0.71
   2  -1  11    8.75    0.84
   2  -1  11    7.81    0.86
   2  -1  11    9.86    0.60
   3  -1  11    0.56    0.17
   3  -1  11    0.53    0.25
   3  -1  11    1.37    0.27
   3  -1  11    0.10    0.40
   3  -1  11   -0.17    0.46
   4  -1  11    2.23    0.31
   4  -1  11    2.65    0.34
   4  -1  11    2.58    0.33
   5  -1  11    0.04    0.15
   5  -1  11   -0.03    0.14
   5  -1  11    0.08    0.16
   6  -1  11    0.09    0.12
   6  -1  11   -0.04    0.12
   9   0 -11    9.81    0.73
   8   0 -11    2.37    0.28
   8   0 -11    3.02    0.31
   7   0 -11    9.57    0.77
   7   0 -11    8.68    0.76
   7   0 -11    9.39    0.70
   6   0 -11    5.31    0.49
   6   0 -11    5.52    0.49
   6   0 -11    5.39    0.37
   6   0 -11    5.16    0.53
   6   0 -11    5.31    0.49
   5   0 -11   13.40    0.97
   5   0 -11   13.67    0.87
   5   0 -11   13.66    0.91
   5   0 -11   13.95    0.87
   5   0 -11   14.34    1.07
   5   0 -11   13.69    1.05
   5   0 -11   13.38    1.27
   5   0 -11   12.62    0.88
   4   0 -11    2.46    0.38
   4   0 -11    3.19    0.65
   4   0 -11    3.44    0.32
   4   0 -11    3.42    0.35
   4   0 -11    3.87    0.42
   4   0 -11    3.37    0.38
   4   0 -11    3.45    0.39
   4   0 -11    3.78    0.35
   4   0 -11    3.31    0.35
   3   0 -11   14.68    1.32
   3   0 -11   14.31    0.99
   3   0 -11   14.31    0.95
   3   0 -11   16.05    1.02
   3   0 -11   15.86    1.13
   3   0 -11   14.32    0.90
   3   0 -11   17.77    1.10
   3   0 -11   15.56    1.30
   3   0 -11   14.18    1.14
   3   0 -11   15.21    1.13
   2   0 -11    2.21    0.24
   2   0 -11    2.06    0.50
   2   0 -11    2.25    0.21
   2   0 -11    1.76    0.41
   2   0 -11    2.23    0.39
   1   0 -11   18.11    1.48
   1   0 -11   18.25    1.37
   1   0 -11   18.29    1.10
   1   0 -11   18.51    1.29
   1   0  11   12.49    0.78
   2   0  11    0.07    0.16
   2   0  11   -0.14    0.38
   2   0  11    0.03    0.25
   2   0  11    0.13    0.44
   2   0  11    0.08    0.24
   3   0  11    0.45    0.23
   3   0  11    0.14    0.25
   3   0  11    0.04    0.50
   3   0  11    0.16    0.13
   4   0  11    0.10    0.21
   4   0  11   -0.18    0.22
   4   0  11   -0.06    0.24
   4   0  11   -0.01    0.20
   5   0  11   -0.10    0.11
   5   0  11    0.02    0.19
   5   0  11   -0.06    0.19
   5   0  11   -0.05    0.20
   6   0  11    1.61    0.17
   6   0  11    1.26    0.16
   6   0  11    1.32    0.16
   9  -1 -11    0.85    0.19
   8  -1 -11    0.22    0.19
   8  -1 -11    0.37    0.21
   7  -1 -11    1.55    0.28
   7  -1 -11    1.06    0.27
   7  -1 -11    2.11    0.29
   6  -1 -11    2.29    0.23
   6  -1 -11    2.34    0.35
   6  -1 -11    2.34    0.31
   6  -1 -11    2.74    0.38
   6  -1 -11    1.51    0.49
   5  -1 -11    7.33    0.52
   5  -1 -11    5.92    0.52
   5  -1 -11    7.15    0.49
   5  -1 -11    8.08    0.50
   5  -1 -11    6.93    0.56
   5  -1 -11    7.59    0.65
   5  -1 -11    8.45    0.65
   5  -1 -11    8.02    0.90
   4  -1 -11   14.78    1.30
   4  -1 -11   14.78    0.90
   4  -1 -11   14.54    1.00
   4  -1 -11   12.87    0.94
   4  -1 -11   14.74    0.95
   4  -1 -11   14.12    1.06
   4  -1 -11   15.43    1.11
   4  -1 -11   13.44    1.08
   3  -1 -11    1.13    0.23
   3  -1 -11    1.10    0.29
   3  -1 -11    0.95    0.51
   3  -1 -11    0.95    0.14
   3  -1 -11    0.78    0.19
   3  -1 -11    0.87    0.32
   3  -1 -11    1.06    0.21
   2  -1 -11    2.16    0.53
   2  -1 -11    1.78    0.19
   2  -1 -11    1.68    0.24
   2  -1 -11    1.89    0.38
   2  -1 -11    2.18    0.27
   2  -1 -11    1.76    0.36
   1  -1 -11    1.23    0.34
   1  -1 -11    1.15    0.43
   1  -1 -11    0.82    0.34
   1  -1 -11    1.75    0.19
   1   1  11   15.52    1.40
   1   1  11   16.14    0.98
   2   1  11    9.08    1.09
   2   1  11   11.22    0.78
   2   1  11   10.41    0.66
   3   1  11    5.90    0.50
   3   1  11    6.19    0.52
   3   1  11    5.95    0.47
   3   1  11    6.04    0.40
   4   1  11   14.40    1.03
   4   1  11   15.45    1.01
   4   1  11   16.48    1.12
   4   1  11   16.76    1.10
   5   1  11    6.72    0.51
   5   1  11    6.96    0.49
   5   1  11    6.53    0.50
   9  -2 -11    0.47    0.15
   9  -2 -11    0.61    0.17
   8  -2 -11    1.04    0.23
   8  -2 -11    1.06    0.22
   8  -2 -11    1.26    0.25
   7  -2 -11    1.60    0.29
   7  -2 -11    1.07    0.32
   7  -2 -11    1.49    0.22
   6  -2 -11    9.11    0.64
   6  -2 -11    8.33    0.58
   6  -2 -11   10.48    0.78
   6  -2 -11    8.78    0.78
   5  -2 -11   71.17    5.04
   5  -2 -11   74.23    5.12
   5  -2 -11   73.18    4.24
   5  -2 -11   66.64    4.45
   5  -2 -11   71.60    4.44
   4  -2 -11    3.87    0.41
   4  -2 -11    3.59    0.42
   4  -2 -11    3.34    0.71
   4  -2 -11    3.95    0.37
   4  -2 -11    2.95    0.40
   4  -2 -11    4.20    0.35
   4  -2 -11    3.31    0.34
   4  -2 -11    4.01    0.43
   3  -2 -11    8.19    0.67
   3  -2 -11    9.19    0.94
   3  -2 -11    8.80    0.74
   3  -2 -11    9.19    0.70
   3  -2 -11    8.56    0.62
   3  -2 -11    8.27    0.52
   3  -2 -11    7.90    0.58
   2  -2 -11    9.67    0.86
   2  -2 -11    9.65    0.78
   2  -2 -11   12.90    0.70
   2  -2 -11   12.17    0.92
   2  -2 -11   12.54    1.09
   2  -2 -11   11.69    0.94
   1  -2 -11    1.64    0.19
   1  -2 -11    2.40    0.56
   1  -2 -11    1.52    0.39
   0  -2 -11   34.05    2.88
   0   2  11   43.87    3.01
   1   2  11   15.51    0.97
   1   2  11   16.20    1.45
   2   2  11    2.29    0.33
   2   2  11    2.93    0.34
   2   2  11    1.66    0.64
   2   2  11    2.48    0.25
   3   2  11    5.75    0.39
   3   2  11    6.35    0.52
   3   2  11    5.85    0.51
   3   2  11    6.76    0.52
   4   2  11   22.10    1.46
   4   2  11   20.26    1.33
   4   2  11   23.19    1.47
   4   2  11   21.03    1.38
   5   2  11    7.21    0.51
   9  -3 -11    0.93    0.18
   9  -3 -11    0.79    0.15
   9  -3 -11    0.70    0.14
   8  -3 -11   -0.07    0.22
   8  -3 -11    0.37    0.19
   8  -3 -11    0.24    0.18
   7  -3 -11    0.94    0.27
   7  -3 -11    0.97    0.20
   7  -3 -11    0.93    0.32
   6  -3 -11   -0.03    0.23
   6  -3 -11    0.11    0.11
   6  -3 -11    0.05    0.21
   6  -3 -11    0.02    0.17
   5  -3 -11    0.43    0.17
   5  -3 -11    0.96    0.22
   5  -3 -11    0.42    0.23
   5  -3 -11    0.65    0.61
   5  -3 -11    0.73    0.14
   5  -3 -11    0.73    0.17
   5  -3 -11    0.75    0.22
   5  -3 -11    0.24    0.18
   4  -3 -11   -0.05    0.20
   4  -3 -11    0.42    0.26
   4  -3 -11    0.20    0.17
   4  -3 -11    0.31    0.19
   4  -3 -11    0.41    0.25
   4  -3 -11    0.30    0.13
   4  -3 -11    0.40    0.28
   4  -3 -11    0.67    0.57
   3  -3 -11   12.13    0.79
   3  -3 -11   11.08    0.96
   3  -3 -11   12.16    0.72
   3  -3 -11   11.68    0.82
   3  -3 -11   13.18    1.12
   3  -3 -11   11.29    0.93
   3  -3 -11   12.11    0.90
   2  -3 -11    0.75    0.49
   2  -3 -11    0.09    0.29
   2  -3 -11    0.04    0.13
   2  -3 -11   -0.38    0.25
   2  -3 -11    0.06    0.20
   1  -3 -11    0.02    0.14
   1  -3 -11   -0.24    0.46
   0  -3 -11    9.46    1.07
   0   3  11   12.05    1.14
   1   3  11    9.18    1.10
   1   3  11   10.35    0.65
   2   3  11    0.09    0.25
   2   3  11    0.29    0.15
   2   3  11    0.44    0.16
   3   3  11    0.41    0.22
   3   3  11    0.33    0.15
   3   3  11    0.14    0.07
   4   3  11    1.03    0.15
   4   3  11    0.92    0.15
   4   3  11    1.14    0.17
   9  -4 -11    0.02    0.14
   9  -4 -11    0.11    0.12
   8  -4 -11    0.37    0.19
   8  -4 -11    1.02    0.18
   7  -4 -11    0.43    0.25
   7  -4 -11    0.81    0.23
   6  -4 -11    6.96    0.56
   6  -4 -11    6.69    0.59
   6  -4 -11    7.55    0.64
   6  -4 -11    6.62    0.48
   6  -4 -11    7.36    0.66
   5  -4 -11    1.82    0.26
   5  -4 -11    1.84    0.34
   5  -4 -11    1.62    0.21
   5  -4 -11    1.83    0.23
   5  -4 -11    1.44    0.26
   5  -4 -11    0.87    0.67
   4  -4 -11    4.57    0.43
   4  -4 -11    4.02    0.38
   4  -4 -11    4.41    0.38
   4  -4 -11    3.61    0.45
   4  -4 -11    3.96    0.41
   4  -4 -11    4.48    0.73
   3  -4 -11    0.37    0.20
   3  -4 -11    0.16    0.27
   3  -4 -11   -0.06    0.36
   3  -4 -11    0.22    0.10
   3  -4 -11    0.16    0.20
   3  -4 -11    0.08    0.28
   3  -4 -11    0.35    0.26
   2  -4 -11    1.85    0.41
   2  -4 -11    2.94    0.69
   2  -4 -11    3.72    0.25
   2  -4 -11    2.99    0.36
   2  -4 -11    1.79    0.41
   1  -4 -11    0.51    0.15
   1  -4 -11    0.41    0.42
   0  -4 -11    0.18    0.58
   0  -4 -11    1.10    0.18
   0   4  11    1.12    0.19
   0   4  11    0.57    0.60
   1   4  11   -0.02    0.16
   2   4  11    0.01    0.12
   2   4  11    0.15    0.22
   2   4  11    0.21    0.16
   3   4  11    2.82    0.26
   4   4  11    2.33    0.21
   9  -5 -11    0.49    0.12
   9  -5 -11    0.15    0.13
   8  -5 -11    2.52    0.31
   8  -5 -11    3.00    0.32
   7  -5 -11   -0.04    0.22
   7  -5 -11   -0.18    0.27
   6  -5 -11    3.91    0.43
   6  -5 -11    3.91    0.36
   6  -5 -11    4.64    0.34
   5  -5 -11    3.44    0.32
   5  -5 -11    2.77    0.29
   5  -5 -11    3.22    0.42
   5  -5 -11    2.96    0.34
   4  -5 -11   -0.02    0.27
   4  -5 -11   -0.06    0.16
   4  -5 -11   -0.01    0.18
   3  -5 -11    0.75    0.21
   3  -5 -11    0.75    0.17
   3  -5 -11    0.78    0.22
   3  -5 -11    0.71    0.13
   2  -5 -11    0.12    0.21
   2  -5 -11    0.19    0.13
   1  -5 -11    0.60    0.15
   0  -5 -11    4.14    0.33
   0   5  11    4.41    0.34
   1   5  11   -0.13    0.13
   2   5  11    2.72    0.19
   2   5  11    3.06    0.33
   2   5  11    3.47    0.34
   3   5  11    0.06    0.11
   3   5  11    0.03    0.09
   8  -6 -11    0.04    0.12
   8  -6 -11   -0.16    0.14
   7  -6 -11    7.94    0.54
   7  -6 -11    7.62    0.63
   6  -6 -11    1.40    0.32
   6  -6 -11    1.36    0.17
   6  -6 -11    1.87    0.23
   5  -6 -11    2.02    0.35
   5  -6 -11    1.93    0.24
   5  -6 -11    2.29    0.24
   4  -6 -11   22.94    1.43
   4  -6 -11   19.78    1.37
   4  -6 -11   23.33    1.64
   3  -6 -11    5.70    0.50
   3  -6 -11    5.04    0.44
   3  -6 -11    5.29    0.34
   3  -6 -11    5.10    0.46
   2  -6 -11    5.45    0.50
   2  -6 -11    6.01    0.39
   1  -6 -11    5.84    0.39
   0  -6 -11    0.89    0.13
   0   6  11    0.96    0.16
  -1  -6 -11    1.27    0.14
   1   6  11    0.59    0.20
   1   6  11    1.00    0.11
   2   6  11    6.78    0.46
   8  -7 -11    1.65    0.17
   7  -7 -11    3.21    0.31
   7  -7 -11    3.90    0.34
   6  -7 -11    2.15    0.28
   6  -7 -11    2.29    0.22
   6  -7 -11    2.26    0.21
   5  -7 -11    0.12    0.25
   5  -7 -11    0.50    0.11
   5  -7 -11    0.64    0.13
   4  -7 -11    3.03    0.41
   4  -7 -11    3.02    0.34
   4  -7 -11    3.53    0.31
   3  -7 -11    6.29    0.48
   3  -7 -11    5.40    0.55
   2  -7 -11    3.78    0.26
   2  -7 -11    3.58    0.34
   2  -7 -11    4.35    0.38
   1  -7 -11    2.55    0.21
  -1   7  11    2.66    0.21
   0  -7 -11    0.44    0.08
   0   7  11    0.37    0.10
   6  -8 -11    0.48    0.09
   6  -8 -11    0.31    0.12
   5  -8 -11    0.19    0.14
   5  -8 -11    0.23    0.09
   4  -8 -11    0.12    0.13
   4  -8 -11    0.41    0.10
   4  -8 -11    0.45    0.15
   3  -8 -11    3.88    0.36
   3  -8 -11    4.30    0.34
   2  -8 -11    2.64    0.26
   2  -8 -11    2.35    0.23
   1   8 -12    0.20    0.11
   0   8 -12    0.09    0.08
   0  -8  12    0.08    0.09
  -1   8 -12    0.17    0.08
   1  -8  12    0.01    0.11
   2  -8  12    0.36    0.11
   2  -8  12    0.11    0.19
   2  -8  12    0.27    0.08
   3  -8  12    0.56    0.12
   3  -8  12    0.19    0.11
   4  -8  12    5.34    0.45
   3   7 -12    0.99    0.15
   3   7 -12    1.51    0.17
   2   7 -12    0.46    0.16
   2   7 -12    1.11    0.21
   1   7 -12    0.76    0.18
   1   7 -12    1.30    0.25
   1   7 -12    1.41    0.14
   0  -7  12    0.28    0.18
  -1   7 -12   -0.03    0.16
   1  -7  12   -0.06    0.16
   2  -7  12    0.03    0.12
   2  -7  12    0.00    0.13
   2  -7  12    0.07    0.25
   3  -7  12    2.58    0.29
   3  -7  12    2.91    0.35
   4  -7  12    1.45    0.21
   4  -7  12    1.15    0.22
   4  -7  12    1.99    0.23
   5  -7  12    0.10    0.09
   5  -7  12    0.36    0.10
   4   6 -12    0.07    0.11
   4   6 -12    0.05    0.10
   4   6 -12    0.01    0.08
   3   6 -12    3.42    0.37
   3   6 -12    4.10    0.37
   3   6 -12    4.04    0.38
   2   6 -12    6.24    0.51
   2   6 -12    5.52    0.36
   2   6 -12    5.81    0.46
   0   6 -12    4.94    0.34
   0  -6  12    4.49    0.38
   1  -6  12    2.36    0.23
   2  -6  12    0.87    0.18
   2  -6  12    1.09    0.31
   3  -6  12    1.95    0.26
   3  -6  12    1.57    0.15
   3  -6  12    2.23    0.25
   4  -6  12    0.49    0.19
   4  -6  12    0.77    0.17
   4  -6  12    0.84    0.15
   5  -6  12    1.68    0.22
   5  -6  12    2.13    0.21
   5   5 -12    1.14    0.16
   5   5 -12    1.26    0.17
   4   5 -12    0.20    0.15
   4   5 -12   -0.05    0.12
   4   5 -12    0.20    0.19
   3   5 -12   10.79    0.80
   3   5 -12   11.06    0.76
   3   5 -12   10.08    0.71
   2   5 -12    0.53    0.20
   1   5 -12    1.30    0.20
   0   5 -12   15.07    0.94
   1  -5  12    1.41    0.23
   2  -5  12    1.55    0.25
   2  -5  12    1.37    0.21
   3  -5  12    4.01    0.36
   3  -5  12    3.60    0.27
   4  -5  12    0.86    0.17
   4  -5  12    0.65    0.25
   4  -5  12    0.74    0.14
   4  -5  12    0.66    0.22
   5  -5  12    0.25    0.12
   5  -5  12    0.28    0.14
   5  -5  12    0.15    0.10
   5  -5  12    0.11    0.10
   6  -5  12    0.35    0.09
   6  -5  12    0.21    0.10
   6   4 -12    5.30    0.44
   6   4 -12    5.13    0.34
   5   4 -12   -0.02    0.21
   5   4 -12    0.20    0.12
   4   4 -12    0.35    0.21
   4   4 -12    0.07    0.23
   4   4 -12    0.00    0.19
   3   4 -12    0.30    0.23
   3   4 -12    0.22    0.16
   3   4 -12   -0.01    0.23
   3   4 -12    0.19    0.09
   2   4 -12    2.26    0.62
   2   4 -12    3.80    0.39
   2   4 -12    3.09    0.27
   1   4 -12    2.63    0.27
   0   4 -12    2.69    0.29
   1  -4  12    0.86    0.23
   2  -4  12    0.49    0.19
   2  -4  12    0.71    0.21
   3  -4  12    0.17    0.19
   3  -4  12    0.25    0.25
   3  -4  12   -0.08    0.13
   4  -4  12    5.04    0.42
   4  -4  12    5.99    0.43
   4  -4  12    5.06    0.50
   4  -4  12    5.78    0.48
   5  -4  12    0.13    0.13
   5  -4  12   -0.01    0.20
   5  -4  12    0.29    0.14
   6  -4  12    2.62    0.23
   7   3 -12    0.11    0.07
   7   3 -12    0.07    0.12
   6   3 -12    4.02    0.38
   6   3 -12    4.54    0.32
   5   3 -12   10.80    0.70
   5   3 -12   10.31    0.67
   5   3 -12    9.98    0.81
   5   3 -12   11.03    0.77
   4   3 -12    0.42    0.20
   4   3 -12    0.35    0.22
   4   3 -12    0.51    0.20
   4   3 -12    0.48    0.25
   3   3 -12    0.16    0.18
   3   3 -12   -0.10    0.44
   3   3 -12    0.31    0.22
   3   3 -12    0.01    0.23
   3   3 -12    0.29    0.11
   2   3 -12   13.21    0.91
   2   3 -12   13.96    1.29
   2   3 -12   13.96    0.79
   2   3 -12   10.47    1.06
   2   3 -12   10.86    0.99
   1   3 -12    0.83    0.19
   0   3 -12    2.22    0.26
   1  -3  12   23.58    1.41
   2  -3  12    0.27    0.21
   2  -3  12    0.41    0.19
   2  -3  12    0.24    0.19
   3  -3  12   11.25    0.87
   3  -3  12   11.91    0.86
   3  -3  12   12.36    0.73
   4  -3  12   11.30    0.75
   4  -3  12   11.02    0.76
   4  -3  12   10.06    0.78
   5  -3  12    0.46    0.16
   5  -3  12    0.54    0.13
   5  -3  12    0.49    0.16
   6  -3  12    5.62    0.46
   6  -3  12    6.57    0.41
   7   2 -12    4.52    0.40
   7   2 -12    3.86    0.36
   6   2 -12    2.46    0.35
   6   2 -12    3.44    0.26
   6   2 -12    2.82    0.32
   6   2 -12    3.26    0.40
   5   2 -12    4.52    0.38
   5   2 -12    4.36    0.45
   5   2 -12    4.54    0.47
   5   2 -12    4.32    0.45
   5   2 -12    4.33    0.32
   4   2 -12    0.68    0.40
   4   2 -12    0.48    0.20
   4   2 -12    0.60    0.20
   4   2 -12    0.31    0.22
   4   2 -12    0.56    0.49
   4   2 -12    0.48    0.18
   3   2 -12   22.75    1.38
   3   2 -12   23.16    1.60
   3   2 -12   24.14    1.98
   3   2 -12   20.29    1.86
   3   2 -12   24.72    1.53
   3   2 -12   24.66    1.68
   3   2 -12   22.42    1.45
   3   2 -12   24.40    1.73
   2   2 -12    3.30    0.40
   2   2 -12    2.79    0.34
   2   2 -12    3.39    0.26
   2   2 -12    2.60    0.45
   2   2 -12    2.64    0.46
   1   2 -12   -0.16    0.34
   1   2 -12   -0.03    0.15
   1  -2  12    5.19    0.37
   2  -2  12   12.07    0.80
   2  -2  12   13.96    0.93
   3  -2  12   21.65    1.31
   3  -2  12   22.11    1.44
   3  -2  12   23.34    1.52
   3  -2  12   20.93    1.41
   4  -2  12    0.09    0.22
   4  -2  12    0.08    0.16
   4  -2  12   -0.07    0.25
   5  -2  12    0.62    0.22
   5  -2  12    0.55    0.20
   5  -2  12    0.48    0.10
   6  -2  12   11.88    0.73
   8   1 -12    0.40    0.16
   7   1 -12    3.34    0.43
   7   1 -12    4.78    0.37
   7   1 -12    4.42    0.39
   6   1 -12   -0.12    0.22
   6   1 -12    0.10    0.13
   6   1 -12    0.36    0.25
   6   1 -12    0.13    0.16
   5   1 -12    2.58    0.31
   5   1 -12    2.33    0.24
   5   1 -12    1.27    0.50
   5   1 -12    1.99    0.22
   5   1 -12    2.86    0.34
   5   1 -12    2.01    0.32
   4   1 -12    9.23    0.71
   4   1 -12    7.32    0.69
   4   1 -12    8.87    0.66
   4   1 -12    6.63    0.91
   4   1 -12    9.01    0.60
   4   1 -12    7.99    0.59
   4   1 -12    7.14    0.90
   4   1 -12    8.46    0.67
   3   1 -12    0.44    0.22
   3   1 -12    0.04    0.40
   3   1 -12    0.22    0.19
   3   1 -12    0.61    0.12
   3   1 -12    0.56    0.21
   3   1 -12    0.33    0.27
   3   1 -12    0.33    0.47
   3   1 -12    0.46    0.27
   2   1 -12    0.80    0.32
   2   1 -12    1.34    0.45
   2   1 -12    1.78    0.18
   2   1 -12    1.66    0.26
   2   1 -12    1.29    0.38
   1   1 -12    0.52    0.34
   1   1 -12    0.59    0.33
   1   1 -12    1.05    0.18
   1  -1  12    2.39    0.26
   2  -1  12    1.59    0.21
   3  -1  12    2.21    0.21
   3  -1  12    2.13    0.32
   3  -1  12    2.39    0.32
   4  -1  12    2.65    0.33
   4  -1  12    2.61    0.33
   4  -1  12    2.33    0.31
   5  -1  12    0.86    0.17
   5  -1  12    0.51    0.21
   5  -1  12    0.74    0.11
   6  -1  12    2.14    0.20
   6  -1  12    2.21    0.18
   8   0 -12    0.02    0.13
   8   0 -12    0.07    0.10
   8   0 -12    0.07    0.16
   7   0 -12    0.23    0.18
   7   0 -12   -0.01    0.16
   7   0 -12    0.08    0.26
   6   0 -12    2.57    0.29
   6   0 -12    2.00    0.33
   6   0 -12    2.24    0.34
   6   0 -12    2.71    0.24
   5   0 -12    0.92    0.14
   5   0 -12    0.42    0.51
   5   0 -12    1.08    0.19
   5   0 -12    0.89    0.24
   5   0 -12    0.98    0.27
   5   0 -12    1.17    0.28
   5   0 -12    0.53    0.19
   5   0 -12    1.09    0.22
   4   0 -12    1.04    0.28
   4   0 -12    1.52    0.21
   4   0 -12    1.09    0.27
   4   0 -12    1.66    0.24
   4   0 -12    1.27    0.22
   4   0 -12    1.68    0.28
   4   0 -12    1.40    0.21
   4   0 -12    1.09    0.55
   4   0 -12    1.46    0.23
   3   0 -12    7.15    0.82
   3   0 -12    6.55    0.66
   3   0 -12    6.86    0.45
   3   0 -12    7.42    0.55
   3   0 -12    7.33    0.61
   3   0 -12    8.50    0.66
   3   0 -12    6.42    0.52
   2   0 -12    0.56    0.41
   2   0 -12    0.62    0.33
   2   0 -12    0.89    0.15
   2   0 -12    0.49    0.30
   2   0 -12    0.72    0.23
   1   0 -12   13.61    0.81
   1   0 -12   11.83    1.06
   1   0  12    5.81    0.42
   2   0  12    5.99    0.42
   2   0  12    5.87    0.55
   3   0  12   -0.06    0.12
   3   0  12    0.11    0.25
   3   0  12   -0.12    0.24
   4   0  12    4.47    0.43
   4   0  12    4.62    0.45
   4   0  12    4.54    0.40
   5   0  12    1.09    0.16
   5   0  12    0.61    0.14
   9  -1 -12    9.71    0.73
   8  -1 -12    0.11    0.14
   8  -1 -12    0.33    0.24
   7  -1 -12    3.03    0.31
   7  -1 -12    2.17    0.28
   7  -1 -12    1.78    0.34
   6  -1 -12    3.70    0.43
   6  -1 -12    3.02    0.37
   6  -1 -12    3.32    0.39
   6  -1 -12    3.22    0.29
   5  -1 -12    9.22    0.67
   5  -1 -12    9.11    0.76
   5  -1 -12    8.92    0.61
   5  -1 -12    8.38    1.00
   5  -1 -12    9.64    0.61
   5  -1 -12    8.17    0.64
   5  -1 -12   10.41    0.78
   4  -1 -12   41.22    2.58
   4  -1 -12   44.67    2.95
   4  -1 -12   41.56    2.90
   4  -1 -12   37.80    3.06
   4  -1 -12   41.47    2.57
   4  -1 -12   37.56    2.69
   4  -1 -12   38.94    2.55
   4  -1 -12   40.32    2.44
   3  -1 -12    0.82    0.19
   3  -1 -12    0.88    0.22
   3  -1 -12    0.31    0.27
   3  -1 -12    0.61    0.13
   3  -1 -12    0.79    0.22
   3  -1 -12    0.54    0.29
   3  -1 -12    1.04    0.53
   2  -1 -12    1.64    0.18
   2  -1 -12    1.28    0.26
   2  -1 -12    1.08    0.29
   2  -1 -12    1.61    0.52
   2  -1 -12    1.33    0.38
   1  -1 -12   12.18    0.77
   1  -1 -12   12.51    1.11
   1   1  12    3.85    0.30
   2   1  12   18.43    1.23
   2   1  12   17.92    1.10
   3   1  12    0.18    0.24
   3   1  12   -0.13    0.13
   4   1  12    0.91    0.20
   4   1  12    0.79    0.22
   4   1  12    0.92    0.17
   4   1  12    0.88    0.21
   5   1  12    0.88    0.14
   5   1  12    1.08    0.14
   5   1  12    1.07    0.13
   9  -2 -12    0.10    0.15
   9  -2 -12    0.04    0.09
   8  -2 -12    0.70    0.16
   8  -2 -12    0.53    0.16
   8  -2 -12    0.43    0.19
   7  -2 -12    0.60    0.25
   7  -2 -12    0.43    0.24
   7  -2 -12    0.55    0.21
   6  -2 -12    0.31    0.21
   6  -2 -12    0.27    0.14
   6  -2 -12   -0.02    0.16
   6  -2 -12    0.41    0.26
   5  -2 -12   13.65    0.91
   5  -2 -12   13.14    1.26
   5  -2 -12   15.12    1.10
   5  -2 -12   14.97    0.89
   5  -2 -12   13.95    1.08
   5  -2 -12   13.28    0.94
   4  -2 -12    9.06    0.67
   4  -2 -12    8.40    1.01
   4  -2 -12    8.42    0.74
   4  -2 -12    8.79    0.63
   4  -2 -12    9.90    0.76
   4  -2 -12    8.76    0.73
   4  -2 -12    9.62    0.75
   3  -2 -12    8.97    0.69
   3  -2 -12    9.87    0.59
   3  -2 -12    9.99    0.82
   3  -2 -12    8.87    0.76
   3  -2 -12    9.67    0.65
   3  -2 -12    9.57    1.01
   3  -2 -12    9.16    0.78
   2  -2 -12    0.23    0.32
   2  -2 -12    0.26    0.20
   2  -2 -12    0.10    0.22
   2  -2 -12    0.50    0.48
   2  -2 -12   -0.10    0.27
   2  -2 -12   -0.12    0.16
   1  -2 -12    6.47    0.45
   1  -2 -12    6.34    0.78
   0  -2 -12    0.06    0.17
   1   2  12    2.75    0.27
   2   2  12    0.32    0.15
   2   2  12    0.07    0.19
   2   2  12    0.15    0.25
   3   2  12    0.46    0.23
   3   2  12    0.34    0.09
   3   2  12    0.48    0.20
   4   2  12    0.53    0.14
   4   2  12    0.55    0.15
   4   2  12    0.78    0.13
   4   2  12    0.79    0.14
   9  -3 -12    0.09    0.09
   9  -3 -12   -0.05    0.12
   8  -3 -12    0.81    0.17
   8  -3 -12    0.67    0.15
   8  -3 -12    0.48    0.19
   7  -3 -12    0.10    0.21
   7  -3 -12    0.34    0.23
   7  -3 -12    0.32    0.21
   6  -3 -12    0.58    0.26
   6  -3 -12    1.56    0.21
   6  -3 -12    1.11    0.17
   6  -3 -12    1.54    0.26
   5  -3 -12    2.26    0.61
   5  -3 -12    3.03    0.40
   5  -3 -12    3.20    0.32
   5  -3 -12    3.29    0.27
   5  -3 -12    3.18    0.37
   5  -3 -12    3.29    0.35
   4  -3 -12   -0.07    0.24
   4  -3 -12    0.21    0.21
   4  -3 -12    0.86    0.57
   4  -3 -12    0.48    0.19
   4  -3 -12    0.47    0.19
   4  -3 -12    0.47    0.27
   3  -3 -12    0.35    0.19
   3  -3 -12    0.20    0.29
   3  -3 -12    0.75    0.25
   3  -3 -12    0.56    0.13
   3  -3 -12    0.60    0.30
   3  -3 -12    0.36    0.22
   3  -3 -12    0.57    0.53
   2  -3 -12    1.19    0.53
   2  -3 -12    1.64    0.19
   2  -3 -12    1.33    0.27
   2  -3 -12    0.63    0.34
   2  -3 -12    1.54    0.21
   2  -3 -12    0.92    0.30
   1  -3 -12    1.42    0.19
   1  -3 -12    0.65    0.51
   0  -3 -12    5.33    0.39
   0   3  12    4.91    0.39
   1   3  12   17.28    1.02
   1   3  12   16.06    1.14
   2   3  12    0.09    0.23
   2   3  12   -0.07    0.13
   2   3  12    0.33    0.20
   3   3  12    0.60    0.20
   4   3  12    0.89    0.13
   4   3  12    0.98    0.11
   4   3  12    0.66    0.13
   9  -4 -12    1.50    0.18
   8  -4 -12    0.24    0.18
   8  -4 -12    0.16    0.14
   7  -4 -12    2.64    0.32
   7  -4 -12    3.23    0.43
   7  -4 -12    3.84    0.36
   6  -4 -12    7.07    0.49
   6  -4 -12    6.51    0.54
   6  -4 -12    6.62    0.59
   6  -4 -12    7.52    0.65
   5  -4 -12    0.30    0.29
   5  -4 -12    0.20    0.20
   5  -4 -12    0.08    0.17
   5  -4 -12    0.46    0.14
   5  -4 -12    0.24    0.15
   4  -4 -12    0.35    0.58
   4  -4 -12    0.57    0.19
   4  -4 -12    0.45    0.19
   4  -4 -12    0.24    0.19
   4  -4 -12    0.67    0.29
   3  -4 -12    2.99    0.42
   3  -4 -12    1.59    0.63
   3  -4 -12    3.39    0.36
   3  -4 -12    3.13    0.36
   3  -4 -12    3.13    0.23
   2  -4 -12    0.10    0.17
   2  -4 -12    0.12    0.14
   2  -4 -12    0.18    0.16
   2  -4 -12   -0.03    0.51
   1  -4 -12    0.71    0.16
   0  -4 -12    0.88    0.18
   0   4  12    1.14    0.19
   1   4  12    0.22    0.15
   2   4  12    0.67    0.17
   2   4  12    0.81    0.12
   2   4  12    0.88    0.16
   3   4  12    0.28    0.15
   3   4  12    0.23    0.11
   8  -5 -12    2.63    0.29
   8  -5 -12    2.59    0.25
   7  -5 -12    1.40    0.24
   7  -5 -12    1.24    0.19
   6  -5 -12    1.60    0.25
   6  -5 -12    2.57    0.24
   6  -5 -12    2.34    0.32
   5  -5 -12    2.41    0.29
   5  -5 -12    2.41    0.23
   5  -5 -12    2.28    0.36
   4  -5 -12    9.69    0.77
   4  -5 -12    9.93    0.64
   4  -5 -12    9.15    0.68
   3  -5 -12    6.88    0.63
   3  -5 -12    7.07    0.50
   3  -5 -12    7.25    0.55
   3  -5 -12    6.63    0.43
   2  -5 -12    5.73    0.50
   2  -5 -12    5.60    0.54
   2  -5 -12    5.54    0.38
   1  -5 -12    1.96    0.22
   0  -5 -12    0.17    0.15
   0   5  12    0.42    0.16
  -1  -5 -12    2.16    0.23
   1   5  12    2.53    0.26
   2   5  12    0.21    0.16
   2   5  12    0.14    0.11
   8  -6 -12    2.55    0.30
   8  -6 -12    3.63    0.25
   7  -6 -12    2.23    0.27
   7  -6 -12    2.36    0.34
   6  -6 -12    0.44    0.13
   6  -6 -12    0.38    0.13
   6  -6 -12   -0.06    0.25
   5  -6 -12   10.49    0.71
   5  -6 -12   11.21    0.71
   5  -6 -12   10.71    0.85
   4  -6 -12    1.63    0.25
   4  -6 -12    1.61    0.23
   4  -6 -12    1.00    0.20
   3  -6 -12    2.92    0.33
   3  -6 -12    2.27    0.17
   3  -6 -12    1.97    0.30
   2  -6 -12    0.37    0.21
   2  -6 -12    0.69    0.25
   2  -6 -12    0.53    0.12
   1  -6 -12    3.56    0.27
   0  -6 -12    1.18    0.14
   0   6  12    0.94    0.15
  -1  -6 -12    0.52    0.09
   1   6  12    0.59    0.18
   1   6  12    0.55    0.16
   1   6  12    0.85    0.09
   7  -7 -12    2.20    0.24
   6  -7 -12   -0.09    0.15
   6  -7 -12    0.05    0.10
   5  -7 -12    0.61    0.17
   5  -7 -12    0.94    0.13
   4  -7 -12    0.13    0.14
   4  -7 -12    0.09    0.16
   4  -7 -12   -0.09    0.16
   3  -7 -12    3.46    0.32
   3  -7 -12    2.95    0.33
   2  -7 -12    1.90    0.22
   2  -7 -12    1.68    0.25
   2  -7 -12    1.54    0.13
   1  -7 -12    0.49    0.09
   1  -7 -12    0.85    0.16
  -1   7  12    0.55    0.10
   0  -7 -12    0.05    0.05
   0   7  12    0.08    0.05
   5  -8 -12    9.58    0.71
   4  -8 -12    1.43    0.13
   4  -8 -12    1.38    0.16
   3  -8 -12    0.30    0.09
   3  -8 -12    0.27    0.12
   0   8 -13    0.03    0.04
   0  -8  13    0.03    0.07
  -1   8 -13    0.66    0.09
   1  -8  13    0.51    0.07
   3   7 -13    1.78    0.16
   2   7 -13    0.09    0.09
   2   7 -13    0.04    0.12
   1   7 -13    3.22    0.22
   1   7 -13    3.16    0.28
   1   7 -13    2.96    0.37
   0  -7  13    7.89    0.50
  -1   7 -13    0.71    0.16
   1  -7  13    0.76    0.16
   2  -7  13    9.14    0.62
   2  -7  13    8.52    0.68
   2  -7  13    8.20    0.52
   3  -7  13    1.29    0.19
   3  -7  13    0.97    0.22
   4  -7  13    3.41    0.29
   4  -7  13    2.94    0.25
   4   6 -13   12.40    0.81
   4   6 -13   11.18    0.73
   3   6 -13    0.45    0.13
   3   6 -13    0.35    0.14
   3   6 -13    0.37    0.16
   2   6 -13    0.08    0.18
   2   6 -13    0.01    0.06
   2   6 -13    0.13    0.21
   1   6 -13    1.18    0.22
   0   6 -13    2.25    0.25
   0  -6  13    2.36    0.23
  -1   6 -13    1.50    0.23
   1  -6  13    2.00    0.24
   2  -6  13    3.45    0.28
   2  -6  13    3.96    0.44
   3  -6  13    0.65    0.15
   3  -6  13    0.47    0.17
   3  -6  13    0.27    0.07
   4  -6  13    2.18    0.24
   4  -6  13    2.21    0.26
   5  -6  13    0.61    0.11
   5   5 -13    0.08    0.11
   5   5 -13    0.10    0.12
   4   5 -13    2.97    0.25
   4   5 -13    3.11    0.32
   4   5 -13    2.70    0.29
   3   5 -13   10.67    0.72
   3   5 -13    8.88    0.70
   3   5 -13   10.49    0.76
   2   5 -13    0.06    0.18
   1   5 -13    2.95    0.27
   0   5 -13   16.07    0.96
   0  -5  13   14.65    0.97
   1  -5  13    7.05    0.47
   2  -5  13    1.32    0.20
   2  -5  13    1.06    0.30
   3  -5  13    7.54    0.51
   3  -5  13   10.11    0.65
   4  -5  13    0.40    0.17
   4  -5  13    0.34    0.14
   4  -5  13    0.27    0.16
   5  -5  13   -0.07    0.11
   5  -5  13   -0.04    0.11
   5  -5  13    0.04    0.17
   6   4 -13    0.59    0.12
   5   4 -13    0.74    0.17
   5   4 -13    0.53    0.22
   4   4 -13    5.47    0.46
   4   4 -13    5.83    0.52
   4   4 -13    5.57    0.43
   3   4 -13   15.59    0.96
   3   4 -13   14.54    1.03
   3   4 -13   17.32    1.11
   3   4 -13   18.43    1.16
   2   4 -13    3.27    0.38
   2   4 -13    3.08    0.26
   1   4 -13    4.31    0.35
   0   4 -13   20.98    1.28
   1  -4  13    8.09    0.55
   2  -4  13   22.66    1.47
   2  -4  13   27.11    1.64
   3  -4  13    2.70    0.23
   3  -4  13    2.93    0.32
   3  -4  13    2.48    0.32
   4  -4  13   -0.04    0.18
   4  -4  13    0.44    0.13
   4  -4  13    0.54    0.17
   4  -4  13    0.40    0.19
   5  -4  13   13.37    0.81
   5  -4  13   12.50    0.89
   7   3 -13    0.82    0.12
   6   3 -13    0.20    0.10
   6   3 -13    0.14    0.13
   6   3 -13    0.17    0.15
   5   3 -13    0.07    0.16
   5   3 -13    0.08    0.18
   5   3 -13    0.19    0.17
   4   3 -13    0.14    0.18
   4   3 -13   -0.23    0.22
   4   3 -13    0.21    0.23
   4   3 -13    0.23    0.22
   3   3 -13    5.96    0.39
   3   3 -13    6.05    0.52
   3   3 -13    6.88    0.54
   2   3 -13    5.95    0.40
   2   3 -13    5.52    0.83
   2   3 -13    5.73    0.54
   1   3 -13    9.82    0.64
   0   3 -13    6.29    0.43
   1  -3  13    0.39    0.22
   2  -3  13    4.66    0.44
   2  -3  13    4.90    0.37
   2  -3  13    5.34    0.44
   3  -3  13    3.26    0.40
   3  -3  13    3.01    0.23
   3  -3  13    3.01    0.37
   4  -3  13    1.93    0.25
   4  -3  13    1.84    0.24
   4  -3  13    1.72    0.23
   5  -3  13    0.64    0.14
   5  -3  13    0.26    0.06
   5  -3  13    0.40    0.19
   7   2 -13    0.17    0.11
   7   2 -13    0.26    0.12
   6   2 -13    2.06    0.21
   6   2 -13    2.99    0.35
   6   2 -13    2.05    0.25
   6   2 -13    1.70    0.24
   5   2 -13    1.16    0.16
   5   2 -13    1.17    0.20
   5   2 -13    0.54    0.23
   5   2 -13    0.73    0.11
   4   2 -13    0.30    0.21
   4   2 -13    0.20    0.19
   4   2 -13    0.04    0.14
   4   2 -13    0.11    0.21
   3   2 -13    0.77    0.34
   3   2 -13    0.45    0.46
   3   2 -13    1.31    0.16
   3   2 -13    1.87    0.27
   3   2 -13    1.91    0.27
   3   2 -13    1.69    0.26
   2   2 -13    1.60    0.24
   2   2 -13    0.63    0.34
   2   2 -13    1.37    0.19
   2   2 -13    0.70    0.38
   2   2 -13    1.05    0.27
   1   2 -13    0.71    0.19
   0   2 -13    2.28    0.22
   1  -2  13    2.65    0.29
   2  -2  13    5.22    0.54
   2  -2  13    5.75    0.40
   3  -2  13    0.66    0.14
   3  -2  13    0.71    0.27
   3  -2  13    0.61    0.24
   4  -2  13    2.57    0.31
   4  -2  13    2.46    0.29
   4  -2  13    2.56    0.28
   5  -2  13    3.68    0.33
   8   1 -13    0.61    0.15
   7   1 -13    7.30    0.56
   7   1 -13    7.18    0.58
   6   1 -13    9.75    0.69
   6   1 -13    9.83    0.59
   6   1 -13    7.51    0.70
   6   1 -13    8.92    0.74
   5   1 -13    7.11    0.58
   5   1 -13    6.18    0.43
   5   1 -13    5.32    0.54
   5   1 -13    6.40    0.54
   5   1 -13    5.98    0.46
   4   1 -13    4.56    0.44
   4   1 -13    4.04    0.39
   4   1 -13    3.70    0.37
   4   1 -13    3.05    0.69
   4   1 -13    4.17    0.42
   3   1 -13    3.10    0.23
   3   1 -13    2.42    0.42
   3   1 -13    2.88    0.35
   3   1 -13    1.77    0.41
   3   1 -13    3.16    0.36
   3   1 -13    1.64    0.51
   3   1 -13    3.46    0.38
   2   1 -13   10.82    0.60
   2   1 -13    8.61    0.82
   2   1 -13    8.39    0.70
   2   1 -13    8.63    0.81
   1   1 -13   16.02    0.98
   0   1 -13    7.98    0.54
   1  -1  13    0.06    0.14
   2  -1  13   16.24    1.03
   2  -1  13   13.47    0.89
   3  -1  13    1.22    0.22
   3  -1  13    1.21    0.17
   3  -1  13    1.35    0.29
   4  -1  13    2.99    0.30
   4  -1  13    2.16    0.31
   4  -1  13    3.03    0.32
   5  -1  13    4.82    0.39
   5  -1  13    3.95    0.32
   8   0 -13    0.39    0.18
   8   0 -13    1.61    0.19
   7   0 -13    4.49    0.48
   7   0 -13    4.71    0.38
   7   0 -13    5.30    0.44
   6   0 -13    0.42    0.19
   6   0 -13    0.26    0.16
   6   0 -13    0.27    0.18
   6   0 -13    0.28    0.24
   5   0 -13   32.64    1.90
   5   0 -13   29.31    2.26
   5   0 -13   32.33    1.98
   5   0 -13   32.29    2.31
   5   0 -13   30.48    2.10
   4   0 -13   99.01    5.98
   4   0 -13   98.19    5.67
   4   0 -13   95.32    6.71
   4   0 -13   95.76    6.82
   4   0 -13   95.72    6.83
   4   0 -13   88.73    6.23
   3   0 -13    0.45    0.32
   3   0 -13    0.25    0.27
   3   0 -13    0.67    0.12
   3   0 -13    0.48    0.23
   3   0 -13    0.65    0.20
   3   0 -13    0.22    0.22
   3   0 -13    0.75    0.50
   2   0 -13   11.17    0.65
   2   0 -13    8.50    0.89
   2   0 -13    9.80    0.76
   2   0 -13   10.79    0.86
   1   0 -13    3.15    0.29
   0   0 -13    0.38    0.13
   1   0  13   30.47    1.82
   2   0  13    2.95    0.27
   2   0  13    3.84    0.44
   3   0  13    0.73    0.12
   3   0  13    0.72    0.20
   4   0  13    1.02    0.24
   4   0  13    1.41    0.19
   4   0  13    1.10    0.16
   5   0  13    2.42    0.26
   5   0  13    2.44    0.21
   8  -1 -13    2.83    0.27
   8  -1 -13    1.82    0.27
   7  -1 -13    4.47    0.45
   7  -1 -13    4.01    0.40
   6  -1 -13    0.13    0.21
   6  -1 -13    0.15    0.13
   6  -1 -13    0.20    0.26
   6  -1 -13    0.26    0.18
   5  -1 -13    9.70    0.70
   5  -1 -13   10.40    0.69
   5  -1 -13   10.66    0.68
   5  -1 -13   10.22    0.84
   5  -1 -13   11.24    0.86
   4  -1 -13    0.23    0.18
   4  -1 -13    0.13    0.25
   4  -1 -13    0.24    0.18
   4  -1 -13    0.17    0.24
   4  -1 -13    0.34    0.23
   4  -1 -13    0.70    0.56
   3  -1 -13    0.75    0.31
   3  -1 -13    0.98    0.34
   3  -1 -13    1.30    0.16
   3  -1 -13    1.47    0.23
   3  -1 -13    1.23    0.25
   3  -1 -13    1.03    0.42
   2  -1 -13    1.57    0.28
   2  -1 -13    0.67    0.34
   2  -1 -13    1.42    0.18
   2  -1 -13    0.85    0.49
   2  -1 -13    0.81    0.36
   1  -1 -13    5.51    0.40
   0  -1 -13    1.10    0.19
   1   1  13    1.79    0.23
   2   1  13   36.32    2.40
   2   1  13   38.13    2.20
   3   1  13    6.34    0.49
   3   1  13    5.24    0.35
   4   1  13    0.20    0.12
   4   1  13    0.28    0.20
   4   1  13    0.06    0.15
   9  -2 -13    0.00    0.12
   8  -2 -13    0.34    0.16
   8  -2 -13    0.47    0.14
   7  -2 -13    0.15    0.26
   7  -2 -13   -0.01    0.15
   7  -2 -13   -0.13    0.22
   6  -2 -13    0.11    0.25
   6  -2 -13   -0.26    0.27
   6  -2 -13    0.04    0.12
   6  -2 -13    0.10    0.15
   5  -2 -13    1.97    0.25
   5  -2 -13    2.31    0.34
   5  -2 -13    1.97    0.26
   5  -2 -13    1.86    0.21
   5  -2 -13    2.01    0.29
   4  -2 -13    1.26    0.22
   4  -2 -13    0.43    0.56
   4  -2 -13    1.12    0.27
   4  -2 -13    0.90    0.25
   4  -2 -13    1.04    0.21
   4  -2 -13    0.80    0.28
   3  -2 -13    3.33    0.39
   3  -2 -13    3.45    0.75
   3  -2 -13    3.12    0.38
   3  -2 -13    3.98    0.27
   3  -2 -13    3.24    0.40
   3  -2 -13    2.24    0.43
   2  -2 -13    0.51    0.24
   2  -2 -13    0.05    0.30
   2  -2 -13    0.29    0.15
   2  -2 -13    0.30    0.36
   2  -2 -13    0.39    0.50
   1  -2 -13    4.06    0.33
   0  -2 -13    5.75    0.42
   1   2  13    0.88    0.20
   2   2  13    0.11    0.25
   2   2  13   -0.07    0.13
   3   2  13    1.40    0.24
   3   2  13    1.69    0.22
   4   2  13    5.48    0.38
   4   2  13    5.77    0.39
   9  -3 -13    0.11    0.12
   8  -3 -13    1.27    0.17
   8  -3 -13    1.08    0.20
   8  -3 -13    1.25    0.21
   7  -3 -13   -0.20    0.26
   7  -3 -13    0.22    0.21
   7  -3 -13    0.27    0.20
   6  -3 -13    7.39    0.59
   6  -3 -13    8.63    0.53
   6  -3 -13    8.32    0.71
   6  -3 -13    7.90    0.69
   5  -3 -13    6.81    0.51
   5  -3 -13    7.08    0.62
   5  -3 -13    6.81    0.48
   5  -3 -13    7.38    0.60
   4  -3 -13    0.40    0.20
   4  -3 -13    0.48    0.23
   4  -3 -13    0.40    0.62
   4  -3 -13    0.23    0.18
   4  -3 -13    0.54    0.21
   3  -3 -13    0.91    0.22
   3  -3 -13    1.07    0.27
   3  -3 -13    0.33    0.57
   3  -3 -13    0.79    0.13
   3  -3 -13    1.32    0.25
   2  -3 -13    0.04    0.13
   2  -3 -13    0.03    0.23
   2  -3 -13   -0.04    0.49
   2  -3 -13    0.19    0.22
   1  -3 -13    6.87    0.47
   0  -3 -13    2.10    0.20
   0   3  13    1.60    0.23
   1   3  13   11.64    0.73
   2   3  13    0.18    0.16
   2   3  13   -0.07    0.11
   2   3  13    0.04    0.17
   3   3  13    0.87    0.18
   8  -4 -13    3.01    0.32
   8  -4 -13    3.43    0.27
   7  -4 -13    6.45    0.53
   7  -4 -13    5.56    0.43
   7  -4 -13    4.39    0.45
   6  -4 -13   12.03    0.91
   6  -4 -13   11.10    0.77
   6  -4 -13   11.72    0.71
   6  -4 -13   10.23    0.87
   5  -4 -13    3.28    0.37
   5  -4 -13    3.23    0.29
   5  -4 -13    3.16    0.36
   5  -4 -13    3.68    0.34
   4  -4 -13   -0.01    0.20
   4  -4 -13   -0.09    0.18
   4  -4 -13   -0.14    0.18
   4  -4 -13    0.18    0.19
   3  -4 -13   10.79    0.64
   3  -4 -13   10.59    0.77
   3  -4 -13    9.33    0.72
   3  -4 -13   11.63    0.86
   2  -4 -13    2.35    0.33
   2  -4 -13    1.83    0.30
   2  -4 -13    2.42    0.22
   1  -4 -13    0.09    0.15
   1  -4 -13    0.22    0.15
   0  -4 -13    0.27    0.16
   0   4  13    0.11    0.17
   1   4  13    0.43    0.15
   1   4  13    0.96    0.15
   2   4  13    0.94    0.17
   2   4  13    1.46    0.17
   2   4  13    1.07    0.10
   3   4  13    2.13    0.19
   8  -5 -13    0.06    0.10
   8  -5 -13    0.09    0.13
   7  -5 -13   -0.07    0.16
   7  -5 -13   -0.08    0.17
   6  -5 -13    5.15    0.48
   6  -5 -13    5.62    0.38
   5  -5 -13    0.78    0.19
   5  -5 -13    0.75    0.13
   5  -5 -13    0.77    0.28
   4  -5 -13    0.15    0.18
   4  -5 -13    0.02    0.18
   4  -5 -13    0.15    0.19
   3  -5 -13    0.00    0.09
   3  -5 -13    0.00    0.13
   3  -5 -13    0.21    0.25
   3  -5 -13   -0.18    0.20
   2  -5 -13    1.08    0.19
   2  -5 -13    0.83    0.14
   2  -5 -13    1.14    0.21
   1  -5 -13    0.22    0.14
   1  -5 -13    0.44    0.17
   0  -5 -13    0.45    0.11
   0   5  13    0.42    0.11
  -1  -5 -13    0.79    0.11
   1   5  13    0.74    0.13
   1   5  13    0.69    0.12
   2   5  13    0.09    0.09
   7  -6 -13    0.09    0.09
   7  -6 -13    0.07    0.21
   6  -6 -13    0.94    0.27
   6  -6 -13    1.64    0.18
   5  -6 -13    0.86    0.26
   5  -6 -13    0.98    0.12
   5  -6 -13    0.64    0.18
   4  -6 -13   -0.06    0.17
   4  -6 -13   -0.27    0.16
   4  -6 -13   -0.08    0.15
   3  -6 -13    9.18    0.70
   3  -6 -13    8.40    0.64
   2  -6 -13   11.66    0.74
   2  -6 -13    8.49    0.78
   2  -6 -13   10.95    0.62
   1  -6 -13    0.28    0.20
   1  -6 -13   -0.01    0.07
  -1   6  13    0.02    0.10
   0  -6 -13    2.65    0.19
   0   6  13    2.81    0.23
   0   6  13    2.49    0.19
   6  -7 -13    6.47    0.41
   5  -7 -13    3.94    0.36
   4  -7 -13    0.63    0.12
   4  -7 -13    0.32    0.16
   4  -7 -13    0.80    0.17
   3  -7 -13    3.75    0.41
   3  -7 -13    4.68    0.33
   2  -7 -13    4.95    0.41
   1  -7 -13    6.90    0.41
  -1   7  13    7.09    0.43
   2   7 -14    0.41    0.10
   1   7 -14   -0.03    0.09
   1   7 -14   -0.04    0.13
   1   7 -14    0.03    0.05
  -1  -7  14   -0.17    0.09
   0   7 -14    3.44    0.23
   0   7 -14    3.54    0.31
   0  -7  14    3.29    0.24
   1  -7  14    1.42    0.16
   1  -7  14    1.40    0.19
  -2   7 -14   -0.12    0.13
   2  -7  14    0.09    0.10
   2  -7  14   -0.02    0.14
   2  -7  14    0.06    0.06
   3  -7  14    0.23    0.14
   3  -7  14    0.98    0.13
   3   6 -14    0.02    0.12
   3   6 -14    0.00    0.09
   3   6 -14    0.07    0.11
   2   6 -14    0.76    0.15
   2   6 -14    0.48    0.16
   1   6 -14    2.90    0.32
   0   6 -14    0.01    0.15
   0  -6  14    0.17    0.19
  -1   6 -14    0.27    0.17
   1  -6  14    0.40    0.17
   2  -6  14    0.84    0.13
   2  -6  14    0.40    0.25
   3  -6  14    0.21    0.14
   3  -6  14    0.19    0.12
   4  -6  14    0.93    0.17
   4  -6  14    0.68    0.15
   5   5 -14    4.65    0.33
   5   5 -14    6.01    0.41
   4   5 -14   13.46    0.92
   4   5 -14   12.94    0.83
   4   5 -14   12.79    0.84
   3   5 -14    0.04    0.14
   3   5 -14   -0.04    0.18
   3   5 -14   -0.13    0.14
   2   5 -14    0.70    0.17
   2   5 -14    0.44    0.25
   1   5 -14    5.45    0.38
   0   5 -14    0.08    0.18
   0  -5  14   -0.10    0.20
  -1   5 -14    7.02    0.49
   1  -5  14    6.90    0.46
   2  -5  14    2.91    0.26
   2  -5  14    3.49    0.41
   3  -5  14    0.91    0.20
   3  -5  14    1.17    0.10
   3  -5  14    1.83    0.22
   4  -5  14    0.72    0.21
   4  -5  14    0.57    0.12
   4  -5  14    0.83    0.14
   5  -5  14    0.31    0.09
   6   4 -14    2.54    0.23
   5   4 -14    1.93    0.20
   5   4 -14    2.44    0.25
   4   4 -14    7.11    0.49
   4   4 -14    6.72    0.54
   4   4 -14    7.11    0.53
   3   4 -14    1.30    0.25
   3   4 -14    0.90    0.25
   2   4 -14    1.91    0.32
   2   4 -14    1.85    0.19
   1   4 -14    0.47    0.18
   0   4 -14    0.09    0.19
   0  -4  14    0.19    0.16
   1  -4  14    1.61    0.25
   2  -4  14    0.11    0.16
   2  -4  14    0.34    0.28
   3  -4  14    0.42    0.23
   3  -4  14    0.37    0.09
   3  -4  14    0.42    0.17
   4  -4  14    0.45    0.16
   4  -4  14    0.43    0.13
   4  -4  14    0.57    0.13
   5  -4  14    1.88    0.19
   5  -4  14    1.90    0.19
   6   3 -14    1.61    0.15
   6   3 -14    1.17    0.15
   6   3 -14    0.67    0.20
   5   3 -14    1.69    0.21
   5   3 -14    1.15    0.24
   5   3 -14    1.52    0.19
   4   3 -14    0.97    0.19
   4   3 -14    0.54    0.19
   4   3 -14    0.64    0.17
   4   3 -14    0.75    0.19
   3   3 -14    1.71    0.27
   3   3 -14    2.05    0.29
   3   3 -14    2.53    0.31
   2   3 -14    0.14    0.15
   2   3 -14    0.29    0.26
   1   3 -14    0.06    0.18
   0   3 -14    5.40    0.38
   1  -3  14    0.23    0.15
   2  -3  14    1.25    0.20
   2  -3  14    0.85    0.22
   2  -3  14    1.15    0.30
   3  -3  14    2.20    0.19
   3  -3  14    2.59    0.32
   3  -3  14    2.57    0.29
   4  -3  14    0.60    0.19
   4  -3  14    1.04    0.15
   4  -3  14    0.93    0.23
   5  -3  14    8.31    0.53
   5  -3  14    8.04    0.58
   7   2 -14    2.16    0.25
   6   2 -14    3.36    0.30
   6   2 -14    2.49    0.31
   6   2 -14    2.87    0.24
   5   2 -14    8.97    0.66
   5   2 -14    8.65    0.59
   5   2 -14    7.55    0.68
   4   2 -14    0.14    0.19
   4   2 -14   -0.16    0.21
   4   2 -14    0.12    0.21
   4   2 -14    0.12    0.21
   3   2 -14    0.08    0.23
   3   2 -14    0.04    0.11
   3   2 -14   -0.02    0.20
   3   2 -14    0.24    0.23
   2   2 -14    3.04    0.26
   2   2 -14    3.22    0.35
   2   2 -14    2.75    0.34
   2   2 -14    1.53    0.53
   1   2 -14    2.70    0.27
   0   2 -14   14.05    0.88
   1  -2  14   12.01    0.77
   2  -2  14    0.79    0.19
   2  -2  14    0.45    0.22
   3  -2  14    2.11    0.19
   3  -2  14    2.53    0.32
   3  -2  14    2.17    0.27
   4  -2  14    2.41    0.27
   4  -2  14    2.53    0.27
   5  -2  14    8.18    0.63
   5  -2  14    9.91    0.57
   7   1 -14   -0.01    0.12
   7   1 -14   -0.06    0.19
   7   1 -14    0.11    0.10
   6   1 -14    8.26    0.77
   6   1 -14   11.65    0.65
   6   1 -14    9.45    0.71
   6   1 -14   10.59    0.79
   5   1 -14    2.69    0.31
   5   1 -14    2.63    0.34
   5   1 -14    2.63    0.37
   5   1 -14    2.65    0.22
   4   1 -14    0.34    0.23
   4   1 -14    0.18    0.19
   4   1 -14    0.01    0.23
   4   1 -14    0.21    0.21
   3   1 -14   12.13    1.00
   3   1 -14   13.01    0.85
   3   1 -14   13.45    0.90
   3   1 -14   12.69    0.77
   2   1 -14    0.10    0.24
   2   1 -14   -0.03    0.38
   2   1 -14    0.15    0.16
   1   1 -14    0.11    0.17
   0   1 -14    3.36    0.31
   1  -1  14    0.27    0.20
   2  -1  14   -0.08    0.12
   2  -1  14   -0.17    0.27
   3  -1  14    5.65    0.44
   3  -1  14    4.45    0.38
   3  -1  14    3.90    0.29
   4  -1  14    0.03    0.15
   4  -1  14    0.11    0.19
   4  -1  14    0.14    0.17
   5  -1  14    0.09    0.13
   5  -1  14    0.09    0.09
   8   0 -14   -0.03    0.14
   8   0 -14    0.04    0.18
   7   0 -14   -0.03    0.14
   7   0 -14    0.00    0.20
   6   0 -14    0.43    0.18
   6   0 -14    0.78    0.19
   6   0 -14    0.64    0.14
   5   0 -14    0.14    0.22
   5   0 -14    0.34    0.25
   5   0 -14    0.22    0.11
   5   0 -14    0.15    0.19
   4   0 -14   11.36    0.76
   4   0 -14   11.26    0.92
   4   0 -14   11.56    0.79
   3   0 -14    0.48    0.23
   3   0 -14    0.30    0.23
   3   0 -14    0.11    0.21
   3   0 -14   -0.12    0.48
   3   0 -14    0.48    0.13
   2   0 -14   34.94    2.21
   2   0 -14   33.44    2.02
   1   0 -14    1.34    0.21
   0   0 -14    3.50    0.32
   1   0  14    0.06    0.19
   2   0  14   13.40    0.82
   2   0  14   13.11    0.94
   3   0  14    8.63    0.57
   3   0  14    6.74    0.45
   4   0  14    3.38    0.27
   4   0  14    2.36    0.23
   4   0  14    3.24    0.31
   8  -1 -14    0.09    0.14
   8  -1 -14   -0.03    0.11
   7  -1 -14    0.50    0.18
   7  -1 -14    0.63    0.17
   6  -1 -14    1.81    0.21
   6  -1 -14    1.27    0.29
   6  -1 -14    2.24    0.28
   5  -1 -14    0.58    0.13
   5  -1 -14    0.35    0.25
   5  -1 -14    0.43    0.26
   5  -1 -14    0.47    0.18
   4  -1 -14   14.32    1.11
   4  -1 -14   14.16    1.38
   4  -1 -14   16.52    1.17
   4  -1 -14   14.57    1.00
   4  -1 -14   15.03    0.96
   3  -1 -14    0.93    0.54
   3  -1 -14    1.73    0.26
   3  -1 -14    1.86    0.29
   3  -1 -14    2.13    0.19
   2  -1 -14   19.79    1.34
   2  -1 -14   20.07    1.20
   1  -1 -14    0.19    0.17
   0  -1 -14    3.46    0.31
   0   1  14    3.35    0.33
   1   1  14    7.34    0.50
   2   1  14   13.53    0.87
   2   1  14   11.86    0.77
   3   1  14    4.70    0.42
   4   1  14    1.08    0.14
   4   1  14    0.92    0.14
   4   1  14    0.66    0.14
   8  -2 -14    0.11    0.14
   8  -2 -14    0.40    0.13
   7  -2 -14    1.10    0.24
   6  -2 -14    5.74    0.54
   6  -2 -14    5.02    0.45
   6  -2 -14    5.89    0.41
   6  -2 -14    5.84    0.50
   5  -2 -14   14.84    1.04
   5  -2 -14   12.83    1.01
   5  -2 -14   12.85    0.84
   5  -2 -14   12.02    0.84
   4  -2 -14    0.65    0.21
   4  -2 -14    0.32    0.24
   4  -2 -14    0.64    0.20
   4  -2 -14    0.40    0.20
   3  -2 -14    0.54    0.22
   3  -2 -14    0.56    0.24
   3  -2 -14    0.69    0.43
   3  -2 -14    0.64    0.17
   3  -2 -14    0.59    0.14
   2  -2 -14    2.57    0.23
   2  -2 -14    0.56    0.54
   2  -2 -14    2.01    0.31
   1  -2 -14    0.33    0.12
   0  -2 -14   11.01    0.68
   0   2  14   10.09    0.67
   1   2  14    1.18    0.16
   2   2  14    0.01    0.12
   2   2  14   -0.11    0.23
   3   2  14    2.24    0.23
   3   2  14    2.61    0.29
   8  -3 -14    1.06    0.18
   8  -3 -14    1.26    0.16
   7  -3 -14    8.11    0.68
   7  -3 -14    8.41    0.57
   7  -3 -14    8.60    0.70
   6  -3 -14    0.67    0.21
   6  -3 -14    0.54    0.14
   6  -3 -14    0.56    0.14
   6  -3 -14    0.63    0.24
   5  -3 -14    0.67    0.28
   5  -3 -14    0.69    0.19
   5  -3 -14    0.66    0.13
   5  -3 -14    0.95    0.20
   4  -3 -14    1.03    0.22
   4  -3 -14    0.81    0.27
   4  -3 -14    1.30    0.22
   4  -3 -14    0.88    0.25
   3  -3 -14    5.24    0.34
   3  -3 -14    4.96    0.50
   3  -3 -14    5.29    0.46
   3  -3 -14    5.07    0.48
   2  -3 -14    6.70    0.45
   2  -3 -14    7.24    0.58
   2  -3 -14    6.31    0.58
   1  -3 -14   12.16    0.76
   0  -3 -14    1.20    0.19
   0   3  14    0.81    0.20
   1   3  14   -0.09    0.15
   2   3  14    0.44    0.09
   2   3  14    0.52    0.15
   3   3  14    0.64    0.14
   8  -4 -14    2.39    0.25
   7  -4 -14    0.46    0.15
   7  -4 -14    0.72    0.25
   7  -4 -14    0.47    0.16
   6  -4 -14    4.59    0.34
   6  -4 -14    4.92    0.48
   6  -4 -14    4.72    0.43
   5  -4 -14    1.21    0.24
   5  -4 -14    1.23    0.16
   5  -4 -14    1.13    0.29
   5  -4 -14    1.16    0.20
   4  -4 -14   -0.07    0.21
   4  -4 -14   -0.09    0.24
   4  -4 -14   -0.08    0.18
   4  -4 -14    0.15    0.19
   3  -4 -14    6.68    0.60
   3  -4 -14    6.14    0.42
   3  -4 -14    6.69    0.53
   3  -4 -14    8.06    0.56
   2  -4 -14    1.62    0.24
   2  -4 -14    1.89    0.19
   2  -4 -14    1.62    0.28
   1  -4 -14    2.28    0.23
   0  -4 -14    0.75    0.16
   0   4  14    0.74    0.17
  -1  -4 -14    0.53    0.11
   1   4  14    0.34    0.09
   2   4  14    0.07    0.11
   8  -5 -14    0.60    0.13
   7  -5 -14    0.36    0.16
   6  -5 -14    6.65    0.61
   6  -5 -14    7.48    0.47
   5  -5 -14    0.19    0.09
   5  -5 -14    0.07    0.12
   5  -5 -14    0.08    0.17
   4  -5 -14    5.88    0.45
   4  -5 -14    5.45    0.53
   4  -5 -14    5.48    0.44
   3  -5 -14    3.00    0.19
   3  -5 -14    3.20    0.33
   2  -5 -14    3.18    0.31
   2  -5 -14    2.32    0.35
   2  -5 -14    2.84    0.21
   1  -5 -14    3.69    0.39
   1  -5 -14    4.34    0.29
  -1   5  14    3.91    0.29
   0  -5 -14    1.69    0.18
   0   5  14    1.59    0.19
  -1  -5 -14   -0.06    0.10
   1   5  14    0.03    0.06
   7  -6 -14    8.43    0.64
   6  -6 -14    0.08    0.09
   6  -6 -14    0.10    0.15
   5  -6 -14    0.76    0.18
   5  -6 -14    0.91    0.17
   4  -6 -14   10.86    0.73
   4  -6 -14   11.61    0.85
   3  -6 -14    2.58    0.30
   3  -6 -14    3.19    0.31
   2  -6 -14    0.00    0.20
   2  -6 -14    0.06    0.19
   2  -6 -14    0.16    0.06
   1  -6 -14    7.56    0.50
   1  -6 -14    9.25    0.63
   5  -7 -14    0.58    0.09
   5  -7 -14    0.32    0.13
   4  -7 -14    0.49    0.14
   4  -7 -14    1.09    0.13
   4  -7 -14    0.85    0.09
   3  -7 -14    0.20    0.12
   3  -7 -14    0.18    0.08
   0   7 -15    0.07    0.08
   0   7 -15    0.00    0.05
   0  -7  15    0.05    0.08
   1  -7  15    4.04    0.33
   1  -7  15    3.31    0.23
   2  -7  15    0.53    0.11
   3   6 -15    0.65    0.12
   3   6 -15    0.52    0.10
   2   6 -15    7.04    0.50
   2   6 -15    6.71    0.49
   1   6 -15    4.48    0.35
   1   6 -15    3.49    0.24
   0   6 -15    4.01    0.28
   0  -6  15    3.69    0.28
  -1   6 -15    4.14    0.29
   1  -6  15    3.36    0.26
   2  -6  15    0.15    0.11
   2  -6  15    0.07    0.07
   2  -6  15    0.05    0.14
   3  -6  15    3.59    0.30
   3  -6  15    4.36    0.35
   4   5 -15    1.05    0.15
   4   5 -15    0.94    0.14
   3   5 -15    1.08    0.16
   3   5 -15    1.16    0.22
   3   5 -15    1.67    0.19
   2   5 -15    1.42    0.22
   2   5 -15    1.58    0.19
   2   5 -15    0.97    0.11
   1   5 -15    2.45    0.33
   1   5 -15    2.49    0.19
   0   5 -15    2.73    0.26
   0  -5  15    2.58    0.24
  -1   5 -15    0.25    0.13
   1  -5  15    0.35    0.13
   2  -5  15   11.87    0.76
   2  -5  15    9.13    0.62
   3  -5  15   -0.04    0.21
   3  -5  15    0.06    0.10
   4  -5  15    2.51    0.22
   5   4 -15    0.42    0.13
   5   4 -15    0.34    0.12
   4   4 -15    2.31    0.24
   4   4 -15    2.35    0.25
   4   4 -15    1.87    0.21
   3   4 -15    1.10    0.19
   3   4 -15    1.40    0.24
   3   4 -15    1.40    0.19
   2   4 -15    2.67    0.34
   2   4 -15    2.56    0.21
   1   4 -15    2.33    0.24
   0   4 -15    3.05    0.29
   0  -4  15    3.24    0.27
  -1   4 -15    0.65    0.15
   1  -4  15    0.55    0.15
   2  -4  15   -0.14    0.17
   2  -4  15    0.05    0.13
   3  -4  15    5.45    0.51
   3  -4  15    7.02    0.46
   4  -4  15   11.95    0.83
   4  -4  15   12.31    0.79
   6   3 -15    7.99    0.57
   6   3 -15    7.67    0.48
   5   3 -15    1.31    0.19
   5   3 -15    1.35    0.19
   4   3 -15   10.71    0.71
   4   3 -15   10.42    0.71
   4   3 -15    9.87    0.74
   3   3 -15    8.47    0.65
   3   3 -15    7.91    0.61
   3   3 -15    8.43    0.63
   2   3 -15    1.08    0.16
   2   3 -15    1.29    0.29
   1   3 -15   10.66    0.68
   0   3 -15   14.70    0.88
   0  -3  15   13.29    0.89
   1  -3  15    5.31    0.40
   2  -3  15    0.48    0.18
   2  -3  15    0.06    0.27
   2  -3  15    0.38    0.16
   3  -3  15    3.24    0.30
   3  -3  15    2.31    0.16
   4  -3  15    0.67    0.14
   4  -3  15    0.38    0.16
   4  -3  15    0.60    0.14
   6   2 -15    1.35    0.16
   6   2 -15    1.46    0.19
   6   2 -15    0.78    0.18
   5   2 -15    0.38    0.14
   5   2 -15   -0.04    0.13
   5   2 -15    0.16    0.18
   4   2 -15    4.49    0.40
   4   2 -15    5.12    0.43
   4   2 -15    4.42    0.38
   4   2 -15    5.33    0.45
   3   2 -15   15.16    0.94
   3   2 -15   15.34    0.98
   3   2 -15   12.78    0.84
   3   2 -15   14.10    1.07
   2   2 -15    0.30    0.15
   2   2 -15    0.19    0.19
   2   2 -15    0.34    0.26
   1   2 -15    4.55    0.33
   1   2 -15    4.35    0.43
   0   2 -15    0.24    0.18
   0  -2  15    0.23    0.23
   1  -2  15    1.36    0.23
   2  -2  15    3.04    0.35
   2  -2  15    2.68    0.25
   2  -2  15    3.03    0.36
   3  -2  15    0.09    0.19
   3  -2  15    0.04    0.05
   3  -2  15    0.22    0.22
   4  -2  15    0.35    0.13
   4  -2  15    0.43    0.13
   4  -2  15    0.59    0.19
   7   1 -15    0.12    0.15
   6   1 -15    2.26    0.21
   6   1 -15    1.80    0.21
   5   1 -15    2.32    0.27
   5   1 -15    1.89    0.22
   5   1 -15    2.07    0.23
   5   1 -15    1.69    0.15
   4   1 -15    0.52    0.19
   4   1 -15    0.59    0.19
   4   1 -15    0.61    0.22
   4   1 -15    0.98    0.20
   3   1 -15    9.31    0.64
   3   1 -15    8.48    0.70
   3   1 -15    8.26    0.66
   3   1 -15    9.04    0.54
   2   1 -15    0.32    0.26
   2   1 -15    0.06    0.20
   2   1 -15    0.33    0.15
   1   1 -15    0.05    0.17
   0   1 -15   10.74    0.65
   0  -1  15    9.12    0.66
   1  -1  15    2.75    0.28
   2  -1  15   -0.03    0.15
   2  -1  15    0.34    0.27
   3  -1  15   23.87    1.62
   3  -1  15   24.07    1.54
   4  -1  15    1.61    0.19
   4  -1  15    1.51    0.17
   7   0 -15    1.74    0.22
   7   0 -15    2.11    0.24
   6   0 -15    6.63    0.53
   6   0 -15    5.98    0.56
   5   0 -15    0.15    0.17
   5   0 -15   -0.19    0.18
   5   0 -15    0.16    0.10
   4   0 -15    2.24    0.27
   4   0 -15    2.14    0.29
   4   0 -15    2.40    0.30
   3   0 -15    9.41    0.71
   3   0 -15    8.91    0.67
   3   0 -15    9.66    0.59
   3   0 -15   10.61    0.80
   2   0 -15    0.59    0.27
   2   0 -15    0.83    0.17
   1   0 -15    2.38    0.26
   0   0 -15    1.69    0.19
   0   0  15    1.75    0.25
   1   0  15    0.64    0.20
   2   0  15    0.75    0.16
   2   0  15    0.47    0.27
   3   0  15    1.55    0.24
   3   0  15    1.89    0.23
   4   0  15    0.13    0.08
   4   0  15    0.14    0.14
   4   0  15    0.06    0.11
   8  -1 -15    0.31    0.11
   8  -1 -15    0.40    0.14
   7  -1 -15    4.67    0.43
   6  -1 -15    0.49    0.23
   6  -1 -15    0.64    0.17
   6  -1 -15    0.68    0.14
   5  -1 -15   12.92    0.92
   5  -1 -15   13.20    1.09
   5  -1 -15   16.38    1.12
   5  -1 -15   15.94    0.92
   4  -1 -15   14.22    0.98
   4  -1 -15   14.32    1.12
   4  -1 -15   15.60    0.95
   3  -1 -15    2.57    0.20
   3  -1 -15    3.57    0.39
   3  -1 -15    2.34    0.29
   3  -1 -15    2.93    0.37
   2  -1 -15    2.15    0.22
   2  -1 -15    2.19    0.32
   1  -1 -15    1.91    0.23
   0  -1 -15    3.21    0.26
   0   1  15    2.98    0.30
   1   1  15    0.50    0.18
   3   1  15    0.37    0.18
   3   1  15    0.08    0.17
   8  -2 -15    7.53    0.54
   8  -2 -15    6.59    0.55
   7  -2 -15   -0.03    0.13
   7  -2 -15    0.12    0.14
   6  -2 -15    3.83    0.45
   6  -2 -15    4.72    0.42
   6  -2 -15    4.63    0.33
   5  -2 -15    1.54    0.17
   5  -2 -15    1.73    0.22
   5  -2 -15    1.67    0.30
   5  -2 -15    1.58    0.28
   4  -2 -15    2.41    0.34
   4  -2 -15    2.04    0.27
   4  -2 -15    2.60    0.30
   4  -2 -15    2.06    0.27
   3  -2 -15    0.39    0.23
   3  -2 -15    0.81    0.22
   3  -2 -15    0.42    0.11
   2  -2 -15    2.55    0.33
   2  -2 -15    2.22    0.22
   1  -2 -15    4.77    0.36
   0  -2 -15    0.62    0.14
   0   2  15    1.04    0.20
   1   2  15    1.57    0.20
   2   2  15    0.31    0.15
   2   2  15    0.19    0.09
   3   2  15   -0.01    0.11
   3   2  15   -0.22    0.13
   8  -3 -15   -0.07    0.12
   7  -3 -15    0.48    0.13
   7  -3 -15    0.28    0.15
   6  -3 -15    1.14    0.15
   6  -3 -15    0.64    0.26
   6  -3 -15    1.83    0.23
   5  -3 -15   -0.04    0.24
   5  -3 -15    0.13    0.10
   5  -3 -15    0.29    0.22
   5  -3 -15    0.13    0.12
   4  -3 -15    2.67    0.37
   4  -3 -15    3.50    0.35
   4  -3 -15    3.04    0.37
   4  -3 -15    3.37    0.33
   3  -3 -15    1.96    0.26
   3  -3 -15    1.81    0.27
   3  -3 -15    1.80    0.15
   3  -3 -15    1.72    0.28
   2  -3 -15    0.27    0.24
   2  -3 -15    0.18    0.13
   1  -3 -15    2.23    0.20
   0  -3 -15    6.37    0.43
   0   3  15    6.02    0.43
  -1  -3 -15    0.73    0.12
   2   3  15    2.55    0.25
   2   3  15    2.94    0.26
   8  -4 -15    0.05    0.11
   7  -4 -15   12.80    0.95
   6  -4 -15    0.53    0.12
   6  -4 -15    0.49    0.13
   6  -4 -15    0.36    0.17
   5  -4 -15    8.64    0.70
   5  -4 -15    7.70    0.67
   5  -4 -15   10.03    0.58
   5  -4 -15    8.01    0.54
   4  -4 -15    6.00    0.45
   4  -4 -15    5.75    0.48
   4  -4 -15    6.27    0.46
   4  -4 -15    5.07    0.49
   3  -4 -15    0.70    0.22
   3  -4 -15    0.81    0.17
   3  -4 -15    0.77    0.17
   3  -4 -15    0.28    0.18
   3  -4 -15    0.61    0.08
   2  -4 -15    4.07    0.37
   2  -4 -15    3.82    0.36
   2  -4 -15    3.76    0.27
   0  -4 -15    0.04    0.13
   0   4  15    0.02    0.14
  -1  -4 -15    1.42    0.17
   1   4  15    1.96    0.14
   7  -5 -15    3.87    0.33
   6  -5 -15    1.35    0.21
   6  -5 -15    1.62    0.17
   5  -5 -15    2.48    0.29
   5  -5 -15    2.75    0.23
   4  -5 -15    1.59    0.24
   4  -5 -15    2.42    0.26
   4  -5 -15    2.21    0.21
   3  -5 -15    0.91    0.20
   3  -5 -15    0.96    0.22
   2  -5 -15    2.38    0.25
   2  -5 -15    1.69    0.14
   1  -5 -15    0.66    0.11
  -1   5  15    0.50    0.12
   0  -5 -15    0.48    0.08
   0   5  15    0.68    0.09
   6  -6 -15    0.00    0.07
   6  -6 -15    0.10    0.12
   5  -6 -15    0.15    0.14
   5  -6 -15    0.22    0.09
   4  -6 -15    0.45    0.15
   4  -6 -15    0.75    0.13
   4  -6 -15    1.05    0.13
   3  -6 -15    0.13    0.12
   3  -6 -15    0.14    0.11
   2  -6 -15    3.48    0.28
   2  -6 -15    3.26    0.29
   2   6 -16    0.18    0.10
   2   6 -16    0.01    0.13
   1   6 -16    0.02    0.05
   1   6 -16    0.02    0.13
   1   6 -16    0.14    0.10
  -1  -6  16    0.02    0.13
   0  -6  16    1.16    0.13
  -1   6 -16    0.05    0.09
   1  -6  16    0.20    0.07
   2  -6  16    0.00    0.08
   4   5 -16    0.04    0.14
   3   5 -16    0.10    0.16
   3   5 -16    0.02    0.13
   3   5 -16    0.18    0.12
   2   5 -16    0.08    0.15
   2   5 -16    0.20    0.12
   1   5 -16    1.52    0.27
   1   5 -16    1.17    0.14
   0   5 -16    2.78    0.22
   0  -5  16    2.80    0.26
  -1   5 -16    2.65    0.24
   1  -5  16    2.46    0.20
   2  -5  16    0.17    0.07
   2  -5  16    0.20    0.17
   3  -5  16    0.59    0.10
   3  -5  16    0.40    0.11
   5   4 -16    7.99    0.50
   5   4 -16    6.18    0.44
   4   4 -16    2.86    0.26
   4   4 -16    2.85    0.22
   4   4 -16    2.44    0.24
   3   4 -16    2.79    0.32
   3   4 -16    2.42    0.26
   3   4 -16    2.71    0.31
   2   4 -16    0.45    0.25
   1   4 -16    0.78    0.20
   1   4 -16    0.84    0.16
   0   4 -16    7.05    0.46
   0  -4  16    6.29    0.47
  -1   4 -16   10.62    0.66
   1  -4  16    9.91    0.65
   2  -4  16    4.19    0.29
   2  -4  16    4.72    0.42
   3  -4  16    1.65    0.20
   5   3 -16    0.72    0.17
   5   3 -16    0.47    0.11
   4   3 -16    0.15    0.12
   4   3 -16    0.42    0.20
   4   3 -16    0.48    0.14
   3   3 -16    1.08    0.24
   3   3 -16    1.15    0.17
   3   3 -16    0.61    0.23
   2   3 -16    3.86    0.28
   2   3 -16    4.28    0.44
   1   3 -16   -0.01    0.16
   0   3 -16   -0.02    0.13
   0  -3  16   -0.08    0.20
  -1   3 -16    0.99    0.16
   1  -3  16    1.24    0.21
   2  -3  16    0.08    0.14
   2  -3  16    0.04    0.11
   2  -3  16   -0.10    0.23
   3  -3  16    0.83    0.16
   6   2 -16    1.73    0.21
   6   2 -16    1.91    0.14
   6   2 -16    1.34    0.21
   5   2 -16    0.05    0.11
   5   2 -16   -0.05    0.15
   5   2 -16    0.12    0.15
   4   2 -16    4.65    0.36
   4   2 -16    4.34    0.36
   4   2 -16    4.26    0.42
   4   2 -16    4.29    0.36
   3   2 -16   12.05    0.89
   3   2 -16   12.56    0.80
   3   2 -16   10.50    0.81
   3   2 -16   11.76    0.82
   2   2 -16    0.08    0.19
   2   2 -16    0.30    0.25
   2   2 -16    0.40    0.14
   1   2 -16   15.08    0.85
   1   2 -16   12.46    1.04
   0   2 -16   -0.08    0.18
   0  -2  16    0.21    0.21
  -1   2 -16    0.72    0.20
   1  -2  16    1.47    0.21
   2  -2  16    1.67    0.17
   2  -2  16    1.83    0.24
   2  -2  16    1.52    0.28
   3  -2  16    3.37    0.33
   4  -2  16    5.94    0.44
   7   1 -16    1.77    0.21
   6   1 -16    0.22    0.10
   6   1 -16    0.38    0.13
   5   1 -16    0.79    0.17
   5   1 -16    0.76    0.14
   5   1 -16    0.54    0.17
   4   1 -16    0.04    0.17
   4   1 -16    0.17    0.11
   4   1 -16    0.25    0.15
   4   1 -16    0.15    0.21
   3   1 -16   10.39    0.79
   3   1 -16   11.87    0.78
   3   1 -16   12.01    0.81
   3   1 -16   11.67    0.89
   2   1 -16    4.33    0.45
   2   1 -16    5.41    0.42
   2   1 -16    4.30    0.32
   1   1 -16   10.34    0.66
   0   1 -16    0.78    0.20
   0  -1  16    1.16    0.22
  -1   1 -16    1.84    0.25
   1  -1  16    1.96    0.23
   2  -1  16    0.88    0.14
   2  -1  16    1.25    0.27
   2  -1  16    0.98    0.21
   3  -1  16   11.37    0.79
   3  -1  16   12.72    0.84
   7   0 -16    0.39    0.12
   6   0 -16    1.41    0.21
   6   0 -16    1.45    0.18
   5   0 -16    4.74    0.33
   5   0 -16    4.01    0.40
   4   0 -16   10.13    0.70
   4   0 -16   10.58    0.69
   4   0 -16    9.52    0.79
   3   0 -16    0.73    0.24
   3   0 -16    0.69    0.10
   3   0 -16    1.18    0.25
   3   0 -16    0.70    0.22
   2   0 -16    3.04    0.26
   2   0 -16    2.55    0.32
   1   0 -16    1.37    0.20
   0   0 -16    1.32    0.21
   0   0  16    1.37    0.23
  -1   0 -16    1.50    0.22
   1   0  16    1.59    0.17
   2   0  16    2.09    0.18
   2   0  16    2.72    0.27
   3   0  16    0.14    0.11
   3   0  16    0.03    0.12
   7  -1 -16    0.66    0.14
   7  -1 -16    0.38    0.13
   6  -1 -16    3.59    0.32
   6  -1 -16    2.39    0.28
   6  -1 -16    3.47    0.26
   5  -1 -16    3.85    0.40
   5  -1 -16    3.44    0.24
   4  -1 -16    3.34    0.34
   4  -1 -16    2.97    0.34
   4  -1 -16    3.58    0.35
   3  -1 -16    0.20    0.21
   3  -1 -16    0.57    0.22
   3  -1 -16    0.50    0.09
   3  -1 -16    0.82    0.24
   2  -1 -16    0.77    0.27
   2  -1 -16    0.66    0.15
   1  -1 -16    0.18    0.16
   0  -1 -16    0.93    0.19
   0   1  16    1.13    0.17
  -1  -1 -16   -0.08    0.11
   1   1  16    0.12    0.11
   2   1  16    3.36    0.30
   2   1  16    2.80    0.21
   2   1  16    3.44    0.29
   3   1  16    0.26    0.09
   3   1  16    0.19    0.12
   7  -2 -16   -0.01    0.11
   7  -2 -16   -0.18    0.15
   6  -2 -16   -0.07    0.13
   6  -2 -16    0.08    0.12
   6  -2 -16    0.08    0.14
   5  -2 -16    3.24    0.36
   5  -2 -16    2.65    0.20
   5  -2 -16    3.49    0.34
   4  -2 -16    0.05    0.15
   4  -2 -16    0.09    0.16
   4  -2 -16    0.19    0.19
   3  -2 -16   -0.02    0.20
   3  -2 -16    0.13    0.07
   3  -2 -16    0.07    0.22
   3  -2 -16    0.08    0.20
   2  -2 -16    7.88    0.52
   2  -2 -16    8.73    0.61
   1  -2 -16    0.18    0.15
   0  -2 -16    4.89    0.34
   0   2  16    5.06    0.37
  -1  -2 -16    2.16    0.22
   1   2  16    2.13    0.20
   2   2  16    1.28    0.17
   2   2  16    0.78    0.19
   7  -3 -16    0.33    0.14
   7  -3 -16    0.25    0.12
   6  -3 -16    4.38    0.28
   6  -3 -16    3.72    0.34
   6  -3 -16    3.16    0.34
   5  -3 -16    9.08    0.67
   5  -3 -16    7.61    0.67
   4  -3 -16    0.80    0.21
   4  -3 -16    0.63    0.16
   4  -3 -16    0.84    0.16
   4  -3 -16    0.65    0.17
   3  -3 -16    0.88    0.22
   3  -3 -16    1.29    0.24
   3  -3 -16    0.96    0.22
   2  -3 -16    0.00    0.11
   2  -3 -16    0.13    0.17
   1  -3 -16    5.28    0.36
   0  -3 -16    9.85    0.61
   1   3  16    0.88    0.12
   7  -4 -16    0.78    0.14
   6  -4 -16    5.10    0.32
   6  -4 -16    4.52    0.40
   5  -4 -16   -0.03    0.20
   5  -4 -16    0.05    0.14
   5  -4 -16    0.11    0.11
   4  -4 -16    0.29    0.18
   4  -4 -16    0.15    0.19
   4  -4 -16    0.25    0.12
   4  -4 -16    0.39    0.15
   3  -4 -16    1.85    0.25
   3  -4 -16    1.64    0.20
   2  -4 -16    0.00    0.08
   2  -4 -16    0.26    0.16
   1  -4 -16    1.35    0.14
  -1   4  16    0.83    0.13
   0   4  16    4.18    0.28
   6  -5 -16    0.22    0.07
   6  -5 -16   -0.06    0.16
   5  -5 -16    0.77    0.15
   5  -5 -16    0.63    0.14
   4  -5 -16    0.84    0.17
   4  -5 -16    0.74    0.15
   4  -5 -16    0.88    0.14
   3  -5 -16   -0.01    0.10
   3  -5 -16    0.18    0.17
   2  -5 -16    9.38    0.64
   1  -5 -16    3.69    0.24
  -1   5  16    3.98    0.25
   3   5 -17    0.34    0.07
   3   5 -17    0.26    0.09
   2   5 -17    1.12    0.20
   2   5 -17    1.35    0.17
   1   5 -17    0.11    0.10
   1   5 -17    0.09    0.14
  -1  -5  17   -0.12    0.11
   0   5 -17    3.69    0.24
   0  -5  17    2.71    0.25
  -1   5 -17    0.46    0.13
   1  -5  17    0.61    0.11
   2  -5  17    0.12    0.07
   4   4 -17    0.05    0.10
   4   4 -17    0.15    0.09
   3   4 -17    2.10    0.25
   3   4 -17    1.75    0.21
   3   4 -17    1.29    0.18
   2   4 -17    0.22    0.22
   2   4 -17    0.32    0.12
   1   4 -17    4.36    0.28
   0   4 -17    0.66    0.15
   0  -4  17    0.67    0.14
  -1   4 -17    2.25    0.22
   1  -4  17    2.44    0.19
   2  -4  17    4.70    0.28
   2  -4  17    4.70    0.39
   5   3 -17    1.49    0.15
   5   3 -17    1.79    0.17
   4   3 -17    0.29    0.18
   4   3 -17    0.61    0.16
   4   3 -17    0.67    0.10
   3   3 -17    0.16    0.14
   3   3 -17    0.16    0.16
   3   3 -17    0.17    0.21
   2   3 -17   19.64    1.17
   2   3 -17   15.76    1.03
   1   3 -17    1.24    0.22
   1   3 -17    1.63    0.18
   0   3 -17    1.66    0.17
   0  -3  17    1.50    0.22
  -1   3 -17    2.65    0.21
   1  -3  17    2.38    0.23
   2  -3  17    1.12    0.11
   2  -3  17    0.89    0.23
   3  -3  17    1.51    0.17
   5   2 -17    0.42    0.11
   5   2 -17    0.26    0.14
   5   2 -17    0.51    0.11
   4   2 -17   -0.06    0.12
   4   2 -17    0.06    0.19
   4   2 -17    0.14    0.14
   4   2 -17    0.05    0.11
   3   2 -17    7.70    0.55
   3   2 -17    7.45    0.52
   3   2 -17    7.87    0.55
   3   2 -17    6.24    0.59
   2   2 -17    1.15    0.22
   2   2 -17    1.31    0.14
   2   2 -17    1.77    0.23
   1   2 -17    0.16    0.15
   1   2 -17    0.12    0.16
   0   2 -17    0.40    0.17
   0   2 -17    0.63    0.17
   0  -2  17    0.56    0.20
  -1   2 -17    2.10    0.19
   1  -2  17    2.19    0.22
   1  -2  17    1.94    0.21
   2  -2  17    0.03    0.15
   2  -2  17   -0.07    0.10
   2  -2  17    0.06    0.07
   3  -2  17    0.20    0.12
   3  -2  17    0.28    0.10
   6   1 -17    5.44    0.47
   6   1 -17    6.46    0.38
   5   1 -17    0.06    0.12
   5   1 -17    0.09    0.16
   4   1 -17    0.55    0.16
   4   1 -17    0.77    0.21
   4   1 -17    0.45    0.16
   3   1 -17    3.03    0.36
   3   1 -17    2.93    0.36
   3   1 -17    3.96    0.37
   2   1 -17    0.51    0.21
   2   1 -17    1.30    0.28
   2   1 -17    1.06    0.14
   1   1 -17   -0.05    0.16
   0   1 -17    0.63    0.13
   0  -1  17    0.61    0.15
  -1   1 -17    0.05    0.16
   1  -1  17    0.09    0.15
   2  -1  17    0.24    0.15
   2  -1  17    0.21    0.09
   2  -1  17    0.28    0.12
   3  -1  17   11.26    0.77
   6   0 -17    0.38    0.13
   6   0 -17    0.32    0.09
   5   0 -17    0.30    0.14
   5   0 -17    0.05    0.17
   4   0 -17    4.94    0.39
   4   0 -17    4.96    0.38
   4   0 -17    5.08    0.44
   3   0 -17    0.73    0.21
   3   0 -17    0.69    0.23
   3   0 -17    0.84    0.24
   2   0 -17    5.86    0.52
   2   0 -17    7.15    0.50
   2   0 -17    6.15    0.41
   1   0 -17    0.29    0.15
   0   0 -17   -0.13    0.11
   0   0  17    0.26    0.13
  -1   0 -17    1.36    0.15
   1   0  17    1.15    0.14
   2   0  17    2.45    0.16
   7  -1 -17    1.89    0.19
   6  -1 -17    3.35    0.26
   6  -1 -17    4.33    0.35
   5  -1 -17    0.28    0.15
   5  -1 -17    0.13    0.17
   4  -1 -17    0.56    0.15
   4  -1 -17    0.75    0.18
   4  -1 -17    0.25    0.19
   3  -1 -17   24.12    1.71
   3  -1 -17   22.13    1.42
   3  -1 -17   23.46    1.51
   2  -1 -17   22.77    1.48
   0  -1 -17    1.89    0.20
   0   1  17    1.42    0.17
  -1  -1 -17    3.45    0.25
   2   1  17    1.71    0.22
   7  -2 -17    1.22    0.15
   6  -2 -17    6.56    0.50
   6  -2 -17    5.79    0.40
   5  -2 -17    0.05    0.13
   5  -2 -17    0.03    0.10
   4  -2 -17    3.31    0.27
   4  -2 -17    2.56    0.30
   4  -2 -17    3.04    0.29
   3  -2 -17    3.22    0.29
   3  -2 -17    2.80    0.27
   3  -2 -17    2.65    0.30
   2  -2 -17    0.04    0.10
   2  -2 -17    0.03    0.22
   1  -2 -17    5.04    0.34
   0  -2 -17    4.90    0.31
   0   2  17    4.00    0.32
  -1  -2 -17    0.12    0.09
   1   2  17    0.05    0.09
   6  -3 -17    0.45    0.12
   6  -3 -17    0.52    0.12
   6  -3 -17    0.68    0.13
   5  -3 -17    0.10    0.12
   5  -3 -17    0.06    0.10
   4  -3 -17   -0.08    0.16
   4  -3 -17    0.06    0.17
   4  -3 -17    0.02    0.12
   3  -3 -17    0.33    0.18
   3  -3 -17    0.93    0.16
   2  -3 -17    0.45    0.15
   2  -3 -17    0.23    0.09
   1  -3 -17    1.47    0.13
  -1   3  17    1.67    0.16
   0  -3 -17    0.43    0.09
   0   3  17    0.39    0.09
   6  -4 -17   11.46    0.65
   6  -4 -17    9.88    0.78
   5  -4 -17    1.51    0.18
   5  -4 -17    0.89    0.18
   4  -4 -17    0.73    0.17
   4  -4 -17    1.16    0.16
   4  -4 -17    1.27    0.15
   3  -4 -17    6.54    0.44
   3  -4 -17    6.05    0.50
   2  -4 -17   -0.01    0.12
   2  -4 -17    0.18    0.13
   1  -4 -17    2.59    0.23
   1  -4 -17    2.13    0.15
   5  -5 -17    0.58    0.08
   4  -5 -17    3.65    0.26
   3  -5 -17    0.94    0.12
   3   4 -18    2.53    0.19
   3   4 -18    1.72    0.19
   2   4 -18   10.07    0.69
   1   4 -18    0.85    0.09
   1   4 -18    0.71    0.17
  -1  -4  18    1.12    0.13
   0   4 -18    3.05    0.22
  -1   4 -18    0.41    0.09
   1  -4  18    0.22    0.09
   4   3 -18    0.31    0.11
   4   3 -18    0.38    0.08
   3   3 -18    1.30    0.16
   3   3 -18    1.01    0.16
   3   3 -18    1.30    0.17
   2   3 -18    2.71    0.28
   2   3 -18    3.20    0.34
   1   3 -18    6.39    0.49
   1   3 -18    5.68    0.37
   0   3 -18    4.71    0.31
   0  -3  18    4.33    0.31
   1  -3  18    2.73    0.20
   5   2 -18    0.07    0.07
   4   2 -18    3.35    0.26
   4   2 -18    3.72    0.28
   3   2 -18    6.02    0.46
   3   2 -18    6.32    0.51
   3   2 -18    7.20    0.46
   2   2 -18    0.08    0.07
   2   2 -18   -0.08    0.22
   2   2 -18    0.05    0.08
   2   2 -18    0.00    0.14
   1   2 -18    6.75    0.44
   1   2 -18    7.81    0.56
   1   2 -18    6.57    0.54
   0   2 -18    0.35    0.11
   0  -2  18    0.38    0.12
  -1   2 -18    0.06    0.09
   1  -2  18    0.16    0.13
   1  -2  18    0.22    0.08
   2  -2  18    0.39    0.12
   5   1 -18    0.46    0.14
   5   1 -18    0.31    0.12
   4   1 -18    2.85    0.25
   4   1 -18    2.75    0.23
   4   1 -18    2.23    0.29
   3   1 -18    0.40    0.19
   3   1 -18    0.31    0.15
   3   1 -18    0.73    0.15
   2   1 -18    0.18    0.08
   2   1 -18   -0.01    0.17
   2   1 -18    0.12    0.22
   1   1 -18    0.24    0.13
   1   1 -18    0.27    0.12
   1   1 -18    0.16    0.24
   0   1 -18    0.01    0.14
   0   1 -18    0.03    0.10
   0  -1  18    0.04    0.16
   1  -1  18    1.23    0.16
   1  -1  18    0.97    0.11
   2  -1  18    0.04    0.08
   2  -1  18    0.02    0.11
   6   0 -18    0.36    0.05
   6   0 -18    0.33    0.14
   5   0 -18    2.73    0.25
   5   0 -18    1.99    0.20
   4   0 -18    2.61    0.34
   4   0 -18    3.85    0.28
   4   0 -18    3.08    0.26
   3   0 -18    3.38    0.32
   3   0 -18    2.51    0.33
   3   0 -18    3.35    0.33
   2   0 -18    1.15    0.11
   2   0 -18    1.08    0.18
   2   0 -18    1.06    0.26
   1   0 -18    1.56    0.17
   1   0 -18    1.38    0.26
   1   0 -18    1.50    0.20
   0   0 -18    0.57    0.11
   0   0  18    0.64    0.13
  -1   0 -18    3.34    0.24
   1   0  18    3.93    0.29
   1   0  18    3.18    0.23
   6  -1 -18    0.01    0.06
   6  -1 -18   -0.02    0.13
   5  -1 -18    2.77    0.22
   5  -1 -18    2.58    0.27
   4  -1 -18    5.57    0.53
   4  -1 -18    6.89    0.44
   3  -1 -18    3.25    0.32
   3  -1 -18    2.40    0.30
   3  -1 -18    2.34    0.31
   2  -1 -18    0.66    0.21
   2  -1 -18    0.57    0.15
   2  -1 -18    0.95    0.10
   1  -1 -18    0.25    0.15
   1  -1 -18    0.21    0.08
   0  -1 -18    0.10    0.08
   0   1  18    0.16    0.10
  -1  -1 -18    0.66    0.10
   1   1  18    1.36    0.15
   1   1  18    0.97    0.10
   6  -2 -18    0.28    0.14
   6  -2 -18    0.27    0.07
   5  -2 -18    3.64    0.35
   4  -2 -18    0.01    0.12
   4  -2 -18   -0.04    0.10
   4  -2 -18   -0.08    0.16
   3  -2 -18    1.31    0.18
   3  -2 -18    1.04    0.15
   2  -2 -18    1.95    0.14
   2  -2 -18    2.36    0.24
   1  -2 -18    1.01    0.12
   1  -2 -18    1.00    0.21
  -1   2  18    0.64    0.16
   0  -2 -18    0.77    0.10
   0   2  18    1.12    0.11
   5  -3 -18    0.11    0.08
   5  -3 -18   -0.04    0.14
   4  -3 -18    1.90    0.25
   4  -3 -18    2.39    0.19
   3  -3 -18    0.95    0.17
   2  -3 -18    0.71    0.13
   2  -3 -18    1.00    0.15
   1  -3 -18    3.41    0.21
   1  -3 -18    3.41    0.28
  -1   3  18    2.85    0.22
   5  -4 -18    1.66    0.14
   4  -4 -18    0.09    0.09
   3  -4 -18    0.45    0.10
   2  -4 -18    0.92    0.12
   3   3 -19    1.00    0.13
   2   3 -19    2.23    0.21
   1   3 -19    0.25    0.13
  -1  -3  19    0.05    0.09
   0   3 -19    0.28    0.06
   0  -3  19    0.30    0.08
   4   2 -19    0.50    0.11
   3   2 -19    4.82    0.36
   2   2 -19    0.06    0.13
   1   2 -19    2.85    0.18
  -1  -2  19    2.13    0.23
   0   2 -19    0.08    0.10
   0  -2  19    0.14    0.09
   4   1 -19    1.52    0.20
   3   1 -19    0.25    0.18
   3   1 -19    0.17    0.11
   3   1 -19    0.32    0.11
   2   1 -19    4.96    0.47
   2   1 -19    6.85    0.43
   1   1 -19    4.78    0.35
   1   1 -19    3.69    0.27
   1   1 -19    5.05    0.36
  -1  -1  19    4.15    0.30
   0   1 -19    1.07    0.16
   0   1 -19    1.01    0.11
   0  -1  19    1.13    0.12
   0  -1  19    1.29    0.14
   5   0 -19    1.49    0.17
   5   0 -19    1.51    0.17
   4   0 -19    0.80    0.17
   3   0 -19    0.04    0.15
   3   0 -19    0.15    0.13
   3   0 -19   -0.10    0.15
   2   0 -19    0.04    0.13
   2   0 -19    0.16    0.11
   1   0 -19    1.68    0.24
   1   0 -19    2.41    0.25
   1   0 -19    2.41    0.16
  -1   0  19    2.36    0.19
   0   0 -19    0.22    0.07
   0   0 -19    0.26    0.09
   0   0  19    0.15    0.12
   5  -1 -19    0.80    0.13
   5  -1 -19    0.45    0.09
   4  -1 -19    0.46    0.16
   4  -1 -19    0.50    0.12
   3  -1 -19    2.89    0.27
   2  -1 -19    4.85    0.40
   1  -1 -19    1.36    0.12
   1  -1 -19    1.70    0.20
  -1   1  19    1.46    0.14
   0  -1 -19    1.37    0.12
   0  -1 -19    1.54    0.16
   0   1  19    1.25    0.11
   5  -2 -19    3.67    0.36
   5  -2 -19    4.96    0.29
   4  -2 -19    0.00    0.09
   4  -2 -19    0.02    0.10
   3  -2 -19    1.59    0.20
   1  -2 -19    0.20    0.12
   3  -3 -19    0.05    0.10
   2   1 -20   -0.05    0.13
   3   0 -20    2.69    0.24
   3   0 -20    2.84    0.21
   2   0 -20    3.45    0.29
   0   0   0    0.00    0.00
;
_shelx_hkl_checksum    4923

